MODEL 1
REMARK VINA RESULT:    -4.039      0.000      0.000
REMARK INTER + INTRA:          -8.347
REMARK INTER:                  -6.872
REMARK INTRA:                  -1.475
REMARK UNBOUND:                -1.475
REMARK SMILES CCCCCCCCCCCCCC(=O)[O-]
REMARK SMILES IDX 8 1 9 2 10 3 11 4 12 5 13 6 14 7 15 8 16 9 7 10 6 11 5 12
REMARK SMILES IDX 4 13 3 14 2 15 1 16
REMARK H PARENT
REMARK Flexibility Score: inf
ROOT
ATOM      1  C   UNL     1      -7.008  16.636  -8.813  1.00  0.00     0.000 C 
ENDROOT
BRANCH   1   2
ATOM      2  C   UNL     1      -5.849  16.986  -9.765  1.00  0.00     0.000 C 
BRANCH   2   3
ATOM      3  C   UNL     1      -6.184  18.045 -10.832  1.00  0.00     0.000 C 
BRANCH   3   4
ATOM      4  C   UNL     1      -7.524  18.754 -10.571  1.00  0.00     0.000 C 
BRANCH   4   5
ATOM      5  C   UNL     1      -8.554  18.511 -11.692  1.00  0.00     0.006 C 
BRANCH   5   6
ATOM      6  C   UNL     1     -10.015  18.590 -11.217  1.00  0.00     0.053 C 
BRANCH   6   7
ATOM      7  C   UNL     1     -10.699  17.258 -11.231  1.00  0.00     0.041 C 
ATOM      8  O   UNL     1     -10.296  16.330 -10.480  1.00  0.00    -0.550 OA
ATOM      9  O   UNL     1     -11.782  17.041 -12.072  1.00  0.00    -0.550 OA
ENDBRANCH   6   7
ENDBRANCH   5   6
ENDBRANCH   4   5
ENDBRANCH   3   4
ENDBRANCH   2   3
ENDBRANCH   1   2
BRANCH   1  10
ATOM     10  C   UNL     1      -6.691  16.943  -7.341  1.00  0.00     0.000 C 
BRANCH  10  11
ATOM     11  C   UNL     1      -5.327  16.364  -6.939  1.00  0.00    -0.000 C 
BRANCH  11  12
ATOM     12  C   UNL     1      -4.611  17.212  -5.876  1.00  0.00    -0.000 C 
BRANCH  12  13
ATOM     13  C   UNL     1      -3.974  18.483  -6.466  1.00  0.00    -0.000 C 
BRANCH  13  14
ATOM     14  C   UNL     1      -4.593  19.777  -5.908  1.00  0.00    -0.000 C 
BRANCH  14  15
ATOM     15  C   UNL     1      -5.599  20.473  -6.843  1.00  0.00    -0.003 C 
ATOM     16  C   UNL     1      -5.127  20.526  -8.296  1.00  0.00     0.004 C 
ENDBRANCH  14  15
ENDBRANCH  13  14
ENDBRANCH  12  13
ENDBRANCH  11  12
ENDBRANCH  10  11
ENDBRANCH   1  10
TORSDOF 12
ENDMDL
MODEL 2
REMARK VINA RESULT:    -3.901      3.295      7.030
REMARK INTER + INTRA:          -8.113
REMARK INTER:                  -6.757
REMARK INTRA:                  -1.356
REMARK UNBOUND:                -1.475
REMARK SMILES CCCCCCCCCCCCCC(=O)[O-]
REMARK SMILES IDX 8 1 9 2 10 3 11 4 12 5 13 6 14 7 15 8 16 9 7 10 6 11 5 12
REMARK SMILES IDX 4 13 3 14 2 15 1 16
REMARK H PARENT
REMARK Flexibility Score: inf
ROOT
ATOM      1  C   UNL     1      -7.856  19.027 -11.949  1.00  0.00     0.000 C 
ENDROOT
BRANCH   1   2
ATOM      2  C   UNL     1      -7.470  19.063 -10.459  1.00  0.00     0.000 C 
BRANCH   2   3
ATOM      3  C   UNL     1      -6.366  18.069 -10.050  1.00  0.00     0.000 C 
BRANCH   3   4
ATOM      4  C   UNL     1      -6.926  16.773  -9.439  1.00  0.00     0.000 C 
BRANCH   4   5
ATOM      5  C   UNL     1      -6.630  16.649  -7.932  1.00  0.00     0.006 C 
BRANCH   5   6
ATOM      6  C   UNL     1      -5.130  16.573  -7.600  1.00  0.00     0.053 C 
BRANCH   6   7
ATOM      7  C   UNL     1      -4.750  17.446  -6.444  1.00  0.00     0.041 C 
ATOM      8  O   UNL     1      -4.551  16.942  -5.307  1.00  0.00    -0.550 OA
ATOM      9  O   UNL     1      -4.616  18.817  -6.623  1.00  0.00    -0.550 OA
ENDBRANCH   6   7
ENDBRANCH   5   6
ENDBRANCH   4   5
ENDBRANCH   3   4
ENDBRANCH   2   3
ENDBRANCH   1   2
BRANCH   1  10
ATOM     10  C   UNL     1      -8.999  19.992 -12.298  1.00  0.00     0.000 C 
BRANCH  10  11
ATOM     11  C   UNL     1      -9.975  20.136 -11.121  1.00  0.00    -0.000 C 
BRANCH  11  12
ATOM     12  C   UNL     1     -11.442  19.941 -11.538  1.00  0.00    -0.000 C 
BRANCH  12  13
ATOM     13  C   UNL     1     -11.591  19.010 -12.754  1.00  0.00    -0.000 C 
BRANCH  13  14
ATOM     14  C   UNL     1     -11.936  17.561 -12.360  1.00  0.00    -0.000 C 
BRANCH  14  15
ATOM     15  C   UNL     1     -10.723  16.629 -12.185  1.00  0.00    -0.003 C 
ATOM     16  C   UNL     1     -10.299  16.466 -10.726  1.00  0.00     0.004 C 
ENDBRANCH  14  15
ENDBRANCH  13  14
ENDBRANCH  12  13
ENDBRANCH  11  12
ENDBRANCH  10  11
ENDBRANCH   1  10
TORSDOF 12
ENDMDL
MODEL 3
REMARK VINA RESULT:    -3.878      0.901      2.785
REMARK INTER + INTRA:          -8.073
REMARK INTER:                  -6.162
REMARK INTRA:                  -1.911
REMARK UNBOUND:                -1.475
REMARK SMILES CCCCCCCCCCCCCC(=O)[O-]
REMARK SMILES IDX 8 1 9 2 10 3 11 4 12 5 13 6 14 7 15 8 16 9 7 10 6 11 5 12
REMARK SMILES IDX 4 13 3 14 2 15 1 16
REMARK H PARENT
REMARK Flexibility Score: inf
ROOT
ATOM      1  C   UNL     1      -5.743  20.441  -9.084  1.00  0.00     0.000 C 
ENDROOT
BRANCH   1   2
ATOM      2  C   UNL     1      -7.201  20.347  -8.598  1.00  0.00     0.000 C 
BRANCH   2   3
ATOM      3  C   UNL     1      -8.245  20.156  -9.714  1.00  0.00     0.000 C 
BRANCH   3   4
ATOM      4  C   UNL     1      -7.621  19.710 -11.048  1.00  0.00     0.000 C 
BRANCH   4   5
ATOM      5  C   UNL     1      -8.418  18.582 -11.731  1.00  0.00     0.006 C 
BRANCH   5   6
ATOM      6  C   UNL     1      -9.943  18.774 -11.664  1.00  0.00     0.053 C 
BRANCH   6   7
ATOM      7  C   UNL     1     -10.674  17.492 -11.414  1.00  0.00     0.041 C 
ATOM      8  O   UNL     1     -10.145  16.585 -10.717  1.00  0.00    -0.550 OA
ATOM      9  O   UNL     1     -11.941  17.298 -11.949  1.00  0.00    -0.550 OA
ENDBRANCH   6   7
ENDBRANCH   5   6
ENDBRANCH   4   5
ENDBRANCH   3   4
ENDBRANCH   2   3
ENDBRANCH   1   2
BRANCH   1  10
ATOM     10  C   UNL     1      -4.718  20.183  -7.968  1.00  0.00     0.000 C 
BRANCH  10  11
ATOM     11  C   UNL     1      -5.318  19.298  -6.865  1.00  0.00    -0.000 C 
BRANCH  11  12
ATOM     12  C   UNL     1      -4.450  18.067  -6.553  1.00  0.00    -0.000 C 
BRANCH  12  13
ATOM     13  C   UNL     1      -5.121  16.750  -6.977  1.00  0.00    -0.000 C 
BRANCH  13  14
ATOM     14  C   UNL     1      -6.606  16.925  -7.345  1.00  0.00    -0.000 C 
BRANCH  14  15
ATOM     15  C   UNL     1      -6.958  16.590  -8.806  1.00  0.00    -0.003 C 
ATOM     16  C   UNL     1      -5.750  16.646  -9.741  1.00  0.00     0.004 C 
ENDBRANCH  14  15
ENDBRANCH  13  14
ENDBRANCH  12  13
ENDBRANCH  11  12
ENDBRANCH  10  11
ENDBRANCH   1  10
TORSDOF 12
ENDMDL
MODEL 4
REMARK VINA RESULT:    -3.807      1.242      1.858
REMARK INTER + INTRA:          -7.952
REMARK INTER:                  -6.306
REMARK INTRA:                  -1.647
REMARK UNBOUND:                -1.475
REMARK SMILES CCCCCCCCCCCCCC(=O)[O-]
REMARK SMILES IDX 8 1 9 2 10 3 11 4 12 5 13 6 14 7 15 8 16 9 7 10 6 11 5 12
REMARK SMILES IDX 4 13 3 14 2 15 1 16
REMARK H PARENT
REMARK Flexibility Score: inf
ROOT
ATOM      1  C   UNL     1      -6.531  16.685  -7.276  1.00  0.00     0.000 C 
ENDROOT
BRANCH   1   2
ATOM      2  C   UNL     1      -6.985  16.600  -8.744  1.00  0.00     0.000 C 
BRANCH   2   3
ATOM      3  C   UNL     1      -6.041  17.277  -9.756  1.00  0.00     0.000 C 
BRANCH   3   4
ATOM      4  C   UNL     1      -6.792  18.112 -10.808  1.00  0.00     0.000 C 
BRANCH   4   5
ATOM      5  C   UNL     1      -8.323  17.975 -10.695  1.00  0.00     0.006 C 
BRANCH   5   6
ATOM      6  C   UNL     1      -9.098  19.142 -11.329  1.00  0.00     0.053 C 
BRANCH   6   7
ATOM      7  C   UNL     1     -10.576  19.038 -11.114  1.00  0.00     0.041 C 
ATOM      8  O   UNL     1     -11.256  20.070 -10.872  1.00  0.00    -0.550 OA
ATOM      9  O   UNL     1     -11.202  17.800 -11.180  1.00  0.00    -0.550 OA
ENDBRANCH   6   7
ENDBRANCH   5   6
ENDBRANCH   4   5
ENDBRANCH   3   4
ENDBRANCH   2   3
ENDBRANCH   1   2
BRANCH   1  10
ATOM     10  C   UNL     1      -5.004  16.620  -7.113  1.00  0.00     0.000 C 
BRANCH  10  11
ATOM     11  C   UNL     1      -4.512  17.678  -6.114  1.00  0.00    -0.000 C 
BRANCH  11  12
ATOM     12  C   UNL     1      -4.094  18.991  -6.797  1.00  0.00    -0.000 C 
BRANCH  12  13
ATOM     13  C   UNL     1      -4.494  20.233  -5.982  1.00  0.00    -0.000 C 
BRANCH  13  14
ATOM     14  C   UNL     1      -5.785  20.896  -6.495  1.00  0.00    -0.000 C 
BRANCH  14  15
ATOM     15  C   UNL     1      -6.176  20.529  -7.938  1.00  0.00    -0.003 C 
ATOM     16  C   UNL     1      -7.665  20.720  -8.222  1.00  0.00     0.004 C 
ENDBRANCH  14  15
ENDBRANCH  13  14
ENDBRANCH  12  13
ENDBRANCH  11  12
ENDBRANCH  10  11
ENDBRANCH   1  10
TORSDOF 12
ENDMDL
MODEL 5
REMARK VINA RESULT:    -3.692      2.626      6.229
REMARK INTER + INTRA:          -7.757
REMARK INTER:                  -6.298
REMARK INTRA:                  -1.459
REMARK UNBOUND:                -1.475
REMARK SMILES CCCCCCCCCCCCCC(=O)[O-]
REMARK SMILES IDX 8 1 9 2 10 3 11 4 12 5 13 6 14 7 15 8 16 9 7 10 6 11 5 12
REMARK SMILES IDX 4 13 3 14 2 15 1 16
REMARK H PARENT
REMARK Flexibility Score: inf
ROOT
ATOM      1  C   UNL     1      -7.484  17.517 -10.123  1.00  0.00     0.000 C 
ENDROOT
BRANCH   1   2
ATOM      2  C   UNL     1      -6.394  16.776  -9.326  1.00  0.00     0.000 C 
BRANCH   2   3
ATOM      3  C   UNL     1      -6.727  16.536  -7.841  1.00  0.00     0.000 C 
BRANCH   3   4
ATOM      4  C   UNL     1      -5.490  16.619  -6.930  1.00  0.00     0.000 C 
BRANCH   4   5
ATOM      5  C   UNL     1      -4.547  17.777  -7.311  1.00  0.00     0.006 C 
BRANCH   5   6
ATOM      6  C   UNL     1      -4.966  19.135  -6.722  1.00  0.00     0.053 C 
BRANCH   6   7
ATOM      7  C   UNL     1      -5.616  20.026  -7.735  1.00  0.00     0.041 C 
ATOM      8  O   UNL     1      -5.050  20.254  -8.836  1.00  0.00    -0.550 OA
ATOM      9  O   UNL     1      -6.849  20.605  -7.461  1.00  0.00    -0.550 OA
ENDBRANCH   6   7
ENDBRANCH   5   6
ENDBRANCH   4   5
ENDBRANCH   3   4
ENDBRANCH   2   3
ENDBRANCH   1   2
BRANCH   1  10
ATOM     10  C   UNL     1      -6.911  18.470 -11.183  1.00  0.00     0.000 C 
BRANCH  10  11
ATOM     11  C   UNL     1      -7.978  19.466 -11.660  1.00  0.00    -0.000 C 
BRANCH  11  12
ATOM     12  C   UNL     1      -8.721  20.144 -10.497  1.00  0.00    -0.000 C 
BRANCH  12  13
ATOM     13  C   UNL     1     -10.248  19.994 -10.605  1.00  0.00    -0.000 C 
BRANCH  13  14
ATOM     14  C   UNL     1     -10.679  19.064 -11.754  1.00  0.00    -0.000 C 
BRANCH  14  15
ATOM     15  C   UNL     1     -11.225  17.694 -11.313  1.00  0.00    -0.003 C 
ATOM     16  C   UNL     1     -10.577  16.525 -12.053  1.00  0.00     0.004 C 
ENDBRANCH  14  15
ENDBRANCH  13  14
ENDBRANCH  12  13
ENDBRANCH  11  12
ENDBRANCH  10  11
ENDBRANCH   1  10
TORSDOF 12
ENDMDL
MODEL 6
REMARK VINA RESULT:    -3.585      1.590      2.855
REMARK INTER + INTRA:          -7.575
REMARK INTER:                  -6.426
REMARK INTRA:                  -1.149
REMARK UNBOUND:                -1.475
REMARK SMILES CCCCCCCCCCCCCC(=O)[O-]
REMARK SMILES IDX 8 1 9 2 10 3 11 4 12 5 13 6 14 7 15 8 16 9 7 10 6 11 5 12
REMARK SMILES IDX 4 13 3 14 2 15 1 16
REMARK H PARENT
REMARK Flexibility Score: inf
ROOT
ATOM      1  C   UNL     1      -7.217  19.025  -9.823  1.00  0.00     0.000 C 
ENDROOT
BRANCH   1   2
ATOM      2  C   UNL     1      -7.151  19.860 -11.115  1.00  0.00     0.000 C 
BRANCH   2   3
ATOM      3  C   UNL     1      -6.790  19.066 -12.384  1.00  0.00     0.000 C 
BRANCH   3   4
ATOM      4  C   UNL     1      -7.747  19.343 -13.556  1.00  0.00     0.000 C 
BRANCH   4   5
ATOM      5  C   UNL     1      -9.212  19.501 -13.103  1.00  0.00     0.006 C 
BRANCH   5   6
ATOM      6  C   UNL     1      -9.943  18.165 -12.895  1.00  0.00     0.053 C 
BRANCH   6   7
ATOM      7  C   UNL     1     -10.938  18.219 -11.777  1.00  0.00     0.041 C 
ATOM      8  O   UNL     1     -11.046  17.253 -10.977  1.00  0.00    -0.550 OA
ATOM      9  O   UNL     1     -11.744  19.339 -11.619  1.00  0.00    -0.550 OA
ENDBRANCH   6   7
ENDBRANCH   5   6
ENDBRANCH   4   5
ENDBRANCH   3   4
ENDBRANCH   2   3
ENDBRANCH   1   2
BRANCH   1  10
ATOM     10  C   UNL     1      -7.599  17.558 -10.073  1.00  0.00     0.000 C 
BRANCH  10  11
ATOM     11  C   UNL     1      -6.858  16.624  -9.104  1.00  0.00    -0.000 C 
BRANCH  11  12
ATOM     12  C   UNL     1      -5.407  16.354  -9.531  1.00  0.00    -0.000 C 
BRANCH  12  13
ATOM     13  C   UNL     1      -4.417  16.452  -8.357  1.00  0.00    -0.000 C 
BRANCH  13  14
ATOM     14  C   UNL     1      -5.119  16.559  -6.991  1.00  0.00    -0.000 C 
BRANCH  14  15
ATOM     15  C   UNL     1      -4.622  17.707  -6.093  1.00  0.00    -0.003 C 
ATOM     16  C   UNL     1      -4.238  17.244  -4.688  1.00  0.00     0.004 C 
ENDBRANCH  14  15
ENDBRANCH  13  14
ENDBRANCH  12  13
ENDBRANCH  11  12
ENDBRANCH  10  11
ENDBRANCH   1  10
TORSDOF 12
ENDMDL
MODEL 7
REMARK VINA RESULT:    -3.522      2.132      6.369
REMARK INTER + INTRA:          -7.468
REMARK INTER:                  -6.156
REMARK INTRA:                  -1.312
REMARK UNBOUND:                -1.475
REMARK SMILES CCCCCCCCCCCCCC(=O)[O-]
REMARK SMILES IDX 8 1 9 2 10 3 11 4 12 5 13 6 14 7 15 8 16 9 7 10 6 11 5 12
REMARK SMILES IDX 4 13 3 14 2 15 1 16
REMARK H PARENT
REMARK Flexibility Score: inf
ROOT
ATOM      1  C   UNL     1      -7.299  19.352 -10.506  1.00  0.00     0.000 C 
ENDROOT
BRANCH   1   2
ATOM      2  C   UNL     1      -7.570  20.327  -9.345  1.00  0.00     0.000 C 
BRANCH   2   3
ATOM      3  C   UNL     1      -6.897  19.952  -8.012  1.00  0.00     0.000 C 
BRANCH   3   4
ATOM      4  C   UNL     1      -5.557  19.219  -8.204  1.00  0.00     0.000 C 
BRANCH   4   5
ATOM      5  C   UNL     1      -5.251  18.230  -7.063  1.00  0.00     0.006 C 
BRANCH   5   6
ATOM      6  C   UNL     1      -5.090  16.774  -7.531  1.00  0.00     0.053 C 
BRANCH   6   7
ATOM      7  C   UNL     1      -5.989  16.436  -8.680  1.00  0.00     0.041 C 
ATOM      8  O   UNL     1      -5.504  16.206  -9.819  1.00  0.00    -0.550 OA
ATOM      9  O   UNL     1      -7.364  16.374  -8.493  1.00  0.00    -0.550 OA
ENDBRANCH   6   7
ENDBRANCH   5   6
ENDBRANCH   4   5
ENDBRANCH   3   4
ENDBRANCH   2   3
ENDBRANCH   1   2
BRANCH   1  10
ATOM     10  C   UNL     1      -8.105  19.682 -11.772  1.00  0.00     0.000 C 
BRANCH  10  11
ATOM     11  C   UNL     1      -9.079  20.842 -11.516  1.00  0.00    -0.000 C 
BRANCH  11  12
ATOM     12  C   UNL     1     -10.531  20.491 -11.881  1.00  0.00    -0.000 C 
BRANCH  12  13
ATOM     13  C   UNL     1     -11.006  19.184 -11.221  1.00  0.00    -0.000 C 
BRANCH  13  14
ATOM     14  C   UNL     1     -11.485  18.138 -12.244  1.00  0.00    -0.000 C 
BRANCH  14  15
ATOM     15  C   UNL     1     -10.880  16.733 -12.068  1.00  0.00    -0.003 C 
ATOM     16  C   UNL     1      -9.999  16.612 -10.825  1.00  0.00     0.004 C 
ENDBRANCH  14  15
ENDBRANCH  13  14
ENDBRANCH  12  13
ENDBRANCH  11  12
ENDBRANCH  10  11
ENDBRANCH   1  10
TORSDOF 12
ENDMDL
MODEL 8
REMARK VINA RESULT:    -3.516      1.206      1.860
REMARK INTER + INTRA:          -7.457
REMARK INTER:                  -5.894
REMARK INTRA:                  -1.563
REMARK UNBOUND:                -1.475
REMARK SMILES CCCCCCCCCCCCCC(=O)[O-]
REMARK SMILES IDX 8 1 9 2 10 3 11 4 12 5 13 6 14 7 15 8 16 9 7 10 6 11 5 12
REMARK SMILES IDX 4 13 3 14 2 15 1 16
REMARK H PARENT
REMARK Flexibility Score: inf
ROOT
ATOM      1  C   UNL     1      -4.880  16.887 -10.706  1.00  0.00     0.000 C 
ENDROOT
BRANCH   1   2
ATOM      2  C   UNL     1      -4.582  18.395 -10.609  1.00  0.00     0.000 C 
BRANCH   2   3
ATOM      3  C   UNL     1      -5.818  19.308 -10.721  1.00  0.00     0.000 C 
BRANCH   3   4
ATOM      4  C   UNL     1      -6.751  18.912 -11.878  1.00  0.00     0.000 C 
BRANCH   4   5
ATOM      5  C   UNL     1      -8.242  19.079 -11.524  1.00  0.00     0.006 C 
BRANCH   5   6
ATOM      6  C   UNL     1      -8.908  17.786 -11.025  1.00  0.00     0.053 C 
BRANCH   6   7
ATOM      7  C   UNL     1     -10.096  17.395 -11.848  1.00  0.00     0.041 C 
ATOM      8  O   UNL     1     -10.961  16.608 -11.379  1.00  0.00    -0.550 OA
ATOM      9  O   UNL     1     -10.249  17.901 -13.132  1.00  0.00    -0.550 OA
ENDBRANCH   6   7
ENDBRANCH   5   6
ENDBRANCH   4   5
ENDBRANCH   3   4
ENDBRANCH   2   3
ENDBRANCH   1   2
BRANCH   1  10
ATOM     10  C   UNL     1      -5.047  16.216  -9.333  1.00  0.00     0.000 C 
BRANCH  10  11
ATOM     11  C   UNL     1      -6.467  16.426  -8.789  1.00  0.00    -0.000 C 
BRANCH  11  12
ATOM     12  C   UNL     1      -6.487  16.735  -7.283  1.00  0.00    -0.000 C 
BRANCH  12  13
ATOM     13  C   UNL     1      -5.092  16.635  -6.641  1.00  0.00    -0.000 C 
BRANCH  13  14
ATOM     14  C   UNL     1      -4.568  17.991  -6.134  1.00  0.00    -0.000 C 
BRANCH  14  15
ATOM     15  C   UNL     1      -5.027  19.212  -6.950  1.00  0.00    -0.003 C 
ATOM     16  C   UNL     1      -3.877  20.140  -7.340  1.00  0.00     0.004 C 
ENDBRANCH  14  15
ENDBRANCH  13  14
ENDBRANCH  12  13
ENDBRANCH  11  12
ENDBRANCH  10  11
ENDBRANCH   1  10
TORSDOF 12
ENDMDL
MODEL 9
REMARK VINA RESULT:    -3.448      2.774      6.326
REMARK INTER + INTRA:          -7.341
REMARK INTER:                  -6.004
REMARK INTRA:                  -1.337
REMARK UNBOUND:                -1.475
REMARK SMILES CCCCCCCCCCCCCC(=O)[O-]
REMARK SMILES IDX 8 1 9 2 10 3 11 4 12 5 13 6 14 7 15 8 16 9 7 10 6 11 5 12
REMARK SMILES IDX 4 13 3 14 2 15 1 16
REMARK H PARENT
REMARK Flexibility Score: inf
ROOT
ATOM      1  C   UNL     1      -7.725  19.121 -10.366  1.00  0.00     0.000 C 
ENDROOT
BRANCH   1   2
ATOM      2  C   UNL     1      -7.258  19.065 -11.833  1.00  0.00     0.000 C 
BRANCH   2   3
ATOM      3  C   UNL     1      -5.850  18.477 -12.043  1.00  0.00     0.000 C 
BRANCH   3   4
ATOM      4  C   UNL     1      -5.055  18.346 -10.732  1.00  0.00     0.000 C 
BRANCH   4   5
ATOM      5  C   UNL     1      -4.949  16.889 -10.243  1.00  0.00     0.006 C 
BRANCH   5   6
ATOM      6  C   UNL     1      -4.613  16.760  -8.748  1.00  0.00     0.053 C 
BRANCH   6   7
ATOM      7  C   UNL     1      -5.825  16.519  -7.903  1.00  0.00     0.041 C 
ATOM      8  O   UNL     1      -6.937  16.277  -8.442  1.00  0.00    -0.550 OA
ATOM      9  O   UNL     1      -5.726  16.559  -6.518  1.00  0.00    -0.550 OA
ENDBRANCH   6   7
ENDBRANCH   5   6
ENDBRANCH   4   5
ENDBRANCH   3   4
ENDBRANCH   2   3
ENDBRANCH   1   2
BRANCH   1  10
ATOM     10  C   UNL     1      -8.386  20.458  -9.995  1.00  0.00     0.000 C 
BRANCH  10  11
ATOM     11  C   UNL     1      -9.413  20.877 -11.057  1.00  0.00    -0.000 C 
BRANCH  11  12
ATOM     12  C   UNL     1     -10.861  20.578 -10.634  1.00  0.00    -0.000 C 
BRANCH  12  13
ATOM     13  C   UNL     1     -11.675  19.906 -11.753  1.00  0.00    -0.000 C 
BRANCH  13  14
ATOM     14  C   UNL     1     -10.978  18.664 -12.338  1.00  0.00    -0.000 C 
BRANCH  14  15
ATOM     15  C   UNL     1     -11.389  17.325 -11.698  1.00  0.00    -0.003 C 
ATOM     16  C   UNL     1     -10.234  16.622 -10.986  1.00  0.00     0.004 C 
ENDBRANCH  14  15
ENDBRANCH  13  14
ENDBRANCH  12  13
ENDBRANCH  11  12
ENDBRANCH  10  11
ENDBRANCH   1  10
TORSDOF 12
ENDMDL
