MODEL 1
REMARK VINA RESULT:    -7.548      0.000      0.000
REMARK INTER + INTRA:          -9.544
REMARK INTER:                  -9.313
REMARK INTRA:                  -0.231
REMARK UNBOUND:                -0.231
REMARK SMILES O=c1c(O)c(-c2cc(O)c(O)c(O)c2)oc2cc(O)cc(O)c12
REMARK SMILES IDX 5 1 3 2 2 3 1 4 23 5 21 6 20 7 18 8 17 9 16 10 15 11 6 12
REMARK SMILES IDX 7 13 8 14 14 15 10 16 12 17 9 18 11 20 13 22 4 24 22 26
REMARK SMILES IDX 19 28
REMARK H PARENT 9 19 11 21 13 23 4 25 22 27 19 29
REMARK Flexibility Score: inf
ROOT
ATOM      1  C   UNL     1      56.272  20.386   4.010  1.00  0.00     0.180 A 
ATOM      2  C   UNL     1      55.496  20.843   5.090  1.00  0.00     0.208 A 
ATOM      3  C   UNL     1      54.855  22.089   4.989  1.00  0.00     0.238 A 
ATOM      4  O   UNL     1      54.206  22.515   5.979  1.00  0.00    -0.285 OA
ATOM      5  C   UNL     1      54.985  22.854   3.805  1.00  0.00     0.111 A 
ATOM      6  C   UNL     1      54.348  24.111   3.578  1.00  0.00     0.134 A 
ATOM      7  C   UNL     1      54.653  24.841   2.423  1.00  0.00     0.093 A 
ATOM      8  C   UNL     1      55.519  24.332   1.457  1.00  0.00     0.123 A 
ATOM      9  C   UNL     1      56.101  23.077   1.640  1.00  0.00     0.094 A 
ATOM     10  C   UNL     1      55.845  22.340   2.800  1.00  0.00     0.146 A 
ATOM     11  O   UNL     1      56.428  21.156   2.941  1.00  0.00    -0.452 OA
ENDROOT
BRANCH   1  12
ATOM     12  C   UNL     1      56.957  19.074   4.033  1.00  0.00     0.029 A 
ATOM     13  C   UNL     1      58.061  18.885   4.878  1.00  0.00     0.062 A 
ATOM     14  C   UNL     1      58.741  17.660   4.903  1.00  0.00     0.162 A 
ATOM     15  C   UNL     1      56.561  18.027   3.183  1.00  0.00     0.062 A 
ATOM     16  C   UNL     1      58.325  16.611   4.064  1.00  0.00     0.200 A 
ATOM     17  C   UNL     1      57.235  16.801   3.200  1.00  0.00     0.162 A 
BRANCH  14  18
ATOM     18  O   UNL     1      59.828  17.481   5.757  1.00  0.00    -0.504 OA
ATOM     19  H   UNL     1      60.224  16.563   5.928  1.00  0.00     0.293 HD
ENDBRANCH  14  18
BRANCH  16  20
ATOM     20  O   UNL     1      58.990  15.383   4.078  1.00  0.00    -0.502 OA
ATOM     21  H   UNL     1      58.493  14.501   4.077  1.00  0.00     0.293 HD
ENDBRANCH  16  20
BRANCH  17  22
ATOM     22  O   UNL     1      56.807  15.785   2.345  1.00  0.00    -0.504 OA
ATOM     23  H   UNL     1      56.008  15.201   2.559  1.00  0.00     0.293 HD
ENDBRANCH  17  22
ENDBRANCH   1  12
BRANCH   2  24
ATOM     24  O   UNL     1      55.398  20.081   6.258  1.00  0.00    -0.502 OA
ATOM     25  H   UNL     1      55.152  19.098   6.247  1.00  0.00     0.293 HD
ENDBRANCH   2  24
BRANCH   6  26
ATOM     26  O   UNL     1      53.395  24.668   4.436  1.00  0.00    -0.507 OA
ATOM     27  H   UNL     1      52.700  24.142   4.944  1.00  0.00     0.293 HD
ENDBRANCH   6  26
BRANCH   8  28
ATOM     28  O   UNL     1      55.786  25.079   0.311  1.00  0.00    -0.508 OA
ATOM     29  H   UNL     1      56.524  24.816  -0.331  1.00  0.00     0.293 HD
ENDBRANCH   8  28
TORSDOF 7
ENDMDL
MODEL 2
REMARK VINA RESULT:    -7.483      0.083      1.757
REMARK INTER + INTRA:          -9.463
REMARK INTER:                  -9.236
REMARK INTRA:                  -0.227
REMARK UNBOUND:                -0.231
REMARK SMILES O=c1c(O)c(-c2cc(O)c(O)c(O)c2)oc2cc(O)cc(O)c12
REMARK SMILES IDX 5 1 3 2 2 3 1 4 23 5 21 6 20 7 18 8 17 9 16 10 15 11 6 12
REMARK SMILES IDX 7 13 8 14 14 15 10 16 12 17 9 18 11 20 13 22 4 24 22 26
REMARK SMILES IDX 19 28
REMARK H PARENT 9 19 11 21 13 23 4 25 22 27 19 29
REMARK Flexibility Score: inf
ROOT
ATOM      1  C   UNL     1      56.279  20.434   4.014  1.00  0.00     0.180 A 
ATOM      2  C   UNL     1      55.470  20.871   5.077  1.00  0.00     0.208 A 
ATOM      3  C   UNL     1      54.796  22.097   4.961  1.00  0.00     0.238 A 
ATOM      4  O   UNL     1      54.116  22.507   5.937  1.00  0.00    -0.285 OA
ATOM      5  C   UNL     1      54.926  22.863   3.777  1.00  0.00     0.111 A 
ATOM      6  C   UNL     1      54.258  24.101   3.536  1.00  0.00     0.134 A 
ATOM      7  C   UNL     1      54.563  24.837   2.385  1.00  0.00     0.093 A 
ATOM      8  C   UNL     1      55.461  24.351   1.436  1.00  0.00     0.123 A 
ATOM      9  C   UNL     1      56.076  23.114   1.633  1.00  0.00     0.094 A 
ATOM     10  C   UNL     1      55.819  22.372   2.790  1.00  0.00     0.146 A 
ATOM     11  O   UNL     1      56.433  21.205   2.945  1.00  0.00    -0.452 OA
ENDROOT
BRANCH   1  12
ATOM     12  C   UNL     1      57.000  19.141   4.053  1.00  0.00     0.029 A 
ATOM     13  C   UNL     1      56.577  18.088   3.229  1.00  0.00     0.062 A 
ATOM     14  C   UNL     1      57.228  16.848   3.262  1.00  0.00     0.162 A 
ATOM     15  C   UNL     1      58.067  18.926   4.942  1.00  0.00     0.062 A 
ATOM     16  C   UNL     1      58.308  16.648   4.139  1.00  0.00     0.200 A 
ATOM     17  C   UNL     1      58.722  17.690   4.984  1.00  0.00     0.162 A 
BRANCH  14  18
ATOM     18  O   UNL     1      56.807  15.814   2.427  1.00  0.00    -0.504 OA
ATOM     19  H   UNL     1      57.261  14.907   2.433  1.00  0.00     0.293 HD
ENDBRANCH  14  18
BRANCH  16  20
ATOM     20  O   UNL     1      58.970  15.419   4.184  1.00  0.00    -0.502 OA
ATOM     21  H   UNL     1      59.803  15.275   4.742  1.00  0.00     0.293 HD
ENDBRANCH  16  20
BRANCH  17  22
ATOM     22  O   UNL     1      59.781  17.518   5.877  1.00  0.00    -0.504 OA
ATOM     23  H   UNL     1      60.494  18.226   6.010  1.00  0.00     0.293 HD
ENDBRANCH  17  22
ENDBRANCH   1  12
BRANCH   2  24
ATOM     24  O   UNL     1      55.372  20.108   6.246  1.00  0.00    -0.502 OA
ATOM     25  H   UNL     1      56.184  19.845   6.792  1.00  0.00     0.293 HD
ENDBRANCH   2  24
BRANCH   6  26
ATOM     26  O   UNL     1      53.273  24.632   4.375  1.00  0.00    -0.507 OA
ATOM     27  H   UNL     1      53.377  24.771   5.368  1.00  0.00     0.293 HD
ENDBRANCH   6  26
BRANCH   8  28
ATOM     28  O   UNL     1      55.728  25.103   0.294  1.00  0.00    -0.508 OA
ATOM     29  H   UNL     1      56.550  25.692   0.228  1.00  0.00     0.293 HD
ENDBRANCH   8  28
TORSDOF 7
ENDMDL
MODEL 3
REMARK VINA RESULT:    -7.318      2.076      7.265
REMARK INTER + INTRA:          -9.259
REMARK INTER:                  -8.941
REMARK INTRA:                  -0.318
REMARK UNBOUND:                -0.231
REMARK SMILES O=c1c(O)c(-c2cc(O)c(O)c(O)c2)oc2cc(O)cc(O)c12
REMARK SMILES IDX 5 1 3 2 2 3 1 4 23 5 21 6 20 7 18 8 17 9 16 10 15 11 6 12
REMARK SMILES IDX 7 13 8 14 14 15 10 16 12 17 9 18 11 20 13 22 4 24 22 26
REMARK SMILES IDX 19 28
REMARK H PARENT 9 19 11 21 13 23 4 25 22 27 19 29
REMARK Flexibility Score: inf
ROOT
ATOM      1  C   UNL     1      56.080  20.137   5.553  1.00  0.00     0.180 A 
ATOM      2  C   UNL     1      57.319  20.396   6.165  1.00  0.00     0.208 A 
ATOM      3  C   UNL     1      58.334  19.429   6.083  1.00  0.00     0.238 A 
ATOM      4  O   UNL     1      59.422  19.644   6.678  1.00  0.00    -0.285 OA
ATOM      5  C   UNL     1      58.104  18.224   5.376  1.00  0.00     0.111 A 
ATOM      6  C   UNL     1      59.074  17.193   5.196  1.00  0.00     0.134 A 
ATOM      7  C   UNL     1      58.695  15.988   4.592  1.00  0.00     0.093 A 
ATOM      8  C   UNL     1      57.403  15.800   4.105  1.00  0.00     0.123 A 
ATOM      9  C   UNL     1      56.463  16.825   4.223  1.00  0.00     0.094 A 
ATOM     10  C   UNL     1      56.800  18.026   4.853  1.00  0.00     0.146 A 
ATOM     11  O   UNL     1      55.873  18.971   4.955  1.00  0.00    -0.452 OA
ENDROOT
BRANCH   1  12
ATOM     12  C   UNL     1      54.971  21.118   5.576  1.00  0.00     0.029 A 
ATOM     13  C   UNL     1      54.759  21.949   4.465  1.00  0.00     0.062 A 
ATOM     14  C   UNL     1      53.730  22.900   4.469  1.00  0.00     0.162 A 
ATOM     15  C   UNL     1      54.159  21.277   6.712  1.00  0.00     0.062 A 
ATOM     16  C   UNL     1      52.909  23.037   5.602  1.00  0.00     0.200 A 
ATOM     17  C   UNL     1      53.130  22.225   6.726  1.00  0.00     0.162 A 
BRANCH  14  18
ATOM     18  O   UNL     1      53.521  23.709   3.354  1.00  0.00    -0.504 OA
ATOM     19  H   UNL     1      53.769  24.692   3.356  1.00  0.00     0.293 HD
ENDBRANCH  14  18
BRANCH  16  20
ATOM     20  O   UNL     1      51.878  23.978   5.623  1.00  0.00    -0.502 OA
ATOM     21  H   UNL     1      50.960  23.766   5.995  1.00  0.00     0.293 HD
ENDBRANCH  16  20
BRANCH  17  22
ATOM     22  O   UNL     1      52.342  22.348   7.871  1.00  0.00    -0.504 OA
ATOM     23  H   UNL     1      51.888  23.218   8.122  1.00  0.00     0.293 HD
ENDBRANCH  17  22
ENDBRANCH   1  12
BRANCH   2  24
ATOM     24  O   UNL     1      57.518  21.584   6.876  1.00  0.00    -0.502 OA
ATOM     25  H   UNL     1      57.420  21.637   7.883  1.00  0.00     0.293 HD
ENDBRANCH   2  24
BRANCH   6  26
ATOM     26  O   UNL     1      60.418  17.313   5.562  1.00  0.00    -0.507 OA
ATOM     27  H   UNL     1      61.115  16.595   5.439  1.00  0.00     0.293 HD
ENDBRANCH   6  26
BRANCH   8  28
ATOM     28  O   UNL     1      57.066  14.594   3.495  1.00  0.00    -0.508 OA
ATOM     29  H   UNL     1      56.101  14.335   3.330  1.00  0.00     0.293 HD
ENDBRANCH   8  28
TORSDOF 7
ENDMDL
MODEL 4
REMARK VINA RESULT:    -7.313      2.701      6.968
REMARK INTER + INTRA:          -9.253
REMARK INTER:                  -8.934
REMARK INTRA:                  -0.319
REMARK UNBOUND:                -0.231
REMARK SMILES O=c1c(O)c(-c2cc(O)c(O)c(O)c2)oc2cc(O)cc(O)c12
REMARK SMILES IDX 5 1 3 2 2 3 1 4 23 5 21 6 20 7 18 8 17 9 16 10 15 11 6 12
REMARK SMILES IDX 7 13 8 14 14 15 10 16 12 17 9 18 11 20 13 22 4 24 22 26
REMARK SMILES IDX 19 28
REMARK H PARENT 9 19 11 21 13 23 4 25 22 27 19 29
REMARK Flexibility Score: inf
ROOT
ATOM      1  C   UNL     1      57.536  20.271   5.683  1.00  0.00     0.180 A 
ATOM      2  C   UNL     1      57.737  18.880   5.710  1.00  0.00     0.208 A 
ATOM      3  C   UNL     1      59.050  18.382   5.701  1.00  0.00     0.238 A 
ATOM      4  O   UNL     1      59.222  17.136   5.671  1.00  0.00    -0.285 OA
ATOM      5  C   UNL     1      60.144  19.281   5.682  1.00  0.00     0.111 A 
ATOM      6  C   UNL     1      61.516  18.887   5.712  1.00  0.00     0.134 A 
ATOM      7  C   UNL     1      62.515  19.856   5.557  1.00  0.00     0.093 A 
ATOM      8  C   UNL     1      62.196  21.208   5.439  1.00  0.00     0.123 A 
ATOM      9  C   UNL     1      60.860  21.610   5.469  1.00  0.00     0.094 A 
ATOM     10  C   UNL     1      59.838  20.663   5.586  1.00  0.00     0.146 A 
ATOM     11  O   UNL     1      58.580  21.086   5.599  1.00  0.00    -0.452 OA
ENDROOT
BRANCH   1  12
ATOM     12  C   UNL     1      56.182  20.871   5.715  1.00  0.00     0.029 A 
ATOM     13  C   UNL     1      55.657  21.454   4.552  1.00  0.00     0.062 A 
ATOM     14  C   UNL     1      54.388  22.047   4.560  1.00  0.00     0.162 A 
ATOM     15  C   UNL     1      55.433  20.924   6.903  1.00  0.00     0.062 A 
ATOM     16  C   UNL     1      53.636  22.077   5.747  1.00  0.00     0.200 A 
ATOM     17  C   UNL     1      54.165  21.516   6.921  1.00  0.00     0.162 A 
BRANCH  14  18
ATOM     18  O   UNL     1      53.871  22.609   3.393  1.00  0.00    -0.504 OA
ATOM     19  H   UNL     1      54.148  22.278   2.476  1.00  0.00     0.293 HD
ENDBRANCH  14  18
BRANCH  16  20
ATOM     20  O   UNL     1      52.369  22.662   5.773  1.00  0.00    -0.502 OA
ATOM     21  H   UNL     1      51.926  23.029   4.939  1.00  0.00     0.293 HD
ENDBRANCH  16  20
BRANCH  17  22
ATOM     22  O   UNL     1      53.451  21.543   8.119  1.00  0.00    -0.504 OA
ATOM     23  H   UNL     1      52.987  20.721   8.487  1.00  0.00     0.293 HD
ENDBRANCH  17  22
ENDBRANCH   1  12
BRANCH   2  24
ATOM     24  O   UNL     1      56.642  18.011   5.706  1.00  0.00    -0.502 OA
ATOM     25  H   UNL     1      56.741  17.012   5.571  1.00  0.00     0.293 HD
ENDBRANCH   2  24
BRANCH   6  26
ATOM     26  O   UNL     1      61.946  17.573   5.917  1.00  0.00    -0.507 OA
ATOM     27  H   UNL     1      61.337  16.790   6.100  1.00  0.00     0.293 HD
ENDBRANCH   6  26
BRANCH   8  28
ATOM     28  O   UNL     1      63.217  22.146   5.303  1.00  0.00    -0.508 OA
ATOM     29  H   UNL     1      63.984  22.193   5.964  1.00  0.00     0.293 HD
ENDBRANCH   8  28
TORSDOF 7
ENDMDL
MODEL 5
REMARK VINA RESULT:    -7.312      2.143      7.190
REMARK INTER + INTRA:          -9.253
REMARK INTER:                  -8.937
REMARK INTRA:                  -0.316
REMARK UNBOUND:                -0.231
REMARK SMILES O=c1c(O)c(-c2cc(O)c(O)c(O)c2)oc2cc(O)cc(O)c12
REMARK SMILES IDX 5 1 3 2 2 3 1 4 23 5 21 6 20 7 18 8 17 9 16 10 15 11 6 12
REMARK SMILES IDX 7 13 8 14 14 15 10 16 12 17 9 18 11 20 13 22 4 24 22 26
REMARK SMILES IDX 19 28
REMARK H PARENT 9 19 11 21 13 23 4 25 22 27 19 29
REMARK Flexibility Score: inf
ROOT
ATOM      1  C   UNL     1      56.169  20.154   5.604  1.00  0.00     0.180 A 
ATOM      2  C   UNL     1      57.424  20.428   6.177  1.00  0.00     0.208 A 
ATOM      3  C   UNL     1      58.435  19.458   6.096  1.00  0.00     0.238 A 
ATOM      4  O   UNL     1      59.538  19.688   6.656  1.00  0.00    -0.285 OA
ATOM      5  C   UNL     1      58.185  18.233   5.431  1.00  0.00     0.111 A 
ATOM      6  C   UNL     1      59.149  17.195   5.255  1.00  0.00     0.134 A 
ATOM      7  C   UNL     1      58.754  15.974   4.697  1.00  0.00     0.093 A 
ATOM      8  C   UNL     1      57.449  15.775   4.249  1.00  0.00     0.123 A 
ATOM      9  C   UNL     1      56.513  16.804   4.362  1.00  0.00     0.094 A 
ATOM     10  C   UNL     1      56.868  18.022   4.948  1.00  0.00     0.146 A 
ATOM     11  O   UNL     1      55.945  18.971   5.046  1.00  0.00    -0.452 OA
ENDROOT
BRANCH   1  12
ATOM     12  C   UNL     1      55.062  21.137   5.628  1.00  0.00     0.029 A 
ATOM     13  C   UNL     1      54.296  21.288   6.795  1.00  0.00     0.062 A 
ATOM     14  C   UNL     1      53.229  22.195   6.837  1.00  0.00     0.162 A 
ATOM     15  C   UNL     1      54.720  21.883   4.487  1.00  0.00     0.062 A 
ATOM     16  C   UNL     1      52.908  22.952   5.697  1.00  0.00     0.200 A 
ATOM     17  C   UNL     1      53.655  22.789   4.519  1.00  0.00     0.162 A 
BRANCH  14  18
ATOM     18  O   UNL     1      52.486  22.346   8.007  1.00  0.00    -0.504 OA
ATOM     19  H   UNL     1      51.663  22.937   8.041  1.00  0.00     0.293 HD
ENDBRANCH  14  18
BRANCH  16  20
ATOM     20  O   UNL     1      51.849  23.862   5.723  1.00  0.00    -0.502 OA
ATOM     21  H   UNL     1      51.151  23.898   4.991  1.00  0.00     0.293 HD
ENDBRANCH  16  20
BRANCH  17  22
ATOM     22  O   UNL     1      53.352  23.515   3.367  1.00  0.00    -0.504 OA
ATOM     23  H   UNL     1      53.963  24.240   3.011  1.00  0.00     0.293 HD
ENDBRANCH  17  22
ENDBRANCH   1  12
BRANCH   2  24
ATOM     24  O   UNL     1      57.642  21.636   6.847  1.00  0.00    -0.502 OA
ATOM     25  H   UNL     1      57.365  22.530   6.460  1.00  0.00     0.293 HD
ENDBRANCH   2  24
BRANCH   6  26
ATOM     26  O   UNL     1      60.502  17.324   5.583  1.00  0.00    -0.507 OA
ATOM     27  H   UNL     1      60.865  17.372   6.523  1.00  0.00     0.293 HD
ENDBRANCH   6  26
BRANCH   8  28
ATOM     28  O   UNL     1      57.095  14.552   3.683  1.00  0.00    -0.508 OA
ATOM     29  H   UNL     1      57.783  13.956   3.237  1.00  0.00     0.293 HD
ENDBRANCH   8  28
TORSDOF 7
ENDMDL
MODEL 6
REMARK VINA RESULT:    -7.274      1.583      6.836
REMARK INTER + INTRA:          -9.205
REMARK INTER:                  -8.845
REMARK INTRA:                  -0.361
REMARK UNBOUND:                -0.231
REMARK SMILES O=c1c(O)c(-c2cc(O)c(O)c(O)c2)oc2cc(O)cc(O)c12
REMARK SMILES IDX 5 1 3 2 2 3 1 4 23 5 21 6 20 7 18 8 17 9 16 10 15 11 6 12
REMARK SMILES IDX 7 13 8 14 14 15 10 16 12 17 9 18 11 20 13 22 4 24 22 26
REMARK SMILES IDX 19 28
REMARK H PARENT 9 19 11 21 13 23 4 25 22 27 19 29
REMARK Flexibility Score: inf
ROOT
ATOM      1  C   UNL     1      55.882  21.051   3.344  1.00  0.00     0.180 A 
ATOM      2  C   UNL     1      55.650  21.246   4.717  1.00  0.00     0.208 A 
ATOM      3  C   UNL     1      56.142  20.302   5.632  1.00  0.00     0.238 A 
ATOM      4  O   UNL     1      55.885  20.455   6.854  1.00  0.00    -0.285 OA
ATOM      5  C   UNL     1      56.873  19.183   5.164  1.00  0.00     0.111 A 
ATOM      6  C   UNL     1      57.452  18.184   6.005  1.00  0.00     0.134 A 
ATOM      7  C   UNL     1      58.040  17.053   5.428  1.00  0.00     0.093 A 
ATOM      8  C   UNL     1      58.129  16.914   4.043  1.00  0.00     0.123 A 
ATOM      9  C   UNL     1      57.620  17.913   3.212  1.00  0.00     0.094 A 
ATOM     10  C   UNL     1      56.994  19.037   3.758  1.00  0.00     0.146 A 
ATOM     11  O   UNL     1      56.513  19.959   2.932  1.00  0.00    -0.452 OA
ENDROOT
BRANCH   1  12
ATOM     12  C   UNL     1      55.416  22.016   2.322  1.00  0.00     0.029 A 
ATOM     13  C   UNL     1      54.228  21.760   1.621  1.00  0.00     0.062 A 
ATOM     14  C   UNL     1      53.775  22.645   0.634  1.00  0.00     0.162 A 
ATOM     15  C   UNL     1      56.170  23.156   1.994  1.00  0.00     0.062 A 
ATOM     16  C   UNL     1      54.524  23.794   0.327  1.00  0.00     0.200 A 
ATOM     17  C   UNL     1      55.727  24.044   1.008  1.00  0.00     0.162 A 
BRANCH  14  18
ATOM     18  O   UNL     1      52.585  22.388  -0.044  1.00  0.00    -0.504 OA
ATOM     19  H   UNL     1      52.443  21.526  -0.560  1.00  0.00     0.293 HD
ENDBRANCH  14  18
BRANCH  16  20
ATOM     20  O   UNL     1      54.087  24.689  -0.652  1.00  0.00    -0.502 OA
ATOM     21  H   UNL     1      54.425  25.642  -0.702  1.00  0.00     0.293 HD
ENDBRANCH  16  20
BRANCH  17  22
ATOM     22  O   UNL     1      56.501  25.168   0.717  1.00  0.00    -0.504 OA
ATOM     23  H   UNL     1      56.087  26.071   0.521  1.00  0.00     0.293 HD
ENDBRANCH  17  22
ENDBRANCH   1  12
BRANCH   2  24
ATOM     24  O   UNL     1      54.908  22.348   5.155  1.00  0.00    -0.502 OA
ATOM     25  H   UNL     1      55.220  23.302   5.019  1.00  0.00     0.293 HD
ENDBRANCH   2  24
BRANCH   6  26
ATOM     26  O   UNL     1      57.499  18.271   7.399  1.00  0.00    -0.507 OA
ATOM     27  H   UNL     1      56.915  17.742   8.029  1.00  0.00     0.293 HD
ENDBRANCH   6  26
BRANCH   8  28
ATOM     28  O   UNL     1      58.737  15.782   3.504  1.00  0.00    -0.508 OA
ATOM     29  H   UNL     1      58.485  15.432   2.587  1.00  0.00     0.293 HD
ENDBRANCH   8  28
TORSDOF 7
ENDMDL
MODEL 7
REMARK VINA RESULT:    -7.156      1.197      1.477
REMARK INTER + INTRA:          -9.060
REMARK INTER:                  -8.697
REMARK INTRA:                  -0.363
REMARK UNBOUND:                -0.231
REMARK SMILES O=c1c(O)c(-c2cc(O)c(O)c(O)c2)oc2cc(O)cc(O)c12
REMARK SMILES IDX 5 1 3 2 2 3 1 4 23 5 21 6 20 7 18 8 17 9 16 10 15 11 6 12
REMARK SMILES IDX 7 13 8 14 14 15 10 16 12 17 9 18 11 20 13 22 4 24 22 26
REMARK SMILES IDX 19 28
REMARK H PARENT 9 19 11 21 13 23 4 25 22 27 19 29
REMARK Flexibility Score: inf
ROOT
ATOM      1  C   UNL     1      55.891  21.229   4.353  1.00  0.00     0.180 A 
ATOM      2  C   UNL     1      54.768  21.596   5.114  1.00  0.00     0.208 A 
ATOM      3  C   UNL     1      53.939  22.630   4.649  1.00  0.00     0.238 A 
ATOM      4  O   UNL     1      52.966  22.989   5.360  1.00  0.00    -0.285 OA
ATOM      5  C   UNL     1      54.236  23.272   3.422  1.00  0.00     0.111 A 
ATOM      6  C   UNL     1      53.443  24.305   2.836  1.00  0.00     0.134 A 
ATOM      7  C   UNL     1      53.902  24.959   1.687  1.00  0.00     0.093 A 
ATOM      8  C   UNL     1      55.090  24.575   1.065  1.00  0.00     0.123 A 
ATOM      9  C   UNL     1      55.842  23.527   1.596  1.00  0.00     0.094 A 
ATOM     10  C   UNL     1      55.429  22.879   2.763  1.00  0.00     0.146 A 
ATOM     11  O   UNL     1      56.180  21.894   3.241  1.00  0.00    -0.452 OA
ENDROOT
BRANCH   1  12
ATOM     12  C   UNL     1      56.797  20.132   4.766  1.00  0.00     0.029 A 
ATOM     13  C   UNL     1      57.915  20.422   5.563  1.00  0.00     0.062 A 
ATOM     14  C   UNL     1      58.800  19.407   5.950  1.00  0.00     0.162 A 
ATOM     15  C   UNL     1      56.595  18.812   4.328  1.00  0.00     0.062 A 
ATOM     16  C   UNL     1      58.579  18.086   5.524  1.00  0.00     0.200 A 
ATOM     17  C   UNL     1      57.475  17.792   4.707  1.00  0.00     0.162 A 
BRANCH  14  18
ATOM     18  O   UNL     1      59.898  19.706   6.754  1.00  0.00    -0.504 OA
ATOM     19  H   UNL     1      60.160  20.663   6.963  1.00  0.00     0.293 HD
ENDBRANCH  14  18
BRANCH  16  20
ATOM     20  O   UNL     1      59.449  17.061   5.902  1.00  0.00    -0.502 OA
ATOM     21  H   UNL     1      59.736  16.924   6.863  1.00  0.00     0.293 HD
ENDBRANCH  16  20
BRANCH  17  22
ATOM     22  O   UNL     1      57.236  16.494   4.256  1.00  0.00    -0.504 OA
ATOM     23  H   UNL     1      56.979  15.743   4.886  1.00  0.00     0.293 HD
ENDBRANCH  17  22
ENDBRANCH   1  12
BRANCH   2  24
ATOM     24  O   UNL     1      54.506  20.962   6.333  1.00  0.00    -0.502 OA
ATOM     25  H   UNL     1      55.151  20.999   7.113  1.00  0.00     0.293 HD
ENDBRANCH   2  24
BRANCH   6  26
ATOM     26  O   UNL     1      52.195  24.702   3.325  1.00  0.00    -0.507 OA
ATOM     27  H   UNL     1      51.925  25.657   3.507  1.00  0.00     0.293 HD
ENDBRANCH   6  26
BRANCH   8  28
ATOM     28  O   UNL     1      55.507  25.238  -0.087  1.00  0.00    -0.508 OA
ATOM     29  H   UNL     1      55.350  24.847  -1.008  1.00  0.00     0.293 HD
ENDBRANCH   8  28
TORSDOF 7
ENDMDL
MODEL 8
REMARK VINA RESULT:    -7.029      1.943      3.944
REMARK INTER + INTRA:          -8.903
REMARK INTER:                  -8.536
REMARK INTRA:                  -0.367
REMARK UNBOUND:                -0.231
REMARK SMILES O=c1c(O)c(-c2cc(O)c(O)c(O)c2)oc2cc(O)cc(O)c12
REMARK SMILES IDX 5 1 3 2 2 3 1 4 23 5 21 6 20 7 18 8 17 9 16 10 15 11 6 12
REMARK SMILES IDX 7 13 8 14 14 15 10 16 12 17 9 18 11 20 13 22 4 24 22 26
REMARK SMILES IDX 19 28
REMARK H PARENT 9 19 11 21 13 23 4 25 22 27 19 29
REMARK Flexibility Score: inf
ROOT
ATOM      1  C   UNL     1      55.767  21.113   5.010  1.00  0.00     0.180 A 
ATOM      2  C   UNL     1      55.759  21.941   3.874  1.00  0.00     0.208 A 
ATOM      3  C   UNL     1      54.767  22.928   3.758  1.00  0.00     0.238 A 
ATOM      4  O   UNL     1      54.734  23.630   2.714  1.00  0.00    -0.285 OA
ATOM      5  C   UNL     1      53.806  23.085   4.786  1.00  0.00     0.111 A 
ATOM      6  C   UNL     1      52.781  24.078   4.791  1.00  0.00     0.134 A 
ATOM      7  C   UNL     1      51.805  24.056   5.794  1.00  0.00     0.093 A 
ATOM      8  C   UNL     1      51.854  23.121   6.827  1.00  0.00     0.123 A 
ATOM      9  C   UNL     1      52.886  22.184   6.865  1.00  0.00     0.094 A 
ATOM     10  C   UNL     1      53.855  22.156   5.857  1.00  0.00     0.146 A 
ATOM     11  O   UNL     1      54.814  21.240   5.924  1.00  0.00    -0.452 OA
ENDROOT
BRANCH   1  12
ATOM     12  C   UNL     1      56.795  20.067   5.214  1.00  0.00     0.029 A 
ATOM     13  C   UNL     1      56.518  18.742   4.842  1.00  0.00     0.062 A 
ATOM     14  C   UNL     1      57.465  17.730   5.044  1.00  0.00     0.162 A 
ATOM     15  C   UNL     1      58.025  20.359   5.828  1.00  0.00     0.062 A 
ATOM     16  C   UNL     1      58.701  18.035   5.640  1.00  0.00     0.200 A 
ATOM     17  C   UNL     1      58.976  19.354   6.036  1.00  0.00     0.162 A 
BRANCH  14  18
ATOM     18  O   UNL     1      57.182  16.421   4.656  1.00  0.00    -0.504 OA
ATOM     19  H   UNL     1      56.878  15.722   5.325  1.00  0.00     0.293 HD
ENDBRANCH  14  18
BRANCH  16  20
ATOM     20  O   UNL     1      59.657  17.039   5.847  1.00  0.00    -0.502 OA
ATOM     21  H   UNL     1      60.054  16.505   5.084  1.00  0.00     0.293 HD
ENDBRANCH  16  20
BRANCH  17  22
ATOM     22  O   UNL     1      60.187  19.687   6.644  1.00  0.00    -0.504 OA
ATOM     23  H   UNL     1      60.460  19.308   7.543  1.00  0.00     0.293 HD
ENDBRANCH  17  22
ENDBRANCH   1  12
BRANCH   2  24
ATOM     24  O   UNL     1      56.705  21.754   2.861  1.00  0.00    -0.502 OA
ATOM     25  H   UNL     1      56.922  20.840   2.482  1.00  0.00     0.293 HD
ENDBRANCH   2  24
BRANCH   6  26
ATOM     26  O   UNL     1      52.694  25.114   3.857  1.00  0.00    -0.507 OA
ATOM     27  H   UNL     1      51.832  25.510   3.514  1.00  0.00     0.293 HD
ENDBRANCH   6  26
BRANCH   8  28
ATOM     28  O   UNL     1      50.875  23.140   7.819  1.00  0.00    -0.508 OA
ATOM     29  H   UNL     1      50.348  22.309   8.058  1.00  0.00     0.293 HD
ENDBRANCH   8  28
TORSDOF 7
ENDMDL
MODEL 9
REMARK VINA RESULT:    -7.000      1.900      3.543
REMARK INTER + INTRA:          -8.867
REMARK INTER:                  -8.516
REMARK INTRA:                  -0.351
REMARK UNBOUND:                -0.231
REMARK SMILES O=c1c(O)c(-c2cc(O)c(O)c(O)c2)oc2cc(O)cc(O)c12
REMARK SMILES IDX 5 1 3 2 2 3 1 4 23 5 21 6 20 7 18 8 17 9 16 10 15 11 6 12
REMARK SMILES IDX 7 13 8 14 14 15 10 16 12 17 9 18 11 20 13 22 4 24 22 26
REMARK SMILES IDX 19 28
REMARK H PARENT 9 19 11 21 13 23 4 25 22 27 19 29
REMARK Flexibility Score: inf
ROOT
ATOM      1  C   UNL     1      55.854  20.993   5.008  1.00  0.00     0.180 A 
ATOM      2  C   UNL     1      55.864  21.811   3.865  1.00  0.00     0.208 A 
ATOM      3  C   UNL     1      54.865  22.787   3.717  1.00  0.00     0.238 A 
ATOM      4  O   UNL     1      54.849  23.479   2.666  1.00  0.00    -0.285 OA
ATOM      5  C   UNL     1      53.878  22.942   4.720  1.00  0.00     0.111 A 
ATOM      6  C   UNL     1      52.842  23.924   4.692  1.00  0.00     0.134 A 
ATOM      7  C   UNL     1      51.843  23.900   5.672  1.00  0.00     0.093 A 
ATOM      8  C   UNL     1      51.877  22.975   6.714  1.00  0.00     0.123 A 
ATOM      9  C   UNL     1      52.918  22.049   6.784  1.00  0.00     0.094 A 
ATOM     10  C   UNL     1      53.911  22.023   5.800  1.00  0.00     0.146 A 
ATOM     11  O   UNL     1      54.878  21.118   5.898  1.00  0.00    -0.452 OA
ENDROOT
BRANCH   1  12
ATOM     12  C   UNL     1      56.888  19.960   5.246  1.00  0.00     0.029 A 
ATOM     13  C   UNL     1      58.110  20.327   5.830  1.00  0.00     0.062 A 
ATOM     14  C   UNL     1      59.113  19.373   6.046  1.00  0.00     0.162 A 
ATOM     15  C   UNL     1      56.696  18.627   4.845  1.00  0.00     0.062 A 
ATOM     16  C   UNL     1      58.905  18.037   5.661  1.00  0.00     0.200 A 
ATOM     17  C   UNL     1      57.693  17.668   5.055  1.00  0.00     0.162 A 
BRANCH  14  18
ATOM     18  O   UNL     1      60.317  19.748   6.641  1.00  0.00    -0.504 OA
ATOM     19  H   UNL     1      60.476  20.694   6.969  1.00  0.00     0.293 HD
ENDBRANCH  14  18
BRANCH  16  20
ATOM     20  O   UNL     1      59.893  17.073   5.871  1.00  0.00    -0.502 OA
ATOM     21  H   UNL     1      60.164  16.413   5.154  1.00  0.00     0.293 HD
ENDBRANCH  16  20
BRANCH  17  22
ATOM     22  O   UNL     1      57.461  16.354   4.648  1.00  0.00    -0.504 OA
ATOM     23  H   UNL     1      56.551  16.040   4.332  1.00  0.00     0.293 HD
ENDBRANCH  17  22
ENDBRANCH   1  12
BRANCH   2  24
ATOM     24  O   UNL     1      56.836  21.626   2.876  1.00  0.00    -0.502 OA
ATOM     25  H   UNL     1      57.474  20.840   2.883  1.00  0.00     0.293 HD
ENDBRANCH   2  24
BRANCH   6  26
ATOM     26  O   UNL     1      52.767  24.951   3.747  1.00  0.00    -0.507 OA
ATOM     27  H   UNL     1      52.417  24.845   2.807  1.00  0.00     0.293 HD
ENDBRANCH   6  26
BRANCH   8  28
ATOM     28  O   UNL     1      50.875  22.992   7.682  1.00  0.00    -0.508 OA
ATOM     29  H   UNL     1      50.791  22.254   8.370  1.00  0.00     0.293 HD
ENDBRANCH   8  28
TORSDOF 7
ENDMDL
