MODEL 1
REMARK VINA RESULT:    -4.466      0.000      0.000
REMARK INTER + INTRA:          -6.086
REMARK INTER:                  -5.772
REMARK INTRA:                  -0.315
REMARK UNBOUND:                -0.315
REMARK SMILES C=CC(=O)CCCCC
REMARK SMILES IDX 6 1 7 2 8 3 9 4 5 5 3 6 4 7 2 8 1 9
REMARK H PARENT
REMARK Flexibility Score: inf
ROOT
ATOM      1  C   UNL     1      98.448 128.943  46.587  1.00  0.00     0.008 C 
ENDROOT
BRANCH   1   2
ATOM      2  C   UNL     1      97.985 127.482  46.670  1.00  0.00     0.000 C 
BRANCH   2   3
ATOM      3  C   UNL     1      97.019 127.277  47.843  1.00  0.00    -0.003 C 
ATOM      4  C   UNL     1      97.686 126.509  48.980  1.00  0.00     0.004 C 
ENDBRANCH   2   3
ENDBRANCH   1   2
BRANCH   1   5
ATOM      5  C   UNL     1      97.359 129.867  46.024  1.00  0.00     0.080 C 
BRANCH   5   6
ATOM      6  C   UNL     1      97.128 129.634  44.558  1.00  0.00     0.155 C 
ATOM      7  O   UNL     1      98.030 129.943  43.733  1.00  0.00    -0.295 OA
BRANCH   6   8
ATOM      8  C   UNL     1      95.845 129.074  44.092  1.00  0.00     0.039 C 
ATOM      9  C   UNL     1      95.756 128.275  43.031  1.00  0.00     0.012 C 
ENDBRANCH   6   8
ENDBRANCH   5   6
ENDBRANCH   1   5
TORSDOF 5
ENDMDL
MODEL 2
REMARK VINA RESULT:    -4.369      8.712     10.182
REMARK INTER + INTRA:          -5.960
REMARK INTER:                  -5.409
REMARK INTRA:                  -0.552
REMARK UNBOUND:                -0.315
REMARK SMILES C=CC(=O)CCCCC
REMARK SMILES IDX 6 1 7 2 8 3 9 4 5 5 3 6 4 7 2 8 1 9
REMARK H PARENT
REMARK Flexibility Score: inf
ROOT
ATOM      1  C   UNL     1     102.852 135.763  51.683  1.00  0.00     0.008 C 
ENDROOT
BRANCH   1   2
ATOM      2  C   UNL     1     102.826 136.262  50.232  1.00  0.00     0.000 C 
BRANCH   2   3
ATOM      3  C   UNL     1     101.387 136.491  49.756  1.00  0.00    -0.003 C 
ATOM      4  C   UNL     1     100.603 135.182  49.720  1.00  0.00     0.004 C 
ENDBRANCH   2   3
ENDBRANCH   1   2
BRANCH   1   5
ATOM      5  C   UNL     1     103.699 134.494  51.848  1.00  0.00     0.080 C 
BRANCH   5   6
ATOM      6  C   UNL     1     102.847 133.267  52.011  1.00  0.00     0.155 C 
ATOM      7  O   UNL     1     102.197 133.103  53.078  1.00  0.00    -0.295 OA
BRANCH   6   8
ATOM      8  C   UNL     1     102.798 132.254  50.939  1.00  0.00     0.039 C 
ATOM      9  C   UNL     1     103.287 132.478  49.720  1.00  0.00     0.012 C 
ENDBRANCH   6   8
ENDBRANCH   5   6
ENDBRANCH   1   5
TORSDOF 5
ENDMDL
MODEL 3
REMARK VINA RESULT:    -4.342      8.643      9.694
REMARK INTER + INTRA:          -5.926
REMARK INTER:                  -5.410
REMARK INTRA:                  -0.516
REMARK UNBOUND:                -0.315
REMARK SMILES C=CC(=O)CCCCC
REMARK SMILES IDX 6 1 7 2 8 3 9 4 5 5 3 6 4 7 2 8 1 9
REMARK H PARENT
REMARK Flexibility Score: inf
ROOT
ATOM      1  C   UNL     1     103.771 134.211  51.612  1.00  0.00     0.008 C 
ENDROOT
BRANCH   1   2
ATOM      2  C   UNL     1     103.071 132.957  52.153  1.00  0.00     0.000 C 
BRANCH   2   3
ATOM      3  C   UNL     1     102.682 132.009  51.012  1.00  0.00    -0.003 C 
ATOM      4  C   UNL     1     103.295 132.458  49.689  1.00  0.00     0.004 C 
ENDBRANCH   2   3
ENDBRANCH   1   2
BRANCH   1   5
ATOM      5  C   UNL     1     102.900 135.468  51.747  1.00  0.00     0.080 C 
BRANCH   5   6
ATOM      6  C   UNL     1     102.690 136.150  50.425  1.00  0.00     0.155 C 
ATOM      7  O   UNL     1     103.674 136.671  49.835  1.00  0.00    -0.295 OA
BRANCH   6   8
ATOM      8  C   UNL     1     101.336 136.229  49.842  1.00  0.00     0.039 C 
ATOM      9  C   UNL     1     100.542 135.166  49.732  1.00  0.00     0.012 C 
ENDBRANCH   6   8
ENDBRANCH   5   6
ENDBRANCH   1   5
TORSDOF 5
ENDMDL
MODEL 4
REMARK VINA RESULT:    -4.321      8.258      9.393
REMARK INTER + INTRA:          -5.899
REMARK INTER:                  -5.311
REMARK INTRA:                  -0.588
REMARK UNBOUND:                -0.315
REMARK SMILES C=CC(=O)CCCCC
REMARK SMILES IDX 6 1 7 2 8 3 9 4 5 5 3 6 4 7 2 8 1 9
REMARK H PARENT
REMARK Flexibility Score: inf
ROOT
ATOM      1  C   UNL     1      99.934 134.439  51.002  1.00  0.00     0.008 C 
ENDROOT
BRANCH   1   2
ATOM      2  C   UNL     1     100.564 134.987  49.714  1.00  0.00     0.000 C 
BRANCH   2   3
ATOM      3  C   UNL     1     101.237 136.342  49.965  1.00  0.00    -0.003 C 
ATOM      4  C   UNL     1     102.681 136.165  50.422  1.00  0.00     0.004 C 
ENDBRANCH   2   3
ENDBRANCH   1   2
BRANCH   1   5
ATOM      5  C   UNL     1     100.241 132.950  51.212  1.00  0.00     0.080 C 
BRANCH   5   6
ATOM      6  C   UNL     1     101.681 132.720  51.578  1.00  0.00     0.155 C 
ATOM      7  O   UNL     1     102.151 133.267  52.612  1.00  0.00    -0.295 OA
BRANCH   6   8
ATOM      8  C   UNL     1     102.537 131.883  50.716  1.00  0.00     0.039 C 
ATOM      9  C   UNL     1     103.245 132.387  49.707  1.00  0.00     0.012 C 
ENDBRANCH   6   8
ENDBRANCH   5   6
ENDBRANCH   1   5
TORSDOF 5
ENDMDL
MODEL 5
REMARK VINA RESULT:    -4.304      7.787      8.567
REMARK INTER + INTRA:          -5.877
REMARK INTER:                  -5.230
REMARK INTRA:                  -0.647
REMARK UNBOUND:                -0.315
REMARK SMILES C=CC(=O)CCCCC
REMARK SMILES IDX 6 1 7 2 8 3 9 4 5 5 3 6 4 7 2 8 1 9
REMARK H PARENT
REMARK Flexibility Score: inf
ROOT
ATOM      1  C   UNL     1     103.395 133.528  50.966  1.00  0.00     0.008 C 
ENDROOT
BRANCH   1   2
ATOM      2  C   UNL     1     103.289 132.553  49.785  1.00  0.00     0.000 C 
BRANCH   2   3
ATOM      3  C   UNL     1     102.581 131.259  50.203  1.00  0.00    -0.003 C 
ATOM      4  C   UNL     1     102.495 131.143  51.721  1.00  0.00     0.004 C 
ENDBRANCH   2   3
ENDBRANCH   1   2
BRANCH   1   5
ATOM      5  C   UNL     1     102.747 134.886  50.660  1.00  0.00     0.080 C 
BRANCH   5   6
ATOM      6  C   UNL     1     101.268 134.761  50.421  1.00  0.00     0.155 C 
ATOM      7  O   UNL     1     100.786 135.132  49.318  1.00  0.00    -0.295 OA
BRANCH   6   8
ATOM      8  C   UNL     1     100.391 134.234  51.485  1.00  0.00     0.039 C 
ATOM      9  C   UNL     1      99.435 133.338  51.244  1.00  0.00     0.012 C 
ENDBRANCH   6   8
ENDBRANCH   5   6
ENDBRANCH   1   5
TORSDOF 5
ENDMDL
MODEL 6
REMARK VINA RESULT:    -4.272      7.895      8.498
REMARK INTER + INTRA:          -5.835
REMARK INTER:                  -5.278
REMARK INTRA:                  -0.557
REMARK UNBOUND:                -0.315
REMARK SMILES C=CC(=O)CCCCC
REMARK SMILES IDX 6 1 7 2 8 3 9 4 5 5 3 6 4 7 2 8 1 9
REMARK H PARENT
REMARK Flexibility Score: inf
ROOT
ATOM      1  C   UNL     1     100.907 131.738  52.591  1.00  0.00     0.008 C 
ENDROOT
BRANCH   1   2
ATOM      2  C   UNL     1     102.306 132.068  52.054  1.00  0.00     0.000 C 
BRANCH   2   3
ATOM      3  C   UNL     1     102.500 131.501  50.642  1.00  0.00    -0.003 C 
ATOM      4  C   UNL     1     103.264 132.480  49.755  1.00  0.00     0.004 C 
ENDBRANCH   2   3
ENDBRANCH   1   2
BRANCH   1   5
ATOM      5  C   UNL     1      99.797 132.139  51.609  1.00  0.00     0.080 C 
BRANCH   5   6
ATOM      6  C   UNL     1      99.587 133.626  51.576  1.00  0.00     0.155 C 
ATOM      7  O   UNL     1      99.464 134.257  52.661  1.00  0.00    -0.295 OA
BRANCH   6   8
ATOM      8  C   UNL     1      99.497 134.331  50.283  1.00  0.00     0.039 C 
ATOM      9  C   UNL     1     100.478 135.105  49.821  1.00  0.00     0.012 C 
ENDBRANCH   6   8
ENDBRANCH   5   6
ENDBRANCH   1   5
TORSDOF 5
ENDMDL
MODEL 7
REMARK VINA RESULT:    -4.219      7.657      8.666
REMARK INTER + INTRA:          -5.767
REMARK INTER:                  -5.176
REMARK INTRA:                  -0.592
REMARK UNBOUND:                -0.315
REMARK SMILES C=CC(=O)CCCCC
REMARK SMILES IDX 6 1 7 2 8 3 9 4 5 5 3 6 4 7 2 8 1 9
REMARK H PARENT
REMARK Flexibility Score: inf
ROOT
ATOM      1  C   UNL     1     102.134 134.835  50.890  1.00  0.00     0.008 C 
ENDROOT
BRANCH   1   2
ATOM      2  C   UNL     1     103.117 133.682  51.129  1.00  0.00     0.000 C 
BRANCH   2   3
ATOM      3  C   UNL     1     103.228 132.788  49.888  1.00  0.00    -0.003 C 
ATOM      4  C   UNL     1     102.768 131.366  50.189  1.00  0.00     0.004 C 
ENDBRANCH   2   3
ENDBRANCH   1   2
BRANCH   1   5
ATOM      5  C   UNL     1     100.861 134.701  51.738  1.00  0.00     0.080 C 
BRANCH   5   6
ATOM      6  C   UNL     1      99.797 133.909  51.032  1.00  0.00     0.155 C 
ATOM      7  O   UNL     1      99.148 134.445  50.094  1.00  0.00    -0.295 OA
BRANCH   6   8
ATOM      8  C   UNL     1      99.501 132.527  51.456  1.00  0.00     0.039 C 
ATOM      9  C   UNL     1      99.933 132.026  52.612  1.00  0.00     0.012 C 
ENDBRANCH   6   8
ENDBRANCH   5   6
ENDBRANCH   1   5
TORSDOF 5
ENDMDL
MODEL 8
REMARK VINA RESULT:    -4.207      8.083      8.948
REMARK INTER + INTRA:          -5.751
REMARK INTER:                  -5.190
REMARK INTRA:                  -0.561
REMARK UNBOUND:                -0.315
REMARK SMILES C=CC(=O)CCCCC
REMARK SMILES IDX 6 1 7 2 8 3 9 4 5 5 3 6 4 7 2 8 1 9
REMARK H PARENT
REMARK Flexibility Score: inf
ROOT
ATOM      1  C   UNL     1     101.133 134.730  50.355  1.00  0.00     0.008 C 
ENDROOT
BRANCH   1   2
ATOM      2  C   UNL     1     100.371 134.300  51.617  1.00  0.00     0.000 C 
BRANCH   2   3
ATOM      3  C   UNL     1      99.439 133.119  51.320  1.00  0.00    -0.003 C 
ATOM      4  C   UNL     1      99.768 131.921  52.205  1.00  0.00     0.004 C 
ENDBRANCH   2   3
ENDBRANCH   1   2
BRANCH   1   5
ATOM      5  C   UNL     1     102.627 134.954  50.626  1.00  0.00     0.080 C 
BRANCH   5   6
ATOM      6  C   UNL     1     103.364 133.658  50.812  1.00  0.00     0.155 C 
ATOM      7  O   UNL     1     104.126 133.517  51.806  1.00  0.00    -0.295 OA
BRANCH   6   8
ATOM      8  C   UNL     1     103.215 132.575  49.820  1.00  0.00     0.039 C 
ATOM      9  C   UNL     1     102.769 131.364  50.147  1.00  0.00     0.012 C 
ENDBRANCH   6   8
ENDBRANCH   5   6
ENDBRANCH   1   5
TORSDOF 5
ENDMDL
MODEL 9
REMARK VINA RESULT:    -4.200      8.109      9.297
REMARK INTER + INTRA:          -5.742
REMARK INTER:                  -5.372
REMARK INTRA:                  -0.370
REMARK UNBOUND:                -0.315
REMARK SMILES C=CC(=O)CCCCC
REMARK SMILES IDX 6 1 7 2 8 3 9 4 5 5 3 6 4 7 2 8 1 9
REMARK H PARENT
REMARK Flexibility Score: inf
ROOT
ATOM      1  C   UNL     1     102.985 132.766  49.977  1.00  0.00     0.008 C 
ENDROOT
BRANCH   1   2
ATOM      2  C   UNL     1     102.578 131.461  50.676  1.00  0.00     0.000 C 
BRANCH   2   3
ATOM      3  C   UNL     1     101.132 131.535  51.179  1.00  0.00    -0.003 C 
ATOM      4  C   UNL     1     101.072 131.460  52.701  1.00  0.00     0.004 C 
ENDBRANCH   2   3
ENDBRANCH   1   2
BRANCH   1   5
ATOM      5  C   UNL     1     103.686 133.744  50.931  1.00  0.00     0.080 C 
BRANCH   5   6
ATOM      6  C   UNL     1     102.799 134.899  51.302  1.00  0.00     0.155 C 
ATOM      7  O   UNL     1     102.133 134.850  52.371  1.00  0.00    -0.295 OA
BRANCH   6   8
ATOM      8  C   UNL     1     102.693 136.065  50.403  1.00  0.00     0.039 C 
ATOM      9  C   UNL     1     101.541 136.436  49.847  1.00  0.00     0.012 C 
ENDBRANCH   6   8
ENDBRANCH   5   6
ENDBRANCH   1   5
TORSDOF 5
ENDMDL
