MODEL 1
REMARK VINA RESULT:    -2.891      0.000      0.000
REMARK INTER + INTRA:          -2.807
REMARK INTER:                  -3.568
REMARK INTRA:                   0.760
REMARK UNBOUND:                 0.760
REMARK SMILES CC1=CC=CC(C)(C)CC1=O
REMARK SMILES IDX 1 1 2 2 3 3 10 4 11 5 9 6 4 8 5 9 6 10 7 11 8 12
REMARK H PARENT
REMARK Flexibility Score: 80.00
ROOT
ATOM      1  C   UNL     1      26.985  38.926  18.268  1.00  0.00     0.048 C 
ATOM      2  C   UNL     1      26.913  40.157  19.141  1.00  0.00    -0.008 C 
ATOM      3  C   UNL     1      27.482  41.289  18.675  1.00  0.00     0.007 C 
ENDROOT
BRANCH   2   4
ATOM      4  C   UNL     1      26.288  40.001  20.479  1.00  0.00     0.159 C 
ATOM      5  O   UNL     1      26.015  38.840  20.891  1.00  0.00    -0.295 OA
BRANCH   4   6
ATOM      6  C   UNL     1      25.945  41.155  21.370  1.00  0.00     0.091 CG0
ATOM      7  G   UNL     1      27.164  42.038  21.720  1.00  0.00     0.000 G0
ENDBRANCH   4   6
ENDBRANCH   2   4
BRANCH   3   8
ATOM      8  C   UNL     1      27.594  42.627  19.304  1.00  0.00    -0.003 C 
ATOM      9  C   UNL     1      27.472  42.966  20.593  1.00  0.00    -0.020 C 
BRANCH   9  10
ATOM     10  C   UNL     1      27.155  42.036  21.740  1.00  0.00    -0.010 CG0
ATOM     11  C   UNL     1      28.407  41.209  22.111  1.00  0.00     0.016 C 
ATOM     12  C   UNL     1      26.769  42.893  22.967  1.00  0.00     0.016 C 
ATOM     13  G   UNL     1      25.943  41.151  21.372  1.00  0.00     0.000 G0
ENDBRANCH   9  10
ENDBRANCH   3   8
TORSDOF 0
ENDMDL
MODEL 2
REMARK VINA RESULT:    -2.736      3.232      4.650
REMARK INTER + INTRA:          -2.615
REMARK INTER:                  -3.361
REMARK INTRA:                   0.746
REMARK UNBOUND:                 0.760
REMARK SMILES CC1=CC=CC(C)(C)CC1=O
REMARK SMILES IDX 1 1 2 2 3 3 10 4 11 5 9 6 4 8 5 9 6 10 7 11 8 12
REMARK H PARENT
REMARK Flexibility Score: 80.00
ROOT
ATOM      1  C   UNL     1      26.130  36.579  22.235  1.00  0.00     0.048 C 
ATOM      2  C   UNL     1      26.846  36.911  20.948  1.00  0.00    -0.008 C 
ATOM      3  C   UNL     1      27.934  36.177  20.629  1.00  0.00     0.007 C 
ENDROOT
BRANCH   2   4
ATOM      4  C   UNL     1      26.339  38.071  20.172  1.00  0.00     0.159 C 
ATOM      5  O   UNL     1      25.473  38.823  20.698  1.00  0.00    -0.295 OA
BRANCH   4   6
ATOM      6  C   UNL     1      26.789  38.395  18.780  1.00  0.00     0.091 CG0
ATOM      7  G   UNL     1      28.313  38.625  18.672  1.00  0.00     0.000 G0
ENDBRANCH   4   6
ENDBRANCH   2   4
BRANCH   3   8
ATOM      8  C   UNL     1      28.844  36.281  19.464  1.00  0.00    -0.003 C 
ATOM      9  C   UNL     1      29.027  37.308  18.625  1.00  0.00    -0.020 C 
BRANCH   9  10
ATOM     10  C   UNL     1      28.302  38.632  18.656  1.00  0.00    -0.010 CG0
ATOM     11  C   UNL     1      28.873  39.521  19.785  1.00  0.00     0.016 C 
ATOM     12  C   UNL     1      28.550  39.353  17.311  1.00  0.00     0.016 C 
ATOM     13  G   UNL     1      26.782  38.391  18.799  1.00  0.00     0.000 G0
ENDBRANCH   9  10
ENDBRANCH   3   8
TORSDOF 0
ENDMDL
MODEL 3
REMARK VINA RESULT:    -2.726     11.617     12.635
REMARK INTER + INTRA:          -2.603
REMARK INTER:                  -3.350
REMARK INTRA:                   0.747
REMARK UNBOUND:                 0.760
REMARK SMILES CC1=CC=CC(C)(C)CC1=O
REMARK SMILES IDX 1 1 2 2 3 3 10 4 11 5 9 6 4 8 5 9 6 10 7 11 8 12
REMARK H PARENT
REMARK Flexibility Score: 80.00
ROOT
ATOM      1  C   UNL     1      27.285  26.341  25.746  1.00  0.00     0.048 C 
ATOM      2  C   UNL     1      27.579  27.626  25.009  1.00  0.00    -0.008 C 
ATOM      3  C   UNL     1      28.591  27.619  24.115  1.00  0.00     0.007 C 
ENDROOT
BRANCH   2   4
ATOM      4  C   UNL     1      26.777  28.819  25.384  1.00  0.00     0.159 C 
ATOM      5  O   UNL     1      26.021  28.750  26.392  1.00  0.00    -0.295 OA
BRANCH   4   6
ATOM      6  C   UNL     1      26.803  30.106  24.620  1.00  0.00     0.091 CG0
ATOM      7  G   UNL     1      28.213  30.731  24.527  1.00  0.00     0.000 G0
ENDBRANCH   4   6
ENDBRANCH   2   4
BRANCH   3   8
ATOM      8  C   UNL     1      29.124  28.715  23.272  1.00  0.00    -0.003 C 
ATOM      9  C   UNL     1      28.987  30.038  23.422  1.00  0.00    -0.020 C 
BRANCH   9  10
ATOM     10  C   UNL     1      28.207  30.743  24.507  1.00  0.00    -0.010 CG0
ATOM     11  C   UNL     1      29.005  30.720  25.831  1.00  0.00     0.016 C 
ATOM     12  C   UNL     1      28.020  32.219  24.089  1.00  0.00     0.016 C 
ATOM     13  G   UNL     1      26.808  30.100  24.643  1.00  0.00     0.000 G0
ENDBRANCH   9  10
ENDBRANCH   3   8
TORSDOF 0
ENDMDL
MODEL 4
REMARK VINA RESULT:    -2.711      1.847      3.451
REMARK INTER + INTRA:          -2.585
REMARK INTER:                  -3.350
REMARK INTRA:                   0.765
REMARK UNBOUND:                 0.760
REMARK SMILES CC1=CC=CC(C)(C)CC1=O
REMARK SMILES IDX 1 1 2 2 3 3 10 4 11 5 9 6 4 8 5 9 6 10 7 11 8 12
REMARK H PARENT
REMARK Flexibility Score: 80.00
ROOT
ATOM      1  C   UNL     1      26.558  43.282  19.888  1.00  0.00     0.048 C 
ATOM      2  C   UNL     1      26.949  41.823  19.866  1.00  0.00    -0.008 C 
ATOM      3  C   UNL     1      27.152  41.248  18.661  1.00  0.00     0.007 C 
ENDROOT
BRANCH   2   4
ATOM      4  C   UNL     1      27.005  41.119  21.172  1.00  0.00     0.159 C 
ATOM      5  O   UNL     1      26.550  41.699  22.196  1.00  0.00    -0.295 OA
BRANCH   4   6
ATOM      6  C   UNL     1      27.590  39.751  21.349  1.00  0.00     0.091 CG0
ATOM      7  G   UNL     1      26.881  38.671  20.500  1.00  0.00     0.000 G0
ENDBRANCH   4   6
ENDBRANCH   2   4
BRANCH   3   8
ATOM      8  C   UNL     1      27.514  39.850  18.323  1.00  0.00    -0.003 C 
ATOM      9  C   UNL     1      27.401  38.745  19.070  1.00  0.00    -0.020 C 
BRANCH   9  10
ATOM     10  C   UNL     1      26.887  38.668  20.488  1.00  0.00    -0.010 CG0
ATOM     11  C   UNL     1      25.347  38.802  20.500  1.00  0.00     0.016 C 
ATOM     12  C   UNL     1      27.249  37.279  21.061  1.00  0.00     0.016 C 
ATOM     13  G   UNL     1      27.585  39.742  21.354  1.00  0.00     0.000 G0
ENDBRANCH   9  10
ENDBRANCH   3   8
TORSDOF 0
ENDMDL
MODEL 5
REMARK VINA RESULT:    -2.614      1.764      2.557
REMARK INTER + INTRA:          -2.465
REMARK INTER:                  -3.224
REMARK INTRA:                   0.759
REMARK UNBOUND:                 0.760
REMARK SMILES CC1=CC=CC(C)(C)CC1=O
REMARK SMILES IDX 1 1 2 2 3 3 10 4 11 5 9 6 4 8 5 9 6 10 7 11 8 12
REMARK H PARENT
REMARK Flexibility Score: 80.00
ROOT
ATOM      1  C   UNL     1      25.324  37.415  20.309  1.00  0.00     0.048 C 
ATOM      2  C   UNL     1      26.352  38.460  19.948  1.00  0.00    -0.008 C 
ATOM      3  C   UNL     1      27.458  38.050  19.291  1.00  0.00     0.007 C 
ENDROOT
BRANCH   2   4
ATOM      4  C   UNL     1      26.098  39.847  20.413  1.00  0.00     0.159 C 
ATOM      5  O   UNL     1      25.152  40.054  21.222  1.00  0.00    -0.295 OA
BRANCH   4   6
ATOM      6  C   UNL     1      26.899  41.030  19.963  1.00  0.00     0.091 CG0
ATOM      7  G   UNL     1      28.406  40.902  20.281  1.00  0.00     0.000 G0
ENDBRANCH   4   6
ENDBRANCH   2   4
BRANCH   3   8
ATOM      8  C   UNL     1      28.636  38.826  18.833  1.00  0.00    -0.003 C 
ATOM      9  C   UNL     1      29.065  40.027  19.239  1.00  0.00    -0.020 C 
BRANCH   9  10
ATOM     10  C   UNL     1      28.410  40.913  20.272  1.00  0.00    -0.010 CG0
ATOM     11  C   UNL     1      28.695  40.370  21.691  1.00  0.00     0.016 C 
ATOM     12  C   UNL     1      29.033  42.323  20.167  1.00  0.00     0.016 C 
ATOM     13  G   UNL     1      26.898  41.031  19.972  1.00  0.00     0.000 G0
ENDBRANCH   9  10
ENDBRANCH   3   8
TORSDOF 0
ENDMDL
MODEL 6
REMARK VINA RESULT:    -2.521      2.458      4.335
REMARK INTER + INTRA:          -2.351
REMARK INTER:                  -3.382
REMARK INTRA:                   1.031
REMARK UNBOUND:                 0.760
REMARK SMILES CC1=CC=CC(C)(C)CC1=O
REMARK SMILES IDX 1 1 2 2 3 3 10 4 11 5 9 6 4 8 5 9 6 10 7 11 8 12
REMARK H PARENT
REMARK Flexibility Score: 80.00
ROOT
ATOM      1  C   UNL     1      25.920  41.853  21.024  1.00  0.00     0.048 C 
ATOM      2  C   UNL     1      26.364  40.428  20.794  1.00  0.00    -0.008 C 
ATOM      3  C   UNL     1      25.415  39.467  20.804  1.00  0.00     0.007 C 
ENDROOT
BRANCH   2   4
ATOM      4  C   UNL     1      27.823  40.189  20.650  1.00  0.00     0.159 C 
ATOM      5  O   UNL     1      28.578  41.170  20.405  1.00  0.00    -0.295 OA
BRANCH   4   6
ATOM      6  C   UNL     1      28.454  38.836  20.764  1.00  0.00     0.091 CG0
ATOM      7  G   UNL     1      27.920  37.825  19.724  1.00  0.00     0.000 G0
ENDBRANCH   4   6
ENDBRANCH   2   4
BRANCH   3   8
ATOM      8  C   UNL     1      25.545  38.000  20.636  1.00  0.00    -0.003 C 
ATOM      9  C   UNL     1      26.591  37.290  20.197  1.00  0.00    -0.020 C 
BRANCH   9  10
ATOM     10  C   UNL     1      27.916  37.841  19.728  1.00  0.00    -0.010 CG0
ATOM     11  C   UNL     1      28.906  36.683  19.464  1.00  0.00     0.016 C 
ATOM     12  C   UNL     1      27.688  38.585  18.392  1.00  0.00     0.016 C 
ATOM     13  G   UNL     1      28.452  38.859  20.760  1.00  0.00     0.000 G0
ENDBRANCH   9  10
ENDBRANCH   3   8
TORSDOF 0
ENDMDL
MODEL 7
REMARK VINA RESULT:    -2.299      1.784      2.628
REMARK INTER + INTRA:          -2.076
REMARK INTER:                  -3.102
REMARK INTRA:                   1.026
REMARK UNBOUND:                 0.760
REMARK SMILES CC1=CC=CC(C)(C)CC1=O
REMARK SMILES IDX 1 1 2 2 3 3 10 4 11 5 9 6 4 8 5 9 6 10 7 11 8 12
REMARK H PARENT
REMARK Flexibility Score: 80.00
ROOT
ATOM      1  C   UNL     1      25.335  37.407  20.031  1.00  0.00     0.048 C 
ATOM      2  C   UNL     1      25.950  38.781  20.153  1.00  0.00    -0.008 C 
ATOM      3  C   UNL     1      25.307  39.687  20.921  1.00  0.00     0.007 C 
ENDROOT
BRANCH   2   4
ATOM      4  C   UNL     1      27.174  39.047  19.357  1.00  0.00     0.159 C 
ATOM      5  O   UNL     1      27.797  38.071  18.855  1.00  0.00    -0.295 OA
BRANCH   4   6
ATOM      6  C   UNL     1      27.725  40.420  19.123  1.00  0.00     0.091 CG0
ATOM      7  G   UNL     1      28.060  41.172  20.431  1.00  0.00     0.000 G0
ENDBRANCH   4   6
ENDBRANCH   2   4
BRANCH   3   8
ATOM      8  C   UNL     1      25.646  41.102  21.207  1.00  0.00    -0.003 C 
ATOM      9  C   UNL     1      26.795  41.755  20.992  1.00  0.00    -0.020 C 
BRANCH   9  10
ATOM     10  C   UNL     1      28.063  41.174  20.413  1.00  0.00    -0.010 CG0
ATOM     11  C   UNL     1      29.103  42.295  20.188  1.00  0.00     0.016 C 
ATOM     12  C   UNL     1      28.651  40.177  21.437  1.00  0.00     0.016 C 
ATOM     13  G   UNL     1      27.736  40.397  19.118  1.00  0.00     0.000 G0
ENDBRANCH   9  10
ENDBRANCH   3   8
TORSDOF 0
ENDMDL
MODEL 8
REMARK VINA RESULT:    -2.292      2.562      4.114
REMARK INTER + INTRA:          -2.068
REMARK INTER:                  -2.809
REMARK INTRA:                   0.741
REMARK UNBOUND:                 0.760
REMARK SMILES CC1=CC=CC(C)(C)CC1=O
REMARK SMILES IDX 1 1 2 2 3 3 10 4 11 5 9 6 4 8 5 9 6 10 7 11 8 12
REMARK H PARENT
REMARK Flexibility Score: 80.00
ROOT
ATOM      1  C   UNL     1      23.606  38.880  21.264  1.00  0.00     0.048 C 
ATOM      2  C   UNL     1      25.066  38.887  20.876  1.00  0.00    -0.008 C 
ATOM      3  C   UNL     1      25.730  40.060  20.960  1.00  0.00     0.007 C 
ENDROOT
BRANCH   2   4
ATOM      4  C   UNL     1      25.634  37.617  20.359  1.00  0.00     0.159 C 
ATOM      5  O   UNL     1      24.848  36.673  20.068  1.00  0.00    -0.295 OA
BRANCH   4   6
ATOM      6  C   UNL     1      27.102  37.382  20.174  1.00  0.00     0.091 CG0
ATOM      7  G   UNL     1      27.757  38.371  19.184  1.00  0.00     0.000 G0
ENDBRANCH   4   6
ENDBRANCH   2   4
BRANCH   3   8
ATOM      8  C   UNL     1      27.139  40.381  20.628  1.00  0.00    -0.003 C 
ATOM      9  C   UNL     1      28.006  39.695  19.873  1.00  0.00    -0.020 C 
BRANCH   9  10
ATOM     10  C   UNL     1      27.749  38.376  19.185  1.00  0.00    -0.010 CG0
ATOM     11  C   UNL     1      26.907  38.601  17.908  1.00  0.00     0.016 C 
ATOM     12  C   UNL     1      29.109  37.777  18.760  1.00  0.00     0.016 C 
ATOM     13  G   UNL     1      27.080  37.394  20.174  1.00  0.00     0.000 G0
ENDBRANCH   9  10
ENDBRANCH   3   8
TORSDOF 0
ENDMDL
MODEL 9
REMARK VINA RESULT:    -2.117      1.941      3.888
REMARK INTER + INTRA:          -1.851
REMARK INTER:                  -2.876
REMARK INTRA:                   1.024
REMARK UNBOUND:                 0.760
REMARK SMILES CC1=CC=CC(C)(C)CC1=O
REMARK SMILES IDX 1 1 2 2 3 3 10 4 11 5 9 6 4 8 5 9 6 10 7 11 8 12
REMARK H PARENT
REMARK Flexibility Score: 80.00
ROOT
ATOM      1  C   UNL     1      26.748  43.279  22.539  1.00  0.00     0.048 C 
ATOM      2  C   UNL     1      26.897  42.034  21.697  1.00  0.00    -0.008 C 
ATOM      3  C   UNL     1      25.828  41.215  21.596  1.00  0.00     0.007 C 
ENDROOT
BRANCH   2   4
ATOM      4  C   UNL     1      28.234  41.773  21.106  1.00  0.00     0.159 C 
ATOM      5  O   UNL     1      29.091  42.699  21.109  1.00  0.00    -0.295 OA
BRANCH   4   6
ATOM      6  C   UNL     1      28.624  40.466  20.488  1.00  0.00     0.091 CG0
ATOM      7  G   UNL     1      27.694  40.039  19.329  1.00  0.00     0.000 G0
ENDBRANCH   4   6
ENDBRANCH   2   4
BRANCH   3   8
ATOM      8  C   UNL     1      25.680  39.928  20.875  1.00  0.00    -0.003 C 
ATOM      9  C   UNL     1      26.462  39.397  19.928  1.00  0.00    -0.020 C 
BRANCH   9  10
ATOM     10  C   UNL     1      27.704  40.019  19.336  1.00  0.00    -0.010 CG0
ATOM     11  C   UNL     1      28.389  39.021  18.374  1.00  0.00     0.016 C 
ATOM     12  C   UNL     1      27.282  41.259  18.515  1.00  0.00     0.016 C 
ATOM     13  G   UNL     1      28.642  40.491  20.471  1.00  0.00     0.000 G0
ENDBRANCH   9  10
ENDBRANCH   3   8
TORSDOF 0
ENDMDL
