MODEL 1
REMARK VINA RESULT:    -4.355      0.000      0.000
REMARK INTER + INTRA:          -5.411
REMARK INTER:                  -6.137
REMARK INTRA:                   0.725
REMARK UNBOUND:                 0.725
REMARK SMILES CC1=CCC(=C(C)C)C(=O)CC(C)=CCC1
REMARK SMILES IDX 12 1 14 2 13 3 15 4 16 5 2 6 1 7 3 8 11 10 9 11 10 12 5 13
REMARK SMILES IDX 6 14 7 15 8 16 4 17
REMARK H PARENT
REMARK Flexibility Score: 60.00
ROOT
ATOM      1  C   UNL     1       2.747  13.927  -8.322  1.00  0.00    -0.070 C 
ATOM      2  C   UNL     1       1.955  14.066  -7.227  1.00  0.00    -0.027 C 
ATOM      3  C   UNL     1       2.692  12.630  -9.093  1.00  0.00     0.039 C 
ENDROOT
BRANCH   2   4
ATOM      4  C   UNL     1       1.808  15.317  -6.394  1.00  0.00     0.032 C 
BRANCH   4   5
ATOM      5  C   UNL     1       2.755  15.358  -5.187  1.00  0.00     0.034 C 
BRANCH   5   6
ATOM      6  C   UNL     1       3.941  16.257  -5.481  1.00  0.00    -0.077 C 
ATOM      7  C   UNL     1       3.718  17.748  -5.505  1.00  0.00     0.039 C 
ATOM      8  C   UNL     1       5.171  15.789  -5.800  1.00  0.00    -0.023 CG0
ATOM      9  G   UNL     1       5.586  14.337  -5.814  1.00  0.00     0.000 G0
ENDBRANCH   5   6
ENDBRANCH   4   5
ENDBRANCH   2   4
BRANCH   1  10
ATOM     10  C   UNL     1       3.801  14.938  -8.754  1.00  0.00     0.111 C 
BRANCH  10  11
ATOM     11  C   UNL     1       5.208  14.557  -8.367  1.00  0.00     0.163 C 
ATOM     12  O   UNL     1       6.146  14.953  -9.113  1.00  0.00    -0.294 OA
BRANCH  11  13
ATOM     13  C   UNL     1       5.516  13.691  -7.182  1.00  0.00    -0.002 C 
ATOM     14  C   UNL     1       5.774  12.355  -7.338  1.00  0.00    -0.069 C 
ATOM     15  C   UNL     1       5.615  11.666  -8.676  1.00  0.00     0.039 C 
ATOM     16  C   UNL     1       6.183  11.481  -6.173  1.00  0.00     0.039 C 
BRANCH  13  17
ATOM     17  C   UNL     1       5.595  14.339  -5.800  1.00  0.00     0.066 CG0
ATOM     18  G   UNL     1       5.165  15.786  -5.824  1.00  0.00     0.000 G0
ENDBRANCH  13  17
ENDBRANCH  11  13
ENDBRANCH  10  11
ENDBRANCH   1  10
TORSDOF 0
ENDMDL
MODEL 2
REMARK VINA RESULT:    -4.082      1.850      3.994
REMARK INTER + INTRA:          -5.027
REMARK INTER:                  -6.141
REMARK INTRA:                   1.113
REMARK UNBOUND:                 0.725
REMARK SMILES CC1=CCC(=C(C)C)C(=O)CC(C)=CCC1
REMARK SMILES IDX 12 1 14 2 13 3 15 4 16 5 2 6 1 7 3 8 11 10 9 11 10 12 5 13
REMARK SMILES IDX 6 14 7 15 8 16 4 17
REMARK H PARENT
REMARK Flexibility Score: 60.00
ROOT
ATOM      1  C   UNL     1       2.693  12.879  -7.353  1.00  0.00    -0.070 C 
ATOM      2  C   UNL     1       2.982  13.412  -8.568  1.00  0.00    -0.027 C 
ATOM      3  C   UNL     1       2.770  11.381  -7.184  1.00  0.00     0.039 C 
ENDROOT
BRANCH   2   4
ATOM      4  C   UNL     1       3.049  14.884  -8.896  1.00  0.00     0.032 C 
BRANCH   4   5
ATOM      5  C   UNL     1       4.458  15.474  -8.757  1.00  0.00     0.034 C 
BRANCH   5   6
ATOM      6  C   UNL     1       5.412  14.431  -8.205  1.00  0.00    -0.077 C 
ATOM      7  C   UNL     1       5.873  13.329  -9.123  1.00  0.00     0.039 C 
ATOM      8  C   UNL     1       5.809  14.394  -6.910  1.00  0.00    -0.023 CG0
ATOM      9  G   UNL     1       5.463  15.414  -5.852  1.00  0.00     0.000 G0
ENDBRANCH   5   6
ENDBRANCH   4   5
ENDBRANCH   2   4
BRANCH   1  10
ATOM     10  C   UNL     1       2.151  13.675  -6.172  1.00  0.00     0.111 C 
BRANCH  10  11
ATOM     11  C   UNL     1       3.221  14.231  -5.267  1.00  0.00     0.163 C 
ATOM     12  O   UNL     1       3.452  13.617  -4.189  1.00  0.00    -0.294 OA
BRANCH  11  13
ATOM     13  C   UNL     1       3.964  15.498  -5.573  1.00  0.00    -0.002 C 
ATOM     14  C   UNL     1       3.323  16.708  -5.556  1.00  0.00    -0.069 C 
ATOM     15  C   UNL     1       1.823  16.811  -5.377  1.00  0.00     0.039 C 
ATOM     16  C   UNL     1       4.068  18.008  -5.765  1.00  0.00     0.039 C 
BRANCH  13  17
ATOM     17  C   UNL     1       5.465  15.421  -5.849  1.00  0.00     0.066 CG0
ATOM     18  G   UNL     1       5.798  14.396  -6.907  1.00  0.00     0.000 G0
ENDBRANCH  13  17
ENDBRANCH  11  13
ENDBRANCH  10  11
ENDBRANCH   1  10
TORSDOF 0
ENDMDL
MODEL 3
REMARK VINA RESULT:    -3.873      1.769      4.588
REMARK INTER + INTRA:          -4.732
REMARK INTER:                  -5.733
REMARK INTRA:                   1.001
REMARK UNBOUND:                 0.725
REMARK SMILES CC1=CCC(=C(C)C)C(=O)CC(C)=CCC1
REMARK SMILES IDX 12 1 14 2 13 3 15 4 16 5 2 6 1 7 3 8 11 10 9 11 10 12 5 13
REMARK SMILES IDX 6 14 7 15 8 16 4 17
REMARK H PARENT
REMARK Flexibility Score: 60.00
ROOT
ATOM      1  C   UNL     1       5.964  12.804  -6.698  1.00  0.00    -0.070 C 
ATOM      2  C   UNL     1       5.375  11.853  -7.469  1.00  0.00    -0.027 C 
ATOM      3  C   UNL     1       6.429  12.424  -5.314  1.00  0.00     0.039 C 
ENDROOT
BRANCH   2   4
ATOM      4  C   UNL     1       4.935  12.024  -8.904  1.00  0.00     0.032 C 
BRANCH   4   5
ATOM      5  C   UNL     1       3.450  11.711  -9.125  1.00  0.00     0.034 C 
BRANCH   5   6
ATOM      6  C   UNL     1       2.719  11.669  -7.796  1.00  0.00    -0.077 C 
ATOM      7  C   UNL     1       2.497  10.329  -7.145  1.00  0.00     0.039 C 
ATOM      8  C   UNL     1       2.187  12.765  -7.203  1.00  0.00    -0.023 CG0
ATOM      9  G   UNL     1       2.317  14.186  -7.695  1.00  0.00     0.000 G0
ENDBRANCH   5   6
ENDBRANCH   4   5
ENDBRANCH   2   4
BRANCH   1  10
ATOM     10  C   UNL     1       6.061  14.277  -7.075  1.00  0.00     0.111 C 
BRANCH  10  11
ATOM     11  C   UNL     1       4.839  14.811  -7.778  1.00  0.00     0.163 C 
ATOM     12  O   UNL     1       4.975  15.207  -8.968  1.00  0.00    -0.294 OA
BRANCH  11  13
ATOM     13  C   UNL     1       3.506  14.938  -7.101  1.00  0.00    -0.002 C 
ATOM     14  C   UNL     1       3.354  15.736  -5.998  1.00  0.00    -0.069 C 
ATOM     15  C   UNL     1       4.537  16.400  -5.327  1.00  0.00     0.039 C 
ATOM     16  C   UNL     1       2.002  15.958  -5.355  1.00  0.00     0.039 C 
BRANCH  13  17
ATOM     17  C   UNL     1       2.306  14.206  -7.698  1.00  0.00     0.066 CG0
ATOM     18  G   UNL     1       2.201  12.784  -7.202  1.00  0.00     0.000 G0
ENDBRANCH  13  17
ENDBRANCH  11  13
ENDBRANCH  10  11
ENDBRANCH   1  10
TORSDOF 0
ENDMDL
MODEL 4
REMARK VINA RESULT:    -3.549      1.899      4.560
REMARK INTER + INTRA:          -4.276
REMARK INTER:                  -5.475
REMARK INTRA:                   1.199
REMARK UNBOUND:                 0.725
REMARK SMILES CC1=CCC(=C(C)C)C(=O)CC(C)=CCC1
REMARK SMILES IDX 12 1 14 2 13 3 15 4 16 5 2 6 1 7 3 8 11 10 9 11 10 12 5 13
REMARK SMILES IDX 6 14 7 15 8 16 4 17
REMARK H PARENT
REMARK Flexibility Score: 60.00
ROOT
ATOM      1  C   UNL     1       5.575  13.204  -7.121  1.00  0.00    -0.070 C 
ATOM      2  C   UNL     1       5.159  13.505  -8.379  1.00  0.00    -0.027 C 
ATOM      3  C   UNL     1       5.989  11.784  -6.819  1.00  0.00     0.039 C 
ENDROOT
BRANCH   2   4
ATOM      4  C   UNL     1       4.799  14.881  -8.886  1.00  0.00     0.032 C 
BRANCH   4   5
ATOM      5  C   UNL     1       3.289  15.091  -9.053  1.00  0.00     0.034 C 
BRANCH   5   6
ATOM      6  C   UNL     1       2.525  13.962  -8.388  1.00  0.00    -0.077 C 
ATOM      7  C   UNL     1       2.399  12.654  -9.125  1.00  0.00     0.039 C 
ATOM      8  C   UNL     1       1.884  14.092  -7.202  1.00  0.00    -0.023 CG0
ATOM      9  G   UNL     1       1.907  15.315  -6.316  1.00  0.00     0.000 G0
ENDBRANCH   5   6
ENDBRANCH   4   5
ENDBRANCH   2   4
BRANCH   1  10
ATOM     10  C   UNL     1       5.520  14.168  -5.944  1.00  0.00     0.111 C 
BRANCH  10  11
ATOM     11  C   UNL     1       4.142  14.341  -5.358  1.00  0.00     0.163 C 
ATOM     12  O   UNL     1       3.696  13.412  -4.629  1.00  0.00    -0.294 OA
BRANCH  11  13
ATOM     13  C   UNL     1       3.278  15.530  -5.655  1.00  0.00    -0.002 C 
ATOM     14  C   UNL     1       3.717  16.800  -5.387  1.00  0.00    -0.069 C 
ATOM     15  C   UNL     1       5.014  17.053  -4.649  1.00  0.00     0.039 C 
ATOM     16  C   UNL     1       2.908  18.020  -5.767  1.00  0.00     0.039 C 
BRANCH  13  17
ATOM     17  C   UNL     1       1.920  15.305  -6.318  1.00  0.00     0.066 CG0
ATOM     18  G   UNL     1       1.907  14.068  -7.184  1.00  0.00     0.000 G0
ENDBRANCH  13  17
ENDBRANCH  11  13
ENDBRANCH  10  11
ENDBRANCH   1  10
TORSDOF 0
ENDMDL
MODEL 5
REMARK VINA RESULT:    -3.219      1.818      2.368
REMARK INTER + INTRA:          -3.812
REMARK INTER:                  -4.436
REMARK INTRA:                   0.625
REMARK UNBOUND:                 0.725
REMARK SMILES CC1=CCC(=C(C)C)C(=O)CC(C)=CCC1
REMARK SMILES IDX 12 1 14 2 13 3 15 4 16 5 2 6 1 7 3 8 11 10 9 11 10 12 5 13
REMARK SMILES IDX 6 14 7 15 8 16 4 17
REMARK H PARENT
REMARK Flexibility Score: 60.00
ROOT
ATOM      1  C   UNL     1       4.277  14.403  -8.897  1.00  0.00    -0.070 C 
ATOM      2  C   UNL     1       3.213  15.207  -8.633  1.00  0.00    -0.027 C 
ATOM      3  C   UNL     1       5.625  15.041  -9.125  1.00  0.00     0.039 C 
ENDROOT
BRANCH   2   4
ATOM      4  C   UNL     1       1.818  14.744  -8.288  1.00  0.00     0.032 C 
BRANCH   4   5
ATOM      5  C   UNL     1       1.630  14.442  -6.796  1.00  0.00     0.034 C 
BRANCH   5   6
ATOM      6  C   UNL     1       2.736  15.092  -5.985  1.00  0.00    -0.077 C 
ATOM      7  C   UNL     1       2.769  16.596  -5.900  1.00  0.00     0.039 C 
ATOM      8  C   UNL     1       3.739  14.395  -5.399  1.00  0.00    -0.023 CG0
ATOM      9  G   UNL     1       3.867  12.891  -5.365  1.00  0.00     0.000 G0
ENDBRANCH   5   6
ENDBRANCH   4   5
ENDBRANCH   2   4
BRANCH   1  10
ATOM     10  C   UNL     1       4.181  12.900  -9.124  1.00  0.00     0.111 C 
BRANCH  10  11
ATOM     11  C   UNL     1       3.916  12.107  -7.869  1.00  0.00     0.163 C 
ATOM     12  O   UNL     1       3.004  11.236  -7.910  1.00  0.00    -0.294 OA
BRANCH  11  13
ATOM     13  C   UNL     1       4.647  12.356  -6.583  1.00  0.00    -0.002 C 
ATOM     14  C   UNL     1       6.000  12.160  -6.497  1.00  0.00    -0.069 C 
ATOM     15  C   UNL     1       6.788  11.546  -7.633  1.00  0.00     0.039 C 
ATOM     16  C   UNL     1       6.776  12.497  -5.242  1.00  0.00     0.039 C 
BRANCH  13  17
ATOM     17  C   UNL     1       3.864  12.891  -5.385  1.00  0.00     0.066 CG0
ATOM     18  G   UNL     1       3.744  14.396  -5.408  1.00  0.00     0.000 G0
ENDBRANCH  13  17
ENDBRANCH  11  13
ENDBRANCH  10  11
ENDBRANCH   1  10
TORSDOF 0
ENDMDL
MODEL 6
REMARK VINA RESULT:    -3.124      1.632      4.080
REMARK INTER + INTRA:          -3.678
REMARK INTER:                  -5.426
REMARK INTRA:                   1.749
REMARK UNBOUND:                 0.725
REMARK SMILES CC1=CCC(=C(C)C)C(=O)CC(C)=CCC1
REMARK SMILES IDX 12 1 14 2 13 3 15 4 16 5 2 6 1 7 3 8 11 10 9 11 10 12 5 13
REMARK SMILES IDX 6 14 7 15 8 16 4 17
REMARK H PARENT
REMARK Flexibility Score: 60.00
ROOT
ATOM      1  C   UNL     1       3.053  11.622  -8.305  1.00  0.00    -0.070 C 
ATOM      2  C   UNL     1       4.169  11.838  -9.050  1.00  0.00    -0.027 C 
ATOM      3  C   UNL     1       2.093  10.542  -8.740  1.00  0.00     0.039 C 
ENDROOT
BRANCH   2   4
ATOM      4  C   UNL     1       5.281  12.804  -8.719  1.00  0.00     0.032 C 
BRANCH   4   5
ATOM      5  C   UNL     1       6.377  12.189  -7.840  1.00  0.00     0.034 C 
BRANCH   5   6
ATOM      6  C   UNL     1       6.301  12.754  -6.434  1.00  0.00    -0.077 C 
ATOM      7  C   UNL     1       6.901  11.952  -5.309  1.00  0.00     0.039 C 
ATOM      8  C   UNL     1       5.655  13.904  -6.127  1.00  0.00    -0.023 CG0
ATOM      9  G   UNL     1       5.008  14.845  -7.115  1.00  0.00     0.000 G0
ENDBRANCH   5   6
ENDBRANCH   4   5
ENDBRANCH   2   4
BRANCH   1  10
ATOM     10  C   UNL     1       2.622  12.492  -7.132  1.00  0.00     0.111 C 
BRANCH  10  11
ATOM     11  C   UNL     1       2.561  13.965  -7.451  1.00  0.00     0.163 C 
ATOM     12  O   UNL     1       1.719  14.341  -8.312  1.00  0.00    -0.294 OA
BRANCH  11  13
ATOM     13  C   UNL     1       3.491  14.967  -6.834  1.00  0.00    -0.002 C 
ATOM     14  C   UNL     1       3.015  15.944  -6.001  1.00  0.00    -0.069 C 
ATOM     15  C   UNL     1       1.532  16.152  -5.785  1.00  0.00     0.039 C 
ATOM     16  C   UNL     1       3.942  16.906  -5.289  1.00  0.00     0.039 C 
BRANCH  13  17
ATOM     17  C   UNL     1       4.990  14.843  -7.105  1.00  0.00     0.066 CG0
ATOM     18  G   UNL     1       5.671  13.916  -6.127  1.00  0.00     0.000 G0
ENDBRANCH  13  17
ENDBRANCH  11  13
ENDBRANCH  10  11
ENDBRANCH   1  10
TORSDOF 0
ENDMDL
MODEL 7
REMARK VINA RESULT:    -2.936      1.204      3.835
REMARK INTER + INTRA:          -3.412
REMARK INTER:                  -3.930
REMARK INTRA:                   0.518
REMARK UNBOUND:                 0.725
REMARK SMILES CC1=CCC(=C(C)C)C(=O)CC(C)=CCC1
REMARK SMILES IDX 12 1 14 2 13 3 15 4 16 5 2 6 1 7 3 8 11 10 9 11 10 12 5 13
REMARK SMILES IDX 6 14 7 15 8 16 4 17
REMARK H PARENT
REMARK Flexibility Score: 60.00
ROOT
ATOM      1  C   UNL     1       2.349  13.847  -8.162  1.00  0.00    -0.070 C 
ATOM      2  C   UNL     1       2.516  12.503  -8.260  1.00  0.00    -0.027 C 
ATOM      3  C   UNL     1       1.126  14.373  -7.452  1.00  0.00     0.039 C 
ENDROOT
BRANCH   2   4
ATOM      4  C   UNL     1       3.716  11.800  -8.847  1.00  0.00     0.032 C 
BRANCH   4   5
ATOM      5  C   UNL     1       4.757  11.394  -7.796  1.00  0.00     0.034 C 
BRANCH   5   6
ATOM      6  C   UNL     1       5.902  12.388  -7.780  1.00  0.00    -0.077 C 
ATOM      7  C   UNL     1       7.103  12.108  -8.645  1.00  0.00     0.039 C 
ATOM      8  C   UNL     1       5.936  13.474  -6.970  1.00  0.00    -0.023 CG0
ATOM      9  G   UNL     1       4.826  13.923  -6.049  1.00  0.00     0.000 G0
ENDBRANCH   5   6
ENDBRANCH   4   5
ENDBRANCH   2   4
BRANCH   1  10
ATOM     10  C   UNL     1       3.240  14.876  -8.846  1.00  0.00     0.111 C 
BRANCH  10  11
ATOM     11  C   UNL     1       4.144  15.628  -7.902  1.00  0.00     0.163 C 
ATOM     12  O   UNL     1       4.860  16.547  -8.387  1.00  0.00    -0.294 OA
BRANCH  11  13
ATOM     13  C   UNL     1       4.258  15.287  -6.446  1.00  0.00    -0.002 C 
ATOM     14  C   UNL     1       3.810  16.155  -5.486  1.00  0.00    -0.069 C 
ATOM     15  C   UNL     1       3.323  17.544  -5.835  1.00  0.00     0.039 C 
ATOM     16  C   UNL     1       3.824  15.794  -4.016  1.00  0.00     0.039 C 
BRANCH  13  17
ATOM     17  C   UNL     1       4.831  13.926  -6.053  1.00  0.00     0.066 CG0
ATOM     18  G   UNL     1       5.939  13.485  -6.979  1.00  0.00     0.000 G0
ENDBRANCH  13  17
ENDBRANCH  11  13
ENDBRANCH  10  11
ENDBRANCH   1  10
TORSDOF 0
ENDMDL
MODEL 8
REMARK VINA RESULT:    -2.894      1.815      3.089
REMARK INTER + INTRA:          -3.352
REMARK INTER:                  -4.032
REMARK INTRA:                   0.680
REMARK UNBOUND:                 0.725
REMARK SMILES CC1=CCC(=C(C)C)C(=O)CC(C)=CCC1
REMARK SMILES IDX 12 1 14 2 13 3 15 4 16 5 2 6 1 7 3 8 11 10 9 11 10 12 5 13
REMARK SMILES IDX 6 14 7 15 8 16 4 17
REMARK H PARENT
REMARK Flexibility Score: 60.00
ROOT
ATOM      1  C   UNL     1       5.849  13.420  -6.717  1.00  0.00    -0.070 C 
ATOM      2  C   UNL     1       5.798  14.169  -5.585  1.00  0.00    -0.027 C 
ATOM      3  C   UNL     1       6.558  12.088  -6.670  1.00  0.00     0.039 C 
ENDROOT
BRANCH   2   4
ATOM      4  C   UNL     1       5.056  15.474  -5.421  1.00  0.00     0.032 C 
BRANCH   4   5
ATOM      5  C   UNL     1       3.691  15.315  -4.739  1.00  0.00     0.034 C 
BRANCH   5   6
ATOM      6  C   UNL     1       2.578  15.687  -5.700  1.00  0.00    -0.077 C 
ATOM      7  C   UNL     1       2.196  17.139  -5.823  1.00  0.00     0.039 C 
ATOM      8  C   UNL     1       1.858  14.774  -6.395  1.00  0.00    -0.023 CG0
ATOM      9  G   UNL     1       2.101  13.284  -6.411  1.00  0.00     0.000 G0
ENDBRANCH   5   6
ENDBRANCH   4   5
ENDBRANCH   2   4
BRANCH   1  10
ATOM     10  C   UNL     1       5.364  13.891  -8.082  1.00  0.00     0.111 C 
BRANCH  10  11
ATOM     11  C   UNL     1       3.864  13.873  -8.238  1.00  0.00     0.163 C 
ATOM     12  O   UNL     1       3.337  14.793  -8.922  1.00  0.00    -0.294 OA
BRANCH  11  13
ATOM     13  C   UNL     1       2.992  12.851  -7.572  1.00  0.00    -0.002 C 
ATOM     14  C   UNL     1       3.050  11.533  -7.941  1.00  0.00    -0.069 C 
ATOM     15  C   UNL     1       3.874  11.074  -9.125  1.00  0.00     0.039 C 
ATOM     16  C   UNL     1       2.254  10.467  -7.219  1.00  0.00     0.039 C 
BRANCH  13  17
ATOM     17  C   UNL     1       2.079  13.296  -6.431  1.00  0.00     0.066 CG0
ATOM     18  G   UNL     1       1.873  14.792  -6.416  1.00  0.00     0.000 G0
ENDBRANCH  13  17
ENDBRANCH  11  13
ENDBRANCH  10  11
ENDBRANCH   1  10
TORSDOF 0
ENDMDL
MODEL 9
REMARK VINA RESULT:    -2.639      1.826      2.842
REMARK INTER + INTRA:          -2.994
REMARK INTER:                  -3.803
REMARK INTRA:                   0.808
REMARK UNBOUND:                 0.725
REMARK SMILES CC1=CCC(=C(C)C)C(=O)CC(C)=CCC1
REMARK SMILES IDX 12 1 14 2 13 3 15 4 16 5 2 6 1 7 3 8 11 10 9 11 10 12 5 13
REMARK SMILES IDX 6 14 7 15 8 16 4 17
REMARK H PARENT
REMARK Flexibility Score: 60.00
ROOT
ATOM      1  C   UNL     1       3.616  13.411  -5.469  1.00  0.00    -0.070 C 
ATOM      2  C   UNL     1       3.394  14.619  -4.889  1.00  0.00    -0.027 C 
ATOM      3  C   UNL     1       4.949  12.737  -5.245  1.00  0.00     0.039 C 
ENDROOT
BRANCH   2   4
ATOM      4  C   UNL     1       2.097  15.392  -4.924  1.00  0.00     0.032 C 
BRANCH   4   5
ATOM      5  C   UNL     1       2.134  16.598  -5.872  1.00  0.00     0.034 C 
BRANCH   5   6
ATOM      6  C   UNL     1       3.565  16.913  -6.264  1.00  0.00    -0.077 C 
ATOM      7  C   UNL     1       4.372  17.810  -5.361  1.00  0.00     0.039 C 
ATOM      8  C   UNL     1       4.130  16.495  -7.423  1.00  0.00    -0.023 CG0
ATOM      9  G   UNL     1       3.486  15.585  -8.441  1.00  0.00     0.000 G0
ENDBRANCH   5   6
ENDBRANCH   4   5
ENDBRANCH   2   4
BRANCH   1  10
ATOM     10  C   UNL     1       2.666  12.743  -6.454  1.00  0.00     0.111 C 
BRANCH  10  11
ATOM     11  C   UNL     1       2.946  13.078  -7.897  1.00  0.00     0.163 C 
ATOM     12  O   UNL     1       2.342  12.410  -8.780  1.00  0.00    -0.294 OA
BRANCH  11  13
ATOM     13  C   UNL     1       3.943  14.121  -8.308  1.00  0.00    -0.002 C 
ATOM     14  C   UNL     1       5.234  13.776  -8.610  1.00  0.00    -0.069 C 
ATOM     15  C   UNL     1       5.750  12.368  -8.402  1.00  0.00     0.039 C 
ATOM     16  C   UNL     1       6.232  14.792  -9.120  1.00  0.00     0.039 C 
BRANCH  13  17
ATOM     17  C   UNL     1       3.478  15.570  -8.440  1.00  0.00     0.066 CG0
ATOM     18  G   UNL     1       4.132  16.473  -7.421  1.00  0.00     0.000 G0
ENDBRANCH  13  17
ENDBRANCH  11  13
ENDBRANCH  10  11
ENDBRANCH   1  10
TORSDOF 0
ENDMDL
