MODEL 1
REMARK VINA RESULT:    -4.741      0.000      0.000
REMARK INTER + INTRA:          -6.925
REMARK INTER:                  -6.681
REMARK INTRA:                  -0.245
REMARK UNBOUND:                -0.245
REMARK SMILES CCCCCCCCC(=O)[O-]
REMARK SMILES IDX 6 1 7 2 8 3 9 4 10 5 11 6 5 7 4 8 3 9 2 10 1 11
REMARK H PARENT
REMARK Flexibility Score: inf
ROOT
ATOM      1  C   UNL     1      18.352 117.942 294.369  1.00  0.00     0.000 C 
ENDROOT
BRANCH   1   2
ATOM      2  C   UNL     1      18.290 117.205 295.718  1.00  0.00     0.006 C 
BRANCH   2   3
ATOM      3  C   UNL     1      19.355 117.688 296.711  1.00  0.00     0.053 C 
BRANCH   3   4
ATOM      4  C   UNL     1      20.282 116.569 297.068  1.00  0.00     0.041 C 
ATOM      5  O   UNL     1      19.821 115.459 297.443  1.00  0.00    -0.550 OA
ATOM      6  O   UNL     1      21.654 116.737 296.939  1.00  0.00    -0.550 OA
ENDBRANCH   3   4
ENDBRANCH   2   3
ENDBRANCH   1   2
BRANCH   1   7
ATOM      7  C   UNL     1      17.222 117.593 293.381  1.00  0.00     0.000 C 
BRANCH   7   8
ATOM      8  C   UNL     1      17.385 116.247 292.651  1.00  0.00    -0.000 C 
BRANCH   8   9
ATOM      9  C   UNL     1      18.439 116.297 291.535  1.00  0.00    -0.000 C 
BRANCH   9  10
ATOM     10  C   UNL     1      17.936 115.585 290.275  1.00  0.00    -0.003 C 
ATOM     11  C   UNL     1      17.044 114.399 290.630  1.00  0.00     0.004 C 
ENDBRANCH   9  10
ENDBRANCH   8   9
ENDBRANCH   7   8
ENDBRANCH   1   7
TORSDOF 7
ENDMDL
MODEL 2
REMARK VINA RESULT:    -4.373      3.213      5.850
REMARK INTER + INTRA:          -6.408
REMARK INTER:                  -6.196
REMARK INTRA:                  -0.212
REMARK UNBOUND:                -0.245
REMARK SMILES CCCCCCCCC(=O)[O-]
REMARK SMILES IDX 6 1 7 2 8 3 9 4 10 5 11 6 5 7 4 8 3 9 2 10 1 11
REMARK H PARENT
REMARK Flexibility Score: inf
ROOT
ATOM      1  C   UNL     1      17.272 117.638 294.008  1.00  0.00     0.000 C 
ENDROOT
BRANCH   1   2
ATOM      2  C   UNL     1      18.083 116.995 292.869  1.00  0.00     0.006 C 
BRANCH   2   3
ATOM      3  C   UNL     1      17.238 116.071 291.984  1.00  0.00     0.053 C 
BRANCH   3   4
ATOM      4  C   UNL     1      18.077 115.480 290.895  1.00  0.00     0.041 C 
ATOM      5  O   UNL     1      19.294 115.787 290.795  1.00  0.00    -0.550 OA
ATOM      6  O   UNL     1      17.527 114.553 290.019  1.00  0.00    -0.550 OA
ENDBRANCH   3   4
ENDBRANCH   2   3
ENDBRANCH   1   2
BRANCH   1   7
ATOM      7  C   UNL     1      17.321 116.884 295.352  1.00  0.00     0.000 C 
BRANCH   7   8
ATOM      8  C   UNL     1      18.316 117.449 296.381  1.00  0.00    -0.000 C 
BRANCH   8   9
ATOM      9  C   UNL     1      19.315 116.397 296.886  1.00  0.00    -0.000 C 
BRANCH   9  10
ATOM     10  C   UNL     1      20.494 117.062 297.605  1.00  0.00    -0.003 C 
ATOM     11  C   UNL     1      21.752 117.038 296.740  1.00  0.00     0.004 C 
ENDBRANCH   9  10
ENDBRANCH   8   9
ENDBRANCH   7   8
ENDBRANCH   1   7
TORSDOF 7
ENDMDL
MODEL 3
REMARK VINA RESULT:    -4.356      1.202      1.654
REMARK INTER + INTRA:          -6.383
REMARK INTER:                  -6.191
REMARK INTRA:                  -0.192
REMARK UNBOUND:                -0.245
REMARK SMILES CCCCCCCCC(=O)[O-]
REMARK SMILES IDX 6 1 7 2 8 3 9 4 10 5 11 6 5 7 4 8 3 9 2 10 1 11
REMARK H PARENT
REMARK Flexibility Score: inf
ROOT
ATOM      1  C   UNL     1      17.702 116.880 295.664  1.00  0.00     0.000 C 
ENDROOT
BRANCH   1   2
ATOM      2  C   UNL     1      18.670 117.643 296.585  1.00  0.00     0.006 C 
BRANCH   2   3
ATOM      3  C   UNL     1      19.999 116.906 296.795  1.00  0.00     0.053 C 
BRANCH   3   4
ATOM      4  C   UNL     1      20.971 117.780 297.523  1.00  0.00     0.041 C 
ATOM      5  O   UNL     1      22.174 117.428 297.643  1.00  0.00    -0.550 OA
ATOM      6  O   UNL     1      20.560 119.007 298.027  1.00  0.00    -0.550 OA
ENDBRANCH   3   4
ENDBRANCH   2   3
ENDBRANCH   1   2
BRANCH   1   7
ATOM      7  C   UNL     1      17.285 117.634 294.385  1.00  0.00     0.000 C 
BRANCH   7   8
ATOM      8  C   UNL     1      18.064 117.247 293.116  1.00  0.00    -0.000 C 
BRANCH   8   9
ATOM      9  C   UNL     1      17.362 116.155 292.294  1.00  0.00    -0.000 C 
BRANCH   9  10
ATOM     10  C   UNL     1      18.171 115.808 291.039  1.00  0.00    -0.003 C 
ATOM     11  C   UNL     1      17.474 114.729 290.215  1.00  0.00     0.004 C 
ENDBRANCH   9  10
ENDBRANCH   8   9
ENDBRANCH   7   8
ENDBRANCH   1   7
TORSDOF 7
ENDMDL
MODEL 4
REMARK VINA RESULT:    -4.341      4.602      5.446
REMARK INTER + INTRA:          -6.362
REMARK INTER:                  -6.149
REMARK INTRA:                  -0.213
REMARK UNBOUND:                -0.245
REMARK SMILES CCCCCCCCC(=O)[O-]
REMARK SMILES IDX 6 1 7 2 8 3 9 4 10 5 11 6 5 7 4 8 3 9 2 10 1 11
REMARK H PARENT
REMARK Flexibility Score: inf
ROOT
ATOM      1  C   UNL     1      16.121 118.667 294.156  1.00  0.00     0.000 C 
ENDROOT
BRANCH   1   2
ATOM      2  C   UNL     1      16.490 120.121 293.813  1.00  0.00     0.006 C 
BRANCH   2   3
ATOM      3  C   UNL     1      15.397 120.840 293.012  1.00  0.00     0.053 C 
BRANCH   3   4
ATOM      4  C   UNL     1      15.814 122.243 292.702  1.00  0.00     0.041 C 
ATOM      5  O   UNL     1      17.016 122.591 292.838  1.00  0.00    -0.550 OA
ATOM      6  O   UNL     1      14.885 123.152 292.214  1.00  0.00    -0.550 OA
ENDBRANCH   3   4
ENDBRANCH   2   3
ENDBRANCH   1   2
BRANCH   1   7
ATOM      7  C   UNL     1      17.320 117.716 294.347  1.00  0.00     0.000 C 
BRANCH   7   8
ATOM      8  C   UNL     1      18.055 117.323 293.053  1.00  0.00    -0.000 C 
BRANCH   8   9
ATOM      9  C   UNL     1      17.356 116.188 292.291  1.00  0.00    -0.000 C 
BRANCH   9  10
ATOM     10  C   UNL     1      18.148 115.799 291.039  1.00  0.00    -0.003 C 
ATOM     11  C   UNL     1      17.416 114.730 290.232  1.00  0.00     0.004 C 
ENDBRANCH   9  10
ENDBRANCH   8   9
ENDBRANCH   7   8
ENDBRANCH   1   7
TORSDOF 7
ENDMDL
MODEL 5
REMARK VINA RESULT:    -4.314      2.086      2.320
REMARK INTER + INTRA:          -6.324
REMARK INTER:                  -5.972
REMARK INTRA:                  -0.351
REMARK UNBOUND:                -0.245
REMARK SMILES CCCCCCCCC(=O)[O-]
REMARK SMILES IDX 6 1 7 2 8 3 9 4 10 5 11 6 5 7 4 8 3 9 2 10 1 11
REMARK H PARENT
REMARK Flexibility Score: inf
ROOT
ATOM      1  C   UNL     1      18.540 117.867 294.301  1.00  0.00     0.000 C 
ENDROOT
BRANCH   1   2
ATOM      2  C   UNL     1      19.138 117.742 295.714  1.00  0.00     0.006 C 
BRANCH   2   3
ATOM      3  C   UNL     1      20.628 118.104 295.765  1.00  0.00     0.053 C 
BRANCH   3   4
ATOM      4  C   UNL     1      20.812 119.580 295.602  1.00  0.00     0.041 C 
ATOM      5  O   UNL     1      20.428 120.370 296.504  1.00  0.00    -0.550 OA
ATOM      6  O   UNL     1      21.452 120.080 294.476  1.00  0.00    -0.550 OA
ENDBRANCH   3   4
ENDBRANCH   2   3
ENDBRANCH   1   2
BRANCH   1   7
ATOM      7  C   UNL     1      17.248 117.060 294.065  1.00  0.00     0.000 C 
BRANCH   7   8
ATOM      8  C   UNL     1      17.251 116.177 292.804  1.00  0.00    -0.000 C 
BRANCH   8   9
ATOM      9  C   UNL     1      18.405 116.509 291.845  1.00  0.00    -0.000 C 
BRANCH   9  10
ATOM     10  C   UNL     1      18.380 115.591 290.619  1.00  0.00    -0.003 C 
ATOM     11  C   UNL     1      17.226 114.594 290.699  1.00  0.00     0.004 C 
ENDBRANCH   9  10
ENDBRANCH   8   9
ENDBRANCH   7   8
ENDBRANCH   1   7
TORSDOF 7
ENDMDL
MODEL 6
REMARK VINA RESULT:    -4.120      1.710      2.546
REMARK INTER + INTRA:          -6.050
REMARK INTER:                  -5.827
REMARK INTRA:                  -0.223
REMARK UNBOUND:                -0.245
REMARK SMILES CCCCCCCCC(=O)[O-]
REMARK SMILES IDX 6 1 7 2 8 3 9 4 10 5 11 6 5 7 4 8 3 9 2 10 1 11
REMARK H PARENT
REMARK Flexibility Score: inf
ROOT
ATOM      1  C   UNL     1      19.169 117.573 296.105  1.00  0.00     0.000 C 
ENDROOT
BRANCH   1   2
ATOM      2  C   UNL     1      20.085 116.873 297.124  1.00  0.00     0.006 C 
BRANCH   2   3
ATOM      3  C   UNL     1      21.574 117.038 296.798  1.00  0.00     0.053 C 
BRANCH   3   4
ATOM      4  C   UNL     1      22.157 118.173 297.579  1.00  0.00     0.041 C 
ATOM      5  O   UNL     1      21.947 119.362 297.222  1.00  0.00    -0.550 OA
ATOM      6  O   UNL     1      22.891 117.920 298.730  1.00  0.00    -0.550 OA
ENDBRANCH   3   4
ENDBRANCH   2   3
ENDBRANCH   1   2
BRANCH   1   7
ATOM      7  C   UNL     1      17.864 116.820 295.774  1.00  0.00     0.000 C 
BRANCH   7   8
ATOM      8  C   UNL     1      17.100 117.347 294.546  1.00  0.00    -0.000 C 
BRANCH   8   9
ATOM      9  C   UNL     1      17.911 117.239 293.246  1.00  0.00    -0.000 C 
BRANCH   9  10
ATOM     10  C   UNL     1      17.332 116.158 292.327  1.00  0.00    -0.003 C 
ATOM     11  C   UNL     1      18.300 115.818 291.197  1.00  0.00     0.004 C 
ENDBRANCH   9  10
ENDBRANCH   8   9
ENDBRANCH   7   8
ENDBRANCH   1   7
TORSDOF 7
ENDMDL
MODEL 7
REMARK VINA RESULT:    -4.107      1.860      2.497
REMARK INTER + INTRA:          -6.032
REMARK INTER:                  -5.820
REMARK INTRA:                  -0.212
REMARK UNBOUND:                -0.245
REMARK SMILES CCCCCCCCC(=O)[O-]
REMARK SMILES IDX 6 1 7 2 8 3 9 4 10 5 11 6 5 7 4 8 3 9 2 10 1 11
REMARK H PARENT
REMARK Flexibility Score: inf
ROOT
ATOM      1  C   UNL     1      18.949 117.774 295.426  1.00  0.00     0.000 C 
ENDROOT
BRANCH   1   2
ATOM      2  C   UNL     1      20.371 117.790 296.012  1.00  0.00     0.006 C 
BRANCH   2   3
ATOM      3  C   UNL     1      21.328 118.697 295.229  1.00  0.00     0.053 C 
BRANCH   3   4
ATOM      4  C   UNL     1      22.750 118.349 295.541  1.00  0.00     0.041 C 
ATOM      5  O   UNL     1      23.419 119.066 296.332  1.00  0.00    -0.550 OA
ATOM      6  O   UNL     1      23.321 117.206 294.997  1.00  0.00    -0.550 OA
ENDBRANCH   3   4
ENDBRANCH   2   3
ENDBRANCH   1   2
BRANCH   1   7
ATOM      7  C   UNL     1      18.871 117.949 293.896  1.00  0.00     0.000 C 
BRANCH   7   8
ATOM      8  C   UNL     1      17.499 117.638 293.272  1.00  0.00    -0.000 C 
BRANCH   8   9
ATOM      9  C   UNL     1      17.382 116.188 292.778  1.00  0.00    -0.000 C 
BRANCH   9  10
ATOM     10  C   UNL     1      17.811 116.072 291.312  1.00  0.00    -0.003 C 
ATOM     11  C   UNL     1      17.368 114.740 290.711  1.00  0.00     0.004 C 
ENDBRANCH   9  10
ENDBRANCH   8   9
ENDBRANCH   7   8
ENDBRANCH   1   7
TORSDOF 7
ENDMDL
MODEL 8
REMARK VINA RESULT:    -4.066      2.889      3.255
REMARK INTER + INTRA:          -5.974
REMARK INTER:                  -5.693
REMARK INTRA:                  -0.282
REMARK UNBOUND:                -0.245
REMARK SMILES CCCCCCCCC(=O)[O-]
REMARK SMILES IDX 6 1 7 2 8 3 9 4 10 5 11 6 5 7 4 8 3 9 2 10 1 11
REMARK H PARENT
REMARK Flexibility Score: inf
ROOT
ATOM      1  C   UNL     1      16.746 116.872 295.015  1.00  0.00     0.000 C 
ENDROOT
BRANCH   1   2
ATOM      2  C   UNL     1      15.671 117.725 295.711  1.00  0.00     0.006 C 
BRANCH   2   3
ATOM      3  C   UNL     1      15.900 117.854 297.223  1.00  0.00     0.053 C 
BRANCH   3   4
ATOM      4  C   UNL     1      16.429 119.213 297.556  1.00  0.00     0.041 C 
ATOM      5  O   UNL     1      15.788 120.243 297.220  1.00  0.00    -0.550 OA
ATOM      6  O   UNL     1      17.607 119.341 298.280  1.00  0.00    -0.550 OA
ENDBRANCH   3   4
ENDBRANCH   2   3
ENDBRANCH   1   2
BRANCH   1   7
ATOM      7  C   UNL     1      17.978 117.653 294.517  1.00  0.00     0.000 C 
BRANCH   7   8
ATOM      8  C   UNL     1      18.388 117.368 293.061  1.00  0.00    -0.000 C 
BRANCH   8   9
ATOM      9  C   UNL     1      17.479 116.336 292.376  1.00  0.00    -0.000 C 
BRANCH   9  10
ATOM     10  C   UNL     1      18.110 115.827 291.076  1.00  0.00    -0.003 C 
ATOM     11  C   UNL     1      17.333 114.639 290.514  1.00  0.00     0.004 C 
ENDBRANCH   9  10
ENDBRANCH   8   9
ENDBRANCH   7   8
ENDBRANCH   1   7
TORSDOF 7
ENDMDL
MODEL 9
REMARK VINA RESULT:    -3.858      3.889      4.494
REMARK INTER + INTRA:          -5.682
REMARK INTER:                  -5.438
REMARK INTRA:                  -0.244
REMARK UNBOUND:                -0.245
REMARK SMILES CCCCCCCCC(=O)[O-]
REMARK SMILES IDX 6 1 7 2 8 3 9 4 10 5 11 6 5 7 4 8 3 9 2 10 1 11
REMARK H PARENT
REMARK Flexibility Score: inf
ROOT
ATOM      1  C   UNL     1      16.271 119.023 293.708  1.00  0.00     0.000 C 
ENDROOT
BRANCH   1   2
ATOM      2  C   UNL     1      16.077 120.489 294.136  1.00  0.00     0.006 C 
BRANCH   2   3
ATOM      3  C   UNL     1      17.384 121.291 294.124  1.00  0.00     0.053 C 
BRANCH   3   4
ATOM      4  C   UNL     1      17.372 122.324 295.206  1.00  0.00     0.041 C 
ATOM      5  O   UNL     1      18.001 122.125 296.279  1.00  0.00    -0.550 OA
ATOM      6  O   UNL     1      16.708 123.528 295.011  1.00  0.00    -0.550 OA
ENDBRANCH   3   4
ENDBRANCH   2   3
ENDBRANCH   1   2
BRANCH   1   7
ATOM      7  C   UNL     1      17.667 118.437 293.999  1.00  0.00     0.000 C 
BRANCH   7   8
ATOM      8  C   UNL     1      17.892 117.004 293.485  1.00  0.00    -0.000 C 
BRANCH   8   9
ATOM      9  C   UNL     1      17.314 116.774 292.081  1.00  0.00    -0.000 C 
BRANCH   9  10
ATOM     10  C   UNL     1      18.226 115.861 291.255  1.00  0.00    -0.003 C 
ATOM     11  C   UNL     1      17.441 114.701 290.647  1.00  0.00     0.004 C 
ENDBRANCH   9  10
ENDBRANCH   8   9
ENDBRANCH   7   8
ENDBRANCH   1   7
TORSDOF 7
ENDMDL
