MODEL 1
REMARK VINA RESULT:    -5.778      0.000      0.000
REMARK INTER + INTRA:         -14.890
REMARK INTER:                 -13.208
REMARK INTRA:                  -1.681
REMARK UNBOUND:                -1.681
REMARK SMILES CCCCCCCCCCCCCCCCCCCCCCCC(=O)[O-]
REMARK SMILES IDX 13 1 14 2 15 3 16 4 17 5 18 6 19 7 20 8 21 9 22 10 23 11
REMARK SMILES IDX 24 12 25 13 26 14 12 15 11 16 10 17 9 18 8 19 7 20 6 21 5 22
REMARK SMILES IDX 4 23 3 24 2 25 1 26
REMARK H PARENT
REMARK Flexibility Score: inf
ROOT
ATOM      1  C   UNL     1      26.143  16.499   7.756  1.00  0.00     0.000 C 
ENDROOT
BRANCH   1   2
ATOM      2  C   UNL     1      26.717  17.648   8.599  1.00  0.00     0.000 C 
BRANCH   2   3
ATOM      3  C   UNL     1      26.741  18.989   7.851  1.00  0.00     0.000 C 
BRANCH   3   4
ATOM      4  C   UNL     1      26.776  18.771   6.333  1.00  0.00     0.000 C 
BRANCH   4   5
ATOM      5  C   UNL     1      26.686  20.109   5.584  1.00  0.00     0.000 C 
BRANCH   5   6
ATOM      6  C   UNL     1      27.095  21.303   6.460  1.00  0.00     0.000 C 
BRANCH   6   7
ATOM      7  C   UNL     1      26.062  22.444   6.423  1.00  0.00     0.000 C 
BRANCH   7   8
ATOM      8  C   UNL     1      25.726  22.878   4.979  1.00  0.00     0.000 C 
BRANCH   8   9
ATOM      9  C   UNL     1      24.217  22.912   4.679  1.00  0.00     0.000 C 
BRANCH   9  10
ATOM     10  C   UNL     1      23.386  22.134   5.713  1.00  0.00     0.006 C 
BRANCH  10  11
ATOM     11  C   UNL     1      22.821  20.828   5.136  1.00  0.00     0.053 C 
BRANCH  11  12
ATOM     12  C   UNL     1      22.572  19.808   6.205  1.00  0.00     0.041 C 
ATOM     13  O   UNL     1      21.636  19.975   7.033  1.00  0.00    -0.550 OA
ATOM     14  O   UNL     1      23.385  18.685   6.302  1.00  0.00    -0.550 OA
ENDBRANCH  11  12
ENDBRANCH  10  11
ENDBRANCH   9  10
ENDBRANCH   8   9
ENDBRANCH   7   8
ENDBRANCH   6   7
ENDBRANCH   5   6
ENDBRANCH   4   5
ENDBRANCH   3   4
ENDBRANCH   2   3
ENDBRANCH   1   2
BRANCH   1  15
ATOM     15  C   UNL     1      26.851  15.157   8.016  1.00  0.00     0.000 C 
BRANCH  15  16
ATOM     16  C   UNL     1      25.941  13.940   7.761  1.00  0.00     0.000 C 
BRANCH  16  17
ATOM     17  C   UNL     1      25.109  13.479   8.973  1.00  0.00     0.000 C 
BRANCH  17  18
ATOM     18  C   UNL     1      23.665  13.103   8.597  1.00  0.00    -0.000 C 
BRANCH  18  19
ATOM     19  C   UNL     1      22.618  13.898   9.395  1.00  0.00    -0.000 C 
BRANCH  19  20
ATOM     20  C   UNL     1      21.722  12.991  10.259  1.00  0.00    -0.000 C 
BRANCH  20  21
ATOM     21  C   UNL     1      22.369  11.628  10.550  1.00  0.00    -0.000 C 
BRANCH  21  22
ATOM     22  C   UNL     1      21.328  10.501  10.676  1.00  0.00    -0.000 C 
BRANCH  22  23
ATOM     23  C   UNL     1      20.898  10.251  12.130  1.00  0.00    -0.000 C 
BRANCH  23  24
ATOM     24  C   UNL     1      21.447   8.932  12.695  1.00  0.00    -0.000 C 
BRANCH  24  25
ATOM     25  C   UNL     1      20.325   8.096  13.324  1.00  0.00    -0.003 C 
ATOM     26  C   UNL     1      19.262   8.987  13.961  1.00  0.00     0.004 C 
ENDBRANCH  24  25
ENDBRANCH  23  24
ENDBRANCH  22  23
ENDBRANCH  21  22
ENDBRANCH  20  21
ENDBRANCH  19  20
ENDBRANCH  18  19
ENDBRANCH  17  18
ENDBRANCH  16  17
ENDBRANCH  15  16
ENDBRANCH   1  15
TORSDOF 22
ENDMDL
MODEL 2
REMARK VINA RESULT:    -5.746      3.088     10.670
REMARK INTER + INTRA:         -14.817
REMARK INTER:                 -12.388
REMARK INTRA:                  -2.429
REMARK UNBOUND:                -1.681
REMARK SMILES CCCCCCCCCCCCCCCCCCCCCCCC(=O)[O-]
REMARK SMILES IDX 13 1 14 2 15 3 16 4 17 5 18 6 19 7 20 8 21 9 22 10 23 11
REMARK SMILES IDX 24 12 25 13 26 14 12 15 11 16 10 17 9 18 8 19 7 20 6 21 5 22
REMARK SMILES IDX 4 23 3 24 2 25 1 26
REMARK H PARENT
REMARK Flexibility Score: inf
ROOT
ATOM      1  C   UNL     1      22.427  19.652   6.319  1.00  0.00     0.000 C 
ENDROOT
BRANCH   1   2
ATOM      2  C   UNL     1      23.626  18.786   5.899  1.00  0.00     0.000 C 
BRANCH   2   3
ATOM      3  C   UNL     1      24.392  18.200   7.094  1.00  0.00     0.000 C 
BRANCH   3   4
ATOM      4  C   UNL     1      25.811  18.777   7.174  1.00  0.00     0.000 C 
BRANCH   4   5
ATOM      5  C   UNL     1      26.543  18.262   8.422  1.00  0.00     0.000 C 
BRANCH   5   6
ATOM      6  C   UNL     1      27.481  17.085   8.112  1.00  0.00     0.000 C 
BRANCH   6   7
ATOM      7  C   UNL     1      26.977  15.757   8.707  1.00  0.00     0.000 C 
BRANCH   7   8
ATOM      8  C   UNL     1      26.908  14.634   7.649  1.00  0.00     0.000 C 
BRANCH   8   9
ATOM      9  C   UNL     1      25.899  13.524   7.991  1.00  0.00     0.000 C 
BRANCH   9  10
ATOM     10  C   UNL     1      24.555  14.074   8.497  1.00  0.00     0.006 C 
BRANCH  10  11
ATOM     11  C   UNL     1      23.420  13.051   8.349  1.00  0.00     0.053 C 
BRANCH  11  12
ATOM     12  C   UNL     1      22.530  13.026   9.556  1.00  0.00     0.041 C 
ATOM     13  O   UNL     1      22.141  11.926  10.032  1.00  0.00    -0.550 OA
ATOM     14  O   UNL     1      22.113  14.216  10.140  1.00  0.00    -0.550 OA
ENDBRANCH  11  12
ENDBRANCH  10  11
ENDBRANCH   9  10
ENDBRANCH   8   9
ENDBRANCH   7   8
ENDBRANCH   6   7
ENDBRANCH   5   6
ENDBRANCH   4   5
ENDBRANCH   3   4
ENDBRANCH   2   3
ENDBRANCH   1   2
BRANCH   1  15
ATOM     15  C   UNL     1      21.642  20.205   5.117  1.00  0.00     0.000 C 
BRANCH  15  16
ATOM     16  C   UNL     1      22.547  20.885   4.072  1.00  0.00     0.000 C 
BRANCH  16  17
ATOM     17  C   UNL     1      23.324  22.115   4.580  1.00  0.00     0.000 C 
BRANCH  17  18
ATOM     18  C   UNL     1      24.847  21.970   4.413  1.00  0.00    -0.000 C 
BRANCH  18  19
ATOM     19  C   UNL     1      25.596  21.995   5.755  1.00  0.00    -0.000 C 
BRANCH  19  20
ATOM     20  C   UNL     1      27.020  22.564   5.626  1.00  0.00    -0.000 C 
BRANCH  20  21
ATOM     21  C   UNL     1      27.047  23.931   4.923  1.00  0.00    -0.000 C 
BRANCH  21  22
ATOM     22  C   UNL     1      26.517  25.062   5.822  1.00  0.00    -0.000 C 
BRANCH  22  23
ATOM     23  C   UNL     1      25.111  25.533   5.417  1.00  0.00    -0.000 C 
BRANCH  23  24
ATOM     24  C   UNL     1      24.103  25.462   6.574  1.00  0.00    -0.000 C 
BRANCH  24  25
ATOM     25  C   UNL     1      24.800  25.080   7.886  1.00  0.00    -0.003 C 
ATOM     26  C   UNL     1      24.857  26.264   8.847  1.00  0.00     0.004 C 
ENDBRANCH  24  25
ENDBRANCH  23  24
ENDBRANCH  22  23
ENDBRANCH  21  22
ENDBRANCH  20  21
ENDBRANCH  19  20
ENDBRANCH  18  19
ENDBRANCH  17  18
ENDBRANCH  16  17
ENDBRANCH  15  16
ENDBRANCH   1  15
TORSDOF 22
ENDMDL
MODEL 3
REMARK VINA RESULT:    -5.697      2.342      3.076
REMARK INTER + INTRA:         -14.704
REMARK INTER:                 -13.373
REMARK INTRA:                  -1.331
REMARK UNBOUND:                -1.681
REMARK SMILES CCCCCCCCCCCCCCCCCCCCCCCC(=O)[O-]
REMARK SMILES IDX 13 1 14 2 15 3 16 4 17 5 18 6 19 7 20 8 21 9 22 10 23 11
REMARK SMILES IDX 24 12 25 13 26 14 12 15 11 16 10 17 9 18 8 19 7 20 6 21 5 22
REMARK SMILES IDX 4 23 3 24 2 25 1 26
REMARK H PARENT
REMARK Flexibility Score: inf
ROOT
ATOM      1  C   UNL     1      26.159  16.637   8.164  1.00  0.00     0.000 C 
ENDROOT
BRANCH   1   2
ATOM      2  C   UNL     1      26.654  18.028   7.737  1.00  0.00     0.000 C 
BRANCH   2   3
ATOM      3  C   UNL     1      25.727  18.711   6.721  1.00  0.00     0.000 C 
BRANCH   3   4
ATOM      4  C   UNL     1      24.267  18.298   6.946  1.00  0.00     0.000 C 
BRANCH   4   5
ATOM      5  C   UNL     1      23.337  19.003   5.948  1.00  0.00     0.000 C 
BRANCH   5   6
ATOM      6  C   UNL     1      23.975  20.259   5.334  1.00  0.00     0.000 C 
BRANCH   6   7
ATOM      7  C   UNL     1      22.971  21.416   5.181  1.00  0.00     0.000 C 
BRANCH   7   8
ATOM      8  C   UNL     1      23.639  22.795   5.377  1.00  0.00     0.000 C 
BRANCH   8   9
ATOM      9  C   UNL     1      24.943  22.740   6.193  1.00  0.00     0.000 C 
BRANCH   9  10
ATOM     10  C   UNL     1      25.775  24.027   6.075  1.00  0.00     0.006 C 
BRANCH  10  11
ATOM     11  C   UNL     1      24.906  25.250   5.749  1.00  0.00     0.053 C 
BRANCH  11  12
ATOM     12  C   UNL     1      24.535  26.015   6.983  1.00  0.00     0.041 C 
ATOM     13  O   UNL     1      23.673  26.933   6.923  1.00  0.00    -0.550 OA
ATOM     14  O   UNL     1      25.156  25.732   8.194  1.00  0.00    -0.550 OA
ENDBRANCH  11  12
ENDBRANCH  10  11
ENDBRANCH   9  10
ENDBRANCH   8   9
ENDBRANCH   7   8
ENDBRANCH   6   7
ENDBRANCH   5   6
ENDBRANCH   4   5
ENDBRANCH   3   4
ENDBRANCH   2   3
ENDBRANCH   1   2
BRANCH   1  15
ATOM     15  C   UNL     1      27.075  15.502   7.673  1.00  0.00     0.000 C 
BRANCH  15  16
ATOM     16  C   UNL     1      26.363  14.136   7.628  1.00  0.00     0.000 C 
BRANCH  16  17
ATOM     17  C   UNL     1      25.458  13.829   8.836  1.00  0.00     0.000 C 
BRANCH  17  18
ATOM     18  C   UNL     1      24.140  13.142   8.435  1.00  0.00    -0.000 C 
BRANCH  18  19
ATOM     19  C   UNL     1      22.963  13.542   9.340  1.00  0.00    -0.000 C 
BRANCH  19  20
ATOM     20  C   UNL     1      22.732  12.539  10.485  1.00  0.00    -0.000 C 
BRANCH  20  21
ATOM     21  C   UNL     1      21.676  11.478  10.136  1.00  0.00    -0.000 C 
BRANCH  21  22
ATOM     22  C   UNL     1      21.079  10.812  11.389  1.00  0.00    -0.000 C 
BRANCH  22  23
ATOM     23  C   UNL     1      21.790   9.501  11.758  1.00  0.00    -0.000 C 
BRANCH  23  24
ATOM     24  C   UNL     1      21.565   9.094  13.223  1.00  0.00    -0.000 C 
BRANCH  24  25
ATOM     25  C   UNL     1      20.401   8.103  13.343  1.00  0.00    -0.003 C 
ATOM     26  C   UNL     1      19.173   8.764  13.964  1.00  0.00     0.004 C 
ENDBRANCH  24  25
ENDBRANCH  23  24
ENDBRANCH  22  23
ENDBRANCH  21  22
ENDBRANCH  20  21
ENDBRANCH  19  20
ENDBRANCH  18  19
ENDBRANCH  17  18
ENDBRANCH  16  17
ENDBRANCH  15  16
ENDBRANCH   1  15
TORSDOF 22
ENDMDL
MODEL 4
REMARK VINA RESULT:    -5.658      2.227      5.325
REMARK INTER + INTRA:         -14.616
REMARK INTER:                 -12.337
REMARK INTRA:                  -2.279
REMARK UNBOUND:                -1.681
REMARK SMILES CCCCCCCCCCCCCCCCCCCCCCCC(=O)[O-]
REMARK SMILES IDX 13 1 14 2 15 3 16 4 17 5 18 6 19 7 20 8 21 9 22 10 23 11
REMARK SMILES IDX 24 12 25 13 26 14 12 15 11 16 10 17 9 18 8 19 7 20 6 21 5 22
REMARK SMILES IDX 4 23 3 24 2 25 1 26
REMARK H PARENT
REMARK Flexibility Score: inf
ROOT
ATOM      1  C   UNL     1      22.850  13.491   9.093  1.00  0.00     0.000 C 
ENDROOT
BRANCH   1   2
ATOM      2  C   UNL     1      24.221  13.864   8.505  1.00  0.00     0.000 C 
BRANCH   2   3
ATOM      3  C   UNL     1      25.391  13.497   9.429  1.00  0.00     0.000 C 
BRANCH   3   4
ATOM      4  C   UNL     1      26.704  13.402   8.643  1.00  0.00     0.000 C 
BRANCH   4   5
ATOM      5  C   UNL     1      26.795  14.514   7.588  1.00  0.00     0.000 C 
BRANCH   5   6
ATOM      6  C   UNL     1      27.894  15.540   7.908  1.00  0.00     0.000 C 
BRANCH   6   7
ATOM      7  C   UNL     1      27.349  16.977   8.004  1.00  0.00     0.000 C 
BRANCH   7   8
ATOM      8  C   UNL     1      25.826  17.039   7.758  1.00  0.00     0.000 C 
BRANCH   8   9
ATOM      9  C   UNL     1      25.343  18.394   7.212  1.00  0.00     0.000 C 
BRANCH   9  10
ATOM     10  C   UNL     1      23.842  18.402   6.879  1.00  0.00     0.006 C 
BRANCH  10  11
ATOM     11  C   UNL     1      23.509  19.367   5.732  1.00  0.00     0.053 C 
BRANCH  11  12
ATOM     12  C   UNL     1      22.091  19.848   5.801  1.00  0.00     0.041 C 
ATOM     13  O   UNL     1      21.560  20.093   6.917  1.00  0.00    -0.550 OA
ATOM     14  O   UNL     1      21.350  20.006   4.636  1.00  0.00    -0.550 OA
ENDBRANCH  11  12
ENDBRANCH  10  11
ENDBRANCH   9  10
ENDBRANCH   8   9
ENDBRANCH   7   8
ENDBRANCH   6   7
ENDBRANCH   5   6
ENDBRANCH   4   5
ENDBRANCH   3   4
ENDBRANCH   2   3
ENDBRANCH   1   2
BRANCH   1  15
ATOM     15  C   UNL     1      22.796  12.040   9.603  1.00  0.00     0.000 C 
BRANCH  15  16
ATOM     16  C   UNL     1      21.641  11.796  10.593  1.00  0.00     0.000 C 
BRANCH  16  17
ATOM     17  C   UNL     1      21.344  10.316  10.901  1.00  0.00     0.000 C 
BRANCH  17  18
ATOM     18  C   UNL     1      20.566  10.125  12.215  1.00  0.00    -0.000 C 
BRANCH  18  19
ATOM     19  C   UNL     1      21.449   9.591  13.355  1.00  0.00    -0.000 C 
BRANCH  19  20
ATOM     20  C   UNL     1      22.709   8.873  12.839  1.00  0.00    -0.000 C 
BRANCH  20  21
ATOM     21  C   UNL     1      24.006   9.503  13.372  1.00  0.00    -0.000 C 
BRANCH  21  22
ATOM     22  C   UNL     1      24.034  11.031  13.187  1.00  0.00    -0.000 C 
BRANCH  22  23
ATOM     23  C   UNL     1      25.386  11.539  12.662  1.00  0.00    -0.000 C 
BRANCH  23  24
ATOM     24  C   UNL     1      26.309  12.041  13.782  1.00  0.00    -0.000 C 
BRANCH  24  25
ATOM     25  C   UNL     1      27.774  12.040  13.327  1.00  0.00    -0.003 C 
ATOM     26  C   UNL     1      27.882  11.888  11.812  1.00  0.00     0.004 C 
ENDBRANCH  24  25
ENDBRANCH  23  24
ENDBRANCH  22  23
ENDBRANCH  21  22
ENDBRANCH  20  21
ENDBRANCH  19  20
ENDBRANCH  18  19
ENDBRANCH  17  18
ENDBRANCH  16  17
ENDBRANCH  15  16
ENDBRANCH   1  15
TORSDOF 22
ENDMDL
MODEL 5
REMARK VINA RESULT:    -5.650      1.668      2.949
REMARK INTER + INTRA:         -14.598
REMARK INTER:                 -12.810
REMARK INTRA:                  -1.788
REMARK UNBOUND:                -1.681
REMARK SMILES CCCCCCCCCCCCCCCCCCCCCCCC(=O)[O-]
REMARK SMILES IDX 13 1 14 2 15 3 16 4 17 5 18 6 19 7 20 8 21 9 22 10 23 11
REMARK SMILES IDX 24 12 25 13 26 14 12 15 11 16 10 17 9 18 8 19 7 20 6 21 5 22
REMARK SMILES IDX 4 23 3 24 2 25 1 26
REMARK H PARENT
REMARK Flexibility Score: inf
ROOT
ATOM      1  C   UNL     1      24.439  14.406   8.127  1.00  0.00     0.000 C 
ENDROOT
BRANCH   1   2
ATOM      2  C   UNL     1      25.854  14.158   7.581  1.00  0.00     0.000 C 
BRANCH   2   3
ATOM      3  C   UNL     1      26.873  15.204   8.055  1.00  0.00     0.000 C 
BRANCH   3   4
ATOM      4  C   UNL     1      26.251  16.606   8.079  1.00  0.00     0.000 C 
BRANCH   4   5
ATOM      5  C   UNL     1      27.340  17.689   8.101  1.00  0.00     0.000 C 
BRANCH   5   6
ATOM      6  C   UNL     1      26.853  19.025   7.517  1.00  0.00     0.000 C 
BRANCH   6   7
ATOM      7  C   UNL     1      25.401  18.955   7.012  1.00  0.00     0.000 C 
BRANCH   7   8
ATOM      8  C   UNL     1      25.255  19.512   5.579  1.00  0.00     0.000 C 
BRANCH   8   9
ATOM      9  C   UNL     1      24.991  21.027   5.530  1.00  0.00     0.000 C 
BRANCH   9  10
ATOM     10  C   UNL     1      23.494  21.374   5.589  1.00  0.00     0.006 C 
BRANCH  10  11
ATOM     11  C   UNL     1      22.779  21.080   4.263  1.00  0.00     0.053 C 
BRANCH  11  12
ATOM     12  C   UNL     1      21.526  20.284   4.469  1.00  0.00     0.041 C 
ATOM     13  O   UNL     1      21.476  19.406   5.371  1.00  0.00    -0.550 OA
ATOM     14  O   UNL     1      20.423  20.495   3.651  1.00  0.00    -0.550 OA
ENDBRANCH  11  12
ENDBRANCH  10  11
ENDBRANCH   9  10
ENDBRANCH   8   9
ENDBRANCH   7   8
ENDBRANCH   6   7
ENDBRANCH   5   6
ENDBRANCH   4   5
ENDBRANCH   3   4
ENDBRANCH   2   3
ENDBRANCH   1   2
BRANCH   1  15
ATOM     15  C   UNL     1      23.741  13.112   8.581  1.00  0.00     0.000 C 
BRANCH  15  16
ATOM     16  C   UNL     1      22.791  13.331   9.775  1.00  0.00     0.000 C 
BRANCH  16  17
ATOM     17  C   UNL     1      23.416  13.088  11.162  1.00  0.00     0.000 C 
BRANCH  17  18
ATOM     18  C   UNL     1      24.885  12.635  11.084  1.00  0.00    -0.000 C 
BRANCH  18  19
ATOM     19  C   UNL     1      25.235  11.573  12.140  1.00  0.00    -0.000 C 
BRANCH  19  20
ATOM     20  C   UNL     1      24.026  11.185  13.010  1.00  0.00    -0.000 C 
BRANCH  20  21
ATOM     21  C   UNL     1      23.955   9.673  13.280  1.00  0.00    -0.000 C 
BRANCH  21  22
ATOM     22  C   UNL     1      22.821   8.990  12.495  1.00  0.00    -0.000 C 
BRANCH  22  23
ATOM     23  C   UNL     1      21.796   9.993  11.943  1.00  0.00    -0.000 C 
BRANCH  23  24
ATOM     24  C   UNL     1      20.426   9.883  12.629  1.00  0.00    -0.000 C 
BRANCH  24  25
ATOM     25  C   UNL     1      20.443   8.804  13.718  1.00  0.00    -0.003 C 
ATOM     26  C   UNL     1      19.085   8.690  14.406  1.00  0.00     0.004 C 
ENDBRANCH  24  25
ENDBRANCH  23  24
ENDBRANCH  22  23
ENDBRANCH  21  22
ENDBRANCH  20  21
ENDBRANCH  19  20
ENDBRANCH  18  19
ENDBRANCH  17  18
ENDBRANCH  16  17
ENDBRANCH  15  16
ENDBRANCH   1  15
TORSDOF 22
ENDMDL
MODEL 6
REMARK VINA RESULT:    -5.629      2.501      3.308
REMARK INTER + INTRA:         -14.549
REMARK INTER:                 -13.170
REMARK INTRA:                  -1.378
REMARK UNBOUND:                -1.681
REMARK SMILES CCCCCCCCCCCCCCCCCCCCCCCC(=O)[O-]
REMARK SMILES IDX 13 1 14 2 15 3 16 4 17 5 18 6 19 7 20 8 21 9 22 10 23 11
REMARK SMILES IDX 24 12 25 13 26 14 12 15 11 16 10 17 9 18 8 19 7 20 6 21 5 22
REMARK SMILES IDX 4 23 3 24 2 25 1 26
REMARK H PARENT
REMARK Flexibility Score: inf
ROOT
ATOM      1  C   UNL     1      25.970  15.377   8.188  1.00  0.00     0.000 C 
ENDROOT
BRANCH   1   2
ATOM      2  C   UNL     1      27.449  15.704   7.928  1.00  0.00     0.000 C 
BRANCH   2   3
ATOM      3  C   UNL     1      27.709  17.206   7.739  1.00  0.00     0.000 C 
BRANCH   3   4
ATOM      4  C   UNL     1      26.600  18.042   8.390  1.00  0.00     0.000 C 
BRANCH   4   5
ATOM      5  C   UNL     1      25.964  18.999   7.372  1.00  0.00     0.000 C 
BRANCH   5   6
ATOM      6  C   UNL     1      24.563  18.546   6.931  1.00  0.00     0.000 C 
BRANCH   6   7
ATOM      7  C   UNL     1      24.098  19.240   5.638  1.00  0.00     0.000 C 
BRANCH   7   8
ATOM      8  C   UNL     1      23.633  20.691   5.892  1.00  0.00     0.000 C 
BRANCH   8   9
ATOM      9  C   UNL     1      24.558  21.753   5.272  1.00  0.00     0.000 C 
BRANCH   9  10
ATOM     10  C   UNL     1      23.990  23.177   5.382  1.00  0.00     0.006 C 
BRANCH  10  11
ATOM     11  C   UNL     1      24.045  23.713   6.820  1.00  0.00     0.053 C 
BRANCH  11  12
ATOM     12  C   UNL     1      24.390  25.171   6.859  1.00  0.00     0.041 C 
ATOM     13  O   UNL     1      25.419  25.561   7.474  1.00  0.00    -0.550 OA
ATOM     14  O   UNL     1      23.566  26.101   6.237  1.00  0.00    -0.550 OA
ENDBRANCH  11  12
ENDBRANCH  10  11
ENDBRANCH   9  10
ENDBRANCH   8   9
ENDBRANCH   7   8
ENDBRANCH   6   7
ENDBRANCH   5   6
ENDBRANCH   4   5
ENDBRANCH   3   4
ENDBRANCH   2   3
ENDBRANCH   1   2
BRANCH   1  15
ATOM     15  C   UNL     1      25.663  13.874   8.073  1.00  0.00     0.000 C 
BRANCH  15  16
ATOM     16  C   UNL     1      25.380  13.214   9.436  1.00  0.00     0.000 C 
BRANCH  16  17
ATOM     17  C   UNL     1      26.630  12.796  10.233  1.00  0.00     0.000 C 
BRANCH  17  18
ATOM     18  C   UNL     1      26.308  12.413  11.689  1.00  0.00    -0.000 C 
BRANCH  18  19
ATOM     19  C   UNL     1      24.835  12.020  11.888  1.00  0.00    -0.000 C 
BRANCH  19  20
ATOM     20  C   UNL     1      24.613  11.187  13.163  1.00  0.00    -0.000 C 
BRANCH  20  21
ATOM     21  C   UNL     1      23.461  10.179  13.015  1.00  0.00    -0.000 C 
BRANCH  21  22
ATOM     22  C   UNL     1      22.511  10.542  11.860  1.00  0.00    -0.000 C 
BRANCH  22  23
ATOM     23  C   UNL     1      21.134   9.873  11.994  1.00  0.00    -0.000 C 
BRANCH  23  24
ATOM     24  C   UNL     1      21.194   8.527  12.732  1.00  0.00    -0.000 C 
BRANCH  24  25
ATOM     25  C   UNL     1      19.987   8.357  13.662  1.00  0.00    -0.003 C 
ATOM     26  C   UNL     1      19.112   9.608  13.668  1.00  0.00     0.004 C 
ENDBRANCH  24  25
ENDBRANCH  23  24
ENDBRANCH  22  23
ENDBRANCH  21  22
ENDBRANCH  20  21
ENDBRANCH  19  20
ENDBRANCH  18  19
ENDBRANCH  17  18
ENDBRANCH  16  17
ENDBRANCH  15  16
ENDBRANCH   1  15
TORSDOF 22
ENDMDL
MODEL 7
REMARK VINA RESULT:    -5.578      4.082     10.968
REMARK INTER + INTRA:         -14.433
REMARK INTER:                 -12.276
REMARK INTRA:                  -2.157
REMARK UNBOUND:                -1.681
REMARK SMILES CCCCCCCCCCCCCCCCCCCCCCCC(=O)[O-]
REMARK SMILES IDX 13 1 14 2 15 3 16 4 17 5 18 6 19 7 20 8 21 9 22 10 23 11
REMARK SMILES IDX 24 12 25 13 26 14 12 15 11 16 10 17 9 18 8 19 7 20 6 21 5 22
REMARK SMILES IDX 4 23 3 24 2 25 1 26
REMARK H PARENT
REMARK Flexibility Score: inf
ROOT
ATOM      1  C   UNL     1      22.739  12.945   9.085  1.00  0.00     0.000 C 
ENDROOT
BRANCH   1   2
ATOM      2  C   UNL     1      23.278  13.496  10.415  1.00  0.00     0.000 C 
BRANCH   2   3
ATOM      3  C   UNL     1      23.897  12.412  11.308  1.00  0.00     0.000 C 
BRANCH   3   4
ATOM      4  C   UNL     1      25.428  12.428  11.212  1.00  0.00     0.000 C 
BRANCH   4   5
ATOM      5  C   UNL     1      26.063  11.759  12.440  1.00  0.00     0.000 C 
BRANCH   5   6
ATOM      6  C   UNL     1      25.029  11.412  13.522  1.00  0.00     0.000 C 
BRANCH   6   7
ATOM      7  C   UNL     1      24.937   9.898  13.786  1.00  0.00     0.000 C 
BRANCH   7   8
ATOM      8  C   UNL     1      23.482   9.384  13.726  1.00  0.00     0.000 C 
BRANCH   8   9
ATOM      9  C   UNL     1      22.941   9.227  12.295  1.00  0.00     0.000 C 
BRANCH   9  10
ATOM     10  C   UNL     1      21.408   9.329  12.222  1.00  0.00     0.006 C 
BRANCH  10  11
ATOM     11  C   UNL     1      20.716   8.321  13.150  1.00  0.00     0.053 C 
BRANCH  11  12
ATOM     12  C   UNL     1      19.557   8.934  13.875  1.00  0.00     0.041 C 
ATOM     13  O   UNL     1      19.093  10.045  13.501  1.00  0.00    -0.550 OA
ATOM     14  O   UNL     1      19.004   8.292  14.976  1.00  0.00    -0.550 OA
ENDBRANCH  11  12
ENDBRANCH  10  11
ENDBRANCH   9  10
ENDBRANCH   8   9
ENDBRANCH   7   8
ENDBRANCH   6   7
ENDBRANCH   5   6
ENDBRANCH   4   5
ENDBRANCH   3   4
ENDBRANCH   2   3
ENDBRANCH   1   2
BRANCH   1  15
ATOM     15  C   UNL     1      23.674  13.234   7.898  1.00  0.00     0.000 C 
BRANCH  15  16
ATOM     16  C   UNL     1      24.629  14.415   8.162  1.00  0.00     0.000 C 
BRANCH  16  17
ATOM     17  C   UNL     1      26.118  14.127   7.891  1.00  0.00     0.000 C 
BRANCH  17  18
ATOM     18  C   UNL     1      27.051  15.189   8.499  1.00  0.00    -0.000 C 
BRANCH  18  19
ATOM     19  C   UNL     1      27.762  16.036   7.430  1.00  0.00    -0.000 C 
BRANCH  19  20
ATOM     20  C   UNL     1      27.769  17.536   7.776  1.00  0.00    -0.000 C 
BRANCH  20  21
ATOM     21  C   UNL     1      26.395  18.038   8.250  1.00  0.00    -0.000 C 
BRANCH  21  22
ATOM     22  C   UNL     1      25.611  18.743   7.128  1.00  0.00    -0.000 C 
BRANCH  22  23
ATOM     23  C   UNL     1      24.163  18.241   7.012  1.00  0.00    -0.000 C 
BRANCH  23  24
ATOM     24  C   UNL     1      23.438  18.795   5.776  1.00  0.00    -0.000 C 
BRANCH  24  25
ATOM     25  C   UNL     1      23.579  20.320   5.696  1.00  0.00    -0.003 C 
ATOM     26  C   UNL     1      22.314  21.019   6.186  1.00  0.00     0.004 C 
ENDBRANCH  24  25
ENDBRANCH  23  24
ENDBRANCH  22  23
ENDBRANCH  21  22
ENDBRANCH  20  21
ENDBRANCH  19  20
ENDBRANCH  18  19
ENDBRANCH  17  18
ENDBRANCH  16  17
ENDBRANCH  15  16
ENDBRANCH   1  15
TORSDOF 22
ENDMDL
MODEL 8
REMARK VINA RESULT:    -5.492      3.334     11.013
REMARK INTER + INTRA:         -14.236
REMARK INTER:                 -12.337
REMARK INTRA:                  -1.899
REMARK UNBOUND:                -1.681
REMARK SMILES CCCCCCCCCCCCCCCCCCCCCCCC(=O)[O-]
REMARK SMILES IDX 13 1 14 2 15 3 16 4 17 5 18 6 19 7 20 8 21 9 22 10 23 11
REMARK SMILES IDX 24 12 25 13 26 14 12 15 11 16 10 17 9 18 8 19 7 20 6 21 5 22
REMARK SMILES IDX 4 23 3 24 2 25 1 26
REMARK H PARENT
REMARK Flexibility Score: inf
ROOT
ATOM      1  C   UNL     1      25.653  18.266   7.527  1.00  0.00     0.000 C 
ENDROOT
BRANCH   1   2
ATOM      2  C   UNL     1      27.127  18.068   7.139  1.00  0.00     0.000 C 
BRANCH   2   3
ATOM      3  C   UNL     1      27.668  16.683   7.521  1.00  0.00     0.000 C 
BRANCH   3   4
ATOM      4  C   UNL     1      26.730  15.979   8.509  1.00  0.00     0.000 C 
BRANCH   4   5
ATOM      5  C   UNL     1      26.307  14.601   7.980  1.00  0.00     0.000 C 
BRANCH   5   6
ATOM      6  C   UNL     1      26.379  13.508   9.058  1.00  0.00     0.000 C 
BRANCH   6   7
ATOM      7  C   UNL     1      24.991  13.128   9.606  1.00  0.00     0.000 C 
BRANCH   7   8
ATOM      8  C   UNL     1      23.860  13.472   8.612  1.00  0.00     0.000 C 
BRANCH   8   9
ATOM      9  C   UNL     1      22.551  12.707   8.878  1.00  0.00     0.000 C 
BRANCH   9  10
ATOM     10  C   UNL     1      22.403  12.269  10.344  1.00  0.00     0.006 C 
BRANCH  10  11
ATOM     11  C   UNL     1      21.510  11.028  10.490  1.00  0.00     0.053 C 
BRANCH  11  12
ATOM     12  C   UNL     1      21.682  10.370  11.825  1.00  0.00     0.041 C 
ATOM     13  O   UNL     1      20.678  10.142  12.552  1.00  0.00    -0.550 OA
ATOM     14  O   UNL     1      22.951  10.029  12.277  1.00  0.00    -0.550 OA
ENDBRANCH  11  12
ENDBRANCH  10  11
ENDBRANCH   9  10
ENDBRANCH   8   9
ENDBRANCH   7   8
ENDBRANCH   6   7
ENDBRANCH   5   6
ENDBRANCH   4   5
ENDBRANCH   3   4
ENDBRANCH   2   3
ENDBRANCH   1   2
BRANCH   1  15
ATOM     15  C   UNL     1      24.737  18.458   6.305  1.00  0.00     0.000 C 
BRANCH  15  16
ATOM     16  C   UNL     1      23.432  19.204   6.647  1.00  0.00     0.000 C 
BRANCH  16  17
ATOM     17  C   UNL     1      22.473  19.422   5.462  1.00  0.00     0.000 C 
BRANCH  17  18
ATOM     18  C   UNL     1      22.080  20.898   5.275  1.00  0.00    -0.000 C 
BRANCH  18  19
ATOM     19  C   UNL     1      23.204  21.866   5.679  1.00  0.00    -0.000 C 
BRANCH  19  20
ATOM     20  C   UNL     1      24.088  22.275   4.487  1.00  0.00    -0.000 C 
BRANCH  20  21
ATOM     21  C   UNL     1      25.583  22.036   4.751  1.00  0.00    -0.000 C 
BRANCH  21  22
ATOM     22  C   UNL     1      26.150  22.993   5.815  1.00  0.00    -0.000 C 
BRANCH  22  23
ATOM     23  C   UNL     1      26.519  24.369   5.238  1.00  0.00    -0.000 C 
BRANCH  23  24
ATOM     24  C   UNL     1      26.074  25.531   6.137  1.00  0.00    -0.000 C 
BRANCH  24  25
ATOM     25  C   UNL     1      24.719  25.231   6.791  1.00  0.00    -0.003 C 
ATOM     26  C   UNL     1      23.694  26.312   6.462  1.00  0.00     0.004 C 
ENDBRANCH  24  25
ENDBRANCH  23  24
ENDBRANCH  22  23
ENDBRANCH  21  22
ENDBRANCH  20  21
ENDBRANCH  19  20
ENDBRANCH  18  19
ENDBRANCH  17  18
ENDBRANCH  16  17
ENDBRANCH  15  16
ENDBRANCH   1  15
TORSDOF 22
ENDMDL
MODEL 9
REMARK VINA RESULT:    -5.466      3.861     11.775
REMARK INTER + INTRA:         -14.177
REMARK INTER:                 -12.635
REMARK INTRA:                  -1.542
REMARK UNBOUND:                -1.681
REMARK SMILES CCCCCCCCCCCCCCCCCCCCCCCC(=O)[O-]
REMARK SMILES IDX 13 1 14 2 15 3 16 4 17 5 18 6 19 7 20 8 21 9 22 10 23 11
REMARK SMILES IDX 24 12 25 13 26 14 12 15 11 16 10 17 9 18 8 19 7 20 6 21 5 22
REMARK SMILES IDX 4 23 3 24 2 25 1 26
REMARK H PARENT
REMARK Flexibility Score: inf
ROOT
ATOM      1  C   UNL     1      26.237  16.971   7.967  1.00  0.00     0.000 C 
ENDROOT
BRANCH   1   2
ATOM      2  C   UNL     1      27.334  15.904   8.111  1.00  0.00     0.000 C 
BRANCH   2   3
ATOM      3  C   UNL     1      26.814  14.584   8.698  1.00  0.00     0.000 C 
BRANCH   3   4
ATOM      4  C   UNL     1      25.598  14.074   7.915  1.00  0.00     0.000 C 
BRANCH   4   5
ATOM      5  C   UNL     1      24.556  13.457   8.859  1.00  0.00     0.000 C 
BRANCH   5   6
ATOM      6  C   UNL     1      25.138  13.125  10.243  1.00  0.00     0.000 C 
BRANCH   6   7
ATOM      7  C   UNL     1      24.085  12.536  11.199  1.00  0.00     0.000 C 
BRANCH   7   8
ATOM      8  C   UNL     1      24.724  11.953  12.479  1.00  0.00     0.000 C 
BRANCH   8   9
ATOM      9  C   UNL     1      24.001  10.706  13.017  1.00  0.00     0.000 C 
BRANCH   9  10
ATOM     10  C   UNL     1      22.734  10.360  12.219  1.00  0.00     0.006 C 
BRANCH  10  11
ATOM     11  C   UNL     1      22.216   8.950  12.539  1.00  0.00     0.053 C 
BRANCH  11  12
ATOM     12  C   UNL     1      20.801   8.974  13.032  1.00  0.00     0.041 C 
ATOM     13  O   UNL     1      20.298   7.946  13.562  1.00  0.00    -0.550 OA
ATOM     14  O   UNL     1      20.030  10.121  12.886  1.00  0.00    -0.550 OA
ENDBRANCH  11  12
ENDBRANCH  10  11
ENDBRANCH   9  10
ENDBRANCH   8   9
ENDBRANCH   7   8
ENDBRANCH   6   7
ENDBRANCH   5   6
ENDBRANCH   4   5
ENDBRANCH   3   4
ENDBRANCH   2   3
ENDBRANCH   1   2
BRANCH   1  15
ATOM     15  C   UNL     1      26.665  18.343   8.517  1.00  0.00     0.000 C 
BRANCH  15  16
ATOM     16  C   UNL     1      27.646  19.082   7.587  1.00  0.00     0.000 C 
BRANCH  16  17
ATOM     17  C   UNL     1      27.118  20.402   6.994  1.00  0.00     0.000 C 
BRANCH  17  18
ATOM     18  C   UNL     1      26.527  20.227   5.583  1.00  0.00    -0.000 C 
BRANCH  18  19
ATOM     19  C   UNL     1      24.995  20.092   5.594  1.00  0.00    -0.000 C 
BRANCH  19  20
ATOM     20  C   UNL     1      24.284  21.448   5.755  1.00  0.00    -0.000 C 
BRANCH  20  21
ATOM     21  C   UNL     1      24.338  22.297   4.474  1.00  0.00    -0.000 C 
BRANCH  21  22
ATOM     22  C   UNL     1      24.741  23.756   4.755  1.00  0.00    -0.000 C 
BRANCH  22  23
ATOM     23  C   UNL     1      25.918  23.867   5.737  1.00  0.00    -0.000 C 
BRANCH  23  24
ATOM     24  C   UNL     1      26.145  25.302   6.236  1.00  0.00    -0.000 C 
BRANCH  24  25
ATOM     25  C   UNL     1      24.985  25.763   7.127  1.00  0.00    -0.003 C 
ATOM     26  C   UNL     1      25.497  26.461   8.384  1.00  0.00     0.004 C 
ENDBRANCH  24  25
ENDBRANCH  23  24
ENDBRANCH  22  23
ENDBRANCH  21  22
ENDBRANCH  20  21
ENDBRANCH  19  20
ENDBRANCH  18  19
ENDBRANCH  17  18
ENDBRANCH  16  17
ENDBRANCH  15  16
ENDBRANCH   1  15
TORSDOF 22
ENDMDL
