MODEL 1
REMARK VINA RESULT:    -4.922      0.000      0.000
REMARK INTER + INTRA:          -5.066
REMARK INTER:                  -5.066
REMARK INTRA:                   0.000
REMARK UNBOUND:                 0.000
REMARK SMILES Cc1ccccc1O
REMARK SMILES IDX 1 1 2 2 3 3 4 4 5 5 6 6 7 7 8 8
REMARK H PARENT 8 9
REMARK Flexibility Score: inf
ROOT
ATOM      1  C   UNL     1     -11.743  -7.751  39.474  1.00  0.00     0.048 C 
ATOM      2  C   UNL     1     -12.836  -7.103  38.670  1.00  0.00    -0.009 A 
ATOM      3  C   UNL     1     -13.751  -6.246  39.307  1.00  0.00     0.007 A 
ATOM      4  C   UNL     1     -14.774  -5.634  38.578  1.00  0.00     0.001 A 
ATOM      5  C   UNL     1     -14.893  -5.868  37.208  1.00  0.00     0.004 A 
ATOM      6  C   UNL     1     -13.992  -6.717  36.562  1.00  0.00     0.046 A 
ATOM      7  C   UNL     1     -12.962  -7.338  37.280  1.00  0.00     0.118 A 
ENDROOT
BRANCH   7   8
ATOM      8  O   UNL     1     -12.085  -8.179  36.590  1.00  0.00    -0.508 OA
ATOM      9  H   UNL     1     -12.364  -8.724  35.785  1.00  0.00     0.293 HD
ENDBRANCH   7   8
TORSDOF 1
ENDMDL
MODEL 2
REMARK VINA RESULT:    -4.824      1.129      2.763
REMARK INTER + INTRA:          -4.965
REMARK INTER:                  -4.965
REMARK INTRA:                   0.000
REMARK UNBOUND:                 0.000
REMARK SMILES Cc1ccccc1O
REMARK SMILES IDX 1 1 2 2 3 3 4 4 5 5 6 6 7 7 8 8
REMARK H PARENT 8 9
REMARK Flexibility Score: inf
ROOT
ATOM      1  C   UNL     1     -14.787  -5.601  38.322  1.00  0.00     0.048 C 
ATOM      2  C   UNL     1     -13.637  -6.570  38.307  1.00  0.00    -0.009 A 
ATOM      3  C   UNL     1     -12.942  -6.840  39.500  1.00  0.00     0.007 A 
ATOM      4  C   UNL     1     -11.870  -7.736  39.508  1.00  0.00     0.001 A 
ATOM      5  C   UNL     1     -11.482  -8.373  38.329  1.00  0.00     0.004 A 
ATOM      6  C   UNL     1     -12.163  -8.114  37.137  1.00  0.00     0.046 A 
ATOM      7  C   UNL     1     -13.239  -7.218  37.114  1.00  0.00     0.118 A 
ENDROOT
BRANCH   7   8
ATOM      8  O   UNL     1     -13.888  -6.992  35.898  1.00  0.00    -0.508 OA
ATOM      9  H   UNL     1     -14.302  -7.733  35.349  1.00  0.00     0.293 HD
ENDBRANCH   7   8
TORSDOF 1
ENDMDL
MODEL 3
REMARK VINA RESULT:    -4.627      3.094      4.003
REMARK INTER + INTRA:          -4.762
REMARK INTER:                  -4.762
REMARK INTRA:                   0.000
REMARK UNBOUND:                 0.000
REMARK SMILES Cc1ccccc1O
REMARK SMILES IDX 1 1 2 2 3 3 4 4 5 5 6 6 7 7 8 8
REMARK H PARENT 8 9
REMARK Flexibility Score: inf
ROOT
ATOM      1  C   UNL     1     -17.578  -6.577  41.340  1.00  0.00     0.048 C 
ATOM      2  C   UNL     1     -16.656  -6.278  40.190  1.00  0.00    -0.009 A 
ATOM      3  C   UNL     1     -15.484  -5.534  40.415  1.00  0.00     0.007 A 
ATOM      4  C   UNL     1     -14.615  -5.245  39.361  1.00  0.00     0.001 A 
ATOM      5  C   UNL     1     -14.904  -5.696  38.072  1.00  0.00     0.004 A 
ATOM      6  C   UNL     1     -16.065  -6.435  37.834  1.00  0.00     0.046 A 
ATOM      7  C   UNL     1     -16.945  -6.732  38.881  1.00  0.00     0.118 A 
ENDROOT
BRANCH   7   8
ATOM      8  O   UNL     1     -18.093  -7.474  38.593  1.00  0.00    -0.508 OA
ATOM      9  H   UNL     1     -18.099  -8.485  38.551  1.00  0.00     0.293 HD
ENDBRANCH   7   8
TORSDOF 1
ENDMDL
MODEL 4
REMARK VINA RESULT:    -4.584      1.397      2.274
REMARK INTER + INTRA:          -4.718
REMARK INTER:                  -4.718
REMARK INTRA:                   0.000
REMARK UNBOUND:                 0.000
REMARK SMILES Cc1ccccc1O
REMARK SMILES IDX 1 1 2 2 3 3 4 4 5 5 6 6 7 7 8 8
REMARK H PARENT 8 9
REMARK Flexibility Score: inf
ROOT
ATOM      1  C   UNL     1     -11.805  -8.338  37.286  1.00  0.00     0.048 C 
ATOM      2  C   UNL     1     -12.870  -7.362  37.706  1.00  0.00    -0.009 A 
ATOM      3  C   UNL     1     -13.771  -6.863  36.749  1.00  0.00     0.007 A 
ATOM      4  C   UNL     1     -14.766  -5.956  37.118  1.00  0.00     0.001 A 
ATOM      5  C   UNL     1     -14.875  -5.538  38.445  1.00  0.00     0.004 A 
ATOM      6  C   UNL     1     -13.987  -6.026  39.407  1.00  0.00     0.046 A 
ATOM      7  C   UNL     1     -12.983  -6.935  39.051  1.00  0.00     0.118 A 
ENDROOT
BRANCH   7   8
ATOM      8  O   UNL     1     -12.119  -7.394  40.047  1.00  0.00    -0.508 OA
ATOM      9  H   UNL     1     -11.536  -6.778  40.597  1.00  0.00     0.293 HD
ENDBRANCH   7   8
TORSDOF 1
ENDMDL
MODEL 5
REMARK VINA RESULT:    -4.520      1.444      3.214
REMARK INTER + INTRA:          -4.652
REMARK INTER:                  -4.652
REMARK INTRA:                   0.000
REMARK UNBOUND:                 0.000
REMARK SMILES Cc1ccccc1O
REMARK SMILES IDX 1 1 2 2 3 3 4 4 5 5 6 6 7 7 8 8
REMARK H PARENT 8 9
REMARK Flexibility Score: inf
ROOT
ATOM      1  C   UNL     1     -13.453  -6.208  39.303  1.00  0.00     0.048 C 
ATOM      2  C   UNL     1     -12.529  -7.301  38.840  1.00  0.00    -0.009 A 
ATOM      3  C   UNL     1     -11.717  -7.967  39.775  1.00  0.00     0.007 A 
ATOM      4  C   UNL     1     -10.852  -8.984  39.366  1.00  0.00     0.001 A 
ATOM      5  C   UNL     1     -10.789  -9.349  38.020  1.00  0.00     0.004 A 
ATOM      6  C   UNL     1     -11.589  -8.696  37.080  1.00  0.00     0.046 A 
ATOM      7  C   UNL     1     -12.460  -7.674  37.476  1.00  0.00     0.118 A 
ENDROOT
BRANCH   7   8
ATOM      8  O   UNL     1     -13.240  -7.051  36.499  1.00  0.00    -0.508 OA
ATOM      9  H   UNL     1     -12.914  -6.265  35.953  1.00  0.00     0.293 HD
ENDBRANCH   7   8
TORSDOF 1
ENDMDL
MODEL 6
REMARK VINA RESULT:    -4.468      2.164      3.081
REMARK INTER + INTRA:          -4.599
REMARK INTER:                  -4.599
REMARK INTRA:                   0.000
REMARK UNBOUND:                 0.000
REMARK SMILES Cc1ccccc1O
REMARK SMILES IDX 1 1 2 2 3 3 4 4 5 5 6 6 7 7 8 8
REMARK H PARENT 8 9
REMARK Flexibility Score: inf
ROOT
ATOM      1  C   UNL     1      -9.687 -10.246  39.793  1.00  0.00     0.048 C 
ATOM      2  C   UNL     1     -10.648  -9.317  39.104  1.00  0.00    -0.009 A 
ATOM      3  C   UNL     1     -11.377  -8.384  39.863  1.00  0.00     0.007 A 
ATOM      4  C   UNL     1     -12.275  -7.512  39.243  1.00  0.00     0.001 A 
ATOM      5  C   UNL     1     -12.455  -7.561  37.859  1.00  0.00     0.004 A 
ATOM      6  C   UNL     1     -11.738  -8.483  37.093  1.00  0.00     0.046 A 
ATOM      7  C   UNL     1     -10.835  -9.363  37.702  1.00  0.00     0.118 A 
ENDROOT
BRANCH   7   8
ATOM      8  O   UNL     1     -10.142 -10.266  36.893  1.00  0.00    -0.508 OA
ATOM      9  H   UNL     1      -9.233 -10.066  36.497  1.00  0.00     0.293 HD
ENDBRANCH   7   8
TORSDOF 1
ENDMDL
MODEL 7
REMARK VINA RESULT:    -4.425      1.885      3.545
REMARK INTER + INTRA:          -4.555
REMARK INTER:                  -4.555
REMARK INTRA:                   0.000
REMARK UNBOUND:                 0.000
REMARK SMILES Cc1ccccc1O
REMARK SMILES IDX 1 1 2 2 3 3 4 4 5 5 6 6 7 7 8 8
REMARK H PARENT 8 9
REMARK Flexibility Score: inf
ROOT
ATOM      1  C   UNL     1     -15.126  -5.741  37.637  1.00  0.00     0.048 C 
ATOM      2  C   UNL     1     -13.898  -6.528  38.005  1.00  0.00    -0.009 A 
ATOM      3  C   UNL     1     -13.244  -7.294  37.023  1.00  0.00     0.007 A 
ATOM      4  C   UNL     1     -12.103  -8.032  37.344  1.00  0.00     0.001 A 
ATOM      5  C   UNL     1     -11.601  -8.014  38.646  1.00  0.00     0.004 A 
ATOM      6  C   UNL     1     -12.241  -7.258  39.632  1.00  0.00     0.046 A 
ATOM      7  C   UNL     1     -13.386  -6.514  39.324  1.00  0.00     0.118 A 
ENDROOT
BRANCH   7   8
ATOM      8  O   UNL     1     -13.990  -5.774  40.343  1.00  0.00    -0.508 OA
ATOM      9  H   UNL     1     -13.675  -4.853  40.617  1.00  0.00     0.293 HD
ENDBRANCH   7   8
TORSDOF 1
ENDMDL
MODEL 8
REMARK VINA RESULT:    -4.408      2.010      2.685
REMARK INTER + INTRA:          -4.537
REMARK INTER:                  -4.537
REMARK INTRA:                   0.000
REMARK UNBOUND:                 0.000
REMARK SMILES Cc1ccccc1O
REMARK SMILES IDX 1 1 2 2 3 3 4 4 5 5 6 6 7 7 8 8
REMARK H PARENT 8 9
REMARK Flexibility Score: inf
ROOT
ATOM      1  C   UNL     1     -12.884  -6.343  40.749  1.00  0.00     0.048 C 
ATOM      2  C   UNL     1     -13.268  -6.495  39.303  1.00  0.00    -0.009 A 
ATOM      3  C   UNL     1     -12.513  -7.339  38.469  1.00  0.00     0.007 A 
ATOM      4  C   UNL     1     -12.853  -7.494  37.123  1.00  0.00     0.001 A 
ATOM      5  C   UNL     1     -13.950  -6.811  36.595  1.00  0.00     0.004 A 
ATOM      6  C   UNL     1     -14.708  -5.969  37.412  1.00  0.00     0.046 A 
ATOM      7  C   UNL     1     -14.379  -5.804  38.763  1.00  0.00     0.118 A 
ENDROOT
BRANCH   7   8
ATOM      8  O   UNL     1     -15.168  -4.952  39.539  1.00  0.00    -0.508 OA
ATOM      9  H   UNL     1     -14.795  -4.147  40.025  1.00  0.00     0.293 HD
ENDBRANCH   7   8
TORSDOF 1
ENDMDL
MODEL 9
REMARK VINA RESULT:    -4.381      1.044      1.530
REMARK INTER + INTRA:          -4.509
REMARK INTER:                  -4.509
REMARK INTRA:                   0.000
REMARK UNBOUND:                 0.000
REMARK SMILES Cc1ccccc1O
REMARK SMILES IDX 1 1 2 2 3 3 4 4 5 5 6 6 7 7 8 8
REMARK H PARENT 8 9
REMARK Flexibility Score: inf
ROOT
ATOM      1  C   UNL     1     -12.957  -6.395  40.685  1.00  0.00     0.048 C 
ATOM      2  C   UNL     1     -13.326  -6.539  39.234  1.00  0.00    -0.009 A 
ATOM      3  C   UNL     1     -14.403  -5.799  38.715  1.00  0.00     0.007 A 
ATOM      4  C   UNL     1     -14.762  -5.918  37.370  1.00  0.00     0.001 A 
ATOM      5  C   UNL     1     -14.051  -6.775  36.530  1.00  0.00     0.004 A 
ATOM      6  C   UNL     1     -12.979  -7.518  37.032  1.00  0.00     0.046 A 
ATOM      7  C   UNL     1     -12.609  -7.408  38.377  1.00  0.00     0.118 A 
ENDROOT
BRANCH   7   8
ATOM      8  O   UNL     1     -11.530  -8.170  38.833  1.00  0.00    -0.508 OA
ATOM      9  H   UNL     1     -10.629  -8.178  38.375  1.00  0.00     0.293 HD
ENDBRANCH   7   8
TORSDOF 1
ENDMDL
