MODEL 1
REMARK VINA RESULT:    -4.536      0.000      0.000
REMARK INTER + INTRA:          -7.714
REMARK INTER:                  -6.922
REMARK INTRA:                  -0.792
REMARK UNBOUND:                -0.792
REMARK SMILES O=C([O-])CCCCCCCCC(=O)[O-]
REMARK SMILES IDX 7 1 6 2 5 3 4 4 2 5 1 6 3 7 8 8 9 9 10 10 11 11 12 12 13 13
REMARK SMILES IDX 14 14
REMARK H PARENT
REMARK Flexibility Score: inf
ROOT
ATOM      1  C   UNL     1     -16.577  35.229  81.463  1.00  0.00     0.000 C 
ENDROOT
BRANCH   1   2
ATOM      2  C   UNL     1     -16.580  35.340  82.999  1.00  0.00     0.000 C 
BRANCH   2   3
ATOM      3  C   UNL     1     -16.231  36.752  83.499  1.00  0.00     0.006 C 
BRANCH   3   4
ATOM      4  C   UNL     1     -17.325  37.774  83.160  1.00  0.00     0.053 C 
BRANCH   4   5
ATOM      5  C   UNL     1     -18.661  37.359  83.694  1.00  0.00     0.041 C 
ATOM      6  O   UNL     1     -19.572  36.991  82.905  1.00  0.00    -0.550 OA
ATOM      7  O   UNL     1     -18.893  37.352  85.064  1.00  0.00    -0.550 OA
ENDBRANCH   4   5
ENDBRANCH   3   4
ENDBRANCH   2   3
ENDBRANCH   1   2
BRANCH   1   8
ATOM      8  C   UNL     1     -17.745  34.427  80.861  1.00  0.00     0.000 C 
BRANCH   8   9
ATOM      9  C   UNL     1     -18.378  35.114  79.640  1.00  0.00     0.000 C 
BRANCH   9  10
ATOM     10  C   UNL     1     -18.244  36.645  79.691  1.00  0.00     0.006 C 
BRANCH  10  11
ATOM     11  C   UNL     1     -18.825  37.332  78.447  1.00  0.00     0.053 C 
BRANCH  11  12
ATOM     12  C   UNL     1     -20.236  37.762  78.700  1.00  0.00     0.041 C 
ATOM     13  O   UNL     1     -20.691  37.783  79.874  1.00  0.00    -0.550 OA
ATOM     14  O   UNL     1     -21.032  38.188  77.645  1.00  0.00    -0.550 OA
ENDBRANCH  11  12
ENDBRANCH  10  11
ENDBRANCH   9  10
ENDBRANCH   8   9
ENDBRANCH   1   8
TORSDOF 9
ENDMDL
MODEL 2
REMARK VINA RESULT:    -4.501      2.918      4.000
REMARK INTER + INTRA:          -7.661
REMARK INTER:                  -7.356
REMARK INTRA:                  -0.305
REMARK UNBOUND:                -0.792
REMARK SMILES O=C([O-])CCCCCCCCC(=O)[O-]
REMARK SMILES IDX 7 1 6 2 5 3 4 4 2 5 1 6 3 7 8 8 9 9 10 10 11 11 12 12 13 13
REMARK SMILES IDX 14 14
REMARK H PARENT
REMARK Flexibility Score: inf
ROOT
ATOM      1  C   UNL     1     -18.734  37.042  84.564  1.00  0.00     0.000 C 
ENDROOT
BRANCH   1   2
ATOM      2  C   UNL     1     -19.569  38.228  85.077  1.00  0.00     0.000 C 
BRANCH   2   3
ATOM      3  C   UNL     1     -19.873  38.141  86.582  1.00  0.00     0.006 C 
BRANCH   3   4
ATOM      4  C   UNL     1     -21.014  39.080  86.998  1.00  0.00     0.053 C 
BRANCH   4   5
ATOM      5  C   UNL     1     -20.518  40.461  87.300  1.00  0.00     0.041 C 
ATOM      6  O   UNL     1     -21.331  41.418  87.403  1.00  0.00    -0.550 OA
ATOM      7  O   UNL     1     -19.161  40.687  87.496  1.00  0.00    -0.550 OA
ENDBRANCH   4   5
ENDBRANCH   3   4
ENDBRANCH   2   3
ENDBRANCH   1   2
BRANCH   1   8
ATOM      8  C   UNL     1     -18.652  36.912  83.031  1.00  0.00     0.000 C 
BRANCH   8   9
ATOM      9  C   UNL     1     -17.271  37.292  82.470  1.00  0.00     0.000 C 
BRANCH   9  10
ATOM     10  C   UNL     1     -17.169  37.066  80.953  1.00  0.00     0.006 C 
BRANCH  10  11
ATOM     11  C   UNL     1     -18.369  36.293  80.388  1.00  0.00     0.053 C 
BRANCH  11  12
ATOM     12  C   UNL     1     -19.065  37.103  79.340  1.00  0.00     0.041 C 
ATOM     13  O   UNL     1     -20.225  37.547  79.549  1.00  0.00    -0.550 OA
ATOM     14  O   UNL     1     -18.413  37.413  78.153  1.00  0.00    -0.550 OA
ENDBRANCH  11  12
ENDBRANCH  10  11
ENDBRANCH   9  10
ENDBRANCH   8   9
ENDBRANCH   1   8
TORSDOF 9
ENDMDL
MODEL 3
REMARK VINA RESULT:    -4.401      2.380      5.805
REMARK INTER + INTRA:          -7.508
REMARK INTER:                  -7.065
REMARK INTRA:                  -0.443
REMARK UNBOUND:                -0.792
REMARK SMILES O=C([O-])CCCCCCCCC(=O)[O-]
REMARK SMILES IDX 7 1 6 2 5 3 4 4 2 5 1 6 3 7 8 8 9 9 10 10 11 11 12 12 13 13
REMARK SMILES IDX 14 14
REMARK H PARENT
REMARK Flexibility Score: inf
ROOT
ATOM      1  C   UNL     1     -17.003  36.298  83.540  1.00  0.00     0.000 C 
ENDROOT
BRANCH   1   2
ATOM      2  C   UNL     1     -16.690  35.492  82.266  1.00  0.00     0.000 C 
BRANCH   2   3
ATOM      3  C   UNL     1     -17.954  34.999  81.542  1.00  0.00     0.006 C 
BRANCH   3   4
ATOM      4  C   UNL     1     -17.911  35.293  80.036  1.00  0.00     0.053 C 
BRANCH   4   5
ATOM      5  C   UNL     1     -18.258  36.719  79.736  1.00  0.00     0.041 C 
ATOM      6  O   UNL     1     -19.448  37.040  79.476  1.00  0.00    -0.550 OA
ATOM      7  O   UNL     1     -17.274  37.699  79.772  1.00  0.00    -0.550 OA
ENDBRANCH   4   5
ENDBRANCH   3   4
ENDBRANCH   2   3
ENDBRANCH   1   2
BRANCH   1   8
ATOM      8  C   UNL     1     -17.911  37.524  83.334  1.00  0.00     0.000 C 
BRANCH   8   9
ATOM      9  C   UNL     1     -19.261  37.400  84.061  1.00  0.00     0.000 C 
BRANCH   9  10
ATOM     10  C   UNL     1     -19.160  37.753  85.554  1.00  0.00     0.006 C 
BRANCH  10  11
ATOM     11  C   UNL     1     -20.284  38.690  86.018  1.00  0.00     0.053 C 
BRANCH  11  12
ATOM     12  C   UNL     1     -19.793  39.595  87.104  1.00  0.00     0.041 C 
ATOM     13  O   UNL     1     -19.549  39.134  88.250  1.00  0.00    -0.550 OA
ATOM     14  O   UNL     1     -19.557  40.937  86.836  1.00  0.00    -0.550 OA
ENDBRANCH  11  12
ENDBRANCH  10  11
ENDBRANCH   9  10
ENDBRANCH   8   9
ENDBRANCH   1   8
TORSDOF 9
ENDMDL
MODEL 4
REMARK VINA RESULT:    -4.337      3.084      4.523
REMARK INTER + INTRA:          -7.411
REMARK INTER:                  -7.138
REMARK INTRA:                  -0.274
REMARK UNBOUND:                -0.792
REMARK SMILES O=C([O-])CCCCCCCCC(=O)[O-]
REMARK SMILES IDX 7 1 6 2 5 3 4 4 2 5 1 6 3 7 8 8 9 9 10 10 11 11 12 12 13 13
REMARK SMILES IDX 14 14
REMARK H PARENT
REMARK Flexibility Score: inf
ROOT
ATOM      1  C   UNL     1     -18.664  37.776  84.159  1.00  0.00     0.000 C 
ENDROOT
BRANCH   1   2
ATOM      2  C   UNL     1     -19.928  37.766  85.036  1.00  0.00     0.000 C 
BRANCH   2   3
ATOM      3  C   UNL     1     -19.827  38.710  86.246  1.00  0.00     0.006 C 
BRANCH   3   4
ATOM      4  C   UNL     1     -20.591  38.174  87.465  1.00  0.00     0.053 C 
BRANCH   4   5
ATOM      5  C   UNL     1     -20.032  38.702  88.751  1.00  0.00     0.041 C 
ATOM      6  O   UNL     1     -19.778  39.930  88.873  1.00  0.00    -0.550 OA
ATOM      7  O   UNL     1     -19.816  37.845  89.822  1.00  0.00    -0.550 OA
ENDBRANCH   4   5
ENDBRANCH   3   4
ENDBRANCH   2   3
ENDBRANCH   1   2
BRANCH   1   8
ATOM      8  C   UNL     1     -17.915  36.433  84.071  1.00  0.00     0.000 C 
BRANCH   8   9
ATOM      9  C   UNL     1     -16.515  36.567  83.449  1.00  0.00     0.000 C 
BRANCH   9  10
ATOM     10  C   UNL     1     -16.458  36.034  82.008  1.00  0.00     0.006 C 
BRANCH  10  11
ATOM     11  C   UNL     1     -17.224  36.922  81.018  1.00  0.00     0.053 C 
BRANCH  11  12
ATOM     12  C   UNL     1     -18.057  36.082  80.101  1.00  0.00     0.041 C 
ATOM     13  O   UNL     1     -18.542  36.581  79.051  1.00  0.00    -0.550 OA
ATOM     14  O   UNL     1     -18.256  34.737  80.380  1.00  0.00    -0.550 OA
ENDBRANCH  11  12
ENDBRANCH  10  11
ENDBRANCH   9  10
ENDBRANCH   8   9
ENDBRANCH   1   8
TORSDOF 9
ENDMDL
MODEL 5
REMARK VINA RESULT:    -4.302      8.143     10.284
REMARK INTER + INTRA:          -7.357
REMARK INTER:                  -6.389
REMARK INTRA:                  -0.968
REMARK UNBOUND:                -0.792
REMARK SMILES O=C([O-])CCCCCCCCC(=O)[O-]
REMARK SMILES IDX 7 1 6 2 5 3 4 4 2 5 1 6 3 7 8 8 9 9 10 10 11 11 12 12 13 13
REMARK SMILES IDX 14 14
REMARK H PARENT
REMARK Flexibility Score: inf
ROOT
ATOM      1  C   UNL     1     -21.341  46.835  84.570  1.00  0.00     0.000 C 
ENDROOT
BRANCH   1   2
ATOM      2  C   UNL     1     -20.870  45.771  83.562  1.00  0.00     0.000 C 
BRANCH   2   3
ATOM      3  C   UNL     1     -19.474  46.065  82.987  1.00  0.00     0.006 C 
BRANCH   3   4
ATOM      4  C   UNL     1     -18.408  45.105  83.534  1.00  0.00     0.053 C 
BRANCH   4   5
ATOM      5  C   UNL     1     -17.581  45.743  84.607  1.00  0.00     0.041 C 
ATOM      6  O   UNL     1     -16.884  45.029  85.377  1.00  0.00    -0.550 OA
ATOM      7  O   UNL     1     -17.557  47.125  84.741  1.00  0.00    -0.550 OA
ENDBRANCH   4   5
ENDBRANCH   3   4
ENDBRANCH   2   3
ENDBRANCH   1   2
BRANCH   1   8
ATOM      8  C   UNL     1     -21.319  46.396  86.046  1.00  0.00     0.000 C 
BRANCH   8   9
ATOM      9  C   UNL     1     -21.486  44.877  86.222  1.00  0.00     0.000 C 
BRANCH   9  10
ATOM     10  C   UNL     1     -20.243  44.216  86.841  1.00  0.00     0.006 C 
BRANCH  10  11
ATOM     11  C   UNL     1     -19.835  42.927  86.114  1.00  0.00     0.053 C 
BRANCH  11  12
ATOM     12  C   UNL     1     -20.300  41.728  86.879  1.00  0.00     0.041 C 
ATOM     13  O   UNL     1     -21.485  41.667  87.303  1.00  0.00    -0.550 OA
ATOM     14  O   UNL     1     -19.442  40.655  87.079  1.00  0.00    -0.550 OA
ENDBRANCH  11  12
ENDBRANCH  10  11
ENDBRANCH   9  10
ENDBRANCH   8   9
ENDBRANCH   1   8
TORSDOF 9
ENDMDL
MODEL 6
REMARK VINA RESULT:    -4.260      6.470      9.236
REMARK INTER + INTRA:          -7.294
REMARK INTER:                  -6.472
REMARK INTRA:                  -0.822
REMARK UNBOUND:                -0.792
REMARK SMILES O=C([O-])CCCCCCCCC(=O)[O-]
REMARK SMILES IDX 7 1 6 2 5 3 4 4 2 5 1 6 3 7 8 8 9 9 10 10 11 11 12 12 13 13
REMARK SMILES IDX 14 14
REMARK H PARENT
REMARK Flexibility Score: inf
ROOT
ATOM      1  C   UNL     1     -22.138  43.539  87.601  1.00  0.00     0.000 C 
ENDROOT
BRANCH   1   2
ATOM      2  C   UNL     1     -21.022  44.473  87.098  1.00  0.00     0.000 C 
BRANCH   2   3
ATOM      3  C   UNL     1     -20.542  44.126  85.679  1.00  0.00     0.006 C 
BRANCH   3   4
ATOM      4  C   UNL     1     -19.058  43.733  85.649  1.00  0.00     0.053 C 
BRANCH   4   5
ATOM      5  C   UNL     1     -18.239  44.706  84.858  1.00  0.00     0.041 C 
ATOM      6  O   UNL     1     -18.687  45.179  83.780  1.00  0.00    -0.550 OA
ATOM      7  O   UNL     1     -16.996  45.112  85.324  1.00  0.00    -0.550 OA
ENDBRANCH   4   5
ENDBRANCH   3   4
ENDBRANCH   2   3
ENDBRANCH   1   2
BRANCH   1   8
ATOM      8  C   UNL     1     -21.742  42.056  87.732  1.00  0.00     0.000 C 
BRANCH   8   9
ATOM      9  C   UNL     1     -20.574  41.831  88.707  1.00  0.00     0.000 C 
BRANCH   9  10
ATOM     10  C   UNL     1     -19.750  40.580  88.361  1.00  0.00     0.006 C 
BRANCH  10  11
ATOM     11  C   UNL     1     -19.802  40.232  86.867  1.00  0.00     0.053 C 
BRANCH  11  12
ATOM     12  C   UNL     1     -20.191  38.800  86.679  1.00  0.00     0.041 C 
ATOM     13  O   UNL     1     -19.899  38.199  85.610  1.00  0.00    -0.550 OA
ATOM     14  O   UNL     1     -20.830  38.112  87.702  1.00  0.00    -0.550 OA
ENDBRANCH  11  12
ENDBRANCH  10  11
ENDBRANCH   9  10
ENDBRANCH   8   9
ENDBRANCH   1   8
TORSDOF 9
ENDMDL
MODEL 7
REMARK VINA RESULT:    -4.260      6.442      8.774
REMARK INTER + INTRA:          -7.293
REMARK INTER:                  -6.426
REMARK INTRA:                  -0.867
REMARK UNBOUND:                -0.792
REMARK SMILES O=C([O-])CCCCCCCCC(=O)[O-]
REMARK SMILES IDX 7 1 6 2 5 3 4 4 2 5 1 6 3 7 8 8 9 9 10 10 11 11 12 12 13 13
REMARK SMILES IDX 14 14
REMARK H PARENT
REMARK Flexibility Score: inf
ROOT
ATOM      1  C   UNL     1     -21.350  41.875  88.238  1.00  0.00     0.000 C 
ENDROOT
BRANCH   1   2
ATOM      2  C   UNL     1     -20.201  41.307  89.090  1.00  0.00     0.000 C 
BRANCH   2   3
ATOM      3  C   UNL     1     -19.286  40.352  88.304  1.00  0.00     0.006 C 
BRANCH   3   4
ATOM      4  C   UNL     1     -19.796  40.103  86.878  1.00  0.00     0.053 C 
BRANCH   4   5
ATOM      5  C   UNL     1     -20.222  38.680  86.679  1.00  0.00     0.041 C 
ATOM      6  O   UNL     1     -19.886  38.060  85.635  1.00  0.00    -0.550 OA
ATOM      7  O   UNL     1     -20.964  38.031  87.657  1.00  0.00    -0.550 OA
ENDBRANCH   4   5
ENDBRANCH   3   4
ENDBRANCH   2   3
ENDBRANCH   1   2
BRANCH   1   8
ATOM      8  C   UNL     1     -21.596  43.388  88.392  1.00  0.00     0.000 C 
BRANCH   8   9
ATOM      9  C   UNL     1     -20.616  44.241  87.569  1.00  0.00     0.000 C 
BRANCH   9  10
ATOM     10  C   UNL     1     -20.564  43.816  86.092  1.00  0.00     0.006 C 
BRANCH  10  11
ATOM     11  C   UNL     1     -19.142  43.477  85.624  1.00  0.00     0.053 C 
BRANCH  11  12
ATOM     12  C   UNL     1     -18.530  44.649  84.925  1.00  0.00     0.041 C 
ATOM     13  O   UNL     1     -19.186  45.284  84.057  1.00  0.00    -0.550 OA
ATOM     14  O   UNL     1     -17.253  45.073  85.267  1.00  0.00    -0.550 OA
ENDBRANCH  11  12
ENDBRANCH  10  11
ENDBRANCH   9  10
ENDBRANCH   8   9
ENDBRANCH   1   8
TORSDOF 9
ENDMDL
MODEL 8
REMARK VINA RESULT:    -4.241     11.434     13.903
REMARK INTER + INTRA:          -7.265
REMARK INTER:                  -6.540
REMARK INTRA:                  -0.725
REMARK UNBOUND:                -0.792
REMARK SMILES O=C([O-])CCCCCCCCC(=O)[O-]
REMARK SMILES IDX 7 1 6 2 5 3 4 4 2 5 1 6 3 7 8 8 9 9 10 10 11 11 12 12 13 13
REMARK SMILES IDX 14 14
REMARK H PARENT
REMARK Flexibility Score: inf
ROOT
ATOM      1  C   UNL     1     -26.230  45.622  88.021  1.00  0.00     0.000 C 
ENDROOT
BRANCH   1   2
ATOM      2  C   UNL     1     -25.284  46.166  86.934  1.00  0.00     0.000 C 
BRANCH   2   3
ATOM      3  C   UNL     1     -23.804  46.119  87.348  1.00  0.00     0.006 C 
BRANCH   3   4
ATOM      4  C   UNL     1     -23.418  44.769  87.968  1.00  0.00     0.053 C 
BRANCH   4   5
ATOM      5  C   UNL     1     -22.191  44.193  87.330  1.00  0.00     0.041 C 
ATOM      6  O   UNL     1     -21.712  43.105  87.747  1.00  0.00    -0.550 OA
ATOM      7  O   UNL     1     -21.593  44.841  86.257  1.00  0.00    -0.550 OA
ENDBRANCH   4   5
ENDBRANCH   3   4
ENDBRANCH   2   3
ENDBRANCH   1   2
BRANCH   1   8
ATOM      8  C   UNL     1     -26.621  46.633  89.115  1.00  0.00     0.000 C 
BRANCH   8   9
ATOM      9  C   UNL     1     -26.864  45.971  90.482  1.00  0.00     0.000 C 
BRANCH   9  10
ATOM     10  C   UNL     1     -26.121  44.633  90.629  1.00  0.00     0.006 C 
BRANCH  10  11
ATOM     11  C   UNL     1     -26.901  43.612  91.469  1.00  0.00     0.053 C 
BRANCH  11  12
ATOM     12  C   UNL     1     -28.009  43.011  90.664  1.00  0.00     0.041 C 
ATOM     13  O   UNL     1     -29.197  43.065  91.081  1.00  0.00    -0.550 OA
ATOM     14  O   UNL     1     -27.739  42.437  89.429  1.00  0.00    -0.550 OA
ENDBRANCH  11  12
ENDBRANCH  10  11
ENDBRANCH   9  10
ENDBRANCH   8   9
ENDBRANCH   1   8
TORSDOF 9
ENDMDL
MODEL 9
REMARK VINA RESULT:    -4.233     11.427     13.686
REMARK INTER + INTRA:          -7.253
REMARK INTER:                  -6.579
REMARK INTRA:                  -0.674
REMARK UNBOUND:                -0.792
REMARK SMILES O=C([O-])CCCCCCCCC(=O)[O-]
REMARK SMILES IDX 7 1 6 2 5 3 4 4 2 5 1 6 3 7 8 8 9 9 10 10 11 11 12 12 13 13
REMARK SMILES IDX 14 14
REMARK H PARENT
REMARK Flexibility Score: inf
ROOT
ATOM      1  C   UNL     1     -26.654  46.508  89.292  1.00  0.00     0.000 C 
ENDROOT
BRANCH   1   2
ATOM      2  C   UNL     1     -26.903  45.791  90.632  1.00  0.00     0.000 C 
BRANCH   2   3
ATOM      3  C   UNL     1     -26.137  44.463  90.752  1.00  0.00     0.006 C 
BRANCH   3   4
ATOM      4  C   UNL     1     -26.914  43.418  91.566  1.00  0.00     0.053 C 
BRANCH   4   5
ATOM      5  C   UNL     1     -28.076  42.865  90.799  1.00  0.00     0.041 C 
ATOM      6  O   UNL     1     -29.178  42.666  91.375  1.00  0.00    -0.550 OA
ATOM      7  O   UNL     1     -27.951  42.597  89.442  1.00  0.00    -0.550 OA
ENDBRANCH   4   5
ENDBRANCH   3   4
ENDBRANCH   2   3
ENDBRANCH   1   2
BRANCH   1   8
ATOM      8  C   UNL     1     -26.126  45.612  88.156  1.00  0.00     0.000 C 
BRANCH   8   9
ATOM      9  C   UNL     1     -25.235  46.372  87.159  1.00  0.00     0.000 C 
BRANCH   9  10
ATOM     10  C   UNL     1     -23.804  45.812  87.103  1.00  0.00     0.006 C 
BRANCH  10  11
ATOM     11  C   UNL     1     -23.574  44.675  88.107  1.00  0.00     0.053 C 
BRANCH  11  12
ATOM     12  C   UNL     1     -22.386  43.858  87.707  1.00  0.00     0.041 C 
ATOM     13  O   UNL     1     -22.293  42.655  88.068  1.00  0.00    -0.550 OA
ATOM     14  O   UNL     1     -21.406  44.409  86.892  1.00  0.00    -0.550 OA
ENDBRANCH  11  12
ENDBRANCH  10  11
ENDBRANCH   9  10
ENDBRANCH   8   9
ENDBRANCH   1   8
TORSDOF 9
ENDMDL
