MODEL 1
REMARK VINA RESULT:    -4.222      0.000      0.000
REMARK INTER + INTRA:          -7.745
REMARK INTER:                  -6.690
REMARK INTRA:                  -1.055
REMARK UNBOUND:                -1.055
REMARK SMILES CCCCCCCCCCCC(=O)[O-]
REMARK SMILES IDX 7 1 8 2 9 3 10 4 11 5 12 6 13 7 14 8 6 9 5 10 4 11 3 12 2 13
REMARK SMILES IDX 1 14
REMARK H PARENT
REMARK Flexibility Score: inf
ROOT
ATOM      1  C   UNL     1     192.637 194.392 191.199  1.00  0.00     0.000 C 
ENDROOT
BRANCH   1   2
ATOM      2  C   UNL     1     191.590 195.520 191.233  1.00  0.00     0.000 C 
BRANCH   2   3
ATOM      3  C   UNL     1     191.118 195.858 192.657  1.00  0.00     0.000 C 
BRANCH   3   4
ATOM      4  C   UNL     1     191.192 197.365 192.968  1.00  0.00     0.006 C 
BRANCH   4   5
ATOM      5  C   UNL     1     191.398 198.259 191.733  1.00  0.00     0.053 C 
BRANCH   5   6
ATOM      6  C   UNL     1     192.512 199.239 191.928  1.00  0.00     0.041 C 
ATOM      7  O   UNL     1     193.221 199.195 192.966  1.00  0.00    -0.550 OA
ATOM      8  O   UNL     1     192.789 200.181 190.944  1.00  0.00    -0.550 OA
ENDBRANCH   5   6
ENDBRANCH   4   5
ENDBRANCH   3   4
ENDBRANCH   2   3
ENDBRANCH   1   2
BRANCH   1   9
ATOM      9  C   UNL     1     192.102 193.018 190.755  1.00  0.00     0.000 C 
BRANCH   9  10
ATOM     10  C   UNL     1     192.094 191.983 191.892  1.00  0.00    -0.000 C 
BRANCH  10  11
ATOM     11  C   UNL     1     190.696 191.394 192.143  1.00  0.00    -0.000 C 
BRANCH  11  12
ATOM     12  C   UNL     1     189.818 192.312 193.011  1.00  0.00    -0.000 C 
BRANCH  12  13
ATOM     13  C   UNL     1     188.701 192.991 192.206  1.00  0.00    -0.003 C 
ATOM     14  C   UNL     1     188.395 192.268 190.895  1.00  0.00     0.004 C 
ENDBRANCH  12  13
ENDBRANCH  11  12
ENDBRANCH  10  11
ENDBRANCH   9  10
ENDBRANCH   1   9
TORSDOF 10
ENDMDL
MODEL 2
REMARK VINA RESULT:    -4.140      3.763      6.610
REMARK INTER + INTRA:          -7.615
REMARK INTER:                  -6.900
REMARK INTRA:                  -0.715
REMARK UNBOUND:                -1.055
REMARK SMILES CCCCCCCCCCCC(=O)[O-]
REMARK SMILES IDX 7 1 8 2 9 3 10 4 11 5 12 6 13 7 14 8 6 9 5 10 4 11 3 12 2 13
REMARK SMILES IDX 1 14
REMARK H PARENT
REMARK Flexibility Score: inf
ROOT
ATOM      1  C   UNL     1     192.521 194.287 191.385  1.00  0.00     0.000 C 
ENDROOT
BRANCH   1   2
ATOM      2  C   UNL     1     191.894 192.965 190.906  1.00  0.00     0.000 C 
BRANCH   2   3
ATOM      3  C   UNL     1     191.842 191.892 192.006  1.00  0.00     0.000 C 
BRANCH   3   4
ATOM      4  C   UNL     1     190.567 191.980 192.865  1.00  0.00     0.006 C 
BRANCH   4   5
ATOM      5  C   UNL     1     189.356 192.596 192.143  1.00  0.00     0.053 C 
BRANCH   5   6
ATOM      6  C   UNL     1     188.466 191.550 191.546  1.00  0.00     0.041 C 
ATOM      7  O   UNL     1     187.939 190.673 192.278  1.00  0.00    -0.550 OA
ATOM      8  O   UNL     1     188.193 191.566 190.183  1.00  0.00    -0.550 OA
ENDBRANCH   5   6
ENDBRANCH   4   5
ENDBRANCH   3   4
ENDBRANCH   2   3
ENDBRANCH   1   2
BRANCH   1   9
ATOM      9  C   UNL     1     191.613 195.525 191.256  1.00  0.00     0.000 C 
BRANCH   9  10
ATOM     10  C   UNL     1     191.131 196.057 192.616  1.00  0.00    -0.000 C 
BRANCH  10  11
ATOM     11  C   UNL     1     191.770 197.407 192.980  1.00  0.00    -0.000 C 
BRANCH  11  12
ATOM     12  C   UNL     1     191.707 198.419 191.824  1.00  0.00    -0.000 C 
BRANCH  12  13
ATOM     13  C   UNL     1     192.710 199.569 191.993  1.00  0.00    -0.003 C 
ATOM     14  C   UNL     1     193.094 200.218 190.663  1.00  0.00     0.004 C 
ENDBRANCH  12  13
ENDBRANCH  11  12
ENDBRANCH  10  11
ENDBRANCH   9  10
ENDBRANCH   1   9
TORSDOF 10
ENDMDL
MODEL 3
REMARK VINA RESULT:    -4.125      4.283      6.154
REMARK INTER + INTRA:          -7.591
REMARK INTER:                  -6.245
REMARK INTRA:                  -1.346
REMARK UNBOUND:                -1.055
REMARK SMILES CCCCCCCCCCCC(=O)[O-]
REMARK SMILES IDX 7 1 8 2 9 3 10 4 11 5 12 6 13 7 14 8 6 9 5 10 4 11 3 12 2 13
REMARK SMILES IDX 1 14
REMARK H PARENT
REMARK Flexibility Score: inf
ROOT
ATOM      1  C   UNL     1     192.381 192.307 191.836  1.00  0.00     0.000 C 
ENDROOT
BRANCH   1   2
ATOM      2  C   UNL     1     191.258 191.303 191.518  1.00  0.00     0.000 C 
BRANCH   2   3
ATOM      3  C   UNL     1     190.008 191.971 190.921  1.00  0.00     0.000 C 
BRANCH   3   4
ATOM      4  C   UNL     1     188.711 191.570 191.649  1.00  0.00     0.006 C 
BRANCH   4   5
ATOM      5  C   UNL     1     187.432 192.177 191.049  1.00  0.00     0.053 C 
BRANCH   5   6
ATOM      6  C   UNL     1     187.008 191.471 189.798  1.00  0.00     0.041 C 
ATOM      7  O   UNL     1     186.666 190.260 189.838  1.00  0.00    -0.550 OA
ATOM      8  O   UNL     1     186.958 192.161 188.593  1.00  0.00    -0.550 OA
ENDBRANCH   5   6
ENDBRANCH   4   5
ENDBRANCH   3   4
ENDBRANCH   2   3
ENDBRANCH   1   2
BRANCH   1   9
ATOM      9  C   UNL     1     192.440 193.535 190.909  1.00  0.00     0.000 C 
BRANCH   9  10
ATOM     10  C   UNL     1     192.547 194.861 191.680  1.00  0.00    -0.000 C 
BRANCH  10  11
ATOM     11  C   UNL     1     191.200 195.593 191.784  1.00  0.00    -0.000 C 
BRANCH  11  12
ATOM     12  C   UNL     1     190.665 195.640 193.226  1.00  0.00    -0.000 C 
BRANCH  12  13
ATOM     13  C   UNL     1     189.503 194.662 193.454  1.00  0.00    -0.003 C 
ATOM     14  C   UNL     1     189.741 193.730 194.642  1.00  0.00     0.004 C 
ENDBRANCH  12  13
ENDBRANCH  11  12
ENDBRANCH  10  11
ENDBRANCH   9  10
ENDBRANCH   1   9
TORSDOF 10
ENDMDL
MODEL 4
REMARK VINA RESULT:    -4.116      1.278      2.079
REMARK INTER + INTRA:          -7.577
REMARK INTER:                  -6.528
REMARK INTRA:                  -1.049
REMARK UNBOUND:                -1.055
REMARK SMILES CCCCCCCCCCCC(=O)[O-]
REMARK SMILES IDX 7 1 8 2 9 3 10 4 11 5 12 6 13 7 14 8 6 9 5 10 4 11 3 12 2 13
REMARK SMILES IDX 1 14
REMARK H PARENT
REMARK Flexibility Score: inf
ROOT
ATOM      1  C   UNL     1     192.622 194.107 191.177  1.00  0.00     0.000 C 
ENDROOT
BRANCH   1   2
ATOM      2  C   UNL     1     192.132 195.269 192.062  1.00  0.00     0.000 C 
BRANCH   2   3
ATOM      3  C   UNL     1     191.528 196.427 191.251  1.00  0.00     0.000 C 
BRANCH   3   4
ATOM      4  C   UNL     1     191.233 197.669 192.113  1.00  0.00     0.006 C 
BRANCH   4   5
ATOM      5  C   UNL     1     191.731 198.993 191.511  1.00  0.00     0.053 C 
BRANCH   5   6
ATOM      6  C   UNL     1     192.933 199.522 192.231  1.00  0.00     0.041 C 
ATOM      7  O   UNL     1     193.477 200.592 191.855  1.00  0.00    -0.550 OA
ATOM      8  O   UNL     1     193.432 198.848 193.339  1.00  0.00    -0.550 OA
ENDBRANCH   5   6
ENDBRANCH   4   5
ENDBRANCH   3   4
ENDBRANCH   2   3
ENDBRANCH   1   2
BRANCH   1   9
ATOM      9  C   UNL     1     191.989 192.738 191.489  1.00  0.00     0.000 C 
BRANCH   9  10
ATOM     10  C   UNL     1     190.455 192.749 191.379  1.00  0.00    -0.000 C 
BRANCH  10  11
ATOM     11  C   UNL     1     189.767 192.394 192.707  1.00  0.00    -0.000 C 
BRANCH  11  12
ATOM     12  C   UNL     1     188.990 193.581 193.303  1.00  0.00    -0.000 C 
BRANCH  12  13
ATOM     13  C   UNL     1     189.599 194.082 194.620  1.00  0.00    -0.003 C 
ATOM     14  C   UNL     1     189.541 195.603 194.756  1.00  0.00     0.004 C 
ENDBRANCH  12  13
ENDBRANCH  11  12
ENDBRANCH  10  11
ENDBRANCH   9  10
ENDBRANCH   1   9
TORSDOF 10
ENDMDL
MODEL 5
REMARK VINA RESULT:    -4.096      1.581      2.951
REMARK INTER + INTRA:          -7.545
REMARK INTER:                  -6.625
REMARK INTRA:                  -0.920
REMARK UNBOUND:                -1.055
REMARK SMILES CCCCCCCCCCCC(=O)[O-]
REMARK SMILES IDX 7 1 8 2 9 3 10 4 11 5 12 6 13 7 14 8 6 9 5 10 4 11 3 12 2 13
REMARK SMILES IDX 1 14
REMARK H PARENT
REMARK Flexibility Score: inf
ROOT
ATOM      1  C   UNL     1     191.800 191.394 192.304  1.00  0.00     0.000 C 
ENDROOT
BRANCH   1   2
ATOM      2  C   UNL     1     191.565 192.116 190.965  1.00  0.00     0.000 C 
BRANCH   2   3
ATOM      3  C   UNL     1     192.162 193.533 190.934  1.00  0.00     0.000 C 
BRANCH   3   4
ATOM      4  C   UNL     1     191.178 194.606 191.439  1.00  0.00     0.006 C 
BRANCH   4   5
ATOM      5  C   UNL     1     191.756 195.541 192.514  1.00  0.00     0.053 C 
BRANCH   5   6
ATOM      6  C   UNL     1     191.552 196.985 192.172  1.00  0.00     0.041 C 
ATOM      7  O   UNL     1     191.647 197.867 193.065  1.00  0.00    -0.550 OA
ATOM      8  O   UNL     1     191.291 197.358 190.860  1.00  0.00    -0.550 OA
ENDBRANCH   5   6
ENDBRANCH   4   5
ENDBRANCH   3   4
ENDBRANCH   2   3
ENDBRANCH   1   2
BRANCH   1   9
ATOM      9  C   UNL     1     190.543 190.771 192.940  1.00  0.00     0.000 C 
BRANCH   9  10
ATOM     10  C   UNL     1     189.255 191.531 192.584  1.00  0.00    -0.000 C 
BRANCH  10  11
ATOM     11  C   UNL     1     188.067 190.589 192.328  1.00  0.00    -0.000 C 
BRANCH  11  12
ATOM     12  C   UNL     1     187.330 190.914 191.018  1.00  0.00    -0.000 C 
BRANCH  12  13
ATOM     13  C   UNL     1     188.015 192.032 190.219  1.00  0.00    -0.003 C 
ATOM     14  C   UNL     1     187.342 192.292 188.871  1.00  0.00     0.004 C 
ENDBRANCH  12  13
ENDBRANCH  11  12
ENDBRANCH  10  11
ENDBRANCH   9  10
ENDBRANCH   1   9
TORSDOF 10
ENDMDL
MODEL 6
REMARK VINA RESULT:    -4.042      3.477      4.801
REMARK INTER + INTRA:          -7.459
REMARK INTER:                  -6.550
REMARK INTRA:                  -0.910
REMARK UNBOUND:                -1.055
REMARK SMILES CCCCCCCCCCCC(=O)[O-]
REMARK SMILES IDX 7 1 8 2 9 3 10 4 11 5 12 6 13 7 14 8 6 9 5 10 4 11 3 12 2 13
REMARK SMILES IDX 1 14
REMARK H PARENT
REMARK Flexibility Score: inf
ROOT
ATOM      1  C   UNL     1     189.581 194.102 194.876  1.00  0.00     0.000 C 
ENDROOT
BRANCH   1   2
ATOM      2  C   UNL     1     188.325 194.488 195.678  1.00  0.00     0.000 C 
BRANCH   2   3
ATOM      3  C   UNL     1     187.710 195.823 195.223  1.00  0.00     0.000 C 
BRANCH   3   4
ATOM      4  C   UNL     1     187.929 196.958 196.241  1.00  0.00     0.006 C 
BRANCH   4   5
ATOM      5  C   UNL     1     189.236 197.744 196.044  1.00  0.00     0.053 C 
BRANCH   5   6
ATOM      6  C   UNL     1     190.175 197.573 197.198  1.00  0.00     0.041 C 
ATOM      7  O   UNL     1     191.026 198.462 197.459  1.00  0.00    -0.550 OA
ATOM      8  O   UNL     1     190.086 196.446 198.005  1.00  0.00    -0.550 OA
ENDBRANCH   5   6
ENDBRANCH   4   5
ENDBRANCH   3   4
ENDBRANCH   2   3
ENDBRANCH   1   2
BRANCH   1   9
ATOM      9  C   UNL     1     189.543 194.477 193.383  1.00  0.00     0.000 C 
BRANCH   9  10
ATOM     10  C   UNL     1     190.819 195.197 192.915  1.00  0.00    -0.000 C 
BRANCH  10  11
ATOM     11  C   UNL     1     191.230 194.800 191.488  1.00  0.00    -0.000 C 
BRANCH  11  12
ATOM     12  C   UNL     1     192.186 193.595 191.464  1.00  0.00    -0.000 C 
BRANCH  12  13
ATOM     13  C   UNL     1     191.485 192.296 191.043  1.00  0.00    -0.003 C 
ATOM     14  C   UNL     1     191.490 191.239 192.147  1.00  0.00     0.004 C 
ENDBRANCH  12  13
ENDBRANCH  11  12
ENDBRANCH  10  11
ENDBRANCH   9  10
ENDBRANCH   1   9
TORSDOF 10
ENDMDL
MODEL 7
REMARK VINA RESULT:    -4.037      3.752      5.271
REMARK INTER + INTRA:          -7.453
REMARK INTER:                  -6.274
REMARK INTRA:                  -1.179
REMARK UNBOUND:                -1.055
REMARK SMILES CCCCCCCCCCCC(=O)[O-]
REMARK SMILES IDX 7 1 8 2 9 3 10 4 11 5 12 6 13 7 14 8 6 9 5 10 4 11 3 12 2 13
REMARK SMILES IDX 1 14
REMARK H PARENT
REMARK Flexibility Score: inf
ROOT
ATOM      1  C   UNL     1     189.272 192.547 192.330  1.00  0.00     0.000 C 
ENDROOT
BRANCH   1   2
ATOM      2  C   UNL     1     188.764 193.694 193.224  1.00  0.00     0.000 C 
BRANCH   2   3
ATOM      3  C   UNL     1     189.609 193.882 194.496  1.00  0.00     0.000 C 
BRANCH   3   4
ATOM      4  C   UNL     1     188.868 194.671 195.592  1.00  0.00     0.006 C 
BRANCH   4   5
ATOM      5  C   UNL     1     187.361 194.379 195.676  1.00  0.00     0.053 C 
BRANCH   5   6
ATOM      6  C   UNL     1     186.551 195.634 195.789  1.00  0.00     0.041 C 
ATOM      7  O   UNL     1     185.485 195.643 196.458  1.00  0.00    -0.550 OA
ATOM      8  O   UNL     1     186.992 196.803 195.181  1.00  0.00    -0.550 OA
ENDBRANCH   5   6
ENDBRANCH   4   5
ENDBRANCH   3   4
ENDBRANCH   2   3
ENDBRANCH   1   2
BRANCH   1   9
ATOM      9  C   UNL     1     190.362 191.662 192.961  1.00  0.00     0.000 C 
BRANCH   9  10
ATOM     10  C   UNL     1     191.635 191.577 192.101  1.00  0.00    -0.000 C 
BRANCH  10  11
ATOM     11  C   UNL     1     191.638 192.598 190.952  1.00  0.00    -0.000 C 
BRANCH  11  12
ATOM     12  C   UNL     1     192.593 193.775 191.213  1.00  0.00    -0.000 C 
BRANCH  12  13
ATOM     13  C   UNL     1     191.882 195.135 191.150  1.00  0.00    -0.003 C 
ATOM     14  C   UNL     1     191.901 195.873 192.488  1.00  0.00     0.004 C 
ENDBRANCH  12  13
ENDBRANCH  11  12
ENDBRANCH  10  11
ENDBRANCH   9  10
ENDBRANCH   1   9
TORSDOF 10
ENDMDL
MODEL 8
REMARK VINA RESULT:    -4.030      1.411      2.263
REMARK INTER + INTRA:          -7.442
REMARK INTER:                  -6.268
REMARK INTRA:                  -1.174
REMARK UNBOUND:                -1.055
REMARK SMILES CCCCCCCCCCCC(=O)[O-]
REMARK SMILES IDX 7 1 8 2 9 3 10 4 11 5 12 6 13 7 14 8 6 9 5 10 4 11 3 12 2 13
REMARK SMILES IDX 1 14
REMARK H PARENT
REMARK Flexibility Score: inf
ROOT
ATOM      1  C   UNL     1     191.563 192.145 190.945  1.00  0.00     0.000 C 
ENDROOT
BRANCH   1   2
ATOM      2  C   UNL     1     192.306 193.483 191.107  1.00  0.00     0.000 C 
BRANCH   2   3
ATOM      3  C   UNL     1     191.370 194.650 191.463  1.00  0.00     0.000 C 
BRANCH   3   4
ATOM      4  C   UNL     1     192.018 195.662 192.428  1.00  0.00     0.006 C 
BRANCH   4   5
ATOM      5  C   UNL     1     191.178 196.924 192.682  1.00  0.00     0.053 C 
BRANCH   5   6
ATOM      6  C   UNL     1     191.488 198.013 191.702  1.00  0.00     0.041 C 
ATOM      7  O   UNL     1     192.134 199.029 192.066  1.00  0.00    -0.550 OA
ATOM      8  O   UNL     1     191.091 197.888 190.376  1.00  0.00    -0.550 OA
ENDBRANCH   5   6
ENDBRANCH   4   5
ENDBRANCH   3   4
ENDBRANCH   2   3
ENDBRANCH   1   2
BRANCH   1   9
ATOM      9  C   UNL     1     191.511 191.269 192.211  1.00  0.00     0.000 C 
BRANCH   9  10
ATOM     10  C   UNL     1     190.080 191.049 192.728  1.00  0.00    -0.000 C 
BRANCH  10  11
ATOM     11  C   UNL     1     189.030 191.802 191.895  1.00  0.00    -0.000 C 
BRANCH  11  12
ATOM     12  C   UNL     1     188.243 192.828 192.729  1.00  0.00    -0.000 C 
BRANCH  12  13
ATOM     13  C   UNL     1     189.079 193.421 193.873  1.00  0.00    -0.003 C 
ATOM     14  C   UNL     1     188.622 194.824 194.271  1.00  0.00     0.004 C 
ENDBRANCH  12  13
ENDBRANCH  11  12
ENDBRANCH  10  11
ENDBRANCH   9  10
ENDBRANCH   1   9
TORSDOF 10
ENDMDL
MODEL 9
REMARK VINA RESULT:    -4.019      3.493      4.250
REMARK INTER + INTRA:          -7.423
REMARK INTER:                  -6.346
REMARK INTRA:                  -1.077
REMARK UNBOUND:                -1.055
REMARK SMILES CCCCCCCCCCCC(=O)[O-]
REMARK SMILES IDX 7 1 8 2 9 3 10 4 11 5 12 6 13 7 14 8 6 9 5 10 4 11 3 12 2 13
REMARK SMILES IDX 1 14
REMARK H PARENT
REMARK Flexibility Score: inf
ROOT
ATOM      1  C   UNL     1     191.517 195.531 192.446  1.00  0.00     0.000 C 
ENDROOT
BRANCH   1   2
ATOM      2  C   UNL     1     190.406 195.743 193.491  1.00  0.00     0.000 C 
BRANCH   2   3
ATOM      3  C   UNL     1     189.707 194.434 193.897  1.00  0.00     0.000 C 
BRANCH   3   4
ATOM      4  C   UNL     1     189.252 194.433 195.369  1.00  0.00     0.006 C 
BRANCH   4   5
ATOM      5  C   UNL     1     189.098 195.833 195.987  1.00  0.00     0.053 C 
BRANCH   5   6
ATOM      6  C   UNL     1     187.675 196.299 195.976  1.00  0.00     0.041 C 
ATOM      7  O   UNL     1     186.828 195.764 196.738  1.00  0.00    -0.550 OA
ATOM      8  O   UNL     1     187.292 197.347 195.149  1.00  0.00    -0.550 OA
ENDBRANCH   5   6
ENDBRANCH   4   5
ENDBRANCH   3   4
ENDBRANCH   2   3
ENDBRANCH   1   2
BRANCH   1   9
ATOM      9  C   UNL     1     191.210 194.471 191.372  1.00  0.00     0.000 C 
BRANCH   9  10
ATOM     10  C   UNL     1     192.225 193.315 191.366  1.00  0.00    -0.000 C 
BRANCH  10  11
ATOM     11  C   UNL     1     191.559 191.947 191.147  1.00  0.00    -0.000 C 
BRANCH  11  12
ATOM     12  C   UNL     1     191.256 191.221 192.469  1.00  0.00    -0.000 C 
BRANCH  12  13
ATOM     13  C   UNL     1     189.772 190.848 192.609  1.00  0.00    -0.003 C 
ATOM     14  C   UNL     1     188.887 191.559 191.586  1.00  0.00     0.004 C 
ENDBRANCH  12  13
ENDBRANCH  11  12
ENDBRANCH  10  11
ENDBRANCH   9  10
ENDBRANCH   1   9
TORSDOF 10
ENDMDL
