MODEL 1
REMARK VINA RESULT:    -4.901      0.000      0.000
REMARK INTER + INTRA:          -9.351
REMARK INTER:                  -7.623
REMARK INTRA:                  -1.727
REMARK UNBOUND:                -1.727
REMARK SMILES COc1cc(CNC(=O)CCCCC=CC(C)C)ccc1O
REMARK SMILES IDX 11 1 12 2 13 3 14 4 15 5 16 6 17 7 18 8 10 9 8 10 9 11 7 12
REMARK SMILES IDX 6 14 5 15 4 16 19 17 3 18 20 19 21 20 2 21 1 22 22 23
REMARK H PARENT 7 13 22 24
REMARK Flexibility Score: inf
ROOT
ATOM      1  C   UNL     1     -12.129 -14.247  14.392  1.00  0.00     0.010 C 
ENDROOT
BRANCH   1   2
ATOM      2  C   UNL     1     -13.602 -13.858  14.149  1.00  0.00     0.005 C 
BRANCH   2   3
ATOM      3  C   UNL     1     -13.946 -13.577  12.676  1.00  0.00     0.027 C 
BRANCH   3   4
ATOM      4  C   UNL     1     -14.865 -14.613  12.088  1.00  0.00    -0.031 C 
ATOM      5  C   UNL     1     -15.654 -15.375  12.861  1.00  0.00    -0.028 C 
BRANCH   5   6
ATOM      6  C   UNL     1     -16.585 -16.403  12.262  1.00  0.00     0.005 C 
ATOM      7  C   UNL     1     -15.836 -17.282  11.255  1.00  0.00     0.012 C 
ATOM      8  C   UNL     1     -17.781 -15.720  11.589  1.00  0.00     0.012 C 
ENDBRANCH   5   6
ENDBRANCH   3   4
ENDBRANCH   2   3
ENDBRANCH   1   2
BRANCH   1   9
ATOM      9  C   UNL     1     -11.614 -15.374  13.484  1.00  0.00     0.100 C 
BRANCH   9  10
ATOM     10  C   UNL     1     -11.785 -16.725  14.117  1.00  0.00     0.220 C 
ATOM     11  O   UNL     1     -10.806 -17.260  14.705  1.00  0.00    -0.275 OA
ATOM     12  N   UNL     1     -13.058 -17.383  14.085  1.00  0.00    -0.352 N 
ATOM     13  H   UNL     1     -13.867 -16.909  13.623  1.00  0.00     0.163 HD
BRANCH  12  14
ATOM     14  C   UNL     1     -13.279 -18.693  14.694  1.00  0.00     0.151 C 
BRANCH  14  15
ATOM     15  C   UNL     1     -14.478 -19.360  14.075  1.00  0.00    -0.025 A 
ATOM     16  C   UNL     1     -14.308 -20.261  13.013  1.00  0.00     0.056 A 
ATOM     17  C   UNL     1     -15.766 -19.112  14.570  1.00  0.00     0.009 A 
ATOM     18  C   UNL     1     -15.419 -20.910  12.437  1.00  0.00     0.160 A 
ATOM     19  C   UNL     1     -16.871 -19.750  14.004  1.00  0.00     0.050 A 
ATOM     20  C   UNL     1     -16.706 -20.645  12.943  1.00  0.00     0.157 A 
BRANCH  18  21
ATOM     21  O   UNL     1     -15.282 -21.816  11.373  1.00  0.00    -0.493 OA
ATOM     22  C   UNL     1     -15.324 -21.457   9.996  1.00  0.00     0.278 C 
ENDBRANCH  18  21
BRANCH  20  23
ATOM     23  O   UNL     1     -17.833 -21.264  12.402  1.00  0.00    -0.504 OA
ATOM     24  H   UNL     1     -18.740 -20.814  12.383  1.00  0.00     0.293 HD
ENDBRANCH  20  23
ENDBRANCH  14  15
ENDBRANCH  12  14
ENDBRANCH   9  10
ENDBRANCH   1   9
TORSDOF 10
ENDMDL
MODEL 2
REMARK VINA RESULT:    -4.874      2.128      4.431
REMARK INTER + INTRA:          -9.308
REMARK INTER:                  -7.354
REMARK INTRA:                  -1.954
REMARK UNBOUND:                -1.727
REMARK SMILES COc1cc(CNC(=O)CCCCC=CC(C)C)ccc1O
REMARK SMILES IDX 11 1 12 2 13 3 14 4 15 5 16 6 17 7 18 8 10 9 8 10 9 11 7 12
REMARK SMILES IDX 6 14 5 15 4 16 19 17 3 18 20 19 21 20 2 21 1 22 22 23
REMARK H PARENT 7 13 22 24
REMARK Flexibility Score: inf
ROOT
ATOM      1  C   UNL     1     -10.508 -18.531  15.958  1.00  0.00     0.010 C 
ENDROOT
BRANCH   1   2
ATOM      2  C   UNL     1     -11.697 -19.151  16.720  1.00  0.00     0.005 C 
BRANCH   2   3
ATOM      3  C   UNL     1     -11.976 -20.623  16.364  1.00  0.00     0.027 C 
BRANCH   3   4
ATOM      4  C   UNL     1     -11.598 -20.958  14.947  1.00  0.00    -0.031 C 
ATOM      5  C   UNL     1     -12.526 -21.173  14.002  1.00  0.00    -0.028 C 
BRANCH   5   6
ATOM      6  C   UNL     1     -12.138 -21.495  12.578  1.00  0.00     0.005 C 
ATOM      7  C   UNL     1     -12.809 -22.795  12.122  1.00  0.00     0.012 C 
ATOM      8  C   UNL     1     -10.615 -21.606  12.446  1.00  0.00     0.012 C 
ENDBRANCH   5   6
ENDBRANCH   3   4
ENDBRANCH   2   3
ENDBRANCH   1   2
BRANCH   1   9
ATOM      9  C   UNL     1     -10.816 -17.176  15.301  1.00  0.00     0.100 C 
BRANCH   9  10
ATOM     10  C   UNL     1     -11.663 -17.330  14.072  1.00  0.00     0.220 C 
ATOM     11  O   UNL     1     -11.155 -17.827  13.030  1.00  0.00    -0.275 OA
ATOM     12  N   UNL     1     -13.045 -16.949  14.093  1.00  0.00    -0.352 N 
ATOM     13  H   UNL     1     -13.458 -16.571  14.976  1.00  0.00     0.163 HD
BRANCH  12  14
ATOM     14  C   UNL     1     -13.915 -17.088  12.926  1.00  0.00     0.151 C 
BRANCH  14  15
ATOM     15  C   UNL     1     -14.865 -18.239  13.118  1.00  0.00    -0.025 A 
ATOM     16  C   UNL     1     -14.977 -19.227  12.128  1.00  0.00     0.056 A 
ATOM     17  C   UNL     1     -15.622 -18.350  14.292  1.00  0.00     0.009 A 
ATOM     18  C   UNL     1     -15.847 -20.322  12.302  1.00  0.00     0.160 A 
ATOM     19  C   UNL     1     -16.486 -19.432  14.472  1.00  0.00     0.050 A 
ATOM     20  C   UNL     1     -16.603 -20.416  13.486  1.00  0.00     0.157 A 
BRANCH  18  21
ATOM     21  O   UNL     1     -15.981 -21.327  11.330  1.00  0.00    -0.493 OA
ATOM     22  C   UNL     1     -15.464 -21.245  10.006  1.00  0.00     0.278 C 
ENDBRANCH  18  21
BRANCH  20  23
ATOM     23  O   UNL     1     -17.476 -21.482  13.699  1.00  0.00    -0.504 OA
ATOM     24  H   UNL     1     -18.217 -21.714  13.048  1.00  0.00     0.293 HD
ENDBRANCH  20  23
ENDBRANCH  14  15
ENDBRANCH  12  14
ENDBRANCH   9  10
ENDBRANCH   1   9
TORSDOF 10
ENDMDL
MODEL 3
REMARK VINA RESULT:    -4.870      1.855      5.544
REMARK INTER + INTRA:          -9.301
REMARK INTER:                  -7.490
REMARK INTRA:                  -1.812
REMARK UNBOUND:                -1.727
REMARK SMILES COc1cc(CNC(=O)CCCCC=CC(C)C)ccc1O
REMARK SMILES IDX 11 1 12 2 13 3 14 4 15 5 16 6 17 7 18 8 10 9 8 10 9 11 7 12
REMARK SMILES IDX 6 14 5 15 4 16 19 17 3 18 20 19 21 20 2 21 1 22 22 23
REMARK H PARENT 7 13 22 24
REMARK Flexibility Score: inf
ROOT
ATOM      1  C   UNL     1     -16.856 -19.704  12.239  1.00  0.00     0.010 C 
ENDROOT
BRANCH   1   2
ATOM      2  C   UNL     1     -17.047 -19.633  13.768  1.00  0.00     0.005 C 
BRANCH   2   3
ATOM      3  C   UNL     1     -15.879 -18.971  14.520  1.00  0.00     0.027 C 
BRANCH   3   4
ATOM      4  C   UNL     1     -15.315 -17.785  13.786  1.00  0.00    -0.031 C 
ATOM      5  C   UNL     1     -15.874 -16.568  13.879  1.00  0.00    -0.028 C 
BRANCH   5   6
ATOM      6  C   UNL     1     -15.293 -15.378  13.150  1.00  0.00     0.005 C 
ATOM      7  C   UNL     1     -15.794 -15.341  11.702  1.00  0.00     0.012 C 
ATOM      8  C   UNL     1     -13.761 -15.420  13.184  1.00  0.00     0.012 C 
ENDBRANCH   5   6
ENDBRANCH   3   4
ENDBRANCH   2   3
ENDBRANCH   1   2
BRANCH   1   9
ATOM      9  C   UNL     1     -16.419 -21.083  11.720  1.00  0.00     0.100 C 
BRANCH   9  10
ATOM     10  C   UNL     1     -15.007 -21.407  12.114  1.00  0.00     0.220 C 
ATOM     11  O   UNL     1     -14.758 -22.515  12.664  1.00  0.00    -0.275 OA
ATOM     12  N   UNL     1     -13.948 -20.484  11.834  1.00  0.00    -0.352 N 
ATOM     13  H   UNL     1     -14.168 -19.586  11.346  1.00  0.00     0.163 HD
BRANCH  12  14
ATOM     14  C   UNL     1     -12.556 -20.756  12.188  1.00  0.00     0.151 C 
BRANCH  14  15
ATOM     15  C   UNL     1     -12.205 -20.077  13.483  1.00  0.00    -0.025 A 
ATOM     16  C   UNL     1     -11.742 -18.752  13.478  1.00  0.00     0.056 A 
ATOM     17  C   UNL     1     -12.363 -20.747  14.705  1.00  0.00     0.009 A 
ATOM     18  C   UNL     1     -11.429 -18.096  14.685  1.00  0.00     0.160 A 
ATOM     19  C   UNL     1     -12.054 -20.104  15.905  1.00  0.00     0.050 A 
ATOM     20  C   UNL     1     -11.589 -18.785  15.903  1.00  0.00     0.157 A 
BRANCH  18  21
ATOM     21  O   UNL     1     -10.964 -16.771  14.713  1.00  0.00    -0.493 OA
ATOM     22  C   UNL     1      -9.792 -16.313  14.048  1.00  0.00     0.278 C 
ENDBRANCH  18  21
BRANCH  20  23
ATOM     23  O   UNL     1     -11.290 -18.175  17.120  1.00  0.00    -0.504 OA
ATOM     24  H   UNL     1     -10.782 -18.652  17.854  1.00  0.00     0.293 HD
ENDBRANCH  20  23
ENDBRANCH  14  15
ENDBRANCH  12  14
ENDBRANCH   9  10
ENDBRANCH   1   9
TORSDOF 10
ENDMDL
MODEL 4
REMARK VINA RESULT:    -4.810      2.783      4.130
REMARK INTER + INTRA:          -9.209
REMARK INTER:                  -7.759
REMARK INTRA:                  -1.450
REMARK UNBOUND:                -1.727
REMARK SMILES COc1cc(CNC(=O)CCCCC=CC(C)C)ccc1O
REMARK SMILES IDX 11 1 12 2 13 3 14 4 15 5 16 6 17 7 18 8 10 9 8 10 9 11 7 12
REMARK SMILES IDX 6 14 5 15 4 16 19 17 3 18 20 19 21 20 2 21 1 22 22 23
REMARK H PARENT 7 13 22 24
REMARK Flexibility Score: inf
ROOT
ATOM      1  C   UNL     1     -11.996 -14.319  14.204  1.00  0.00     0.010 C 
ENDROOT
BRANCH   1   2
ATOM      2  C   UNL     1     -13.364 -13.616  14.319  1.00  0.00     0.005 C 
BRANCH   2   3
ATOM      3  C   UNL     1     -14.483 -14.273  13.492  1.00  0.00     0.027 C 
BRANCH   3   4
ATOM      4  C   UNL     1     -14.367 -15.772  13.448  1.00  0.00    -0.031 C 
ATOM      5  C   UNL     1     -15.358 -16.568  13.879  1.00  0.00    -0.028 C 
BRANCH   5   6
ATOM      6  C   UNL     1     -15.240 -18.074  13.818  1.00  0.00     0.005 C 
ATOM      7  C   UNL     1     -15.566 -18.692  15.182  1.00  0.00     0.012 C 
ATOM      8  C   UNL     1     -13.835 -18.486  13.367  1.00  0.00     0.012 C 
ENDBRANCH   5   6
ENDBRANCH   3   4
ENDBRANCH   2   3
ENDBRANCH   1   2
BRANCH   1   9
ATOM      9  C   UNL     1     -11.003 -13.959  15.321  1.00  0.00     0.100 C 
BRANCH   9  10
ATOM     10  C   UNL     1     -10.257 -15.164  15.816  1.00  0.00     0.220 C 
ATOM     11  O   UNL     1      -9.003 -15.212  15.683  1.00  0.00    -0.275 OA
ATOM     12  N   UNL     1     -10.957 -16.233  16.465  1.00  0.00    -0.352 N 
ATOM     13  H   UNL     1     -11.992 -16.160  16.597  1.00  0.00     0.163 HD
BRANCH  12  14
ATOM     14  C   UNL     1     -10.277 -17.422  16.974  1.00  0.00     0.151 C 
BRANCH  14  15
ATOM     15  C   UNL     1     -10.657 -18.629  16.159  1.00  0.00    -0.025 A 
ATOM     16  C   UNL     1      -9.981 -18.908  14.962  1.00  0.00     0.056 A 
ATOM     17  C   UNL     1     -11.666 -19.497  16.600  1.00  0.00     0.009 A 
ATOM     18  C   UNL     1     -10.312 -20.046  14.199  1.00  0.00     0.160 A 
ATOM     19  C   UNL     1     -12.000 -20.626  15.849  1.00  0.00     0.050 A 
ATOM     20  C   UNL     1     -11.331 -20.905  14.654  1.00  0.00     0.157 A 
BRANCH  18  21
ATOM     21  O   UNL     1      -9.654 -20.352  12.997  1.00  0.00    -0.493 OA
ATOM     22  C   UNL     1      -9.873 -19.679  11.762  1.00  0.00     0.278 C 
ENDBRANCH  18  21
BRANCH  20  23
ATOM     23  O   UNL     1     -11.691 -22.041  13.930  1.00  0.00    -0.504 OA
ATOM     24  H   UNL     1     -12.658 -22.309  13.790  1.00  0.00     0.293 HD
ENDBRANCH  20  23
ENDBRANCH  14  15
ENDBRANCH  12  14
ENDBRANCH   9  10
ENDBRANCH   1   9
TORSDOF 10
ENDMDL
MODEL 5
REMARK VINA RESULT:    -4.772     12.463     14.560
REMARK INTER + INTRA:          -9.149
REMARK INTER:                  -7.171
REMARK INTRA:                  -1.978
REMARK UNBOUND:                -1.727
REMARK SMILES COc1cc(CNC(=O)CCCCC=CC(C)C)ccc1O
REMARK SMILES IDX 11 1 12 2 13 3 14 4 15 5 16 6 17 7 18 8 10 9 8 10 9 11 7 12
REMARK SMILES IDX 6 14 5 15 4 16 19 17 3 18 20 19 21 20 2 21 1 22 22 23
REMARK H PARENT 7 13 22 24
REMARK Flexibility Score: inf
ROOT
ATOM      1  C   UNL     1     -16.993  -7.931   5.002  1.00  0.00     0.010 C 
ENDROOT
BRANCH   1   2
ATOM      2  C   UNL     1     -18.378  -7.882   5.678  1.00  0.00     0.005 C 
BRANCH   2   3
ATOM      3  C   UNL     1     -19.408  -8.856   5.078  1.00  0.00     0.027 C 
BRANCH   3   4
ATOM      4  C   UNL     1     -18.765 -10.002   4.346  1.00  0.00    -0.031 C 
ATOM      5  C   UNL     1     -19.488 -11.019   3.854  1.00  0.00    -0.028 C 
BRANCH   5   6
ATOM      6  C   UNL     1     -18.837 -12.160   3.108  1.00  0.00     0.005 C 
ATOM      7  C   UNL     1     -19.018 -13.474   3.874  1.00  0.00     0.012 C 
ATOM      8  C   UNL     1     -17.348 -11.875   2.882  1.00  0.00     0.012 C 
ENDBRANCH   5   6
ENDBRANCH   3   4
ENDBRANCH   2   3
ENDBRANCH   1   2
BRANCH   1   9
ATOM      9  C   UNL     1     -16.728  -6.781   4.018  1.00  0.00     0.100 C 
BRANCH   9  10
ATOM     10  C   UNL     1     -16.519  -7.279   2.618  1.00  0.00     0.220 C 
ATOM     11  O   UNL     1     -15.371  -7.201   2.099  1.00  0.00    -0.275 OA
ATOM     12  N   UNL     1     -17.603  -7.871   1.891  1.00  0.00    -0.352 N 
ATOM     13  H   UNL     1     -18.538  -7.959   2.349  1.00  0.00     0.163 HD
BRANCH  12  14
ATOM     14  C   UNL     1     -17.449  -8.380   0.529  1.00  0.00     0.151 C 
BRANCH  14  15
ATOM     15  C   UNL     1     -18.483  -9.436   0.247  1.00  0.00    -0.025 A 
ATOM     16  C   UNL     1     -18.124 -10.603  -0.444  1.00  0.00     0.056 A 
ATOM     17  C   UNL     1     -19.803  -9.279   0.695  1.00  0.00     0.009 A 
ATOM     18  C   UNL     1     -19.077 -11.610  -0.697  1.00  0.00     0.160 A 
ATOM     19  C   UNL     1     -20.752 -10.272   0.448  1.00  0.00     0.050 A 
ATOM     20  C   UNL     1     -20.398 -11.434  -0.244  1.00  0.00     0.157 A 
BRANCH  18  21
ATOM     21  O   UNL     1     -18.748 -12.789  -1.386  1.00  0.00    -0.493 OA
ATOM     22  C   UNL     1     -17.950 -12.840  -2.564  1.00  0.00     0.278 C 
ENDBRANCH  18  21
BRANCH  20  23
ATOM     23  O   UNL     1     -21.373 -12.405  -0.474  1.00  0.00    -0.504 OA
ATOM     24  H   UNL     1     -21.751 -12.584  -1.396  1.00  0.00     0.293 HD
ENDBRANCH  20  23
ENDBRANCH  14  15
ENDBRANCH  12  14
ENDBRANCH   9  10
ENDBRANCH   1   9
TORSDOF 10
ENDMDL
MODEL 6
REMARK VINA RESULT:    -4.665      2.736      5.339
REMARK INTER + INTRA:          -8.983
REMARK INTER:                  -8.183
REMARK INTRA:                  -0.800
REMARK UNBOUND:                -1.727
REMARK SMILES COc1cc(CNC(=O)CCCCC=CC(C)C)ccc1O
REMARK SMILES IDX 11 1 12 2 13 3 14 4 15 5 16 6 17 7 18 8 10 9 8 10 9 11 7 12
REMARK SMILES IDX 6 14 5 15 4 16 19 17 3 18 20 19 21 20 2 21 1 22 22 23
REMARK H PARENT 7 13 22 24
REMARK Flexibility Score: inf
ROOT
ATOM      1  C   UNL     1     -11.512 -20.554  16.093  1.00  0.00     0.010 C 
ENDROOT
BRANCH   1   2
ATOM      2  C   UNL     1     -11.639 -19.029  16.281  1.00  0.00     0.005 C 
BRANCH   2   3
ATOM      3  C   UNL     1     -10.298 -18.273  16.237  1.00  0.00     0.027 C 
BRANCH   3   4
ATOM      4  C   UNL     1     -10.465 -16.816  15.901  1.00  0.00    -0.031 C 
ATOM      5  C   UNL     1      -9.587 -15.892  16.319  1.00  0.00    -0.028 C 
BRANCH   5   6
ATOM      6  C   UNL     1      -9.753 -14.432  15.965  1.00  0.00     0.005 C 
ATOM      7  C   UNL     1      -9.283 -13.544  17.122  1.00  0.00     0.012 C 
ATOM      8  C   UNL     1     -11.213 -14.125  15.615  1.00  0.00     0.012 C 
ENDBRANCH   5   6
ENDBRANCH   3   4
ENDBRANCH   2   3
ENDBRANCH   1   2
BRANCH   1   9
ATOM      9  C   UNL     1     -10.596 -20.975  14.934  1.00  0.00     0.100 C 
BRANCH   9  10
ATOM     10  C   UNL     1     -11.374 -21.280  13.687  1.00  0.00     0.220 C 
ATOM     11  O   UNL     1     -10.930 -20.895  12.571  1.00  0.00    -0.275 OA
ATOM     12  N   UNL     1     -12.592 -22.033  13.761  1.00  0.00    -0.352 N 
ATOM     13  H   UNL     1     -12.927 -22.374  14.691  1.00  0.00     0.163 HD
BRANCH  12  14
ATOM     14  C   UNL     1     -13.382 -22.365  12.577  1.00  0.00     0.151 C 
BRANCH  14  15
ATOM     15  C   UNL     1     -14.619 -21.510  12.519  1.00  0.00    -0.025 A 
ATOM     16  C   UNL     1     -14.505 -20.112  12.507  1.00  0.00     0.056 A 
ATOM     17  C   UNL     1     -15.889 -22.099  12.448  1.00  0.00     0.009 A 
ATOM     18  C   UNL     1     -15.653 -19.298  12.432  1.00  0.00     0.160 A 
ATOM     19  C   UNL     1     -17.032 -21.299  12.375  1.00  0.00     0.050 A 
ATOM     20  C   UNL     1     -16.921 -19.906  12.366  1.00  0.00     0.157 A 
BRANCH  18  21
ATOM     21  O   UNL     1     -15.572 -17.896  12.418  1.00  0.00    -0.493 OA
ATOM     22  C   UNL     1     -15.255 -17.094  13.550  1.00  0.00     0.278 C 
ENDBRANCH  18  21
BRANCH  20  23
ATOM     23  O   UNL     1     -18.084 -19.139  12.292  1.00  0.00    -0.504 OA
ATOM     24  H   UNL     1     -18.078 -18.134  12.415  1.00  0.00     0.293 HD
ENDBRANCH  20  23
ENDBRANCH  14  15
ENDBRANCH  12  14
ENDBRANCH   9  10
ENDBRANCH   1   9
TORSDOF 10
ENDMDL
MODEL 7
REMARK VINA RESULT:    -4.623      2.196      6.930
REMARK INTER + INTRA:          -8.918
REMARK INTER:                  -7.317
REMARK INTRA:                  -1.601
REMARK UNBOUND:                -1.727
REMARK SMILES COc1cc(CNC(=O)CCCCC=CC(C)C)ccc1O
REMARK SMILES IDX 11 1 12 2 13 3 14 4 15 5 16 6 17 7 18 8 10 9 8 10 9 11 7 12
REMARK SMILES IDX 6 14 5 15 4 16 19 17 3 18 20 19 21 20 2 21 1 22 22 23
REMARK H PARENT 7 13 22 24
REMARK Flexibility Score: inf
ROOT
ATOM      1  C   UNL     1     -15.074 -21.783  11.837  1.00  0.00     0.010 C 
ENDROOT
BRANCH   1   2
ATOM      2  C   UNL     1     -13.946 -22.539  12.569  1.00  0.00     0.005 C 
BRANCH   2   3
ATOM      3  C   UNL     1     -12.650 -21.728  12.741  1.00  0.00     0.027 C 
BRANCH   3   4
ATOM      4  C   UNL     1     -12.638 -20.914  14.006  1.00  0.00    -0.031 C 
ATOM      5  C   UNL     1     -11.541 -20.819  14.773  1.00  0.00    -0.028 C 
BRANCH   5   6
ATOM      6  C   UNL     1     -11.533 -19.989  16.035  1.00  0.00     0.005 C 
ATOM      7  C   UNL     1     -12.941 -19.469  16.343  1.00  0.00     0.012 C 
ATOM      8  C   UNL     1     -10.550 -18.821  15.905  1.00  0.00     0.012 C 
ENDBRANCH   5   6
ENDBRANCH   3   4
ENDBRANCH   2   3
ENDBRANCH   1   2
BRANCH   1   9
ATOM      9  C   UNL     1     -16.396 -21.710  12.616  1.00  0.00     0.100 C 
BRANCH   9  10
ATOM     10  C   UNL     1     -16.637 -20.342  13.184  1.00  0.00     0.220 C 
ATOM     11  O   UNL     1     -17.322 -20.221  14.237  1.00  0.00    -0.275 OA
ATOM     12  N   UNL     1     -16.064 -19.187  12.557  1.00  0.00    -0.352 N 
ATOM     13  H   UNL     1     -15.471 -19.310  11.705  1.00  0.00     0.163 HD
BRANCH  12  14
ATOM     14  C   UNL     1     -16.260 -17.834  13.075  1.00  0.00     0.151 C 
BRANCH  14  15
ATOM     15  C   UNL     1     -14.939 -17.125  13.193  1.00  0.00    -0.025 A 
ATOM     16  C   UNL     1     -14.902 -15.761  13.519  1.00  0.00     0.056 A 
ATOM     17  C   UNL     1     -13.737 -17.822  13.008  1.00  0.00     0.009 A 
ATOM     18  C   UNL     1     -13.672 -15.087  13.654  1.00  0.00     0.160 A 
ATOM     19  C   UNL     1     -12.513 -17.162  13.140  1.00  0.00     0.050 A 
ATOM     20  C   UNL     1     -12.474 -15.802  13.461  1.00  0.00     0.157 A 
BRANCH  18  21
ATOM     21  O   UNL     1     -13.602 -13.723  13.979  1.00  0.00    -0.493 OA
ATOM     22  C   UNL     1     -13.596 -12.665  13.027  1.00  0.00     0.278 C 
ENDBRANCH  18  21
BRANCH  20  23
ATOM     23  O   UNL     1     -11.234 -15.175  13.584  1.00  0.00    -0.504 OA
ATOM     24  H   UNL     1     -10.460 -15.600  14.079  1.00  0.00     0.293 HD
ENDBRANCH  20  23
ENDBRANCH  14  15
ENDBRANCH  12  14
ENDBRANCH   9  10
ENDBRANCH   1   9
TORSDOF 10
ENDMDL
MODEL 8
REMARK VINA RESULT:    -4.594      3.272      6.516
REMARK INTER + INTRA:          -8.873
REMARK INTER:                  -7.601
REMARK INTRA:                  -1.273
REMARK UNBOUND:                -1.727
REMARK SMILES COc1cc(CNC(=O)CCCCC=CC(C)C)ccc1O
REMARK SMILES IDX 11 1 12 2 13 3 14 4 15 5 16 6 17 7 18 8 10 9 8 10 9 11 7 12
REMARK SMILES IDX 6 14 5 15 4 16 19 17 3 18 20 19 21 20 2 21 1 22 22 23
REMARK H PARENT 7 13 22 24
REMARK Flexibility Score: inf
ROOT
ATOM      1  C   UNL     1     -14.272 -21.912  10.848  1.00  0.00     0.010 C 
ENDROOT
BRANCH   1   2
ATOM      2  C   UNL     1     -14.956 -22.154  12.210  1.00  0.00     0.005 C 
BRANCH   2   3
ATOM      3  C   UNL     1     -16.441 -21.751  12.251  1.00  0.00     0.027 C 
BRANCH   3   4
ATOM      4  C   UNL     1     -16.674 -20.474  13.012  1.00  0.00    -0.031 C 
ATOM      5  C   UNL     1     -15.695 -19.882  13.712  1.00  0.00    -0.028 C 
BRANCH   5   6
ATOM      6  C   UNL     1     -15.933 -18.592  14.462  1.00  0.00     0.005 C 
ATOM      7  C   UNL     1     -15.334 -17.409  13.695  1.00  0.00     0.012 C 
ATOM      8  C   UNL     1     -15.336 -18.671  15.872  1.00  0.00     0.012 C 
ENDBRANCH   5   6
ENDBRANCH   3   4
ENDBRANCH   2   3
ENDBRANCH   1   2
BRANCH   1   9
ATOM      9  C   UNL     1     -12.994 -22.736  10.627  1.00  0.00     0.100 C 
BRANCH   9  10
ATOM     10  C   UNL     1     -11.783 -22.051  11.191  1.00  0.00     0.220 C 
ATOM     11  O   UNL     1     -11.273 -21.083  10.564  1.00  0.00    -0.275 OA
ATOM     12  N   UNL     1     -11.235 -22.470  12.448  1.00  0.00    -0.352 N 
ATOM     13  H   UNL     1     -11.692 -23.252  12.970  1.00  0.00     0.163 HD
BRANCH  12  14
ATOM     14  C   UNL     1     -10.063 -21.831  13.044  1.00  0.00     0.151 C 
BRANCH  14  15
ATOM     15  C   UNL     1     -10.485 -20.879  14.131  1.00  0.00    -0.025 A 
ATOM     16  C   UNL     1      -9.673 -19.782  14.456  1.00  0.00     0.056 A 
ATOM     17  C   UNL     1     -11.701 -21.062  14.805  1.00  0.00     0.009 A 
ATOM     18  C   UNL     1     -10.065 -18.870  15.457  1.00  0.00     0.160 A 
ATOM     19  C   UNL     1     -12.095 -20.163  15.798  1.00  0.00     0.050 A 
ATOM     20  C   UNL     1     -11.287 -19.071  16.127  1.00  0.00     0.157 A 
BRANCH  18  21
ATOM     21  O   UNL     1      -9.275 -17.764  15.805  1.00  0.00    -0.493 OA
ATOM     22  C   UNL     1      -7.896 -17.621  15.479  1.00  0.00     0.278 C 
ENDBRANCH  18  21
BRANCH  20  23
ATOM     23  O   UNL     1     -11.713 -18.194  17.125  1.00  0.00    -0.504 OA
ATOM     24  H   UNL     1     -12.039 -18.519  18.027  1.00  0.00     0.293 HD
ENDBRANCH  20  23
ENDBRANCH  14  15
ENDBRANCH  12  14
ENDBRANCH   9  10
ENDBRANCH   1   9
TORSDOF 10
ENDMDL
MODEL 9
REMARK VINA RESULT:    -4.580      2.149      4.255
REMARK INTER + INTRA:          -8.851
REMARK INTER:                  -7.495
REMARK INTRA:                  -1.355
REMARK UNBOUND:                -1.727
REMARK SMILES COc1cc(CNC(=O)CCCCC=CC(C)C)ccc1O
REMARK SMILES IDX 11 1 12 2 13 3 14 4 15 5 16 6 17 7 18 8 10 9 8 10 9 11 7 12
REMARK SMILES IDX 6 14 5 15 4 16 19 17 3 18 20 19 21 20 2 21 1 22 22 23
REMARK H PARENT 7 13 22 24
REMARK Flexibility Score: inf
ROOT
ATOM      1  C   UNL     1     -10.618 -14.330  15.510  1.00  0.00     0.010 C 
ENDROOT
BRANCH   1   2
ATOM      2  C   UNL     1     -10.639 -15.092  16.851  1.00  0.00     0.005 C 
BRANCH   2   3
ATOM      3  C   UNL     1      -9.812 -16.390  16.853  1.00  0.00     0.027 C 
BRANCH   3   4
ATOM      4  C   UNL     1     -10.669 -17.623  16.956  1.00  0.00    -0.031 C 
ATOM      5  C   UNL     1     -10.571 -18.625  16.069  1.00  0.00    -0.028 C 
BRANCH   5   6
ATOM      6  C   UNL     1     -11.424 -19.866  16.187  1.00  0.00     0.005 C 
ATOM      7  C   UNL     1     -11.234 -20.765  14.961  1.00  0.00     0.012 C 
ATOM      8  C   UNL     1     -12.901 -19.491  16.349  1.00  0.00     0.012 C 
ENDBRANCH   5   6
ENDBRANCH   3   4
ENDBRANCH   2   3
ENDBRANCH   1   2
BRANCH   1   9
ATOM      9  C   UNL     1     -11.986 -14.228  14.818  1.00  0.00     0.100 C 
BRANCH   9  10
ATOM     10  C   UNL     1     -12.150 -15.266  13.746  1.00  0.00     0.220 C 
ATOM     11  O   UNL     1     -11.875 -14.967  12.551  1.00  0.00    -0.275 OA
ATOM     12  N   UNL     1     -12.578 -16.592  14.081  1.00  0.00    -0.352 N 
ATOM     13  H   UNL     1     -12.767 -16.830  15.081  1.00  0.00     0.163 HD
BRANCH  12  14
ATOM     14  C   UNL     1     -12.743 -17.641  13.076  1.00  0.00     0.151 C 
BRANCH  14  15
ATOM     15  C   UNL     1     -14.204 -17.916  12.845  1.00  0.00    -0.025 A 
ATOM     16  C   UNL     1     -14.726 -19.192  13.102  1.00  0.00     0.056 A 
ATOM     17  C   UNL     1     -15.059 -16.898  12.401  1.00  0.00     0.009 A 
ATOM     18  C   UNL     1     -16.097 -19.460  12.911  1.00  0.00     0.160 A 
ATOM     19  C   UNL     1     -16.418 -17.155  12.208  1.00  0.00     0.050 A 
ATOM     20  C   UNL     1     -16.941 -18.427  12.459  1.00  0.00     0.157 A 
BRANCH  18  21
ATOM     21  O   UNL     1     -16.649 -20.727  13.159  1.00  0.00    -0.493 OA
ATOM     22  C   UNL     1     -16.150 -21.946  12.619  1.00  0.00     0.278 C 
ENDBRANCH  18  21
BRANCH  20  23
ATOM     23  O   UNL     1     -18.302 -18.648  12.255  1.00  0.00    -0.504 OA
ATOM     24  H   UNL     1     -19.003 -17.951  12.477  1.00  0.00     0.293 HD
ENDBRANCH  20  23
ENDBRANCH  14  15
ENDBRANCH  12  14
ENDBRANCH   9  10
ENDBRANCH   1   9
TORSDOF 10
ENDMDL
