MODEL 1
REMARK VINA RESULT:    -4.686      0.000      0.000
REMARK INTER + INTRA:          -6.224
REMARK INTER:                  -6.056
REMARK INTRA:                  -0.168
REMARK UNBOUND:                -0.168
REMARK SMILES CCO[C@@H]1O[C@@H](CO)[C@@H](O)[C@@H](O)[C@@H]1O
REMARK SMILES IDX 4 1 13 2 11 3 9 4 6 5 5 6 3 7 2 8 1 9 14 10 12 12 7 14 8 15
REMARK SMILES IDX 10 17
REMARK H PARENT 14 11 12 13 8 16 10 18
REMARK Flexibility Score: inf
ROOT
ATOM      1  C   UNL     1       9.206  -1.786  39.705  1.00  0.00     0.281 C 
ATOM      2  C   UNL     1       7.882  -1.444  40.417  1.00  0.00     0.202 C 
ATOM      3  C   UNL     1       8.095  -1.349  41.938  1.00  0.00     0.179 C 
ATOM      4  C   UNL     1       9.273  -0.404  42.246  1.00  0.00     0.177 C 
ATOM      5  C   UNL     1      10.504  -0.860  41.433  1.00  0.00     0.178 C 
ATOM      6  O   UNL     1      10.224  -0.850  40.040  1.00  0.00    -0.341 OA
ENDROOT
BRANCH   1   7
ATOM      7  O   UNL     1       9.599  -3.115  40.014  1.00  0.00    -0.350 OA
BRANCH   7   8
ATOM      8  C   UNL     1      10.000  -3.791  38.841  1.00  0.00     0.160 C 
ATOM      9  C   UNL     1      11.075  -4.807  39.197  1.00  0.00     0.035 C 
ENDBRANCH   7   8
ENDBRANCH   1   7
BRANCH   2  10
ATOM     10  O   UNL     1       6.926  -2.431  40.121  1.00  0.00    -0.385 OA
ATOM     11  H   UNL     1       7.182  -3.243  40.631  1.00  0.00     0.211 HD
ENDBRANCH   2  10
BRANCH   3  12
ATOM     12  O   UNL     1       6.920  -0.883  42.551  1.00  0.00    -0.387 OA
ATOM     13  H   UNL     1       6.489  -1.670  42.976  1.00  0.00     0.211 HD
ENDBRANCH   3  12
BRANCH   5  14
ATOM     14  C   UNL     1      11.731   0.019  41.708  1.00  0.00     0.191 C 
BRANCH  14  15
ATOM     15  O   UNL     1      12.856  -0.771  41.985  1.00  0.00    -0.394 OA
ATOM     16  H   UNL     1      12.615  -1.697  41.719  1.00  0.00     0.210 HD
ENDBRANCH  14  15
ENDBRANCH   5  14
BRANCH   4  17
ATOM     17  O   UNL     1       8.934   0.918  41.908  1.00  0.00    -0.387 OA
ATOM     18  H   UNL     1       9.264   1.075  40.985  1.00  0.00     0.211 HD
ENDBRANCH   4  17
TORSDOF 7
ENDMDL
MODEL 2
REMARK VINA RESULT:    -4.638      9.757     12.660
REMARK INTER + INTRA:          -6.161
REMARK INTER:                  -6.080
REMARK INTRA:                  -0.081
REMARK UNBOUND:                -0.168
REMARK SMILES CCO[C@@H]1O[C@@H](CO)[C@@H](O)[C@@H](O)[C@@H]1O
REMARK SMILES IDX 4 1 13 2 11 3 9 4 6 5 5 6 3 7 2 8 1 9 14 10 12 12 7 14 8 15
REMARK SMILES IDX 10 17
REMARK H PARENT 14 11 12 13 8 16 10 18
REMARK Flexibility Score: inf
ROOT
ATOM      1  C   UNL     1      18.408   7.000  42.839  1.00  0.00     0.281 C 
ATOM      2  C   UNL     1      17.884   8.397  42.448  1.00  0.00     0.202 C 
ATOM      3  C   UNL     1      17.566   8.454  40.944  1.00  0.00     0.179 C 
ATOM      4  C   UNL     1      16.655   7.273  40.554  1.00  0.00     0.177 C 
ATOM      5  C   UNL     1      17.303   5.960  41.044  1.00  0.00     0.178 C 
ATOM      6  O   UNL     1      17.493   5.982  42.451  1.00  0.00    -0.341 OA
ENDROOT
BRANCH   1   7
ATOM      7  O   UNL     1      19.694   6.786  42.275  1.00  0.00    -0.350 OA
BRANCH   7   8
ATOM      8  C   UNL     1      20.656   6.629  43.297  1.00  0.00     0.160 C 
ATOM      9  C   UNL     1      21.878   5.927  42.726  1.00  0.00     0.035 C 
ENDBRANCH   7   8
ENDBRANCH   1   7
BRANCH   2  10
ATOM     10  O   UNL     1      18.847   9.365  42.779  1.00  0.00    -0.385 OA
ATOM     11  H   UNL     1      19.633   8.878  43.141  1.00  0.00     0.211 HD
ENDBRANCH   2  10
BRANCH   3  12
ATOM     12  O   UNL     1      16.943   9.675  40.639  1.00  0.00    -0.387 OA
ATOM     13  H   UNL     1      17.589  10.391  40.873  1.00  0.00     0.211 HD
ENDBRANCH   3  12
BRANCH   5  14
ATOM     14  C   UNL     1      16.464   4.731  40.667  1.00  0.00     0.191 C 
BRANCH  14  15
ATOM     15  O   UNL     1      17.235   3.804  39.951  1.00  0.00    -0.394 OA
ATOM     16  H   UNL     1      16.619   3.068  39.701  1.00  0.00     0.210 HD
ENDBRANCH  14  15
ENDBRANCH   5  14
BRANCH   4  17
ATOM     17  O   UNL     1      15.384   7.430  41.135  1.00  0.00    -0.387 OA
ATOM     18  H   UNL     1      14.715   7.254  40.422  1.00  0.00     0.211 HD
ENDBRANCH   4  17
TORSDOF 7
ENDMDL
MODEL 3
REMARK VINA RESULT:    -4.588      9.489     12.068
REMARK INTER + INTRA:          -6.097
REMARK INTER:                  -5.646
REMARK INTRA:                  -0.451
REMARK UNBOUND:                -0.168
REMARK SMILES CCO[C@@H]1O[C@@H](CO)[C@@H](O)[C@@H](O)[C@@H]1O
REMARK SMILES IDX 4 1 13 2 11 3 9 4 6 5 5 6 3 7 2 8 1 9 14 10 12 12 7 14 8 15
REMARK SMILES IDX 10 17
REMARK H PARENT 14 11 12 13 8 16 10 18
REMARK Flexibility Score: inf
ROOT
ATOM      1  C   UNL     1      15.940   6.725  42.093  1.00  0.00     0.281 C 
ATOM      2  C   UNL     1      17.033   6.846  41.011  1.00  0.00     0.202 C 
ATOM      3  C   UNL     1      17.117   8.290  40.488  1.00  0.00     0.179 C 
ATOM      4  C   UNL     1      17.246   9.271  41.670  1.00  0.00     0.177 C 
ATOM      5  C   UNL     1      16.104   8.997  42.673  1.00  0.00     0.178 C 
ATOM      6  O   UNL     1      16.155   7.658  43.145  1.00  0.00    -0.341 OA
ENDROOT
BRANCH   1   7
ATOM      7  O   UNL     1      14.655   6.884  41.509  1.00  0.00    -0.350 OA
BRANCH   7   8
ATOM      8  C   UNL     1      13.730   6.008  42.119  1.00  0.00     0.160 C 
ATOM      9  C   UNL     1      13.715   4.693  41.355  1.00  0.00     0.035 C 
ENDBRANCH   7   8
ENDBRANCH   1   7
BRANCH   2  10
ATOM     10  O   UNL     1      16.744   5.963  39.957  1.00  0.00    -0.385 OA
ATOM     11  H   UNL     1      17.613   5.615  39.626  1.00  0.00     0.211 HD
ENDBRANCH   2  10
BRANCH   3  12
ATOM     12  O   UNL     1      18.218   8.416  39.625  1.00  0.00    -0.387 OA
ATOM     13  H   UNL     1      17.914   8.961  38.853  1.00  0.00     0.211 HD
ENDBRANCH   3  12
BRANCH   5  14
ATOM     14  C   UNL     1      16.148   9.956  43.869  1.00  0.00     0.191 C 
BRANCH  14  15
ATOM     15  O   UNL     1      16.851  11.125  43.544  1.00  0.00    -0.394 OA
ATOM     16  H   UNL     1      16.166  11.826  43.393  1.00  0.00     0.210 HD
ENDBRANCH  14  15
ENDBRANCH   5  14
BRANCH   4  17
ATOM     17  O   UNL     1      18.492   9.109  42.301  1.00  0.00    -0.387 OA
ATOM     18  H   UNL     1      18.319   8.676  43.177  1.00  0.00     0.211 HD
ENDBRANCH   4  17
TORSDOF 7
ENDMDL
MODEL 4
REMARK VINA RESULT:    -4.540      1.889      3.942
REMARK INTER + INTRA:          -6.035
REMARK INTER:                  -5.649
REMARK INTRA:                  -0.386
REMARK UNBOUND:                -0.168
REMARK SMILES CCO[C@@H]1O[C@@H](CO)[C@@H](O)[C@@H](O)[C@@H]1O
REMARK SMILES IDX 4 1 13 2 11 3 9 4 6 5 5 6 3 7 2 8 1 9 14 10 12 12 7 14 8 15
REMARK SMILES IDX 10 17
REMARK H PARENT 14 11 12 13 8 16 10 18
REMARK Flexibility Score: inf
ROOT
ATOM      1  C   UNL     1       9.180   0.411  39.656  1.00  0.00     0.281 C 
ATOM      2  C   UNL     1       8.756  -0.672  38.643  1.00  0.00     0.202 C 
ATOM      3  C   UNL     1       9.196  -2.065  39.124  1.00  0.00     0.179 C 
ATOM      4  C   UNL     1       8.723  -2.295  40.573  1.00  0.00     0.177 C 
ATOM      5  C   UNL     1       9.197  -1.112  41.447  1.00  0.00     0.178 C 
ATOM      6  O   UNL     1       8.683   0.118  40.957  1.00  0.00    -0.341 OA
ENDROOT
BRANCH   1   7
ATOM      7  O   UNL     1      10.593   0.552  39.658  1.00  0.00    -0.350 OA
BRANCH   7   8
ATOM      8  C   UNL     1      10.960   1.777  40.255  1.00  0.00     0.160 C 
ATOM      9  C   UNL     1      11.924   1.503  41.399  1.00  0.00     0.035 C 
ENDBRANCH   7   8
ENDBRANCH   1   7
BRANCH   2  10
ATOM     10  O   UNL     1       9.327  -0.387  37.391  1.00  0.00    -0.385 OA
ATOM     11  H   UNL     1       9.691  -1.241  37.040  1.00  0.00     0.211 HD
ENDBRANCH   2  10
BRANCH   3  12
ATOM     12  O   UNL     1       8.665  -3.048  38.274  1.00  0.00    -0.387 OA
ATOM     13  H   UNL     1       8.619  -3.887  38.803  1.00  0.00     0.211 HD
ENDBRANCH   3  12
BRANCH   5  14
ATOM     14  C   UNL     1       8.786  -1.282  42.915  1.00  0.00     0.191 C 
BRANCH  14  15
ATOM     15  O   UNL     1       8.802  -2.635  43.282  1.00  0.00    -0.394 OA
ATOM     16  H   UNL     1       7.944  -2.803  43.752  1.00  0.00     0.210 HD
ENDBRANCH  14  15
ENDBRANCH   5  14
BRANCH   4  17
ATOM     17  O   UNL     1       7.321  -2.393  40.614  1.00  0.00    -0.387 OA
ATOM     18  H   UNL     1       7.099  -3.104  41.272  1.00  0.00     0.211 HD
ENDBRANCH   4  17
TORSDOF 7
ENDMDL
MODEL 5
REMARK VINA RESULT:    -4.494      9.614     12.085
REMARK INTER + INTRA:          -5.976
REMARK INTER:                  -5.504
REMARK INTRA:                  -0.472
REMARK UNBOUND:                -0.168
REMARK SMILES CCO[C@@H]1O[C@@H](CO)[C@@H](O)[C@@H](O)[C@@H]1O
REMARK SMILES IDX 4 1 13 2 11 3 9 4 6 5 5 6 3 7 2 8 1 9 14 10 12 12 7 14 8 15
REMARK SMILES IDX 10 17
REMARK H PARENT 14 11 12 13 8 16 10 18
REMARK Flexibility Score: inf
ROOT
ATOM      1  C   UNL     1      17.347   6.344  41.663  1.00  0.00     0.281 C 
ATOM      2  C   UNL     1      17.327   7.627  40.806  1.00  0.00     0.202 C 
ATOM      3  C   UNL     1      16.730   8.800  41.604  1.00  0.00     0.179 C 
ATOM      4  C   UNL     1      17.441   8.926  42.965  1.00  0.00     0.177 C 
ATOM      5  C   UNL     1      17.404   7.556  43.677  1.00  0.00     0.178 C 
ATOM      6  O   UNL     1      18.038   6.558  42.888  1.00  0.00    -0.341 OA
ENDROOT
BRANCH   1   7
ATOM      7  O   UNL     1      16.023   5.883  41.884  1.00  0.00    -0.350 OA
BRANCH   7   8
ATOM      8  C   UNL     1      15.982   4.473  41.837  1.00  0.00     0.160 C 
ATOM      9  C   UNL     1      16.667   3.999  40.565  1.00  0.00     0.035 C 
ENDBRANCH   7   8
ENDBRANCH   1   7
BRANCH   2  10
ATOM     10  O   UNL     1      16.574   7.397  39.643  1.00  0.00    -0.385 OA
ATOM     11  H   UNL     1      16.051   8.223  39.469  1.00  0.00     0.211 HD
ENDBRANCH   2  10
BRANCH   3  12
ATOM     12  O   UNL     1      16.865   9.988  40.869  1.00  0.00    -0.387 OA
ATOM     13  H   UNL     1      17.523  10.551  41.355  1.00  0.00     0.211 HD
ENDBRANCH   3  12
BRANCH   5  14
ATOM     14  C   UNL     1      18.072   7.607  45.057  1.00  0.00     0.191 C 
BRANCH  14  15
ATOM     15  O   UNL     1      19.464   7.489  44.940  1.00  0.00    -0.394 OA
ATOM     16  H   UNL     1      19.626   6.865  44.185  1.00  0.00     0.210 HD
ENDBRANCH  14  15
ENDBRANCH   5  14
BRANCH   4  17
ATOM     17  O   UNL     1      18.773   9.338  42.779  1.00  0.00    -0.387 OA
ATOM     18  H   UNL     1      19.306   8.520  42.599  1.00  0.00     0.211 HD
ENDBRANCH   4  17
TORSDOF 7
ENDMDL
MODEL 6
REMARK VINA RESULT:    -4.459      9.684     12.359
REMARK INTER + INTRA:          -5.931
REMARK INTER:                  -5.452
REMARK INTRA:                  -0.479
REMARK UNBOUND:                -0.168
REMARK SMILES CCO[C@@H]1O[C@@H](CO)[C@@H](O)[C@@H](O)[C@@H]1O
REMARK SMILES IDX 4 1 13 2 11 3 9 4 6 5 5 6 3 7 2 8 1 9 14 10 12 12 7 14 8 15
REMARK SMILES IDX 10 17
REMARK H PARENT 14 11 12 13 8 16 10 18
REMARK Flexibility Score: inf
ROOT
ATOM      1  C   UNL     1      16.020   6.890  42.305  1.00  0.00     0.281 C 
ATOM      2  C   UNL     1      16.786   6.962  40.968  1.00  0.00     0.202 C 
ATOM      3  C   UNL     1      17.313   8.386  40.723  1.00  0.00     0.179 C 
ATOM      4  C   UNL     1      18.093   8.878  41.958  1.00  0.00     0.177 C 
ATOM      5  C   UNL     1      17.205   8.708  43.210  1.00  0.00     0.178 C 
ATOM      6  O   UNL     1      16.828   7.349  43.383  1.00  0.00    -0.341 OA
ENDROOT
BRANCH   1   7
ATOM      7  O   UNL     1      14.807   7.623  42.214  1.00  0.00    -0.350 OA
BRANCH   7   8
ATOM      8  C   UNL     1      13.799   6.995  42.978  1.00  0.00     0.160 C 
ATOM      9  C   UNL     1      13.685   5.540  42.551  1.00  0.00     0.035 C 
ENDBRANCH   7   8
ENDBRANCH   1   7
BRANCH   2  10
ATOM     10  O   UNL     1      15.932   6.572  39.922  1.00  0.00    -0.385 OA
ATOM     11  H   UNL     1      15.113   6.200  40.342  1.00  0.00     0.211 HD
ENDBRANCH   2  10
BRANCH   3  12
ATOM     12  O   UNL     1      18.138   8.395  39.587  1.00  0.00    -0.387 OA
ATOM     13  H   UNL     1      17.950   9.243  39.106  1.00  0.00     0.211 HD
ENDBRANCH   3  12
BRANCH   5  14
ATOM     14  C   UNL     1      17.905   9.203  44.482  1.00  0.00     0.191 C 
BRANCH  14  15
ATOM     15  O   UNL     1      18.914  10.124  44.167  1.00  0.00    -0.394 OA
ATOM     16  H   UNL     1      18.648  10.540  43.306  1.00  0.00     0.210 HD
ENDBRANCH  14  15
ENDBRANCH   5  14
BRANCH   4  17
ATOM     17  O   UNL     1      19.281   8.141  42.105  1.00  0.00    -0.387 OA
ATOM     18  H   UNL     1      19.954   8.752  42.504  1.00  0.00     0.211 HD
ENDBRANCH   4  17
TORSDOF 7
ENDMDL
MODEL 7
REMARK VINA RESULT:    -4.414      1.970      3.828
REMARK INTER + INTRA:          -5.872
REMARK INTER:                  -5.427
REMARK INTRA:                  -0.445
REMARK UNBOUND:                -0.168
REMARK SMILES CCO[C@@H]1O[C@@H](CO)[C@@H](O)[C@@H](O)[C@@H]1O
REMARK SMILES IDX 4 1 13 2 11 3 9 4 6 5 5 6 3 7 2 8 1 9 14 10 12 12 7 14 8 15
REMARK SMILES IDX 10 17
REMARK H PARENT 14 11 12 13 8 16 10 18
REMARK Flexibility Score: inf
ROOT
ATOM      1  C   UNL     1      10.199  -0.844  40.878  1.00  0.00     0.281 C 
ATOM      2  C   UNL     1       9.262  -1.313  42.010  1.00  0.00     0.202 C 
ATOM      3  C   UNL     1       7.849  -0.734  41.816  1.00  0.00     0.179 C 
ATOM      4  C   UNL     1       7.354  -1.025  40.386  1.00  0.00     0.177 C 
ATOM      5  C   UNL     1       8.415  -0.529  39.379  1.00  0.00     0.178 C 
ATOM      6  O   UNL     1       9.663  -1.171  39.601  1.00  0.00    -0.341 OA
ENDROOT
BRANCH   1   7
ATOM      7  O   UNL     1      10.450   0.548  40.997  1.00  0.00    -0.350 OA
BRANCH   7   8
ATOM      8  C   UNL     1      11.812   0.822  40.744  1.00  0.00     0.160 C 
ATOM      9  C   UNL     1      12.664  -0.266  41.380  1.00  0.00     0.035 C 
ENDBRANCH   7   8
ENDBRANCH   1   7
BRANCH   2  10
ATOM     10  O   UNL     1       9.788  -0.907  43.247  1.00  0.00    -0.385 OA
ATOM     11  H   UNL     1       9.247  -0.132  43.550  1.00  0.00     0.211 HD
ENDBRANCH   2  10
BRANCH   3  12
ATOM     12  O   UNL     1       6.975  -1.297  42.760  1.00  0.00    -0.387 OA
ATOM     13  H   UNL     1       7.542  -1.677  43.482  1.00  0.00     0.211 HD
ENDBRANCH   3  12
BRANCH   5  14
ATOM     14  C   UNL     1       7.980  -0.759  37.926  1.00  0.00     0.191 C 
BRANCH  14  15
ATOM     15  O   UNL     1       8.301  -2.059  37.511  1.00  0.00    -0.394 OA
ATOM     16  H   UNL     1       7.684  -2.270  36.763  1.00  0.00     0.210 HD
ENDBRANCH  14  15
ENDBRANCH   5  14
BRANCH   4  17
ATOM     17  O   UNL     1       7.138  -2.404  40.219  1.00  0.00    -0.387 OA
ATOM     18  H   UNL     1       7.676  -2.868  40.912  1.00  0.00     0.211 HD
ENDBRANCH   4  17
TORSDOF 7
ENDMDL
MODEL 8
REMARK VINA RESULT:    -4.404      9.321     12.137
REMARK INTER + INTRA:          -5.860
REMARK INTER:                  -5.450
REMARK INTRA:                  -0.409
REMARK UNBOUND:                -0.168
REMARK SMILES CCO[C@@H]1O[C@@H](CO)[C@@H](O)[C@@H](O)[C@@H]1O
REMARK SMILES IDX 4 1 13 2 11 3 9 4 6 5 5 6 3 7 2 8 1 9 14 10 12 12 7 14 8 15
REMARK SMILES IDX 10 17
REMARK H PARENT 14 11 12 13 8 16 10 18
REMARK Flexibility Score: inf
ROOT
ATOM      1  C   UNL     1      15.933   7.122  43.280  1.00  0.00     0.281 C 
ATOM      2  C   UNL     1      17.142   7.317  44.217  1.00  0.00     0.202 C 
ATOM      3  C   UNL     1      18.459   7.073  43.459  1.00  0.00     0.179 C 
ATOM      4  C   UNL     1      18.484   7.911  42.166  1.00  0.00     0.177 C 
ATOM      5  C   UNL     1      17.196   7.628  41.362  1.00  0.00     0.178 C 
ATOM      6  O   UNL     1      16.042   7.948  42.126  1.00  0.00    -0.341 OA
ENDROOT
BRANCH   1   7
ATOM      7  O   UNL     1      15.802   5.752  42.929  1.00  0.00    -0.350 OA
BRANCH   7   8
ATOM      8  C   UNL     1      14.446   5.435  42.698  1.00  0.00     0.160 C 
ATOM      9  C   UNL     1      14.303   4.855  41.299  1.00  0.00     0.035 C 
ENDBRANCH   7   8
ENDBRANCH   1   7
BRANCH   2  10
ATOM     10  O   UNL     1      17.036   6.432  45.304  1.00  0.00    -0.385 OA
ATOM     11  H   UNL     1      16.817   6.981  46.101  1.00  0.00     0.211 HD
ENDBRANCH   2  10
BRANCH   3  12
ATOM     12  O   UNL     1      19.547   7.409  44.281  1.00  0.00    -0.387 OA
ATOM     13  H   UNL     1      20.103   8.052  43.769  1.00  0.00     0.211 HD
ENDBRANCH   3  12
BRANCH   5  14
ATOM     14  C   UNL     1      17.160   8.409  40.042  1.00  0.00     0.191 C 
BRANCH  14  15
ATOM     15  O   UNL     1      18.437   8.471  39.467  1.00  0.00    -0.394 OA
ATOM     16  H   UNL     1      18.957   7.727  39.868  1.00  0.00     0.210 HD
ENDBRANCH  14  15
ENDBRANCH   5  14
BRANCH   4  17
ATOM     17  O   UNL     1      18.568   9.280  42.478  1.00  0.00    -0.387 OA
ATOM     18  H   UNL     1      17.641   9.636  42.469  1.00  0.00     0.211 HD
ENDBRANCH   4  17
TORSDOF 7
ENDMDL
MODEL 9
REMARK VINA RESULT:    -4.401      8.512     10.684
REMARK INTER + INTRA:          -5.856
REMARK INTER:                  -5.442
REMARK INTRA:                  -0.414
REMARK UNBOUND:                -0.168
REMARK SMILES CCO[C@@H]1O[C@@H](CO)[C@@H](O)[C@@H](O)[C@@H]1O
REMARK SMILES IDX 4 1 13 2 11 3 9 4 6 5 5 6 3 7 2 8 1 9 14 10 12 12 7 14 8 15
REMARK SMILES IDX 10 17
REMARK H PARENT 14 11 12 13 8 16 10 18
REMARK Flexibility Score: inf
ROOT
ATOM      1  C   UNL     1      17.140   5.048  42.284  1.00  0.00     0.281 C 
ATOM      2  C   UNL     1      17.754   6.455  42.133  1.00  0.00     0.202 C 
ATOM      3  C   UNL     1      17.270   7.119  40.831  1.00  0.00     0.179 C 
ATOM      4  C   UNL     1      15.732   7.057  40.750  1.00  0.00     0.177 C 
ATOM      5  C   UNL     1      15.280   5.594  40.954  1.00  0.00     0.178 C 
ATOM      6  O   UNL     1      15.720   5.098  42.210  1.00  0.00    -0.341 OA
ENDROOT
BRANCH   1   7
ATOM      7  O   UNL     1      17.681   4.171  41.307  1.00  0.00    -0.350 OA
BRANCH   7   8
ATOM      8  C   UNL     1      17.632   2.837  41.767  1.00  0.00     0.160 C 
ATOM      9  C   UNL     1      16.932   1.978  40.725  1.00  0.00     0.035 C 
ENDBRANCH   7   8
ENDBRANCH   1   7
BRANCH   2  10
ATOM     10  O   UNL     1      19.155   6.353  42.135  1.00  0.00    -0.385 OA
ATOM     11  H   UNL     1      19.501   7.130  41.623  1.00  0.00     0.211 HD
ENDBRANCH   2  10
BRANCH   3  12
ATOM     12  O   UNL     1      17.709   8.452  40.790  1.00  0.00    -0.387 OA
ATOM     13  H   UNL     1      17.520   8.786  39.874  1.00  0.00     0.211 HD
ENDBRANCH   3  12
BRANCH   5  14
ATOM     14  C   UNL     1      13.755   5.446  40.859  1.00  0.00     0.191 C 
BRANCH  14  15
ATOM     15  O   UNL     1      13.229   6.331  39.907  1.00  0.00    -0.394 OA
ATOM     16  H   UNL     1      13.438   7.244  40.234  1.00  0.00     0.210 HD
ENDBRANCH  14  15
ENDBRANCH   5  14
BRANCH   4  17
ATOM     17  O   UNL     1      15.162   7.881  41.736  1.00  0.00    -0.387 OA
ATOM     18  H   UNL     1      15.693   8.719  41.757  1.00  0.00     0.211 HD
ENDBRANCH   4  17
TORSDOF 7
ENDMDL
