MODEL 1
REMARK VINA RESULT:    -0.249      0.000      0.000
REMARK INTER + INTRA:           0.271
REMARK INTER:                  -0.293
REMARK INTRA:                   0.564
REMARK UNBOUND:                 0.564
REMARK SMILES O=c1c(O)c(-c2ccc(O)cc2)oc2cc(O)cc(O)c12
REMARK SMILES IDX 5 1 3 2 2 3 1 4 21 5 19 6 18 7 16 8 15 9 14 10 13 11 6 12
REMARK SMILES IDX 7 13 8 14 9 15 12 16 11 17 10 18 4 20 20 22 17 24
REMARK H PARENT 10 19 4 21 20 23 17 25
REMARK Flexibility Score: inf
ROOT
ATOM      1  C   UNL     1      72.083  42.657  21.262  1.00  0.00     0.180 A 
ATOM      2  C   UNL     1      72.856  42.844  20.103  1.00  0.00     0.208 A 
ATOM      3  C   UNL     1      74.252  42.717  20.188  1.00  0.00     0.238 A 
ATOM      4  O   UNL     1      74.935  42.832  19.137  1.00  0.00    -0.285 OA
ATOM      5  C   UNL     1      74.858  42.423  21.434  1.00  0.00     0.111 A 
ATOM      6  C   UNL     1      76.266  42.312  21.644  1.00  0.00     0.134 A 
ATOM      7  C   UNL     1      76.747  41.889  22.889  1.00  0.00     0.093 A 
ATOM      8  C   UNL     1      75.874  41.636  23.950  1.00  0.00     0.123 A 
ATOM      9  C   UNL     1      74.502  41.799  23.772  1.00  0.00     0.094 A 
ATOM     10  C   UNL     1      73.990  42.185  22.531  1.00  0.00     0.146 A 
ATOM     11  O   UNL     1      72.676  42.318  22.401  1.00  0.00    -0.452 OA
ENDROOT
BRANCH   1  12
ATOM     12  C   UNL     1      70.609  42.799  21.256  1.00  0.00     0.021 A 
ATOM     13  C   UNL     1      69.931  42.923  20.031  1.00  0.00     0.016 A 
ATOM     14  C   UNL     1      68.538  43.035  20.001  1.00  0.00     0.047 A 
ATOM     15  C   UNL     1      67.803  43.010  21.191  1.00  0.00     0.115 A 
ATOM     16  C   UNL     1      69.863  42.753  22.448  1.00  0.00     0.016 A 
ATOM     17  C   UNL     1      68.470  42.866  22.414  1.00  0.00     0.047 A 
BRANCH  15  18
ATOM     18  O   UNL     1      66.416  43.123  21.145  1.00  0.00    -0.508 OA
ATOM     19  H   UNL     1      65.869  42.647  20.438  1.00  0.00     0.293 HD
ENDBRANCH  15  18
ENDBRANCH   1  12
BRANCH   2  20
ATOM     20  O   UNL     1      72.237  43.111  18.879  1.00  0.00    -0.502 OA
ATOM     21  H   UNL     1      72.703  43.607  18.130  1.00  0.00     0.293 HD
ENDBRANCH   2  20
BRANCH   6  22
ATOM     22  O   UNL     1      77.226  42.631  20.679  1.00  0.00    -0.507 OA
ATOM     23  H   UNL     1      78.135  43.019  20.880  1.00  0.00     0.293 HD
ENDBRANCH   6  22
BRANCH   8  24
ATOM     24  O   UNL     1      76.362  41.230  25.191  1.00  0.00    -0.508 OA
ATOM     25  H   UNL     1      75.763  41.188  26.007  1.00  0.00     0.293 HD
ENDBRANCH   8  24
TORSDOF 5
ENDMDL
MODEL 2
REMARK VINA RESULT:     1.377      2.764      6.657
REMARK INTER + INTRA:           2.182
REMARK INTER:                   1.783
REMARK INTRA:                   0.399
REMARK UNBOUND:                 0.564
REMARK SMILES O=c1c(O)c(-c2ccc(O)cc2)oc2cc(O)cc(O)c12
REMARK SMILES IDX 5 1 3 2 2 3 1 4 21 5 19 6 18 7 16 8 15 9 14 10 13 11 6 12
REMARK SMILES IDX 7 13 8 14 9 15 12 16 11 17 10 18 4 20 20 22 17 24
REMARK H PARENT 10 19 4 21 20 23 17 25
REMARK Flexibility Score: inf
ROOT
ATOM      1  C   UNL     1      74.157  41.022  20.836  1.00  0.00     0.180 A 
ATOM      2  C   UNL     1      73.715  39.747  20.440  1.00  0.00     0.208 A 
ATOM      3  C   UNL     1      72.475  39.281  20.905  1.00  0.00     0.238 A 
ATOM      4  O   UNL     1      72.060  38.163  20.505  1.00  0.00    -0.285 OA
ATOM      5  C   UNL     1      71.700  40.088  21.774  1.00  0.00     0.111 A 
ATOM      6  C   UNL     1      70.448  39.699  22.339  1.00  0.00     0.134 A 
ATOM      7  C   UNL     1      69.707  40.629  23.080  1.00  0.00     0.093 A 
ATOM      8  C   UNL     1      70.204  41.910  23.332  1.00  0.00     0.123 A 
ATOM      9  C   UNL     1      71.453  42.277  22.835  1.00  0.00     0.094 A 
ATOM     10  C   UNL     1      72.199  41.385  22.061  1.00  0.00     0.146 A 
ATOM     11  O   UNL     1      73.378  41.780  21.598  1.00  0.00    -0.452 OA
ENDROOT
BRANCH   1  12
ATOM     12  C   UNL     1      75.463  41.571  20.407  1.00  0.00     0.021 A 
ATOM     13  C   UNL     1      76.090  42.557  21.188  1.00  0.00     0.016 A 
ATOM     14  C   UNL     1      77.334  43.073  20.814  1.00  0.00     0.047 A 
ATOM     15  C   UNL     1      77.975  42.601  19.664  1.00  0.00     0.115 A 
ATOM     16  C   UNL     1      76.123  41.086  19.263  1.00  0.00     0.016 A 
ATOM     17  C   UNL     1      77.367  41.604  18.891  1.00  0.00     0.047 A 
BRANCH  15  18
ATOM     18  O   UNL     1      79.213  43.125  19.303  1.00  0.00    -0.508 OA
ATOM     19  H   UNL     1      79.807  42.661  18.626  1.00  0.00     0.293 HD
ENDBRANCH  15  18
ENDBRANCH   1  12
BRANCH   2  20
ATOM     20  O   UNL     1      74.485  38.977  19.564  1.00  0.00    -0.502 OA
ATOM     21  H   UNL     1      75.497  38.978  19.583  1.00  0.00     0.293 HD
ENDBRANCH   2  20
BRANCH   6  22
ATOM     22  O   UNL     1      69.905  38.416  22.226  1.00  0.00    -0.507 OA
ATOM     23  H   UNL     1      70.002  37.821  21.418  1.00  0.00     0.293 HD
ENDBRANCH   6  22
BRANCH   8  24
ATOM     24  O   UNL     1      69.468  42.823  24.084  1.00  0.00    -0.508 OA
ATOM     25  H   UNL     1      68.918  43.551  23.643  1.00  0.00     0.293 HD
ENDBRANCH   8  24
TORSDOF 5
ENDMDL
MODEL 3
REMARK VINA RESULT:     1.432      2.964      6.984
REMARK INTER + INTRA:           2.247
REMARK INTER:                   2.541
REMARK INTRA:                  -0.294
REMARK UNBOUND:                 0.564
REMARK SMILES O=c1c(O)c(-c2ccc(O)cc2)oc2cc(O)cc(O)c12
REMARK SMILES IDX 5 1 3 2 2 3 1 4 21 5 19 6 18 7 16 8 15 9 14 10 13 11 6 12
REMARK SMILES IDX 7 13 8 14 9 15 12 16 11 17 10 18 4 20 20 22 17 24
REMARK H PARENT 10 19 4 21 20 23 17 25
REMARK Flexibility Score: inf
ROOT
ATOM      1  C   UNL     1      75.496  40.626  24.119  1.00  0.00     0.180 A 
ATOM      2  C   UNL     1      76.229  41.662  23.515  1.00  0.00     0.208 A 
ATOM      3  C   UNL     1      75.836  42.124  22.249  1.00  0.00     0.238 A 
ATOM      4  O   UNL     1      76.463  43.088  21.736  1.00  0.00    -0.285 OA
ATOM      5  C   UNL     1      74.727  41.534  21.596  1.00  0.00     0.111 A 
ATOM      6  C   UNL     1      74.266  41.896  20.294  1.00  0.00     0.134 A 
ATOM      7  C   UNL     1      73.080  41.337  19.801  1.00  0.00     0.093 A 
ATOM      8  C   UNL     1      72.376  40.380  20.536  1.00  0.00     0.123 A 
ATOM      9  C   UNL     1      72.851  39.976  21.781  1.00  0.00     0.094 A 
ATOM     10  C   UNL     1      74.010  40.543  22.316  1.00  0.00     0.146 A 
ATOM     11  O   UNL     1      74.422  40.138  23.510  1.00  0.00    -0.452 OA
ENDROOT
BRANCH   1  12
ATOM     12  C   UNL     1      75.864  40.069  25.441  1.00  0.00     0.021 A 
ATOM     13  C   UNL     1      75.300  40.618  26.605  1.00  0.00     0.016 A 
ATOM     14  C   UNL     1      75.616  40.094  27.861  1.00  0.00     0.047 A 
ATOM     15  C   UNL     1      76.487  39.005  27.971  1.00  0.00     0.115 A 
ATOM     16  C   UNL     1      76.723  38.961  25.557  1.00  0.00     0.016 A 
ATOM     17  C   UNL     1      77.037  38.438  26.815  1.00  0.00     0.047 A 
BRANCH  15  18
ATOM     18  O   UNL     1      76.793  38.494  29.230  1.00  0.00    -0.508 OA
ATOM     19  H   UNL     1      76.589  37.532  29.474  1.00  0.00     0.293 HD
ENDBRANCH  15  18
ENDBRANCH   1  12
BRANCH   2  20
ATOM     20  O   UNL     1      77.307  42.246  24.186  1.00  0.00    -0.502 OA
ATOM     21  H   UNL     1      77.786  41.786  24.949  1.00  0.00     0.293 HD
ENDBRANCH   2  20
BRANCH   6  22
ATOM     22  O   UNL     1      74.945  42.771  19.441  1.00  0.00    -0.507 OA
ATOM     23  H   UNL     1      74.910  43.777  19.504  1.00  0.00     0.293 HD
ENDBRANCH   6  22
BRANCH   8  24
ATOM     24  O   UNL     1      71.205  39.816  20.031  1.00  0.00    -0.508 OA
ATOM     25  H   UNL     1      71.215  39.217  19.214  1.00  0.00     0.293 HD
ENDBRANCH   8  24
TORSDOF 5
ENDMDL
