MODEL 1
REMARK VINA RESULT:    -2.006      0.000      0.000
REMARK INTER + INTRA:          -2.006
REMARK INTER:                  -2.006
REMARK INTRA:                   0.000
REMARK UNBOUND:                 0.000
REMARK SMILES c1cc[nH]c1
REMARK SMILES IDX 1 1 5 2 4 3 3 4 2 5
REMARK H PARENT 4 6
REMARK Flexibility Score: inf
ROOT
ATOM      1  C   UNL     1     128.125  29.992 -15.996  1.00  0.00     0.019 A 
ATOM      2  C   UNL     1     128.125  31.179 -16.699  1.00  0.00     0.082 A 
ATOM      3  N   UNL     1     127.784  30.953 -17.981  1.00  0.00    -0.368 N 
ATOM      4  C   UNL     1     127.567  29.632 -18.106  1.00  0.00     0.082 A 
ATOM      5  C   UNL     1     127.769  29.004 -16.894  1.00  0.00     0.019 A 
ATOM      6  H   UNL     1     127.703  31.669 -18.737  1.00  0.00     0.165 HD
ENDROOT
TORSDOF 0
ENDMDL
MODEL 2
REMARK VINA RESULT:    -1.863      1.261      2.310
REMARK INTER + INTRA:          -1.863
REMARK INTER:                  -1.863
REMARK INTRA:                   0.000
REMARK UNBOUND:                 0.000
REMARK SMILES c1cc[nH]c1
REMARK SMILES IDX 1 1 5 2 4 3 3 4 2 5
REMARK H PARENT 4 6
REMARK Flexibility Score: inf
ROOT
ATOM      1  C   UNL     1     127.913  30.386 -18.123  1.00  0.00     0.019 A 
ATOM      2  C   UNL     1     127.773  29.051 -17.805  1.00  0.00     0.082 A 
ATOM      3  N   UNL     1     127.889  28.882 -16.475  1.00  0.00    -0.368 N 
ATOM      4  C   UNL     1     128.104  30.096 -15.939  1.00  0.00     0.082 A 
ATOM      5  C   UNL     1     128.125  31.053 -16.931  1.00  0.00     0.019 A 
ATOM      6  H   UNL     1     127.825  27.977 -15.958  1.00  0.00     0.165 HD
ENDROOT
TORSDOF 0
ENDMDL
