MODEL 1
REMARK VINA RESULT:    -2.773      0.000      0.000
REMARK INTER + INTRA:          -4.585
REMARK INTER:                  -4.231
REMARK INTRA:                  -0.354
REMARK UNBOUND:                -0.354
REMARK SMILES CC1=CCC[C@H](C)C(=O)C[C@@H](C(C)C)C(=O)C1
REMARK SMILES IDX 8 1 9 2 6 3 7 4 5 5 4 6 3 7 2 8 1 9 10 11 11 12 15 13 16 14
REMARK SMILES IDX 17 15 12 17 13 18 14 19
REMARK H PARENT
REMARK Flexibility Score: 70.00
ROOT
ATOM      1  C   UNL     1      20.838  37.456  85.055  1.00  0.00     0.136 C 
ATOM      2  O   UNL     1      20.311  36.535  84.445  1.00  0.00    -0.299 OA
ENDROOT
BRANCH   1   3
ATOM      3  C   UNL     1      20.036  38.705  85.394  1.00  0.00     0.053 C 
ATOM      4  C   UNL     1      19.525  39.429  84.137  1.00  0.00     0.016 C 
BRANCH   3   5
ATOM      5  C   UNL     1      18.876  38.410  86.372  1.00  0.00     0.015 C 
BRANCH   5   6
ATOM      6  C   UNL     1      19.219  38.731  87.839  1.00  0.00     0.028 C 
BRANCH   6   7
ATOM      7  C   UNL     1      20.350  39.719  87.974  1.00  0.00    -0.028 C 
ATOM      8  C   UNL     1      21.580  39.460  88.488  1.00  0.00    -0.070 CG0
ATOM      9  C   UNL     1      22.527  40.625  88.633  1.00  0.00     0.039 C 
ATOM     10  G   UNL     1      22.078  38.067  88.866  1.00  0.00     0.000 G0
ENDBRANCH   6   7
ENDBRANCH   5   6
ENDBRANCH   3   5
ENDBRANCH   1   3
BRANCH   1  11
ATOM     11  C   UNL     1      22.298  37.342  85.427  1.00  0.00     0.087 C 
BRANCH  11  12
ATOM     12  C   UNL     1      22.523  36.547  86.745  1.00  0.00     0.066 C 
BRANCH  12  13
ATOM     13  C   UNL     1      23.021  37.407  87.903  1.00  0.00     0.140 C 
ATOM     14  O   UNL     1      24.214  37.678  87.958  1.00  0.00    -0.299 OA
BRANCH  13  15
ATOM     15  C   UNL     1      22.088  38.059  88.895  1.00  0.00     0.106 CG0
ATOM     16  G   UNL     1      21.588  39.439  88.475  1.00  0.00     0.000 G0
ENDBRANCH  13  15
ENDBRANCH  12  13
BRANCH  12  17
ATOM     17  C   UNL     1      23.410  35.272  86.566  1.00  0.00    -0.006 C 
ATOM     18  C   UNL     1      23.461  34.734  85.125  1.00  0.00     0.008 C 
ATOM     19  C   UNL     1      22.977  34.146  87.521  1.00  0.00     0.008 C 
ENDBRANCH  12  17
ENDBRANCH  11  12
ENDBRANCH   1  11
TORSDOF 1
ENDMDL
MODEL 2
REMARK VINA RESULT:    -2.715      2.071      3.249
REMARK INTER + INTRA:          -4.498
REMARK INTER:                  -4.431
REMARK INTRA:                  -0.066
REMARK UNBOUND:                -0.354
REMARK SMILES CC1=CCC[C@H](C)C(=O)C[C@@H](C(C)C)C(=O)C1
REMARK SMILES IDX 8 1 9 2 6 3 7 4 5 5 4 6 3 7 2 8 1 9 10 11 11 12 15 13 16 14
REMARK SMILES IDX 17 15 12 17 13 18 14 19
REMARK H PARENT
REMARK Flexibility Score: 70.00
ROOT
ATOM      1  C   UNL     1      22.780  34.994  85.908  1.00  0.00     0.136 C 
ATOM      2  O   UNL     1      23.984  34.981  85.692  1.00  0.00    -0.299 OA
ENDROOT
BRANCH   1   3
ATOM      3  C   UNL     1      21.815  35.463  84.828  1.00  0.00     0.053 C 
ATOM      4  C   UNL     1      20.562  34.575  84.738  1.00  0.00     0.016 C 
BRANCH   3   5
ATOM      5  C   UNL     1      21.428  36.951  84.994  1.00  0.00     0.015 C 
BRANCH   5   6
ATOM      6  C   UNL     1      22.638  37.872  85.237  1.00  0.00     0.028 C 
BRANCH   6   7
ATOM      7  C   UNL     1      22.417  38.842  86.371  1.00  0.00    -0.028 C 
ATOM      8  C   UNL     1      22.910  38.723  87.630  1.00  0.00    -0.070 CG0
ATOM      9  C   UNL     1      22.474  39.754  88.642  1.00  0.00     0.039 C 
ATOM     10  G   UNL     1      23.915  37.659  88.064  1.00  0.00     0.000 G0
ENDBRANCH   6   7
ENDBRANCH   5   6
ENDBRANCH   3   5
ENDBRANCH   1   3
BRANCH   1  11
ATOM     11  C   UNL     1      22.280  34.574  87.270  1.00  0.00     0.087 C 
BRANCH  11  12
ATOM     12  C   UNL     1      22.044  35.780  88.223  1.00  0.00     0.066 C 
BRANCH  12  13
ATOM     13  C   UNL     1      23.331  36.427  88.726  1.00  0.00     0.140 C 
ATOM     14  O   UNL     1      23.964  35.858  89.606  1.00  0.00    -0.299 OA
BRANCH  13  15
ATOM     15  C   UNL     1      23.932  37.654  88.083  1.00  0.00     0.106 CG0
ATOM     16  G   UNL     1      22.909  38.693  87.631  1.00  0.00     0.000 G0
ENDBRANCH  13  15
ENDBRANCH  12  13
BRANCH  12  17
ATOM     17  C   UNL     1      21.071  35.464  89.407  1.00  0.00    -0.006 C 
ATOM     18  C   UNL     1      20.917  33.964  89.716  1.00  0.00     0.008 C 
ATOM     19  C   UNL     1      19.683  36.087  89.175  1.00  0.00     0.008 C 
ENDBRANCH  12  17
ENDBRANCH  11  12
ENDBRANCH   1  11
TORSDOF 1
ENDMDL
MODEL 3
REMARK VINA RESULT:    -2.546      9.421     11.035
REMARK INTER + INTRA:          -4.240
REMARK INTER:                  -4.003
REMARK INTRA:                  -0.237
REMARK UNBOUND:                -0.354
REMARK SMILES CC1=CCC[C@H](C)C(=O)C[C@@H](C(C)C)C(=O)C1
REMARK SMILES IDX 8 1 9 2 6 3 7 4 5 5 4 6 3 7 2 8 1 9 10 11 11 12 15 13 16 14
REMARK SMILES IDX 17 15 12 17 13 18 14 19
REMARK H PARENT
REMARK Flexibility Score: 70.00
ROOT
ATOM      1  C   UNL     1      28.923  45.278  81.653  1.00  0.00     0.136 C 
ATOM      2  O   UNL     1      29.702  44.362  81.882  1.00  0.00    -0.299 OA
ENDROOT
BRANCH   1   3
ATOM      3  C   UNL     1      28.522  45.601  80.220  1.00  0.00     0.053 C 
ATOM      4  C   UNL     1      29.721  46.041  79.364  1.00  0.00     0.016 C 
BRANCH   3   5
ATOM      5  C   UNL     1      27.760  44.436  79.548  1.00  0.00     0.015 C 
BRANCH   5   6
ATOM      6  C   UNL     1      26.582  43.911  80.391  1.00  0.00     0.028 C 
BRANCH   6   7
ATOM      7  C   UNL     1      25.452  44.903  80.501  1.00  0.00    -0.028 C 
ATOM      8  C   UNL     1      24.757  45.199  81.629  1.00  0.00    -0.070 CG0
ATOM      9  C   UNL     1      23.588  46.143  81.492  1.00  0.00     0.039 C 
ATOM     10  G   UNL     1      25.120  44.689  83.022  1.00  0.00     0.000 G0
ENDBRANCH   6   7
ENDBRANCH   5   6
ENDBRANCH   3   5
ENDBRANCH   1   3
BRANCH   1  11
ATOM     11  C   UNL     1      28.403  46.097  82.812  1.00  0.00     0.087 C 
BRANCH  11  12
ATOM     12  C   UNL     1      27.579  45.252  83.825  1.00  0.00     0.066 C 
BRANCH  12  13
ATOM     13  C   UNL     1      26.083  45.547  83.798  1.00  0.00     0.140 C 
ATOM     14  O   UNL     1      25.684  46.587  84.307  1.00  0.00    -0.299 OA
BRANCH  13  15
ATOM     15  C   UNL     1      25.096  44.690  83.042  1.00  0.00     0.106 CG0
ATOM     16  G   UNL     1      24.760  45.203  81.643  1.00  0.00     0.000 G0
ENDBRANCH  13  15
ENDBRANCH  12  13
BRANCH  12  17
ATOM     17  C   UNL     1      28.139  45.302  85.285  1.00  0.00    -0.006 C 
ATOM     18  C   UNL     1      28.640  46.690  85.723  1.00  0.00     0.008 C 
ATOM     19  C   UNL     1      29.253  44.262  85.496  1.00  0.00     0.008 C 
ENDBRANCH  12  17
ENDBRANCH  11  12
ENDBRANCH   1  11
TORSDOF 1
ENDMDL
MODEL 4
REMARK VINA RESULT:    -2.501      1.798      4.391
REMARK INTER + INTRA:          -4.172
REMARK INTER:                  -3.982
REMARK INTRA:                  -0.189
REMARK UNBOUND:                -0.354
REMARK SMILES CC1=CCC[C@H](C)C(=O)C[C@@H](C(C)C)C(=O)C1
REMARK SMILES IDX 8 1 9 2 6 3 7 4 5 5 4 6 3 7 2 8 1 9 10 11 11 12 15 13 16 14
REMARK SMILES IDX 17 15 12 17 13 18 14 19
REMARK H PARENT
REMARK Flexibility Score: 70.00
ROOT
ATOM      1  C   UNL     1      20.914  36.732  85.432  1.00  0.00     0.136 C 
ATOM      2  O   UNL     1      21.323  37.467  84.543  1.00  0.00    -0.299 OA
ENDROOT
BRANCH   1   3
ATOM      3  C   UNL     1      20.900  35.222  85.230  1.00  0.00     0.053 C 
ATOM      4  C   UNL     1      19.887  34.785  84.159  1.00  0.00     0.016 C 
BRANCH   3   5
ATOM      5  C   UNL     1      22.307  34.660  84.924  1.00  0.00     0.015 C 
BRANCH   5   6
ATOM      6  C   UNL     1      23.404  35.225  85.846  1.00  0.00     0.028 C 
BRANCH   6   7
ATOM      7  C   UNL     1      23.373  34.626  87.230  1.00  0.00    -0.028 C 
ATOM      8  C   UNL     1      23.487  35.310  88.398  1.00  0.00    -0.070 CG0
ATOM      9  C   UNL     1      23.541  34.499  89.669  1.00  0.00     0.039 C 
ATOM     10  G   UNL     1      23.500  36.832  88.506  1.00  0.00     0.000 G0
ENDBRANCH   6   7
ENDBRANCH   5   6
ENDBRANCH   3   5
ENDBRANCH   1   3
BRANCH   1  11
ATOM     11  C   UNL     1      20.392  37.353  86.707  1.00  0.00     0.087 C 
BRANCH  11  12
ATOM     12  C   UNL     1      21.465  38.201  87.446  1.00  0.00     0.066 C 
BRANCH  12  13
ATOM     13  C   UNL     1      22.122  37.476  88.617  1.00  0.00     0.140 C 
ATOM     14  O   UNL     1      21.464  37.291  89.632  1.00  0.00    -0.299 OA
BRANCH  13  15
ATOM     15  C   UNL     1      23.492  36.846  88.520  1.00  0.00     0.106 CG0
ATOM     16  G   UNL     1      23.477  35.324  88.404  1.00  0.00     0.000 G0
ENDBRANCH  13  15
ENDBRANCH  12  13
BRANCH  12  17
ATOM     17  C   UNL     1      20.960  39.619  87.873  1.00  0.00    -0.006 C 
ATOM     18  C   UNL     1      19.438  39.711  88.088  1.00  0.00     0.008 C 
ATOM     19  C   UNL     1      21.404  40.699  86.871  1.00  0.00     0.008 C 
ENDBRANCH  12  17
ENDBRANCH  11  12
ENDBRANCH   1  11
TORSDOF 1
ENDMDL
MODEL 5
REMARK VINA RESULT:    -2.458      3.188      5.056
REMARK INTER + INTRA:          -4.106
REMARK INTER:                  -3.736
REMARK INTRA:                  -0.369
REMARK UNBOUND:                -0.354
REMARK SMILES CC1=CCC[C@H](C)C(=O)C[C@@H](C(C)C)C(=O)C1
REMARK SMILES IDX 8 1 9 2 6 3 7 4 5 5 4 6 3 7 2 8 1 9 10 11 11 12 15 13 16 14
REMARK SMILES IDX 17 15 12 17 13 18 14 19
REMARK H PARENT
REMARK Flexibility Score: 70.00
ROOT
ATOM      1  C   UNL     1      23.139  36.723  87.384  1.00  0.00     0.136 C 
ATOM      2  O   UNL     1      24.038  37.371  87.904  1.00  0.00    -0.299 OA
ENDROOT
BRANCH   1   3
ATOM      3  C   UNL     1      23.284  36.227  85.952  1.00  0.00     0.053 C 
ATOM      4  C   UNL     1      23.750  34.763  85.885  1.00  0.00     0.016 C 
BRANCH   3   5
ATOM      5  C   UNL     1      21.992  36.434  85.128  1.00  0.00     0.015 C 
BRANCH   5   6
ATOM      6  C   UNL     1      21.291  35.116  84.750  1.00  0.00     0.028 C 
BRANCH   6   7
ATOM      7  C   UNL     1      19.808  35.142  85.024  1.00  0.00    -0.028 C 
ATOM      8  C   UNL     1      19.163  34.439  85.990  1.00  0.00    -0.070 CG0
ATOM      9  C   UNL     1      17.657  34.527  86.018  1.00  0.00     0.039 C 
ATOM     10  G   UNL     1      19.864  33.626  87.076  1.00  0.00     0.000 G0
ENDBRANCH   6   7
ENDBRANCH   5   6
ENDBRANCH   3   5
ENDBRANCH   1   3
BRANCH   1  11
ATOM     11  C   UNL     1      21.879  36.462  88.176  1.00  0.00     0.087 C 
BRANCH  11  12
ATOM     12  C   UNL     1      21.685  34.957  88.519  1.00  0.00     0.066 C 
BRANCH  12  13
ATOM     13  C   UNL     1      20.259  34.457  88.305  1.00  0.00     0.140 C 
ATOM     14  O   UNL     1      19.386  34.839  89.072  1.00  0.00    -0.299 OA
BRANCH  13  15
ATOM     15  C   UNL     1      19.855  33.637  87.103  1.00  0.00     0.106 CG0
ATOM     16  G   UNL     1      19.171  34.436  85.996  1.00  0.00     0.000 G0
ENDBRANCH  13  15
ENDBRANCH  12  13
BRANCH  12  17
ATOM     17  C   UNL     1      22.214  34.562  89.937  1.00  0.00    -0.006 C 
ATOM     18  C   UNL     1      22.425  35.754  90.888  1.00  0.00     0.008 C 
ATOM     19  C   UNL     1      23.513  33.743  89.845  1.00  0.00     0.008 C 
ENDBRANCH  12  17
ENDBRANCH  11  12
ENDBRANCH   1  11
TORSDOF 1
ENDMDL
MODEL 6
REMARK VINA RESULT:    -2.449      2.173      5.289
REMARK INTER + INTRA:          -4.091
REMARK INTER:                  -4.097
REMARK INTRA:                   0.006
REMARK UNBOUND:                -0.354
REMARK SMILES CC1=CCC[C@H](C)C(=O)C[C@@H](C(C)C)C(=O)C1
REMARK SMILES IDX 8 1 9 2 6 3 7 4 5 5 4 6 3 7 2 8 1 9 10 11 11 12 15 13 16 14
REMARK SMILES IDX 17 15 12 17 13 18 14 19
REMARK H PARENT
REMARK Flexibility Score: 70.00
ROOT
ATOM      1  C   UNL     1      23.756  37.274  87.636  1.00  0.00     0.136 C 
ATOM      2  O   UNL     1      24.299  37.964  88.489  1.00  0.00    -0.299 OA
ENDROOT
BRANCH   1   3
ATOM      3  C   UNL     1      23.940  35.762  87.645  1.00  0.00     0.053 C 
ATOM      4  C   UNL     1      23.419  35.119  88.941  1.00  0.00     0.016 C 
BRANCH   3   5
ATOM      5  C   UNL     1      23.314  35.089  86.402  1.00  0.00     0.015 C 
BRANCH   5   6
ATOM      6  C   UNL     1      21.882  34.574  86.644  1.00  0.00     0.028 C 
BRANCH   6   7
ATOM      7  C   UNL     1      21.067  34.493  85.377  1.00  0.00    -0.028 C 
ATOM      8  C   UNL     1      20.007  35.280  85.060  1.00  0.00    -0.070 CG0
ATOM      9  C   UNL     1      19.263  34.954  83.787  1.00  0.00     0.039 C 
ATOM     10  G   UNL     1      19.566  36.497  85.868  1.00  0.00     0.000 G0
ENDBRANCH   6   7
ENDBRANCH   5   6
ENDBRANCH   3   5
ENDBRANCH   1   3
BRANCH   1  11
ATOM     11  C   UNL     1      22.940  37.953  86.561  1.00  0.00     0.087 C 
BRANCH  11  12
ATOM     12  C   UNL     1      21.432  38.062  86.929  1.00  0.00     0.066 C 
BRANCH  12  13
ATOM     13  C   UNL     1      20.493  37.681  85.788  1.00  0.00     0.140 C 
ATOM     14  O   UNL     1      20.594  38.280  84.726  1.00  0.00    -0.299 OA
BRANCH  13  15
ATOM     15  C   UNL     1      19.552  36.502  85.866  1.00  0.00     0.106 CG0
ATOM     16  G   UNL     1      19.999  35.287  85.056  1.00  0.00     0.000 G0
ENDBRANCH  13  15
ENDBRANCH  12  13
BRANCH  12  17
ATOM     17  C   UNL     1      21.035  39.441  87.551  1.00  0.00    -0.006 C 
ATOM     18  C   UNL     1      22.191  40.454  87.634  1.00  0.00     0.008 C 
ATOM     19  C   UNL     1      20.401  39.269  88.942  1.00  0.00     0.008 C 
ENDBRANCH  12  17
ENDBRANCH  11  12
ENDBRANCH   1  11
TORSDOF 1
ENDMDL
MODEL 7
REMARK VINA RESULT:    -2.439      2.632      5.454
REMARK INTER + INTRA:          -4.077
REMARK INTER:                  -4.298
REMARK INTRA:                   0.221
REMARK UNBOUND:                -0.354
REMARK SMILES CC1=CCC[C@H](C)C(=O)C[C@@H](C(C)C)C(=O)C1
REMARK SMILES IDX 8 1 9 2 6 3 7 4 5 5 4 6 3 7 2 8 1 9 10 11 11 12 15 13 16 14
REMARK SMILES IDX 17 15 12 17 13 18 14 19
REMARK H PARENT
REMARK Flexibility Score: 70.00
ROOT
ATOM      1  C   UNL     1      23.656  35.347  89.361  1.00  0.00     0.136 C 
ATOM      2  O   UNL     1      23.464  36.061  90.336  1.00  0.00    -0.299 OA
ENDROOT
BRANCH   1   3
ATOM      3  C   UNL     1      23.460  33.840  89.465  1.00  0.00     0.053 C 
ATOM      4  C   UNL     1      24.436  33.192  90.460  1.00  0.00     0.016 C 
BRANCH   3   5
ATOM      5  C   UNL     1      21.998  33.462  89.797  1.00  0.00     0.015 C 
BRANCH   5   6
ATOM      6  C   UNL     1      21.197  32.985  88.571  1.00  0.00     0.028 C 
BRANCH   6   7
ATOM      7  C   UNL     1      20.270  34.044  88.029  1.00  0.00    -0.028 C 
ATOM      8  C   UNL     1      20.439  34.738  86.874  1.00  0.00    -0.070 CG0
ATOM      9  C   UNL     1      19.446  35.833  86.576  1.00  0.00     0.039 C 
ATOM     10  G   UNL     1      21.524  34.439  85.842  1.00  0.00     0.000 G0
ENDBRANCH   6   7
ENDBRANCH   5   6
ENDBRANCH   3   5
ENDBRANCH   1   3
BRANCH   1  11
ATOM     11  C   UNL     1      24.125  35.985  88.073  1.00  0.00     0.087 C 
BRANCH  11  12
ATOM     12  C   UNL     1      22.955  36.305  87.099  1.00  0.00     0.066 C 
BRANCH  12  13
ATOM     13  C   UNL     1      22.778  35.271  85.991  1.00  0.00     0.140 C 
ATOM     14  O   UNL     1      23.738  35.011  85.278  1.00  0.00    -0.299 OA
BRANCH  13  15
ATOM     15  C   UNL     1      21.520  34.450  85.834  1.00  0.00     0.106 CG0
ATOM     16  G   UNL     1      20.439  34.751  86.870  1.00  0.00     0.000 G0
ENDBRANCH  13  15
ENDBRANCH  12  13
BRANCH  12  17
ATOM     17  C   UNL     1      23.002  37.755  86.516  1.00  0.00    -0.006 C 
ATOM     18  C   UNL     1      22.490  38.841  87.480  1.00  0.00     0.008 C 
ATOM     19  C   UNL     1      22.241  37.850  85.182  1.00  0.00     0.008 C 
ENDBRANCH  12  17
ENDBRANCH  11  12
ENDBRANCH   1  11
TORSDOF 1
ENDMDL
MODEL 8
REMARK VINA RESULT:    -2.438      8.605     10.605
REMARK INTER + INTRA:          -4.074
REMARK INTER:                  -3.872
REMARK INTRA:                  -0.202
REMARK UNBOUND:                -0.354
REMARK SMILES CC1=CCC[C@H](C)C(=O)C[C@@H](C(C)C)C(=O)C1
REMARK SMILES IDX 8 1 9 2 6 3 7 4 5 5 4 6 3 7 2 8 1 9 10 11 11 12 15 13 16 14
REMARK SMILES IDX 17 15 12 17 13 18 14 19
REMARK H PARENT
REMARK Flexibility Score: 70.00
ROOT
ATOM      1  C   UNL     1      28.774  44.956  82.977  1.00  0.00     0.136 C 
ATOM      2  O   UNL     1      29.391  44.806  81.931  1.00  0.00    -0.299 OA
ENDROOT
BRANCH   1   3
ATOM      3  C   UNL     1      29.502  45.403  84.238  1.00  0.00     0.053 C 
ATOM      4  C   UNL     1      29.379  46.917  84.478  1.00  0.00     0.016 C 
BRANCH   3   5
ATOM      5  C   UNL     1      29.056  44.606  85.485  1.00  0.00     0.015 C 
BRANCH   5   6
ATOM      6  C   UNL     1      28.588  45.503  86.647  1.00  0.00     0.028 C 
BRANCH   6   7
ATOM      7  C   UNL     1      27.252  45.086  87.208  1.00  0.00    -0.028 C 
ATOM      8  C   UNL     1      26.043  45.592  86.850  1.00  0.00    -0.070 CG0
ATOM      9  C   UNL     1      24.838  45.110  87.619  1.00  0.00     0.039 C 
ATOM     10  G   UNL     1      25.825  46.559  85.689  1.00  0.00     0.000 G0
ENDBRANCH   6   7
ENDBRANCH   5   6
ENDBRANCH   3   5
ENDBRANCH   1   3
BRANCH   1  11
ATOM     11  C   UNL     1      27.293  44.654  82.998  1.00  0.00     0.087 C 
BRANCH  11  12
ATOM     12  C   UNL     1      26.421  45.931  83.163  1.00  0.00     0.066 C 
BRANCH  12  13
ATOM     13  C   UNL     1      25.487  45.885  84.368  1.00  0.00     0.140 C 
ATOM     14  O   UNL     1      24.490  45.177  84.307  1.00  0.00    -0.299 OA
BRANCH  13  15
ATOM     15  C   UNL     1      25.817  46.554  85.682  1.00  0.00     0.106 CG0
ATOM     16  G   UNL     1      26.046  45.587  86.840  1.00  0.00     0.000 G0
ENDBRANCH  13  15
ENDBRANCH  12  13
BRANCH  12  17
ATOM     17  C   UNL     1      25.647  46.335  81.865  1.00  0.00    -0.006 C 
ATOM     18  C   UNL     1      25.471  45.190  80.851  1.00  0.00     0.008 C 
ATOM     19  C   UNL     1      26.305  47.541  81.171  1.00  0.00     0.008 C 
ENDBRANCH  12  17
ENDBRANCH  11  12
ENDBRANCH   1  11
TORSDOF 1
ENDMDL
MODEL 9
REMARK VINA RESULT:    -2.376      2.575      5.171
REMARK INTER + INTRA:          -3.980
REMARK INTER:                  -3.822
REMARK INTRA:                  -0.158
REMARK UNBOUND:                -0.354
REMARK SMILES CC1=CCC[C@H](C)C(=O)C[C@@H](C(C)C)C(=O)C1
REMARK SMILES IDX 8 1 9 2 6 3 7 4 5 5 4 6 3 7 2 8 1 9 10 11 11 12 15 13 16 14
REMARK SMILES IDX 17 15 12 17 13 18 14 19
REMARK H PARENT
REMARK Flexibility Score: 70.00
ROOT
ATOM      1  C   UNL     1      23.371  35.909  86.285  1.00  0.00     0.136 C 
ATOM      2  O   UNL     1      23.783  35.000  85.578  1.00  0.00    -0.299 OA
ENDROOT
BRANCH   1   3
ATOM      3  C   UNL     1      23.879  36.059  87.713  1.00  0.00     0.053 C 
ATOM      4  C   UNL     1      24.032  37.532  88.127  1.00  0.00     0.016 C 
BRANCH   3   5
ATOM      5  C   UNL     1      23.007  35.286  88.728  1.00  0.00     0.015 C 
BRANCH   5   6
ATOM      6  C   UNL     1      22.520  33.923  88.202  1.00  0.00     0.028 C 
BRANCH   6   7
ATOM      7  C   UNL     1      21.073  33.652  88.526  1.00  0.00    -0.028 C 
ATOM      8  C   UNL     1      20.014  33.891  87.710  1.00  0.00    -0.070 CG0
ATOM      9  C   UNL     1      18.637  33.649  88.277  1.00  0.00     0.039 C 
ATOM     10  G   UNL     1      20.134  34.323  86.250  1.00  0.00     0.000 G0
ENDBRANCH   6   7
ENDBRANCH   5   6
ENDBRANCH   3   5
ENDBRANCH   1   3
BRANCH   1  11
ATOM     11  C   UNL     1      22.327  36.849  85.727  1.00  0.00     0.087 C 
BRANCH  11  12
ATOM     12  C   UNL     1      21.001  36.826  86.539  1.00  0.00     0.066 C 
BRANCH  12  13
ATOM     13  C   UNL     1      19.978  35.821  86.017  1.00  0.00     0.140 C 
ATOM     14  O   UNL     1      19.081  36.227  85.289  1.00  0.00    -0.299 OA
BRANCH  13  15
ATOM     15  C   UNL     1      20.112  34.333  86.235  1.00  0.00     0.106 CG0
ATOM     16  G   UNL     1      20.015  33.899  87.695  1.00  0.00     0.000 G0
ENDBRANCH  13  15
ENDBRANCH  12  13
BRANCH  12  17
ATOM     17  C   UNL     1      20.357  38.239  86.731  1.00  0.00    -0.006 C 
ATOM     18  C   UNL     1      21.352  39.408  86.617  1.00  0.00     0.008 C 
ATOM     19  C   UNL     1      19.601  38.335  88.067  1.00  0.00     0.008 C 
ENDBRANCH  12  17
ENDBRANCH  11  12
ENDBRANCH   1  11
TORSDOF 1
ENDMDL
