MODEL 1
REMARK VINA RESULT:    -1.989      0.000      0.000
REMARK INTER + INTRA:          -2.950
REMARK INTER:                  -2.687
REMARK INTRA:                  -0.264
REMARK UNBOUND:                -0.264
REMARK SMILES C=C1C(=O)O[C@@H]2[C@@H]1CCC(C)=CCC[C@]1(C)O[C@H]21
REMARK SMILES IDX 6 1 7 2 2 3 1 4 3 5 4 6 5 7 8 8 9 9 10 10 11 11 12 12 18 14
REMARK SMILES IDX 15 15 17 16 16 17 14 18 13 19
REMARK H PARENT
REMARK Flexibility Score: 70.00
ROOT
ATOM      1  C   UNL     1     -45.137 -26.756  42.854  1.00  0.00     0.216 C 
ATOM      2  C   UNL     1     -45.724 -26.826  44.322  1.00  0.00     0.070 C 
ATOM      3  C   UNL     1     -45.874 -28.303  44.549  1.00  0.00     0.037 C 
ATOM      4  C   UNL     1     -46.512 -28.880  45.568  1.00  0.00     0.021 C 
ATOM      5  C   UNL     1     -45.212 -28.990  43.475  1.00  0.00     0.334 C 
ATOM      6  O   UNL     1     -45.065 -30.237  43.379  1.00  0.00    -0.247 OA
ATOM      7  O   UNL     1     -44.741 -28.093  42.546  1.00  0.00    -0.455 OA
ENDROOT
BRANCH   2   8
ATOM      8  C   UNL     1     -44.800 -26.243  45.430  1.00  0.00     0.017 C 
BRANCH   8   9
ATOM      9  C   UNL     1     -44.958 -24.754  45.813  1.00  0.00     0.031 C 
BRANCH   9  10
ATOM     10  C   UNL     1     -43.982 -23.769  45.174  1.00  0.00    -0.077 C 
ATOM     11  C   UNL     1     -42.745 -23.399  45.963  1.00  0.00     0.039 C 
ATOM     12  C   UNL     1     -44.040 -23.317  43.894  1.00  0.00    -0.028 CG0
ATOM     13  G   UNL     1     -45.237 -23.285  42.978  1.00  0.00     0.000 G0
ENDBRANCH   9  10
ENDBRANCH   8   9
ENDBRANCH   2   8
BRANCH   1  14
ATOM     14  C   UNL     1     -46.128 -26.308  41.741  1.00  0.00     0.192 C 
ATOM     15  C   UNL     1     -46.053 -24.941  41.128  1.00  0.00     0.096 C 
ATOM     16  O   UNL     1     -46.996 -25.265  42.129  1.00  0.00    -0.362 OA
ATOM     17  C   UNL     1     -46.723 -24.750  39.768  1.00  0.00     0.045 C 
BRANCH  15  18
ATOM     18  C   UNL     1     -44.979 -23.913  41.563  1.00  0.00     0.042 C 
BRANCH  18  19
ATOM     19  C   UNL     1     -45.226 -23.285  42.951  1.00  0.00     0.030 CG0
ATOM     20  G   UNL     1     -44.059 -23.324  43.907  1.00  0.00     0.000 G0
ENDBRANCH  18  19
ENDBRANCH  15  18
ENDBRANCH   1  14
TORSDOF 0
ENDMDL
MODEL 2
REMARK VINA RESULT:    -1.968     14.098     16.291
REMARK INTER + INTRA:          -2.923
REMARK INTER:                  -2.662
REMARK INTRA:                  -0.261
REMARK UNBOUND:                -0.264
REMARK SMILES C=C1C(=O)O[C@@H]2[C@@H]1CCC(C)=CCC[C@]1(C)O[C@H]21
REMARK SMILES IDX 6 1 7 2 2 3 1 4 3 5 4 6 5 7 8 8 9 9 10 10 11 11 12 12 18 14
REMARK SMILES IDX 15 15 17 16 16 17 14 18 13 19
REMARK H PARENT
REMARK Flexibility Score: 70.00
ROOT
ATOM      1  C   UNL     1     -30.022 -24.995  45.326  1.00  0.00     0.216 C 
ATOM      2  C   UNL     1     -28.779 -25.965  45.187  1.00  0.00     0.070 C 
ATOM      3  C   UNL     1     -28.222 -25.598  43.841  1.00  0.00     0.037 C 
ATOM      4  C   UNL     1     -27.281 -26.265  43.172  1.00  0.00     0.021 C 
ATOM      5  C   UNL     1     -28.882 -24.402  43.395  1.00  0.00     0.334 C 
ATOM      6  O   UNL     1     -28.612 -23.760  42.346  1.00  0.00    -0.247 OA
ATOM      7  O   UNL     1     -29.864 -24.033  44.284  1.00  0.00    -0.455 OA
ENDROOT
BRANCH   2   8
ATOM      8  C   UNL     1     -27.666 -25.771  46.256  1.00  0.00     0.017 C 
BRANCH   8   9
ATOM      9  C   UNL     1     -27.629 -26.735  47.464  1.00  0.00     0.031 C 
BRANCH   9  10
ATOM     10  C   UNL     1     -28.253 -26.236  48.766  1.00  0.00    -0.077 C 
ATOM     11  C   UNL     1     -27.318 -25.708  49.831  1.00  0.00     0.039 C 
ATOM     12  C   UNL     1     -29.583 -26.072  48.992  1.00  0.00    -0.028 CG0
ATOM     13  G   UNL     1     -30.732 -26.726  48.268  1.00  0.00     0.000 G0
ENDBRANCH   9  10
ENDBRANCH   8   9
ENDBRANCH   2   8
BRANCH   1  14
ATOM     14  C   UNL     1     -31.422 -25.644  45.138  1.00  0.00     0.192 C 
ATOM     15  C   UNL     1     -32.282 -26.011  46.312  1.00  0.00     0.096 C 
ATOM     16  O   UNL     1     -31.512 -26.969  45.616  1.00  0.00    -0.362 OA
ATOM     17  C   UNL     1     -33.776 -26.195  46.050  1.00  0.00     0.045 C 
BRANCH  15  18
ATOM     18  C   UNL     1     -31.823 -25.749  47.768  1.00  0.00     0.042 C 
BRANCH  18  19
ATOM     19  C   UNL     1     -30.738 -26.721  48.277  1.00  0.00     0.030 CG0
ATOM     20  G   UNL     1     -29.569 -26.087  48.989  1.00  0.00     0.000 G0
ENDBRANCH  18  19
ENDBRANCH  15  18
ENDBRANCH   1  14
TORSDOF 0
ENDMDL
MODEL 3
REMARK VINA RESULT:    -1.835      2.325      4.759
REMARK INTER + INTRA:          -2.743
REMARK INTER:                  -2.506
REMARK INTRA:                  -0.237
REMARK UNBOUND:                -0.264
REMARK SMILES C=C1C(=O)O[C@@H]2[C@@H]1CCC(C)=CCC[C@]1(C)O[C@H]21
REMARK SMILES IDX 6 1 7 2 2 3 1 4 3 5 4 6 5 7 8 8 9 9 10 10 11 11 12 12 18 14
REMARK SMILES IDX 15 15 17 16 16 17 14 18 13 19
REMARK H PARENT
REMARK Flexibility Score: 70.00
ROOT
ATOM      1  C   UNL     1     -43.927 -26.160  44.454  1.00  0.00     0.216 C 
ATOM      2  C   UNL     1     -44.661 -24.780  44.701  1.00  0.00     0.070 C 
ATOM      3  C   UNL     1     -43.784 -24.118  45.725  1.00  0.00     0.037 C 
ATOM      4  C   UNL     1     -44.074 -23.011  46.409  1.00  0.00     0.021 C 
ATOM      5  C   UNL     1     -42.575 -24.886  45.843  1.00  0.00     0.334 C 
ATOM      6  O   UNL     1     -41.577 -24.584  46.548  1.00  0.00    -0.247 OA
ATOM      7  O   UNL     1     -42.644 -26.017  45.064  1.00  0.00    -0.455 OA
ENDROOT
BRANCH   2   8
ATOM      8  C   UNL     1     -44.759 -23.853  43.456  1.00  0.00     0.017 C 
BRANCH   8   9
ATOM      9  C   UNL     1     -46.024 -23.939  42.572  1.00  0.00     0.031 C 
BRANCH   9  10
ATOM     10  C   UNL     1     -45.926 -24.784  41.304  1.00  0.00    -0.077 C 
ATOM     11  C   UNL     1     -45.629 -24.065  40.006  1.00  0.00     0.039 C 
ATOM     12  C   UNL     1     -45.919 -26.142  41.258  1.00  0.00    -0.028 CG0
ATOM     13  G   UNL     1     -46.441 -27.105  42.295  1.00  0.00     0.000 G0
ENDBRANCH   9  10
ENDBRANCH   8   9
ENDBRANCH   2   8
BRANCH   1  14
ATOM     14  C   UNL     1     -44.594 -27.414  45.088  1.00  0.00     0.192 C 
ATOM     15  C   UNL     1     -45.347 -28.409  44.255  1.00  0.00     0.096 C 
ATOM     16  O   UNL     1     -46.003 -27.415  45.015  1.00  0.00    -0.362 OA
ATOM     17  C   UNL     1     -45.557 -29.800  44.851  1.00  0.00     0.045 C 
BRANCH  15  18
ATOM     18  C   UNL     1     -45.487 -28.243  42.721  1.00  0.00     0.042 C 
BRANCH  18  19
ATOM     19  C   UNL     1     -46.451 -27.119  42.288  1.00  0.00     0.030 CG0
ATOM     20  G   UNL     1     -45.915 -26.153  41.260  1.00  0.00     0.000 G0
ENDBRANCH  18  19
ENDBRANCH  15  18
ENDBRANCH   1  14
TORSDOF 0
ENDMDL
MODEL 4
REMARK VINA RESULT:    -1.798      3.067      4.988
REMARK INTER + INTRA:          -2.693
REMARK INTER:                  -2.414
REMARK INTRA:                  -0.278
REMARK UNBOUND:                -0.264
REMARK SMILES C=C1C(=O)O[C@@H]2[C@@H]1CCC(C)=CCC[C@]1(C)O[C@H]21
REMARK SMILES IDX 6 1 7 2 2 3 1 4 3 5 4 6 5 7 8 8 9 9 10 10 11 11 12 12 18 14
REMARK SMILES IDX 15 15 17 16 16 17 14 18 13 19
REMARK H PARENT
REMARK Flexibility Score: 70.00
ROOT
ATOM      1  C   UNL     1     -43.697 -26.163  46.731  1.00  0.00     0.216 C 
ATOM      2  C   UNL     1     -44.519 -24.822  46.553  1.00  0.00     0.070 C 
ATOM      3  C   UNL     1     -44.536 -24.257  47.945  1.00  0.00     0.037 C 
ATOM      4  C   UNL     1     -45.273 -23.228  48.365  1.00  0.00     0.021 C 
ATOM      5  C   UNL     1     -43.622 -25.020  48.748  1.00  0.00     0.334 C 
ATOM      6  O   UNL     1     -43.319 -24.780  49.947  1.00  0.00    -0.247 OA
ATOM      7  O   UNL     1     -43.102 -26.068  48.025  1.00  0.00    -0.455 OA
ENDROOT
BRANCH   2   8
ATOM      8  C   UNL     1     -43.877 -23.776  45.599  1.00  0.00     0.017 C 
BRANCH   8   9
ATOM      9  C   UNL     1     -44.412 -23.671  44.152  1.00  0.00     0.031 C 
BRANCH   9  10
ATOM     10  C   UNL     1     -43.615 -24.391  43.066  1.00  0.00    -0.077 C 
ATOM     11  C   UNL     1     -42.688 -23.557  42.209  1.00  0.00     0.039 C 
ATOM     12  C   UNL     1     -43.539 -25.738  42.905  1.00  0.00    -0.028 CG0
ATOM     13  G   UNL     1     -44.506 -26.786  43.398  1.00  0.00     0.000 G0
ENDBRANCH   9  10
ENDBRANCH   8   9
ENDBRANCH   2   8
BRANCH   1  14
ATOM     14  C   UNL     1     -44.522 -27.481  46.706  1.00  0.00     0.192 C 
ATOM     15  C   UNL     1     -44.593 -28.339  45.477  1.00  0.00     0.096 C 
ATOM     16  O   UNL     1     -45.631 -27.449  45.833  1.00  0.00    -0.362 OA
ATOM     17  C   UNL     1     -45.013 -29.796  45.669  1.00  0.00     0.045 C 
BRANCH  15  18
ATOM     18  C   UNL     1     -43.838 -27.963  44.179  1.00  0.00     0.042 C 
BRANCH  18  19
ATOM     19  C   UNL     1     -44.479 -26.805  43.384  1.00  0.00     0.030 CG0
ATOM     20  G   UNL     1     -43.531 -25.741  42.893  1.00  0.00     0.000 G0
ENDBRANCH  18  19
ENDBRANCH  15  18
ENDBRANCH   1  14
TORSDOF 0
ENDMDL
MODEL 5
REMARK VINA RESULT:    -1.772      2.406      4.396
REMARK INTER + INTRA:          -2.657
REMARK INTER:                  -2.546
REMARK INTRA:                  -0.111
REMARK UNBOUND:                -0.264
REMARK SMILES C=C1C(=O)O[C@@H]2[C@@H]1CCC(C)=CCC[C@]1(C)O[C@H]21
REMARK SMILES IDX 6 1 7 2 2 3 1 4 3 5 4 6 5 7 8 8 9 9 10 10 11 11 12 12 18 14
REMARK SMILES IDX 15 15 17 16 16 17 14 18 13 19
REMARK H PARENT
REMARK Flexibility Score: 70.00
ROOT
ATOM      1  C   UNL     1     -44.287 -26.164  46.286  1.00  0.00     0.216 C 
ATOM      2  C   UNL     1     -43.561 -26.483  44.916  1.00  0.00     0.070 C 
ATOM      3  C   UNL     1     -43.195 -27.932  45.066  1.00  0.00     0.037 C 
ATOM      4  C   UNL     1     -42.392 -28.627  44.258  1.00  0.00     0.021 C 
ATOM      5  C   UNL     1     -43.857 -28.442  46.234  1.00  0.00     0.334 C 
ATOM      6  O   UNL     1     -43.845 -29.640  46.623  1.00  0.00    -0.247 OA
ATOM      7  O   UNL     1     -44.529 -27.435  46.887  1.00  0.00    -0.455 OA
ENDROOT
BRANCH   2   8
ATOM      8  C   UNL     1     -44.446 -26.322  43.647  1.00  0.00     0.017 C 
BRANCH   8   9
ATOM      9  C   UNL     1     -45.633 -25.334  43.698  1.00  0.00     0.031 C 
BRANCH   9  10
ATOM     10  C   UNL     1     -45.402 -23.943  43.110  1.00  0.00    -0.077 C 
ATOM     11  C   UNL     1     -46.108 -23.605  41.815  1.00  0.00     0.039 C 
ATOM     12  C   UNL     1     -44.748 -22.924  43.727  1.00  0.00    -0.028 CG0
ATOM     13  G   UNL     1     -43.745 -23.014  44.850  1.00  0.00     0.000 G0
ENDBRANCH   9  10
ENDBRANCH   8   9
ENDBRANCH   2   8
BRANCH   1  14
ATOM     14  C   UNL     1     -43.474 -25.324  47.312  1.00  0.00     0.192 C 
ATOM     15  C   UNL     1     -43.500 -23.824  47.295  1.00  0.00     0.096 C 
ATOM     16  O   UNL     1     -42.433 -24.563  46.737  1.00  0.00    -0.362 OA
ATOM     17  C   UNL     1     -43.075 -23.105  48.575  1.00  0.00     0.045 C 
BRANCH  15  18
ATOM     18  C   UNL     1     -44.348 -23.038  46.264  1.00  0.00     0.042 C 
BRANCH  18  19
ATOM     19  C   UNL     1     -43.752 -23.009  44.841  1.00  0.00     0.030 CG0
ATOM     20  G   UNL     1     -44.749 -22.899  43.714  1.00  0.00     0.000 G0
ENDBRANCH  18  19
ENDBRANCH  15  18
ENDBRANCH   1  14
TORSDOF 0
ENDMDL
MODEL 6
REMARK VINA RESULT:    -1.695     14.532     15.860
REMARK INTER + INTRA:          -2.553
REMARK INTER:                  -2.334
REMARK INTRA:                  -0.219
REMARK UNBOUND:                -0.264
REMARK SMILES C=C1C(=O)O[C@@H]2[C@@H]1CCC(C)=CCC[C@]1(C)O[C@H]21
REMARK SMILES IDX 6 1 7 2 2 3 1 4 3 5 4 6 5 7 8 8 9 9 10 10 11 11 12 12 18 14
REMARK SMILES IDX 15 15 17 16 16 17 14 18 13 19
REMARK H PARENT
REMARK Flexibility Score: 70.00
ROOT
ATOM      1  C   UNL     1     -43.448 -41.235  45.971  1.00  0.00     0.216 C 
ATOM      2  C   UNL     1     -43.215 -40.533  44.572  1.00  0.00     0.070 C 
ATOM      3  C   UNL     1     -41.717 -40.470  44.478  1.00  0.00     0.037 C 
ATOM      4  C   UNL     1     -41.014 -39.791  43.571  1.00  0.00     0.021 C 
ATOM      5  C   UNL     1     -41.169 -41.269  45.539  1.00  0.00     0.334 C 
ATOM      6  O   UNL     1     -39.947 -41.513  45.721  1.00  0.00    -0.247 OA
ATOM      7  O   UNL     1     -42.171 -41.752  46.348  1.00  0.00    -0.455 OA
ENDROOT
BRANCH   2   8
ATOM      8  C   UNL     1     -43.758 -41.314  43.342  1.00  0.00     0.017 C 
BRANCH   8   9
ATOM      9  C   UNL     1     -45.023 -42.185  43.523  1.00  0.00     0.031 C 
BRANCH   9  10
ATOM     10  C   UNL     1     -46.358 -41.555  43.130  1.00  0.00    -0.077 C 
ATOM     11  C   UNL     1     -47.003 -42.028  41.846  1.00  0.00     0.039 C 
ATOM     12  C   UNL     1     -47.101 -40.727  43.910  1.00  0.00    -0.028 CG0
ATOM     13  G   UNL     1     -46.635 -39.890  45.076  1.00  0.00     0.000 G0
ENDBRANCH   9  10
ENDBRANCH   8   9
ENDBRANCH   2   8
BRANCH   1  14
ATOM     14  C   UNL     1     -43.924 -40.313  47.130  1.00  0.00     0.192 C 
ATOM     15  C   UNL     1     -45.378 -40.012  47.345  1.00  0.00     0.096 C 
ATOM     16  O   UNL     1     -44.511 -39.104  46.699  1.00  0.00    -0.362 OA
ATOM     17  C   UNL     1     -45.787 -39.508  48.729  1.00  0.00     0.045 C 
BRANCH  15  18
ATOM     18  C   UNL     1     -46.476 -40.614  46.434  1.00  0.00     0.042 C 
BRANCH  18  19
ATOM     19  C   UNL     1     -46.652 -39.886  45.085  1.00  0.00     0.030 CG0
ATOM     20  G   UNL     1     -47.099 -40.745  43.928  1.00  0.00     0.000 G0
ENDBRANCH  18  19
ENDBRANCH  15  18
ENDBRANCH   1  14
TORSDOF 0
ENDMDL
MODEL 7
REMARK VINA RESULT:    -1.631     14.256     16.582
REMARK INTER + INTRA:          -2.467
REMARK INTER:                  -2.673
REMARK INTRA:                   0.206
REMARK UNBOUND:                -0.264
REMARK SMILES C=C1C(=O)O[C@@H]2[C@@H]1CCC(C)=CCC[C@]1(C)O[C@H]21
REMARK SMILES IDX 6 1 7 2 2 3 1 4 3 5 4 6 5 7 8 8 9 9 10 10 11 11 12 12 18 14
REMARK SMILES IDX 15 15 17 16 16 17 14 18 13 19
REMARK H PARENT
REMARK Flexibility Score: 70.00
ROOT
ATOM      1  C   UNL     1     -28.798 -26.400  44.699  1.00  0.00     0.216 C 
ATOM      2  C   UNL     1     -28.869 -24.863  44.324  1.00  0.00     0.070 C 
ATOM      3  C   UNL     1     -28.197 -24.819  42.981  1.00  0.00     0.037 C 
ATOM      4  C   UNL     1     -27.829 -23.720  42.323  1.00  0.00     0.021 C 
ATOM      5  C   UNL     1     -28.016 -26.170  42.527  1.00  0.00     0.334 C 
ATOM      6  O   UNL     1     -27.559 -26.515  41.406  1.00  0.00    -0.247 OA
ATOM      7  O   UNL     1     -28.422 -27.063  43.492  1.00  0.00    -0.455 OA
ENDROOT
BRANCH   2   8
ATOM      8  C   UNL     1     -30.304 -24.283  44.182  1.00  0.00     0.017 C 
BRANCH   8   9
ATOM      9  C   UNL     1     -31.503 -25.185  44.556  1.00  0.00     0.031 C 
BRANCH   9  10
ATOM     10  C   UNL     1     -32.091 -25.009  45.955  1.00  0.00    -0.077 C 
ATOM     11  C   UNL     1     -33.203 -23.998  46.125  1.00  0.00     0.039 C 
ATOM     12  C   UNL     1     -31.817 -25.794  47.030  1.00  0.00    -0.028 CG0
ATOM     13  G   UNL     1     -30.611 -26.673  47.251  1.00  0.00     0.000 G0
ENDBRANCH   9  10
ENDBRANCH   8   9
ENDBRANCH   2   8
BRANCH   1  14
ATOM     14  C   UNL     1     -27.752 -26.794  45.780  1.00  0.00     0.192 C 
ATOM     15  C   UNL     1     -28.008 -26.569  47.241  1.00  0.00     0.096 C 
ATOM     16  O   UNL     1     -27.202 -25.697  46.476  1.00  0.00    -0.362 OA
ATOM     17  C   UNL     1     -27.173 -27.384  48.228  1.00  0.00     0.045 C 
BRANCH  15  18
ATOM     18  C   UNL     1     -29.333 -25.945  47.746  1.00  0.00     0.042 C 
BRANCH  18  19
ATOM     19  C   UNL     1     -30.604 -26.673  47.261  1.00  0.00     0.030 CG0
ATOM     20  G   UNL     1     -31.814 -25.802  47.033  1.00  0.00     0.000 G0
ENDBRANCH  18  19
ENDBRANCH  15  18
ENDBRANCH   1  14
TORSDOF 0
ENDMDL
MODEL 8
REMARK VINA RESULT:    -1.628     13.905     15.678
REMARK INTER + INTRA:          -2.462
REMARK INTER:                  -2.195
REMARK INTRA:                  -0.267
REMARK UNBOUND:                -0.264
REMARK SMILES C=C1C(=O)O[C@@H]2[C@@H]1CCC(C)=CCC[C@]1(C)O[C@H]21
REMARK SMILES IDX 6 1 7 2 2 3 1 4 3 5 4 6 5 7 8 8 9 9 10 10 11 11 12 12 18 14
REMARK SMILES IDX 15 15 17 16 16 17 14 18 13 19
REMARK H PARENT
REMARK Flexibility Score: 70.00
ROOT
ATOM      1  C   UNL     1     -31.006 -25.399  43.170  1.00  0.00     0.216 C 
ATOM      2  C   UNL     1     -30.864 -24.960  44.685  1.00  0.00     0.070 C 
ATOM      3  C   UNL     1     -32.291 -24.906  45.149  1.00  0.00     0.037 C 
ATOM      4  C   UNL     1     -32.722 -24.398  46.304  1.00  0.00     0.021 C 
ATOM      5  C   UNL     1     -33.115 -25.496  44.131  1.00  0.00     0.334 C 
ATOM      6  O   UNL     1     -34.356 -25.696  44.213  1.00  0.00    -0.247 OA
ATOM      7  O   UNL     1     -32.360 -25.831  43.032  1.00  0.00    -0.455 OA
ENDROOT
BRANCH   2   8
ATOM      8  C   UNL     1     -30.082 -25.954  45.589  1.00  0.00     0.017 C 
BRANCH   8   9
ATOM      9  C   UNL     1     -28.582 -25.690  45.851  1.00  0.00     0.031 C 
BRANCH   9  10
ATOM     10  C   UNL     1     -27.584 -26.472  44.999  1.00  0.00    -0.077 C 
ATOM     11  C   UNL     1     -26.956 -27.705  45.613  1.00  0.00     0.039 C 
ATOM     12  C   UNL     1     -27.329 -26.256  43.682  1.00  0.00    -0.028 CG0
ATOM     13  G   UNL     1     -27.576 -24.998  42.887  1.00  0.00     0.000 G0
ENDBRANCH   9  10
ENDBRANCH   8   9
ENDBRANCH   2   8
BRANCH   1  14
ATOM     14  C   UNL     1     -30.774 -24.286  42.110  1.00  0.00     0.192 C 
ATOM     15  C   UNL     1     -29.488 -24.189  41.342  1.00  0.00     0.096 C 
ATOM     16  O   UNL     1     -29.762 -23.364  42.455  1.00  0.00    -0.362 OA
ATOM     17  C   UNL     1     -29.515 -23.396  40.036  1.00  0.00     0.045 C 
BRANCH  15  18
ATOM     18  C   UNL     1     -28.335 -25.200  41.558  1.00  0.00     0.042 C 
BRANCH  18  19
ATOM     19  C   UNL     1     -27.555 -25.003  42.876  1.00  0.00     0.030 CG0
ATOM     20  G   UNL     1     -27.332 -26.246  43.700  1.00  0.00     0.000 G0
ENDBRANCH  18  19
ENDBRANCH  15  18
ENDBRANCH   1  14
TORSDOF 0
ENDMDL
MODEL 9
REMARK VINA RESULT:    -1.604     14.184     15.233
REMARK INTER + INTRA:          -2.430
REMARK INTER:                  -2.196
REMARK INTRA:                  -0.234
REMARK UNBOUND:                -0.264
REMARK SMILES C=C1C(=O)O[C@@H]2[C@@H]1CCC(C)=CCC[C@]1(C)O[C@H]21
REMARK SMILES IDX 6 1 7 2 2 3 1 4 3 5 4 6 5 7 8 8 9 9 10 10 11 11 12 12 18 14
REMARK SMILES IDX 15 15 17 16 16 17 14 18 13 19
REMARK H PARENT
REMARK Flexibility Score: 70.00
ROOT
ATOM      1  C   UNL     1     -43.354 -40.162  44.696  1.00  0.00     0.216 C 
ATOM      2  C   UNL     1     -43.184 -40.866  46.103  1.00  0.00     0.070 C 
ATOM      3  C   UNL     1     -41.711 -41.158  46.151  1.00  0.00     0.037 C 
ATOM      4  C   UNL     1     -41.091 -41.921  47.052  1.00  0.00     0.021 C 
ATOM      5  C   UNL     1     -41.084 -40.474  45.055  1.00  0.00     0.334 C 
ATOM      6  O   UNL     1     -39.846 -40.425  44.829  1.00  0.00    -0.247 OA
ATOM      7  O   UNL     1     -42.027 -39.856  44.267  1.00  0.00    -0.455 OA
ENDROOT
BRANCH   2   8
ATOM      8  C   UNL     1     -43.557 -39.987  47.330  1.00  0.00     0.017 C 
BRANCH   8   9
ATOM      9  C   UNL     1     -44.858 -40.311  48.100  1.00  0.00     0.031 C 
BRANCH   9  10
ATOM     10  C   UNL     1     -46.083 -39.457  47.778  1.00  0.00    -0.077 C 
ATOM     11  C   UNL     1     -46.500 -38.420  48.798  1.00  0.00     0.039 C 
ATOM     12  C   UNL     1     -46.737 -39.431  46.587  1.00  0.00    -0.028 CG0
ATOM     13  G   UNL     1     -46.738 -40.486  45.509  1.00  0.00     0.000 G0
ENDBRANCH   9  10
ENDBRANCH   8   9
ENDBRANCH   2   8
BRANCH   1  14
ATOM     14  C   UNL     1     -44.007 -41.019  43.575  1.00  0.00     0.192 C 
ATOM     15  C   UNL     1     -45.477 -40.945  43.286  1.00  0.00     0.096 C 
ATOM     16  O   UNL     1     -44.914 -41.992  44.049  1.00  0.00    -0.362 OA
ATOM     17  C   UNL     1     -45.944 -41.438  41.916  1.00  0.00     0.045 C 
BRANCH  15  18
ATOM     18  C   UNL     1     -46.415 -40.002  44.079  1.00  0.00     0.042 C 
BRANCH  18  19
ATOM     19  C   UNL     1     -46.752 -40.491  45.503  1.00  0.00     0.030 CG0
ATOM     20  G   UNL     1     -46.730 -39.438  46.583  1.00  0.00     0.000 G0
ENDBRANCH  18  19
ENDBRANCH  15  18
ENDBRANCH   1  14
TORSDOF 0
ENDMDL
