MODEL 1
REMARK VINA RESULT:    -4.162      0.000      0.000
REMARK INTER + INTRA:          -7.400
REMARK INTER:                  -6.353
REMARK INTRA:                  -1.047
REMARK UNBOUND:                -1.047
REMARK SMILES OC[C@H]1O[C@H](O[C@]2(CO)O[C@H](CO)[C@@H](O)[C@@H]2O)[C@@H](O)[C@@H](O)[C@H]1O
REMARK SMILES IDX 6 1 5 2 3 3 22 4 4 5 20 6 18 7 2 8 1 9 23 11 21 13 19 15
REMARK SMILES IDX 7 17 16 18 10 19 14 20 11 21 8 22 9 23 17 25 15 27 12 29
REMARK SMILES IDX 13 30
REMARK H PARENT 1 10 23 12 21 14 19 16 9 24 17 26 15 28 13 31
REMARK Flexibility Score: inf
ROOT
ATOM      1  O   UNL     1      -5.447   5.448 -22.819  1.00  0.00    -0.313 OA
ENDROOT
BRANCH   1   2
ATOM      2  C   UNL     1      -5.511   4.051 -23.095  1.00  0.00     0.285 C 
ATOM      3  C   UNL     1      -3.200   3.786 -22.723  1.00  0.00     0.178 C 
ATOM      4  C   UNL     1      -3.396   2.960 -21.431  1.00  0.00     0.177 C 
ATOM      5  O   UNL     1      -4.279   3.573 -23.622  1.00  0.00    -0.341 OA
ATOM      6  C   UNL     1      -4.739   3.363 -20.787  1.00  0.00     0.179 C 
ATOM      7  C   UNL     1      -5.893   3.284 -21.809  1.00  0.00     0.202 C 
BRANCH   3   8
ATOM      8  C   UNL     1      -1.891   3.419 -23.439  1.00  0.00     0.191 C 
BRANCH   8   9
ATOM      9  O   UNL     1      -1.085   2.602 -22.633  1.00  0.00    -0.394 OA
ATOM     10  H   UNL     1      -0.493   2.093 -23.246  1.00  0.00     0.210 HD
ENDBRANCH   8   9
ENDBRANCH   3   8
BRANCH   4  11
ATOM     11  O   UNL     1      -3.383   1.588 -21.738  1.00  0.00    -0.387 OA
ATOM     12  H   UNL     1      -3.301   1.098 -20.879  1.00  0.00     0.211 HD
ENDBRANCH   4  11
BRANCH   6  13
ATOM     13  O   UNL     1      -5.010   2.614 -19.627  1.00  0.00    -0.387 OA
ATOM     14  H   UNL     1      -4.222   2.666 -19.028  1.00  0.00     0.211 HD
ENDBRANCH   6  13
BRANCH   7  15
ATOM     15  O   UNL     1      -6.176   1.944 -22.122  1.00  0.00    -0.385 OA
ATOM     16  H   UNL     1      -5.472   1.393 -21.693  1.00  0.00     0.211 HD
ENDBRANCH   7  15
ENDBRANCH   1   2
BRANCH   1  17
ATOM     17  C   UNL     1      -5.921   6.290 -23.869  1.00  0.00     0.224 C 
ATOM     18  C   UNL     1      -6.606   7.567 -23.321  1.00  0.00     0.208 C 
ATOM     19  O   UNL     1      -4.777   6.722 -24.576  1.00  0.00    -0.337 OA
ATOM     20  C   UNL     1      -6.164   8.662 -24.274  1.00  0.00     0.180 C 
ATOM     21  C   UNL     1      -5.007   8.029 -25.058  1.00  0.00     0.179 C 
BRANCH  17  22
ATOM     22  C   UNL     1      -6.801   5.501 -24.886  1.00  0.00     0.225 C 
BRANCH  22  23
ATOM     23  O   UNL     1      -8.125   5.963 -24.906  1.00  0.00    -0.391 OA
ATOM     24  H   UNL     1      -8.144   6.717 -25.553  1.00  0.00     0.210 HD
ENDBRANCH  22  23
ENDBRANCH  17  22
BRANCH  18  25
ATOM     25  O   UNL     1      -6.130   7.853 -22.027  1.00  0.00    -0.385 OA
ATOM     26  H   UNL     1      -6.765   7.434 -21.390  1.00  0.00     0.211 HD
ENDBRANCH  18  25
BRANCH  20  27
ATOM     27  O   UNL     1      -7.209   9.073 -25.125  1.00  0.00    -0.387 OA
ATOM     28  H   UNL     1      -6.963   9.948 -25.523  1.00  0.00     0.211 HD
ENDBRANCH  20  27
BRANCH  21  29
ATOM     29  C   UNL     1      -3.714   8.845 -24.950  1.00  0.00     0.191 C 
BRANCH  29  30
ATOM     30  O   UNL     1      -2.855   8.272 -24.003  1.00  0.00    -0.394 OA
ATOM     31  H   UNL     1      -2.879   8.873 -23.212  1.00  0.00     0.210 HD
ENDBRANCH  29  30
ENDBRANCH  21  29
ENDBRANCH   1  17
TORSDOF 13
ENDMDL
MODEL 2
REMARK VINA RESULT:    -2.848      2.322      4.941
REMARK INTER + INTRA:          -5.394
REMARK INTER:                  -4.896
REMARK INTRA:                  -0.498
REMARK UNBOUND:                -1.047
REMARK SMILES OC[C@H]1O[C@H](O[C@]2(CO)O[C@H](CO)[C@@H](O)[C@@H]2O)[C@@H](O)[C@@H](O)[C@H]1O
REMARK SMILES IDX 6 1 5 2 3 3 22 4 4 5 20 6 18 7 2 8 1 9 23 11 21 13 19 15
REMARK SMILES IDX 7 17 16 18 10 19 14 20 11 21 8 22 9 23 17 25 15 27 12 29
REMARK SMILES IDX 13 30
REMARK H PARENT 1 10 23 12 21 14 19 16 9 24 17 26 15 28 13 31
REMARK Flexibility Score: inf
ROOT
ATOM      1  O   UNL     1      -3.831   3.272 -23.314  1.00  0.00    -0.313 OA
ENDROOT
BRANCH   1   2
ATOM      2  C   UNL     1      -2.557   3.599 -22.765  1.00  0.00     0.285 C 
ATOM      3  C   UNL     1      -1.427   2.611 -24.581  1.00  0.00     0.178 C 
ATOM      4  C   UNL     1      -0.904   3.959 -25.125  1.00  0.00     0.177 C 
ATOM      5  O   UNL     1      -1.566   2.661 -23.168  1.00  0.00    -0.341 OA
ATOM      6  C   UNL     1      -1.884   5.075 -24.706  1.00  0.00     0.179 C 
ATOM      7  C   UNL     1      -2.161   5.031 -23.188  1.00  0.00     0.202 C 
BRANCH   3   8
ATOM      8  C   UNL     1      -0.484   1.450 -24.936  1.00  0.00     0.191 C 
BRANCH   8   9
ATOM      9  O   UNL     1       0.428   1.203 -23.900  1.00  0.00    -0.394 OA
ATOM     10  H   UNL     1      -0.083   1.260 -23.051  1.00  0.00     0.210 HD
ENDBRANCH   8   9
ENDBRANCH   3   8
BRANCH   4  11
ATOM     11  O   UNL     1       0.383   4.211 -24.615  1.00  0.00    -0.387 OA
ATOM     12  H   UNL     1       1.015   4.153 -25.377  1.00  0.00     0.211 HD
ENDBRANCH   4  11
BRANCH   6  13
ATOM     13  O   UNL     1      -1.445   6.344 -25.125  1.00  0.00    -0.387 OA
ATOM     14  H   UNL     1      -1.086   6.263 -26.046  1.00  0.00     0.211 HD
ENDBRANCH   6  13
BRANCH   7  15
ATOM     15  O   UNL     1      -1.023   5.439 -22.472  1.00  0.00    -0.385 OA
ATOM     16  H   UNL     1      -0.338   5.698 -23.143  1.00  0.00     0.211 HD
ENDBRANCH   7  15
ENDBRANCH   1   2
BRANCH   1  17
ATOM     17  C   UNL     1      -4.946   3.627 -22.498  1.00  0.00     0.224 C 
ATOM     18  C   UNL     1      -5.609   4.946 -22.965  1.00  0.00     0.208 C 
ATOM     19  O   UNL     1      -5.909   2.609 -22.679  1.00  0.00    -0.337 OA
ATOM     20  C   UNL     1      -7.095   4.697 -22.788  1.00  0.00     0.180 C 
ATOM     21  C   UNL     1      -7.197   3.180 -22.585  1.00  0.00     0.179 C 
BRANCH  17  22
ATOM     22  C   UNL     1      -4.575   3.621 -20.983  1.00  0.00     0.225 C 
BRANCH  22  23
ATOM     23  O   UNL     1      -4.062   2.383 -20.571  1.00  0.00    -0.391 OA
ATOM     24  H   UNL     1      -3.581   2.010 -21.356  1.00  0.00     0.210 HD
ENDBRANCH  22  23
ENDBRANCH  17  22
BRANCH  18  25
ATOM     25  O   UNL     1      -5.331   5.169 -24.328  1.00  0.00    -0.385 OA
ATOM     26  H   UNL     1      -4.485   4.691 -24.528  1.00  0.00     0.211 HD
ENDBRANCH  18  25
BRANCH  20  27
ATOM     27  O   UNL     1      -7.622   5.408 -21.692  1.00  0.00    -0.387 OA
ATOM     28  H   UNL     1      -8.426   5.902 -21.997  1.00  0.00     0.211 HD
ENDBRANCH  20  27
BRANCH  21  29
ATOM     29  C   UNL     1      -8.124   2.514 -23.609  1.00  0.00     0.191 C 
BRANCH  29  30
ATOM     30  O   UNL     1      -7.405   2.163 -24.759  1.00  0.00    -0.394 OA
ATOM     31  H   UNL     1      -7.614   1.208 -24.931  1.00  0.00     0.210 HD
ENDBRANCH  29  30
ENDBRANCH  21  29
ENDBRANCH   1  17
TORSDOF 13
ENDMDL
MODEL 3
REMARK VINA RESULT:    -2.463      2.185      3.097
REMARK INTER + INTRA:          -4.805
REMARK INTER:                  -3.902
REMARK INTRA:                  -0.904
REMARK UNBOUND:                -1.047
REMARK SMILES OC[C@H]1O[C@H](O[C@]2(CO)O[C@H](CO)[C@@H](O)[C@@H]2O)[C@@H](O)[C@@H](O)[C@H]1O
REMARK SMILES IDX 6 1 5 2 3 3 22 4 4 5 20 6 18 7 2 8 1 9 23 11 21 13 19 15
REMARK SMILES IDX 7 17 16 18 10 19 14 20 11 21 8 22 9 23 17 25 15 27 12 29
REMARK SMILES IDX 13 30
REMARK H PARENT 1 10 23 12 21 14 19 16 9 24 17 26 15 28 13 31
REMARK Flexibility Score: inf
ROOT
ATOM      1  O   UNL     1      -4.470   5.977 -23.691  1.00  0.00    -0.313 OA
ENDROOT
BRANCH   1   2
ATOM      2  C   UNL     1      -3.683   5.308 -24.674  1.00  0.00     0.285 C 
ATOM      3  C   UNL     1      -1.749   6.505 -24.062  1.00  0.00     0.178 C 
ATOM      4  C   UNL     1      -1.040   5.265 -23.472  1.00  0.00     0.177 C 
ATOM      5  O   UNL     1      -2.613   6.130 -25.125  1.00  0.00    -0.341 OA
ATOM      6  C   UNL     1      -2.113   4.268 -22.986  1.00  0.00     0.179 C 
ATOM      7  C   UNL     1      -3.149   3.980 -24.094  1.00  0.00     0.202 C 
BRANCH   3   8
ATOM      8  C   UNL     1      -0.742   7.536 -24.595  1.00  0.00     0.191 C 
BRANCH   8   9
ATOM      9  O   UNL     1      -1.381   8.733 -24.950  1.00  0.00    -0.394 OA
ATOM     10  H   UNL     1      -1.206   8.872 -25.917  1.00  0.00     0.210 HD
ENDBRANCH   8   9
ENDBRANCH   3   8
BRANCH   4  11
ATOM     11  O   UNL     1      -0.221   4.675 -24.452  1.00  0.00    -0.387 OA
ATOM     12  H   UNL     1      -0.820   4.215 -25.094  1.00  0.00     0.211 HD
ENDBRANCH   4  11
BRANCH   6  13
ATOM     13  O   UNL     1      -1.540   3.087 -22.480  1.00  0.00    -0.387 OA
ATOM     14  H   UNL     1      -1.339   2.484 -23.241  1.00  0.00     0.211 HD
ENDBRANCH   6  13
BRANCH   7  15
ATOM     15  O   UNL     1      -2.566   3.215 -25.119  1.00  0.00    -0.385 OA
ATOM     16  H   UNL     1      -3.303   2.721 -25.563  1.00  0.00     0.211 HD
ENDBRANCH   7  15
ENDBRANCH   1   2
BRANCH   1  17
ATOM     17  C   UNL     1      -5.592   6.695 -24.206  1.00  0.00     0.224 C 
ATOM     18  C   UNL     1      -6.357   7.449 -23.091  1.00  0.00     0.208 C 
ATOM     19  O   UNL     1      -5.067   7.682 -25.071  1.00  0.00    -0.337 OA
ATOM     20  C   UNL     1      -6.747   8.766 -23.736  1.00  0.00     0.180 C 
ATOM     21  C   UNL     1      -5.895   8.824 -25.010  1.00  0.00     0.179 C 
BRANCH  17  22
ATOM     22  C   UNL     1      -6.507   5.781 -25.078  1.00  0.00     0.225 C 
BRANCH  22  23
ATOM     23  O   UNL     1      -7.867   6.074 -24.899  1.00  0.00    -0.391 OA
ATOM     24  H   UNL     1      -7.901   6.965 -24.462  1.00  0.00     0.210 HD
ENDBRANCH  22  23
ENDBRANCH  17  22
BRANCH  18  25
ATOM     25  O   UNL     1      -5.500   7.698 -22.002  1.00  0.00    -0.385 OA
ATOM     26  H   UNL     1      -5.680   6.990 -21.330  1.00  0.00     0.211 HD
ENDBRANCH  18  25
BRANCH  20  27
ATOM     27  O   UNL     1      -8.125   8.823 -24.025  1.00  0.00    -0.387 OA
ATOM     28  H   UNL     1      -8.612   8.305 -23.332  1.00  0.00     0.211 HD
ENDBRANCH  20  27
BRANCH  21  29
ATOM     29  C   UNL     1      -5.026  10.085 -25.074  1.00  0.00     0.191 C 
BRANCH  29  30
ATOM     30  O   UNL     1      -3.921   9.958 -24.221  1.00  0.00    -0.394 OA
ATOM     31  H   UNL     1      -3.443  10.827 -24.261  1.00  0.00     0.210 HD
ENDBRANCH  29  30
ENDBRANCH  21  29
ENDBRANCH   1  17
TORSDOF 13
ENDMDL
MODEL 4
REMARK VINA RESULT:    -1.974      2.294      4.674
REMARK INTER + INTRA:          -4.061
REMARK INTER:                  -3.454
REMARK INTRA:                  -0.607
REMARK UNBOUND:                -1.047
REMARK SMILES OC[C@H]1O[C@H](O[C@]2(CO)O[C@H](CO)[C@@H](O)[C@@H]2O)[C@@H](O)[C@@H](O)[C@H]1O
REMARK SMILES IDX 6 1 5 2 3 3 22 4 4 5 20 6 18 7 2 8 1 9 23 11 21 13 19 15
REMARK SMILES IDX 7 17 16 18 10 19 14 20 11 21 8 22 9 23 17 25 15 27 12 29
REMARK SMILES IDX 13 30
REMARK H PARENT 1 10 23 12 21 14 19 16 9 24 17 26 15 28 13 31
REMARK Flexibility Score: inf
ROOT
ATOM      1  O   UNL     1      -3.628   3.795 -22.517  1.00  0.00    -0.313 OA
ENDROOT
BRANCH   1   2
ATOM      2  C   UNL     1      -3.245   3.399 -23.831  1.00  0.00     0.285 C 
ATOM      3  C   UNL     1      -1.430   4.901 -23.846  1.00  0.00     0.178 C 
ATOM      4  C   UNL     1      -0.367   3.780 -23.813  1.00  0.00     0.177 C 
ATOM      5  O   UNL     1      -2.599   4.462 -24.522  1.00  0.00    -0.341 OA
ATOM      6  C   UNL     1      -0.974   2.543 -23.120  1.00  0.00     0.179 C 
ATOM      7  C   UNL     1      -2.329   2.159 -23.753  1.00  0.00     0.202 C 
BRANCH   3   8
ATOM      8  C   UNL     1      -0.905   6.162 -24.549  1.00  0.00     0.191 C 
BRANCH   8   9
ATOM      9  O   UNL     1      -1.565   7.311 -24.088  1.00  0.00    -0.394 OA
ATOM     10  H   UNL     1      -1.133   7.561 -23.230  1.00  0.00     0.210 HD
ENDBRANCH   8   9
ENDBRANCH   3   8
BRANCH   4  11
ATOM     11  O   UNL     1       0.035   3.468 -25.125  1.00  0.00    -0.387 OA
ATOM     12  H   UNL     1       0.341   4.313 -25.545  1.00  0.00     0.211 HD
ENDBRANCH   4  11
BRANCH   6  13
ATOM     13  O   UNL     1      -0.077   1.460 -23.098  1.00  0.00    -0.387 OA
ATOM     14  H   UNL     1       0.471   1.523 -22.274  1.00  0.00     0.211 HD
ENDBRANCH   6  13
BRANCH   7  15
ATOM     15  O   UNL     1      -2.133   1.632 -25.041  1.00  0.00    -0.385 OA
ATOM     16  H   UNL     1      -1.726   2.353 -25.589  1.00  0.00     0.211 HD
ENDBRANCH   7  15
ENDBRANCH   1   2
BRANCH   1  17
ATOM     17  C   UNL     1      -5.033   3.760 -22.264  1.00  0.00     0.224 C 
ATOM     18  C   UNL     1      -5.716   5.107 -22.608  1.00  0.00     0.208 C 
ATOM     19  O   UNL     1      -5.570   2.800 -23.150  1.00  0.00    -0.337 OA
ATOM     20  C   UNL     1      -7.039   4.702 -23.231  1.00  0.00     0.180 C 
ATOM     21  C   UNL     1      -6.870   3.205 -23.524  1.00  0.00     0.179 C 
BRANCH  17  22
ATOM     22  C   UNL     1      -5.344   3.257 -20.821  1.00  0.00     0.225 C 
BRANCH  22  23
ATOM     23  O   UNL     1      -4.176   2.962 -20.103  1.00  0.00    -0.391 OA
ATOM     24  H   UNL     1      -4.471   2.725 -19.184  1.00  0.00     0.210 HD
ENDBRANCH  22  23
ENDBRANCH  17  22
BRANCH  18  25
ATOM     25  O   UNL     1      -4.948   5.809 -23.556  1.00  0.00    -0.385 OA
ATOM     26  H   UNL     1      -4.053   5.951 -23.150  1.00  0.00     0.211 HD
ENDBRANCH  18  25
BRANCH  20  27
ATOM     27  O   UNL     1      -8.124   4.946 -22.368  1.00  0.00    -0.387 OA
ATOM     28  H   UNL     1      -7.769   5.288 -21.507  1.00  0.00     0.211 HD
ENDBRANCH  20  27
BRANCH  21  29
ATOM     29  C   UNL     1      -7.101   2.870 -25.002  1.00  0.00     0.191 C 
BRANCH  29  30
ATOM     30  O   UNL     1      -7.759   1.639 -25.125  1.00  0.00    -0.394 OA
ATOM     31  H   UNL     1      -7.389   1.212 -25.942  1.00  0.00     0.210 HD
ENDBRANCH  29  30
ENDBRANCH  21  29
ENDBRANCH   1  17
TORSDOF 13
ENDMDL
MODEL 5
REMARK VINA RESULT:    -1.788      1.466      2.658
REMARK INTER + INTRA:          -3.776
REMARK INTER:                  -3.812
REMARK INTRA:                   0.036
REMARK UNBOUND:                -1.047
REMARK SMILES OC[C@H]1O[C@H](O[C@]2(CO)O[C@H](CO)[C@@H](O)[C@@H]2O)[C@@H](O)[C@@H](O)[C@H]1O
REMARK SMILES IDX 6 1 5 2 3 3 22 4 4 5 20 6 18 7 2 8 1 9 23 11 21 13 19 15
REMARK SMILES IDX 7 17 16 18 10 19 14 20 11 21 8 22 9 23 17 25 15 27 12 29
REMARK SMILES IDX 13 30
REMARK H PARENT 1 10 23 12 21 14 19 16 9 24 17 26 15 28 13 31
REMARK Flexibility Score: inf
ROOT
ATOM      1  O   UNL     1      -5.664   4.284 -23.647  1.00  0.00    -0.313 OA
ENDROOT
BRANCH   1   2
ATOM      2  C   UNL     1      -4.518   4.721 -22.920  1.00  0.00     0.285 C 
ATOM      3  C   UNL     1      -4.311   2.642 -21.832  1.00  0.00     0.178 C 
ATOM      4  C   UNL     1      -3.001   2.271 -22.562  1.00  0.00     0.177 C 
ATOM      5  O   UNL     1      -4.414   4.049 -21.670  1.00  0.00    -0.341 OA
ATOM      6  C   UNL     1      -2.977   2.988 -23.929  1.00  0.00     0.179 C 
ATOM      7  C   UNL     1      -3.248   4.499 -23.771  1.00  0.00     0.202 C 
BRANCH   3   8
ATOM      8  C   UNL     1      -4.394   1.986 -20.445  1.00  0.00     0.191 C 
BRANCH   8   9
ATOM      9  O   UNL     1      -3.829   2.809 -19.460  1.00  0.00    -0.394 OA
ATOM     10  H   UNL     1      -3.833   3.732 -19.826  1.00  0.00     0.210 HD
ENDBRANCH   8   9
ENDBRANCH   3   8
BRANCH   4  11
ATOM     11  O   UNL     1      -1.896   2.656 -21.781  1.00  0.00    -0.387 OA
ATOM     12  H   UNL     1      -1.964   3.636 -21.642  1.00  0.00     0.211 HD
ENDBRANCH   4  11
BRANCH   6  13
ATOM     13  O   UNL     1      -1.785   2.736 -24.633  1.00  0.00    -0.387 OA
ATOM     14  H   UNL     1      -1.185   3.517 -24.521  1.00  0.00     0.211 HD
ENDBRANCH   6  13
BRANCH   7  15
ATOM     15  O   UNL     1      -2.151   5.129 -23.158  1.00  0.00    -0.385 OA
ATOM     16  H   UNL     1      -2.519   5.822 -22.551  1.00  0.00     0.211 HD
ENDBRANCH   7  15
ENDBRANCH   1   2
BRANCH   1  17
ATOM     17  C   UNL     1      -6.454   5.331 -24.210  1.00  0.00     0.224 C 
ATOM     18  C   UNL     1      -6.967   6.313 -23.128  1.00  0.00     0.208 C 
ATOM     19  O   UNL     1      -5.590   6.073 -25.047  1.00  0.00    -0.337 OA
ATOM     20  C   UNL     1      -6.862   7.677 -23.786  1.00  0.00     0.180 C 
ATOM     21  C   UNL     1      -5.985   7.428 -25.020  1.00  0.00     0.179 C 
BRANCH  17  22
ATOM     22  C   UNL     1      -7.585   4.769 -25.125  1.00  0.00     0.225 C 
BRANCH  22  23
ATOM     23  O   UNL     1      -8.003   3.493 -24.721  1.00  0.00    -0.391 OA
ATOM     24  H   UNL     1      -8.853   3.626 -24.225  1.00  0.00     0.210 HD
ENDBRANCH  22  23
ENDBRANCH  17  22
BRANCH  18  25
ATOM     25  O   UNL     1      -6.124   6.272 -22.001  1.00  0.00    -0.385 OA
ATOM     26  H   UNL     1      -6.341   5.435 -21.513  1.00  0.00     0.211 HD
ENDBRANCH  18  25
BRANCH  20  27
ATOM     27  O   UNL     1      -8.125   8.191 -24.137  1.00  0.00    -0.387 OA
ATOM     28  H   UNL     1      -8.820   7.552 -23.830  1.00  0.00     0.211 HD
ENDBRANCH  20  27
BRANCH  21  29
ATOM     29  C   UNL     1      -4.740   8.320 -25.041  1.00  0.00     0.191 C 
BRANCH  29  30
ATOM     30  O   UNL     1      -4.191   8.421 -23.756  1.00  0.00    -0.394 OA
ATOM     31  H   UNL     1      -3.821   7.524 -23.545  1.00  0.00     0.210 HD
ENDBRANCH  29  30
ENDBRANCH  21  29
ENDBRANCH   1  17
TORSDOF 13
ENDMDL
MODEL 6
REMARK VINA RESULT:    -1.724      1.693      5.819
REMARK INTER + INTRA:          -3.678
REMARK INTER:                  -3.237
REMARK INTRA:                  -0.441
REMARK UNBOUND:                -1.047
REMARK SMILES OC[C@H]1O[C@H](O[C@]2(CO)O[C@H](CO)[C@@H](O)[C@@H]2O)[C@@H](O)[C@@H](O)[C@H]1O
REMARK SMILES IDX 6 1 5 2 3 3 22 4 4 5 20 6 18 7 2 8 1 9 23 11 21 13 19 15
REMARK SMILES IDX 7 17 16 18 10 19 14 20 11 21 8 22 9 23 17 25 15 27 12 29
REMARK SMILES IDX 13 30
REMARK H PARENT 1 10 23 12 21 14 19 16 9 24 17 26 15 28 13 31
REMARK Flexibility Score: inf
ROOT
ATOM      1  O   UNL     1      -4.160   6.245 -23.572  1.00  0.00    -0.313 OA
ENDROOT
BRANCH   1   2
ATOM      2  C   UNL     1      -5.165   6.824 -24.400  1.00  0.00     0.285 C 
ATOM      3  C   UNL     1      -6.849   6.377 -22.815  1.00  0.00     0.178 C 
ATOM      4  C   UNL     1      -7.073   7.868 -22.477  1.00  0.00     0.177 C 
ATOM      5  O   UNL     1      -6.435   6.226 -24.165  1.00  0.00    -0.341 OA
ATOM      6  C   UNL     1      -5.762   8.637 -22.741  1.00  0.00     0.179 C 
ATOM      7  C   UNL     1      -5.223   8.349 -24.158  1.00  0.00     0.202 C 
BRANCH   3   8
ATOM      8  C   UNL     1      -8.125   5.548 -22.602  1.00  0.00     0.191 C 
BRANCH   8   9
ATOM      9  O   UNL     1      -7.930   4.212 -22.982  1.00  0.00    -0.394 OA
ATOM     10  H   UNL     1      -8.047   4.176 -23.967  1.00  0.00     0.210 HD
ENDBRANCH   8   9
ENDBRANCH   3   8
BRANCH   4  11
ATOM     11  O   UNL     1      -8.118   8.382 -23.266  1.00  0.00    -0.387 OA
ATOM     12  H   UNL     1      -8.113   9.368 -23.150  1.00  0.00     0.211 HD
ENDBRANCH   4  11
BRANCH   6  13
ATOM     13  O   UNL     1      -5.905  10.016 -22.502  1.00  0.00    -0.387 OA
ATOM     14  H   UNL     1      -6.387  10.419 -23.269  1.00  0.00     0.211 HD
ENDBRANCH   6  13
BRANCH   7  15
ATOM     15  O   UNL     1      -6.046   8.952 -25.125  1.00  0.00    -0.385 OA
ATOM     16  H   UNL     1      -6.758   8.297 -25.347  1.00  0.00     0.211 HD
ENDBRANCH   7  15
ENDBRANCH   1   2
BRANCH   1  17
ATOM     17  C   UNL     1      -3.806   4.903 -23.905  1.00  0.00     0.224 C 
ATOM     18  C   UNL     1      -2.275   4.734 -24.071  1.00  0.00     0.208 C 
ATOM     19  O   UNL     1      -4.179   4.109 -22.798  1.00  0.00    -0.337 OA
ATOM     20  C   UNL     1      -1.984   3.379 -23.451  1.00  0.00     0.180 C 
ATOM     21  C   UNL     1      -3.263   3.041 -22.675  1.00  0.00     0.179 C 
BRANCH  17  22
ATOM     22  C   UNL     1      -4.624   4.379 -25.125  1.00  0.00     0.225 C 
BRANCH  22  23
ATOM     23  O   UNL     1      -5.710   3.585 -24.728  1.00  0.00    -0.391 OA
ATOM     24  H   UNL     1      -6.447   4.214 -24.514  1.00  0.00     0.210 HD
ENDBRANCH  22  23
ENDBRANCH  17  22
BRANCH  18  25
ATOM     25  O   UNL     1      -1.598   5.734 -23.347  1.00  0.00    -0.385 OA
ATOM     26  H   UNL     1      -1.516   5.405 -22.414  1.00  0.00     0.211 HD
ENDBRANCH  18  25
BRANCH  20  27
ATOM     27  O   UNL     1      -1.691   2.406 -24.427  1.00  0.00    -0.387 OA
ATOM     28  H   UNL     1      -1.087   2.811 -25.102  1.00  0.00     0.211 HD
ENDBRANCH  20  27
BRANCH  21  29
ATOM     29  C   UNL     1      -2.992   2.773 -21.191  1.00  0.00     0.191 C 
BRANCH  29  30
ATOM     30  O   UNL     1      -4.126   2.221 -20.581  1.00  0.00    -0.394 OA
ATOM     31  H   UNL     1      -3.811   1.819 -19.730  1.00  0.00     0.210 HD
ENDBRANCH  29  30
ENDBRANCH  21  29
ENDBRANCH   1  17
TORSDOF 13
ENDMDL
MODEL 7
REMARK VINA RESULT:    -1.707      1.706      5.758
REMARK INTER + INTRA:          -3.652
REMARK INTER:                  -2.685
REMARK INTRA:                  -0.967
REMARK UNBOUND:                -1.047
REMARK SMILES OC[C@H]1O[C@H](O[C@]2(CO)O[C@H](CO)[C@@H](O)[C@@H]2O)[C@@H](O)[C@@H](O)[C@H]1O
REMARK SMILES IDX 6 1 5 2 3 3 22 4 4 5 20 6 18 7 2 8 1 9 23 11 21 13 19 15
REMARK SMILES IDX 7 17 16 18 10 19 14 20 11 21 8 22 9 23 17 25 15 27 12 29
REMARK SMILES IDX 13 30
REMARK H PARENT 1 10 23 12 21 14 19 16 9 24 17 26 15 28 13 31
REMARK Flexibility Score: inf
ROOT
ATOM      1  O   UNL     1      -6.149   5.494 -23.871  1.00  0.00    -0.313 OA
ENDROOT
BRANCH   1   2
ATOM      2  C   UNL     1      -6.049   6.662 -23.061  1.00  0.00     0.285 C 
ATOM      3  C   UNL     1      -4.643   7.728 -24.622  1.00  0.00     0.178 C 
ATOM      4  C   UNL     1      -5.702   8.783 -25.014  1.00  0.00     0.177 C 
ATOM      5  O   UNL     1      -4.810   7.330 -23.269  1.00  0.00    -0.341 OA
ATOM      6  C   UNL     1      -7.105   8.183 -24.784  1.00  0.00     0.179 C 
ATOM      7  C   UNL     1      -7.237   7.604 -23.359  1.00  0.00     0.202 C 
BRANCH   3   8
ATOM      8  C   UNL     1      -3.214   8.264 -24.798  1.00  0.00     0.191 C 
BRANCH   8   9
ATOM      9  O   UNL     1      -2.356   7.753 -23.813  1.00  0.00    -0.394 OA
ATOM     10  H   UNL     1      -2.920   7.225 -23.192  1.00  0.00     0.210 HD
ENDBRANCH   8   9
ENDBRANCH   3   8
BRANCH   4  11
ATOM     11  O   UNL     1      -5.525   9.944 -24.241  1.00  0.00    -0.387 OA
ATOM     12  H   UNL     1      -6.291   9.996 -23.613  1.00  0.00     0.211 HD
ENDBRANCH   4  11
BRANCH   6  13
ATOM     13  O   UNL     1      -8.125   9.108 -25.074  1.00  0.00    -0.387 OA
ATOM     14  H   UNL     1      -7.775  10.021 -24.912  1.00  0.00     0.211 HD
ENDBRANCH   6  13
BRANCH   7  15
ATOM     15  O   UNL     1      -7.268   8.642 -22.413  1.00  0.00    -0.385 OA
ATOM     16  H   UNL     1      -8.078   8.500 -21.856  1.00  0.00     0.211 HD
ENDBRANCH   7  15
ENDBRANCH   1   2
BRANCH   1  17
ATOM     17  C   UNL     1      -6.533   4.310 -23.174  1.00  0.00     0.224 C 
ATOM     18  C   UNL     1      -5.541   3.146 -23.420  1.00  0.00     0.208 C 
ATOM     19  O   UNL     1      -6.455   4.619 -21.797  1.00  0.00    -0.337 OA
ATOM     20  C   UNL     1      -5.435   2.459 -22.071  1.00  0.00     0.180 C 
ATOM     21  C   UNL     1      -6.067   3.458 -21.093  1.00  0.00     0.179 C 
BRANCH  17  22
ATOM     22  C   UNL     1      -8.019   3.930 -23.461  1.00  0.00     0.225 C 
BRANCH  22  23
ATOM     23  O   UNL     1      -8.125   2.737 -24.191  1.00  0.00    -0.391 OA
ATOM     24  H   UNL     1      -8.711   2.139 -23.657  1.00  0.00     0.210 HD
ENDBRANCH  22  23
ENDBRANCH  17  22
BRANCH  18  25
ATOM     25  O   UNL     1      -4.280   3.657 -23.784  1.00  0.00    -0.385 OA
ATOM     26  H   UNL     1      -4.158   3.455 -24.748  1.00  0.00     0.211 HD
ENDBRANCH  18  25
BRANCH  20  27
ATOM     27  O   UNL     1      -6.104   1.220 -22.057  1.00  0.00    -0.387 OA
ATOM     28  H   UNL     1      -7.074   1.387 -22.187  1.00  0.00     0.211 HD
ENDBRANCH  20  27
BRANCH  21  29
ATOM     29  C   UNL     1      -5.112   3.849 -19.959  1.00  0.00     0.191 C 
BRANCH  29  30
ATOM     30  O   UNL     1      -4.025   2.966 -19.912  1.00  0.00    -0.394 OA
ATOM     31  H   UNL     1      -3.229   3.496 -20.181  1.00  0.00     0.210 HD
ENDBRANCH  29  30
ENDBRANCH  21  29
ENDBRANCH   1  17
TORSDOF 13
ENDMDL
