MODEL 1
REMARK VINA RESULT:    17.411      0.000      0.000
REMARK INTER + INTRA:          39.202
REMARK INTER:                  39.804
REMARK INTRA:                  -0.602
REMARK UNBOUND:                -0.602
REMARK SMILES CCCCCCCCCCCCCCCCCCCCCCCC(=O)[O-]
REMARK SMILES IDX 13 1 14 2 15 3 16 4 17 5 18 6 19 7 20 8 21 9 22 10 23 11
REMARK SMILES IDX 24 12 25 13 26 14 12 15 11 16 10 17 9 18 8 19 7 20 6 21 5 22
REMARK SMILES IDX 4 23 3 24 2 25 1 26
REMARK H PARENT
REMARK Flexibility Score: inf
ROOT
ATOM      1  C   UNL     1       2.096  -0.524   9.964  1.00  0.00     0.000 C 
ENDROOT
BRANCH   1   2
ATOM      2  C   UNL     1       0.827   0.297  10.247  1.00  0.00     0.000 C 
BRANCH   2   3
ATOM      3  C   UNL     1       0.482   1.277   9.114  1.00  0.00     0.000 C 
BRANCH   3   4
ATOM      4  C   UNL     1       1.173   2.643   9.275  1.00  0.00     0.000 C 
BRANCH   4   5
ATOM      5  C   UNL     1       2.477   2.561  10.092  1.00  0.00     0.000 C 
BRANCH   5   6
ATOM      6  C   UNL     1       3.363   3.818  10.031  1.00  0.00     0.000 C 
BRANCH   6   7
ATOM      7  C   UNL     1       4.298   3.950  11.247  1.00  0.00     0.000 C 
BRANCH   7   8
ATOM      8  C   UNL     1       4.085   5.261  12.020  1.00  0.00     0.000 C 
BRANCH   8   9
ATOM      9  C   UNL     1       3.379   5.045  13.366  1.00  0.00     0.000 C 
BRANCH   9  10
ATOM     10  C   UNL     1       2.881   6.381  13.940  1.00  0.00     0.006 C 
BRANCH  10  11
ATOM     11  C   UNL     1       3.203   6.530  15.434  1.00  0.00     0.053 C 
BRANCH  11  12
ATOM     12  C   UNL     1       4.561   7.121  15.656  1.00  0.00     0.041 C 
ATOM     13  O   UNL     1       5.552   6.373  15.871  1.00  0.00    -0.550 OA
ATOM     14  O   UNL     1       4.732   8.500  15.630  1.00  0.00    -0.550 OA
ENDBRANCH  11  12
ENDBRANCH  10  11
ENDBRANCH   9  10
ENDBRANCH   8   9
ENDBRANCH   7   8
ENDBRANCH   6   7
ENDBRANCH   5   6
ENDBRANCH   4   5
ENDBRANCH   3   4
ENDBRANCH   2   3
ENDBRANCH   1   2
BRANCH   1  15
ATOM     15  C   UNL     1       1.787  -1.943   9.452  1.00  0.00     0.000 C 
BRANCH  15  16
ATOM     16  C   UNL     1       2.580  -3.077  10.137  1.00  0.00     0.000 C 
BRANCH  16  17
ATOM     17  C   UNL     1       2.132  -4.504   9.772  1.00  0.00     0.000 C 
BRANCH  17  18
ATOM     18  C   UNL     1       2.522  -5.590  10.794  1.00  0.00    -0.000 C 
BRANCH  18  19
ATOM     19  C   UNL     1       1.320  -6.378  11.358  1.00  0.00    -0.000 C 
BRANCH  19  20
ATOM     20  C   UNL     1       1.582  -7.893  11.424  1.00  0.00    -0.000 C 
BRANCH  20  21
ATOM     21  C   UNL     1       2.687  -8.344  10.453  1.00  0.00    -0.000 C 
BRANCH  21  22
ATOM     22  C   UNL     1       4.062  -8.449  11.134  1.00  0.00    -0.000 C 
BRANCH  22  23
ATOM     23  C   UNL     1       3.995  -8.174  12.645  1.00  0.00    -0.000 C 
BRANCH  23  24
ATOM     24  C   UNL     1       4.939  -7.042  13.085  1.00  0.00    -0.000 C 
BRANCH  24  25
ATOM     25  C   UNL     1       6.104  -6.835  12.106  1.00  0.00    -0.003 C 
ATOM     26  C   UNL     1       7.457  -6.729  12.812  1.00  0.00     0.004 C 
ENDBRANCH  24  25
ENDBRANCH  23  24
ENDBRANCH  22  23
ENDBRANCH  21  22
ENDBRANCH  20  21
ENDBRANCH  19  20
ENDBRANCH  18  19
ENDBRANCH  17  18
ENDBRANCH  16  17
ENDBRANCH  15  16
ENDBRANCH   1  15
TORSDOF 22
ENDMDL
MODEL 2
REMARK VINA RESULT:    17.499      0.923      1.325
REMARK INTER + INTRA:          39.403
REMARK INTER:                  40.396
REMARK INTRA:                  -0.993
REMARK UNBOUND:                -0.602
REMARK SMILES CCCCCCCCCCCCCCCCCCCCCCCC(=O)[O-]
REMARK SMILES IDX 13 1 14 2 15 3 16 4 17 5 18 6 19 7 20 8 21 9 22 10 23 11
REMARK SMILES IDX 24 12 25 13 26 14 12 15 11 16 10 17 9 18 8 19 7 20 6 21 5 22
REMARK SMILES IDX 4 23 3 24 2 25 1 26
REMARK H PARENT
REMARK Flexibility Score: inf
ROOT
ATOM      1  C   UNL     1       2.540  -1.129   9.963  1.00  0.00     0.000 C 
ENDROOT
BRANCH   1   2
ATOM      2  C   UNL     1       1.609  -0.014   9.457  1.00  0.00     0.000 C 
BRANCH   2   3
ATOM      3  C   UNL     1       1.417   1.116  10.481  1.00  0.00     0.000 C 
BRANCH   3   4
ATOM      4  C   UNL     1       2.623   1.278  11.424  1.00  0.00     0.000 C 
BRANCH   4   5
ATOM      5  C   UNL     1       3.014   2.752  11.647  1.00  0.00     0.000 C 
BRANCH   5   6
ATOM      6  C   UNL     1       4.417   3.135  11.144  1.00  0.00     0.000 C 
BRANCH   6   7
ATOM      7  C   UNL     1       4.817   4.571  11.527  1.00  0.00     0.000 C 
BRANCH   7   8
ATOM      8  C   UNL     1       3.603   5.472  11.805  1.00  0.00     0.000 C 
BRANCH   8   9
ATOM      9  C   UNL     1       3.768   6.307  13.084  1.00  0.00     0.000 C 
BRANCH   9  10
ATOM     10  C   UNL     1       2.731   5.895  14.140  1.00  0.00     0.006 C 
BRANCH  10  11
ATOM     11  C   UNL     1       3.193   6.216  15.568  1.00  0.00     0.053 C 
BRANCH  11  12
ATOM     12  C   UNL     1       4.459   7.017  15.578  1.00  0.00     0.041 C 
ATOM     13  O   UNL     1       4.420   8.267  15.423  1.00  0.00    -0.550 OA
ATOM     14  O   UNL     1       5.683   6.383  15.755  1.00  0.00    -0.550 OA
ENDBRANCH  11  12
ENDBRANCH  10  11
ENDBRANCH   9  10
ENDBRANCH   8   9
ENDBRANCH   7   8
ENDBRANCH   6   7
ENDBRANCH   5   6
ENDBRANCH   4   5
ENDBRANCH   3   4
ENDBRANCH   2   3
ENDBRANCH   1   2
BRANCH   1  15
ATOM     15  C   UNL     1       1.933  -2.535   9.801  1.00  0.00     0.000 C 
BRANCH  15  16
ATOM     16  C   UNL     1       2.885  -3.705  10.130  1.00  0.00     0.000 C 
BRANCH  16  17
ATOM     17  C   UNL     1       2.241  -5.103  10.094  1.00  0.00     0.000 C 
BRANCH  17  18
ATOM     18  C   UNL     1       2.240  -5.854  11.440  1.00  0.00    -0.000 C 
BRANCH  18  19
ATOM     19  C   UNL     1       1.544  -7.231  11.387  1.00  0.00    -0.000 C 
BRANCH  19  20
ATOM     20  C   UNL     1       2.334  -8.262  10.561  1.00  0.00    -0.000 C 
BRANCH  20  21
ATOM     21  C   UNL     1       3.756  -8.488  11.103  1.00  0.00    -0.000 C 
BRANCH  21  22
ATOM     22  C   UNL     1       3.813  -8.455  12.639  1.00  0.00    -0.000 C 
BRANCH  22  23
ATOM     23  C   UNL     1       5.107  -7.817  13.168  1.00  0.00    -0.000 C 
BRANCH  23  24
ATOM     24  C   UNL     1       5.647  -6.714  12.242  1.00  0.00    -0.000 C 
BRANCH  24  25
ATOM     25  C   UNL     1       7.183  -6.683  12.199  1.00  0.00    -0.003 C 
ATOM     26  C   UNL     1       7.813  -6.632  13.591  1.00  0.00     0.004 C 
ENDBRANCH  24  25
ENDBRANCH  23  24
ENDBRANCH  22  23
ENDBRANCH  21  22
ENDBRANCH  20  21
ENDBRANCH  19  20
ENDBRANCH  18  19
ENDBRANCH  17  18
ENDBRANCH  16  17
ENDBRANCH  15  16
ENDBRANCH   1  15
TORSDOF 22
ENDMDL
MODEL 3
REMARK VINA RESULT:    17.907      1.009      1.687
REMARK INTER + INTRA:          40.336
REMARK INTER:                  40.894
REMARK INTRA:                  -0.558
REMARK UNBOUND:                -0.602
REMARK SMILES CCCCCCCCCCCCCCCCCCCCCCCC(=O)[O-]
REMARK SMILES IDX 13 1 14 2 15 3 16 4 17 5 18 6 19 7 20 8 21 9 22 10 23 11
REMARK SMILES IDX 24 12 25 13 26 14 12 15 11 16 10 17 9 18 8 19 7 20 6 21 5 22
REMARK SMILES IDX 4 23 3 24 2 25 1 26
REMARK H PARENT
REMARK Flexibility Score: inf
ROOT
ATOM      1  C   UNL     1       2.065  -0.400   9.558  1.00  0.00     0.000 C 
ENDROOT
BRANCH   1   2
ATOM      2  C   UNL     1       0.890   0.592   9.597  1.00  0.00     0.000 C 
BRANCH   2   3
ATOM      3  C   UNL     1       1.347   2.060   9.633  1.00  0.00     0.000 C 
BRANCH   3   4
ATOM      4  C   UNL     1       2.524   2.295  10.597  1.00  0.00     0.000 C 
BRANCH   4   5
ATOM      5  C   UNL     1       3.303   3.587  10.286  1.00  0.00     0.000 C 
BRANCH   5   6
ATOM      6  C   UNL     1       4.679   3.697  10.966  1.00  0.00     0.000 C 
BRANCH   6   7
ATOM      7  C   UNL     1       4.817   4.961  11.834  1.00  0.00     0.000 C 
BRANCH   7   8
ATOM      8  C   UNL     1       3.464   5.630  12.129  1.00  0.00     0.000 C 
BRANCH   8   9
ATOM      9  C   UNL     1       2.911   5.258  13.513  1.00  0.00     0.000 C 
BRANCH   9  10
ATOM     10  C   UNL     1       2.642   6.519  14.348  1.00  0.00     0.006 C 
BRANCH  10  11
ATOM     11  C   UNL     1       3.315   6.459  15.726  1.00  0.00     0.053 C 
BRANCH  11  12
ATOM     12  C   UNL     1       4.629   7.178  15.737  1.00  0.00     0.041 C 
ATOM     13  O   UNL     1       5.679   6.575  16.085  1.00  0.00    -0.550 OA
ATOM     14  O   UNL     1       4.693   8.517  15.368  1.00  0.00    -0.550 OA
ENDBRANCH  11  12
ENDBRANCH  10  11
ENDBRANCH   9  10
ENDBRANCH   8   9
ENDBRANCH   7   8
ENDBRANCH   6   7
ENDBRANCH   5   6
ENDBRANCH   4   5
ENDBRANCH   3   4
ENDBRANCH   2   3
ENDBRANCH   1   2
BRANCH   1  15
ATOM     15  C   UNL     1       1.702  -1.780  10.138  1.00  0.00     0.000 C 
BRANCH  15  16
ATOM     16  C   UNL     1       2.750  -2.888   9.905  1.00  0.00     0.000 C 
BRANCH  16  17
ATOM     17  C   UNL     1       2.173  -4.285   9.611  1.00  0.00     0.000 C 
BRANCH  17  18
ATOM     18  C   UNL     1       2.301  -5.298  10.766  1.00  0.00    -0.000 C 
BRANCH  18  19
ATOM     19  C   UNL     1       1.461  -6.579  10.569  1.00  0.00    -0.000 C 
BRANCH  19  20
ATOM     20  C   UNL     1       1.956  -7.751  11.435  1.00  0.00    -0.000 C 
BRANCH  20  21
ATOM     21  C   UNL     1       3.361  -8.231  11.033  1.00  0.00    -0.000 C 
BRANCH  21  22
ATOM     22  C   UNL     1       4.471  -7.296  11.545  1.00  0.00    -0.000 C 
BRANCH  22  23
ATOM     23  C   UNL     1       5.136  -7.818  12.829  1.00  0.00    -0.000 C 
BRANCH  23  24
ATOM     24  C   UNL     1       4.117  -8.179  13.923  1.00  0.00    -0.000 C 
BRANCH  24  25
ATOM     25  C   UNL     1       3.977  -9.696  14.119  1.00  0.00    -0.003 C 
ATOM     26  C   UNL     1       3.245 -10.060  15.412  1.00  0.00     0.004 C 
ENDBRANCH  24  25
ENDBRANCH  23  24
ENDBRANCH  22  23
ENDBRANCH  21  22
ENDBRANCH  20  21
ENDBRANCH  19  20
ENDBRANCH  18  19
ENDBRANCH  17  18
ENDBRANCH  16  17
ENDBRANCH  15  16
ENDBRANCH   1  15
TORSDOF 22
ENDMDL
MODEL 4
REMARK VINA RESULT:    18.050      4.091     11.578
REMARK INTER + INTRA:          40.662
REMARK INTER:                  41.419
REMARK INTRA:                  -0.757
REMARK UNBOUND:                -0.602
REMARK SMILES CCCCCCCCCCCCCCCCCCCCCCCC(=O)[O-]
REMARK SMILES IDX 13 1 14 2 15 3 16 4 17 5 18 6 19 7 20 8 21 9 22 10 23 11
REMARK SMILES IDX 24 12 25 13 26 14 12 15 11 16 10 17 9 18 8 19 7 20 6 21 5 22
REMARK SMILES IDX 4 23 3 24 2 25 1 26
REMARK H PARENT
REMARK Flexibility Score: inf
ROOT
ATOM      1  C   UNL     1       0.639   0.458  10.181  1.00  0.00     0.000 C 
ENDROOT
BRANCH   1   2
ATOM      2  C   UNL     1       1.640  -0.520   9.545  1.00  0.00     0.000 C 
BRANCH   2   3
ATOM      3  C   UNL     1       1.979  -1.709  10.458  1.00  0.00     0.000 C 
BRANCH   3   4
ATOM      4  C   UNL     1       2.709  -2.843   9.716  1.00  0.00     0.000 C 
BRANCH   4   5
ATOM      5  C   UNL     1       1.922  -4.168   9.725  1.00  0.00     0.000 C 
BRANCH   5   6
ATOM      6  C   UNL     1       2.559  -5.298  10.553  1.00  0.00     0.000 C 
BRANCH   6   7
ATOM      7  C   UNL     1       1.517  -6.176  11.267  1.00  0.00     0.000 C 
BRANCH   7   8
ATOM      8  C   UNL     1       1.776  -7.679  11.077  1.00  0.00     0.000 C 
BRANCH   8   9
ATOM      9  C   UNL     1       3.256  -8.050  11.248  1.00  0.00     0.000 C 
BRANCH   9  10
ATOM     10  C   UNL     1       3.688  -7.901  12.714  1.00  0.00     0.006 C 
BRANCH  10  11
ATOM     11  C   UNL     1       5.145  -8.331  12.939  1.00  0.00     0.053 C 
BRANCH  11  12
ATOM     12  C   UNL     1       6.108  -7.228  12.627  1.00  0.00     0.041 C 
ATOM     13  O   UNL     1       5.886  -6.445  11.665  1.00  0.00    -0.550 OA
ATOM     14  O   UNL     1       7.254  -7.066  13.396  1.00  0.00    -0.550 OA
ENDBRANCH  11  12
ENDBRANCH  10  11
ENDBRANCH   9  10
ENDBRANCH   8   9
ENDBRANCH   7   8
ENDBRANCH   6   7
ENDBRANCH   5   6
ENDBRANCH   4   5
ENDBRANCH   3   4
ENDBRANCH   2   3
ENDBRANCH   1   2
BRANCH   1  15
ATOM     15  C   UNL     1       0.059   1.463   9.170  1.00  0.00     0.000 C 
BRANCH  15  16
ATOM     16  C   UNL     1       0.911   2.729   8.936  1.00  0.00     0.000 C 
BRANCH  16  17
ATOM     17  C   UNL     1       2.241   2.775   9.710  1.00  0.00     0.000 C 
BRANCH  17  18
ATOM     18  C   UNL     1       3.061   4.067   9.519  1.00  0.00    -0.000 C 
BRANCH  18  19
ATOM     19  C   UNL     1       4.397   4.079  10.292  1.00  0.00    -0.000 C 
BRANCH  19  20
ATOM     20  C   UNL     1       4.201   4.228  11.812  1.00  0.00    -0.000 C 
BRANCH  20  21
ATOM     21  C   UNL     1       3.657   5.613  12.205  1.00  0.00    -0.000 C 
BRANCH  21  22
ATOM     22  C   UNL     1       2.756   5.560  13.451  1.00  0.00    -0.000 C 
BRANCH  22  23
ATOM     23  C   UNL     1       3.062   6.689  14.447  1.00  0.00    -0.000 C 
BRANCH  23  24
ATOM     24  C   UNL     1       4.084   6.275  15.520  1.00  0.00    -0.000 C 
BRANCH  24  25
ATOM     25  C   UNL     1       5.190   7.324  15.714  1.00  0.00    -0.003 C 
ATOM     26  C   UNL     1       4.697   8.753  15.484  1.00  0.00     0.004 C 
ENDBRANCH  24  25
ENDBRANCH  23  24
ENDBRANCH  22  23
ENDBRANCH  21  22
ENDBRANCH  20  21
ENDBRANCH  19  20
ENDBRANCH  18  19
ENDBRANCH  17  18
ENDBRANCH  16  17
ENDBRANCH  15  16
ENDBRANCH   1  15
TORSDOF 22
ENDMDL
MODEL 5
REMARK VINA RESULT:    18.152      0.869      1.357
REMARK INTER + INTRA:          40.897
REMARK INTER:                  40.994
REMARK INTRA:                  -0.097
REMARK UNBOUND:                -0.602
REMARK SMILES CCCCCCCCCCCCCCCCCCCCCCCC(=O)[O-]
REMARK SMILES IDX 13 1 14 2 15 3 16 4 17 5 18 6 19 7 20 8 21 9 22 10 23 11
REMARK SMILES IDX 24 12 25 13 26 14 12 15 11 16 10 17 9 18 8 19 7 20 6 21 5 22
REMARK SMILES IDX 4 23 3 24 2 25 1 26
REMARK H PARENT
REMARK Flexibility Score: inf
ROOT
ATOM      1  C   UNL     1       2.173  -1.184  10.391  1.00  0.00     0.000 C 
ENDROOT
BRANCH   1   2
ATOM      2  C   UNL     1       1.488  -0.246   9.384  1.00  0.00     0.000 C 
BRANCH   2   3
ATOM      3  C   UNL     1       0.389   0.619  10.023  1.00  0.00     0.000 C 
BRANCH   3   4
ATOM      4  C   UNL     1       0.088   1.894   9.216  1.00  0.00     0.000 C 
BRANCH   4   5
ATOM      5  C   UNL     1       1.352   2.721   8.911  1.00  0.00     0.000 C 
BRANCH   5   6
ATOM      6  C   UNL     1       2.379   2.788  10.055  1.00  0.00     0.000 C 
BRANCH   6   7
ATOM      7  C   UNL     1       3.379   3.946   9.894  1.00  0.00     0.000 C 
BRANCH   7   8
ATOM      8  C   UNL     1       4.176   4.226  11.179  1.00  0.00     0.000 C 
BRANCH   8   9
ATOM      9  C   UNL     1       3.778   5.552  11.844  1.00  0.00     0.000 C 
BRANCH   9  10
ATOM     10  C   UNL     1       3.504   5.349  13.342  1.00  0.00     0.006 C 
BRANCH  10  11
ATOM     11  C   UNL     1       3.518   6.672  14.121  1.00  0.00     0.053 C 
BRANCH  11  12
ATOM     12  C   UNL     1       3.992   6.485  15.530  1.00  0.00     0.041 C 
ATOM     13  O   UNL     1       5.214   6.613  15.811  1.00  0.00    -0.550 OA
ATOM     14  O   UNL     1       3.084   6.165  16.533  1.00  0.00    -0.550 OA
ENDBRANCH  11  12
ENDBRANCH  10  11
ENDBRANCH   9  10
ENDBRANCH   8   9
ENDBRANCH   7   8
ENDBRANCH   6   7
ENDBRANCH   5   6
ENDBRANCH   4   5
ENDBRANCH   3   4
ENDBRANCH   2   3
ENDBRANCH   1   2
BRANCH   1  15
ATOM     15  C   UNL     1       2.733  -2.460   9.735  1.00  0.00     0.000 C 
BRANCH  15  16
ATOM     16  C   UNL     1       1.862  -3.723   9.902  1.00  0.00     0.000 C 
BRANCH  16  17
ATOM     17  C   UNL     1       2.637  -5.021  10.194  1.00  0.00     0.000 C 
BRANCH  17  18
ATOM     18  C   UNL     1       2.260  -5.721  11.515  1.00  0.00    -0.000 C 
BRANCH  18  19
ATOM     19  C   UNL     1       1.122  -6.753  11.371  1.00  0.00    -0.000 C 
BRANCH  19  20
ATOM     20  C   UNL     1       1.641  -8.200  11.280  1.00  0.00    -0.000 C 
BRANCH  20  21
ATOM     21  C   UNL     1       3.154  -8.268  11.008  1.00  0.00    -0.000 C 
BRANCH  21  22
ATOM     22  C   UNL     1       3.992  -7.895  12.243  1.00  0.00    -0.000 C 
BRANCH  22  23
ATOM     23  C   UNL     1       5.502  -7.923  11.961  1.00  0.00    -0.000 C 
BRANCH  23  24
ATOM     24  C   UNL     1       6.200  -6.602  12.330  1.00  0.00    -0.000 C 
BRANCH  24  25
ATOM     25  C   UNL     1       7.422  -6.816  13.236  1.00  0.00    -0.003 C 
ATOM     26  C   UNL     1       7.555  -5.740  14.314  1.00  0.00     0.004 C 
ENDBRANCH  24  25
ENDBRANCH  23  24
ENDBRANCH  22  23
ENDBRANCH  21  22
ENDBRANCH  20  21
ENDBRANCH  19  20
ENDBRANCH  18  19
ENDBRANCH  17  18
ENDBRANCH  16  17
ENDBRANCH  15  16
ENDBRANCH   1  15
TORSDOF 22
ENDMDL
MODEL 6
REMARK VINA RESULT:    18.310      3.987     11.487
REMARK INTER + INTRA:          41.257
REMARK INTER:                  41.760
REMARK INTRA:                  -0.503
REMARK UNBOUND:                -0.602
REMARK SMILES CCCCCCCCCCCCCCCCCCCCCCCC(=O)[O-]
REMARK SMILES IDX 13 1 14 2 15 3 16 4 17 5 18 6 19 7 20 8 21 9 22 10 23 11
REMARK SMILES IDX 24 12 25 13 26 14 12 15 11 16 10 17 9 18 8 19 7 20 6 21 5 22
REMARK SMILES IDX 4 23 3 24 2 25 1 26
REMARK H PARENT
REMARK Flexibility Score: inf
ROOT
ATOM      1  C   UNL     1       1.754  -0.254   9.608  1.00  0.00     0.000 C 
ENDROOT
BRANCH   1   2
ATOM      2  C   UNL     1       1.413  -1.730   9.874  1.00  0.00     0.000 C 
BRANCH   2   3
ATOM      3  C   UNL     1       2.660  -2.604  10.085  1.00  0.00     0.000 C 
BRANCH   3   4
ATOM      4  C   UNL     1       2.465  -4.051   9.599  1.00  0.00     0.000 C 
BRANCH   4   5
ATOM      5  C   UNL     1       2.379  -5.065  10.756  1.00  0.00     0.000 C 
BRANCH   5   6
ATOM      6  C   UNL     1       1.297  -6.147  10.594  1.00  0.00     0.000 C 
BRANCH   6   7
ATOM      7  C   UNL     1       1.574  -7.401  11.442  1.00  0.00     0.000 C 
BRANCH   7   8
ATOM      8  C   UNL     1       2.382  -8.465  10.682  1.00  0.00     0.000 C 
BRANCH   8   9
ATOM      9  C   UNL     1       3.847  -8.534  11.139  1.00  0.00     0.000 C 
BRANCH   9  10
ATOM     10  C   UNL     1       3.953  -8.326  12.657  1.00  0.00     0.006 C 
BRANCH  10  11
ATOM     11  C   UNL     1       5.394  -8.043  13.107  1.00  0.00     0.053 C 
BRANCH  11  12
ATOM     12  C   UNL     1       6.019  -6.936  12.315  1.00  0.00     0.041 C 
ATOM     13  O   UNL     1       7.272  -6.800  12.296  1.00  0.00    -0.550 OA
ATOM     14  O   UNL     1       5.219  -6.053  11.601  1.00  0.00    -0.550 OA
ENDBRANCH  11  12
ENDBRANCH  10  11
ENDBRANCH   9  10
ENDBRANCH   8   9
ENDBRANCH   7   8
ENDBRANCH   6   7
ENDBRANCH   5   6
ENDBRANCH   4   5
ENDBRANCH   3   4
ENDBRANCH   2   3
ENDBRANCH   1   2
BRANCH   1  15
ATOM     15  C   UNL     1       0.672   0.712  10.125  1.00  0.00     0.000 C 
BRANCH  15  16
ATOM     16  C   UNL     1       0.144   1.726   9.088  1.00  0.00     0.000 C 
BRANCH  16  17
ATOM     17  C   UNL     1       0.911   3.059   9.025  1.00  0.00     0.000 C 
BRANCH  17  18
ATOM     18  C   UNL     1       2.426   2.952   9.286  1.00  0.00    -0.000 C 
BRANCH  18  19
ATOM     19  C   UNL     1       3.042   4.218   9.921  1.00  0.00    -0.000 C 
BRANCH  19  20
ATOM     20  C   UNL     1       4.345   3.923  10.685  1.00  0.00    -0.000 C 
BRANCH  20  21
ATOM     21  C   UNL     1       4.494   4.784  11.952  1.00  0.00    -0.000 C 
BRANCH  21  22
ATOM     22  C   UNL     1       3.398   5.856  12.068  1.00  0.00    -0.000 C 
BRANCH  22  23
ATOM     23  C   UNL     1       2.729   5.868  13.451  1.00  0.00    -0.000 C 
BRANCH  23  24
ATOM     24  C   UNL     1       3.373   6.880  14.415  1.00  0.00    -0.000 C 
BRANCH  24  25
ATOM     25  C   UNL     1       4.123   6.196  15.569  1.00  0.00    -0.003 C 
ATOM     26  C   UNL     1       5.381   6.956  15.989  1.00  0.00     0.004 C 
ENDBRANCH  24  25
ENDBRANCH  23  24
ENDBRANCH  22  23
ENDBRANCH  21  22
ENDBRANCH  20  21
ENDBRANCH  19  20
ENDBRANCH  18  19
ENDBRANCH  17  18
ENDBRANCH  16  17
ENDBRANCH  15  16
ENDBRANCH   1  15
TORSDOF 22
ENDMDL
MODEL 7
REMARK VINA RESULT:    18.831      3.768     11.209
REMARK INTER + INTRA:          42.447
REMARK INTER:                  43.629
REMARK INTRA:                  -1.182
REMARK UNBOUND:                -0.602
REMARK SMILES CCCCCCCCCCCCCCCCCCCCCCCC(=O)[O-]
REMARK SMILES IDX 13 1 14 2 15 3 16 4 17 5 18 6 19 7 20 8 21 9 22 10 23 11
REMARK SMILES IDX 24 12 25 13 26 14 12 15 11 16 10 17 9 18 8 19 7 20 6 21 5 22
REMARK SMILES IDX 4 23 3 24 2 25 1 26
REMARK H PARENT
REMARK Flexibility Score: inf
ROOT
ATOM      1  C   UNL     1       2.406  -0.934  10.250  1.00  0.00     0.000 C 
ENDROOT
BRANCH   1   2
ATOM      2  C   UNL     1       2.904  -2.291   9.726  1.00  0.00     0.000 C 
BRANCH   2   3
ATOM      3  C   UNL     1       1.957  -3.451  10.075  1.00  0.00     0.000 C 
BRANCH   3   4
ATOM      4  C   UNL     1       2.660  -4.821  10.058  1.00  0.00     0.000 C 
BRANCH   4   5
ATOM      5  C   UNL     1       2.388  -5.649  11.329  1.00  0.00     0.000 C 
BRANCH   5   6
ATOM      6  C   UNL     1       1.261  -6.689  11.199  1.00  0.00     0.000 C 
BRANCH   6   7
ATOM      7  C   UNL     1       1.763  -8.136  11.344  1.00  0.00     0.000 C 
BRANCH   7   8
ATOM      8  C   UNL     1       3.255  -8.284  11.005  1.00  0.00     0.000 C 
BRANCH   8   9
ATOM      9  C   UNL     1       4.149  -8.269  12.254  1.00  0.00     0.000 C 
BRANCH   9  10
ATOM     10  C   UNL     1       5.514  -7.640  11.939  1.00  0.00     0.006 C 
BRANCH  10  11
ATOM     11  C   UNL     1       5.793  -6.395  12.794  1.00  0.00     0.053 C 
BRANCH  11  12
ATOM     12  C   UNL     1       7.162  -6.429  13.401  1.00  0.00     0.041 C 
ATOM     13  O   UNL     1       8.064  -7.146  12.892  1.00  0.00    -0.550 OA
ATOM     14  O   UNL     1       7.440  -5.672  14.533  1.00  0.00    -0.550 OA
ENDBRANCH  11  12
ENDBRANCH  10  11
ENDBRANCH   9  10
ENDBRANCH   8   9
ENDBRANCH   7   8
ENDBRANCH   6   7
ENDBRANCH   5   6
ENDBRANCH   4   5
ENDBRANCH   3   4
ENDBRANCH   2   3
ENDBRANCH   1   2
BRANCH   1  15
ATOM     15  C   UNL     1       1.013  -0.559   9.711  1.00  0.00     0.000 C 
BRANCH  15  16
ATOM     16  C   UNL     1       0.491   0.828  10.142  1.00  0.00     0.000 C 
BRANCH  16  17
ATOM     17  C   UNL     1       0.304   1.842   8.998  1.00  0.00     0.000 C 
BRANCH  17  18
ATOM     18  C   UNL     1       1.303   3.017   9.000  1.00  0.00    -0.000 C 
BRANCH  18  19
ATOM     19  C   UNL     1       2.479   2.834   9.983  1.00  0.00    -0.000 C 
BRANCH  19  20
ATOM     20  C   UNL     1       3.370   4.086  10.079  1.00  0.00    -0.000 C 
BRANCH  20  21
ATOM     21  C   UNL     1       4.412   3.984  11.206  1.00  0.00    -0.000 C 
BRANCH  21  22
ATOM     22  C   UNL     1       4.395   5.209  12.137  1.00  0.00    -0.000 C 
BRANCH  22  23
ATOM     23  C   UNL     1       3.202   5.196  13.107  1.00  0.00    -0.000 C 
BRANCH  23  24
ATOM     24  C   UNL     1       3.086   6.494  13.924  1.00  0.00    -0.000 C 
BRANCH  24  25
ATOM     25  C   UNL     1       3.503   6.305  15.390  1.00  0.00    -0.003 C 
ATOM     26  C   UNL     1       4.942   6.748  15.658  1.00  0.00     0.004 C 
ENDBRANCH  24  25
ENDBRANCH  23  24
ENDBRANCH  22  23
ENDBRANCH  21  22
ENDBRANCH  20  21
ENDBRANCH  19  20
ENDBRANCH  18  19
ENDBRANCH  17  18
ENDBRANCH  16  17
ENDBRANCH  15  16
ENDBRANCH   1  15
TORSDOF 22
ENDMDL
MODEL 8
REMARK VINA RESULT:    18.855      1.489      2.502
REMARK INTER + INTRA:          42.504
REMARK INTER:                  43.762
REMARK INTRA:                  -1.258
REMARK UNBOUND:                -0.602
REMARK SMILES CCCCCCCCCCCCCCCCCCCCCCCC(=O)[O-]
REMARK SMILES IDX 13 1 14 2 15 3 16 4 17 5 18 6 19 7 20 8 21 9 22 10 23 11
REMARK SMILES IDX 24 12 25 13 26 14 12 15 11 16 10 17 9 18 8 19 7 20 6 21 5 22
REMARK SMILES IDX 4 23 3 24 2 25 1 26
REMARK H PARENT
REMARK Flexibility Score: inf
ROOT
ATOM      1  C   UNL     1       4.768  -1.123  11.561  1.00  0.00     0.000 C 
ENDROOT
BRANCH   1   2
ATOM      2  C   UNL     1       5.829  -0.071  11.924  1.00  0.00     0.000 C 
BRANCH   2   3
ATOM      3  C   UNL     1       5.361   1.369  11.655  1.00  0.00     0.000 C 
BRANCH   3   4
ATOM      4  C   UNL     1       6.475   2.261  11.079  1.00  0.00     0.000 C 
BRANCH   4   5
ATOM      5  C   UNL     1       6.045   3.732  10.927  1.00  0.00     0.000 C 
BRANCH   5   6
ATOM      6  C   UNL     1       4.543   3.949  10.668  1.00  0.00     0.000 C 
BRANCH   6   7
ATOM      7  C   UNL     1       3.771   4.358  11.935  1.00  0.00     0.000 C 
BRANCH   7   8
ATOM      8  C   UNL     1       3.736   5.881  12.143  1.00  0.00     0.000 C 
BRANCH   8   9
ATOM      9  C   UNL     1       2.711   6.308  13.204  1.00  0.00     0.000 C 
BRANCH   9  10
ATOM     10  C   UNL     1       3.033   5.667  14.562  1.00  0.00     0.006 C 
BRANCH  10  11
ATOM     11  C   UNL     1       3.221   6.713  15.670  1.00  0.00     0.053 C 
BRANCH  11  12
ATOM     12  C   UNL     1       4.627   7.228  15.720  1.00  0.00     0.041 C 
ATOM     13  O   UNL     1       5.596   6.423  15.761  1.00  0.00    -0.550 OA
ATOM     14  O   UNL     1       4.867   8.597  15.725  1.00  0.00    -0.550 OA
ENDBRANCH  11  12
ENDBRANCH  10  11
ENDBRANCH   9  10
ENDBRANCH   8   9
ENDBRANCH   7   8
ENDBRANCH   6   7
ENDBRANCH   5   6
ENDBRANCH   4   5
ENDBRANCH   3   4
ENDBRANCH   2   3
ENDBRANCH   1   2
BRANCH   1  15
ATOM     15  C   UNL     1       3.460  -0.500  11.040  1.00  0.00     0.000 C 
BRANCH  15  16
ATOM     16  C   UNL     1       2.646  -1.388  10.074  1.00  0.00     0.000 C 
BRANCH  16  17
ATOM     17  C   UNL     1       3.067  -2.868  10.033  1.00  0.00     0.000 C 
BRANCH  17  18
ATOM     18  C   UNL     1       1.907  -3.871   9.878  1.00  0.00    -0.000 C 
BRANCH  18  19
ATOM     19  C   UNL     1       2.336  -5.348  10.014  1.00  0.00    -0.000 C 
BRANCH  19  20
ATOM     20  C   UNL     1       2.233  -5.863  11.462  1.00  0.00    -0.000 C 
BRANCH  20  21
ATOM     21  C   UNL     1       1.744  -7.320  11.537  1.00  0.00    -0.000 C 
BRANCH  21  22
ATOM     22  C   UNL     1       2.541  -8.256  10.613  1.00  0.00    -0.000 C 
BRANCH  22  23
ATOM     23  C   UNL     1       3.967  -8.515  11.123  1.00  0.00    -0.000 C 
BRANCH  23  24
ATOM     24  C   UNL     1       4.112  -8.268  12.635  1.00  0.00    -0.000 C 
BRANCH  24  25
ATOM     25  C   UNL     1       5.481  -7.677  13.005  1.00  0.00    -0.003 C 
ATOM     26  C   UNL     1       6.011  -6.705  11.949  1.00  0.00     0.004 C 
ENDBRANCH  24  25
ENDBRANCH  23  24
ENDBRANCH  22  23
ENDBRANCH  21  22
ENDBRANCH  20  21
ENDBRANCH  19  20
ENDBRANCH  18  19
ENDBRANCH  17  18
ENDBRANCH  16  17
ENDBRANCH  15  16
ENDBRANCH   1  15
TORSDOF 22
ENDMDL
MODEL 9
REMARK VINA RESULT:    19.087      4.351     11.487
REMARK INTER + INTRA:          43.034
REMARK INTER:                  44.479
REMARK INTRA:                  -1.445
REMARK UNBOUND:                -0.602
REMARK SMILES CCCCCCCCCCCCCCCCCCCCCCCC(=O)[O-]
REMARK SMILES IDX 13 1 14 2 15 3 16 4 17 5 18 6 19 7 20 8 21 9 22 10 23 11
REMARK SMILES IDX 24 12 25 13 26 14 12 15 11 16 10 17 9 18 8 19 7 20 6 21 5 22
REMARK SMILES IDX 4 23 3 24 2 25 1 26
REMARK H PARENT
REMARK Flexibility Score: inf
ROOT
ATOM      1  C   UNL     1       2.266  -1.730  10.271  1.00  0.00     0.000 C 
ENDROOT
BRANCH   1   2
ATOM      2  C   UNL     1       2.618  -2.972   9.435  1.00  0.00     0.000 C 
BRANCH   2   3
ATOM      3  C   UNL     1       2.247  -4.290  10.134  1.00  0.00     0.000 C 
BRANCH   3   4
ATOM      4  C   UNL     1       1.502  -5.267   9.207  1.00  0.00     0.000 C 
BRANCH   4   5
ATOM      5  C   UNL     1      -0.009  -5.339   9.502  1.00  0.00     0.000 C 
BRANCH   5   6
ATOM      6  C   UNL     1      -0.682  -6.671   9.127  1.00  0.00     0.000 C 
BRANCH   6   7
ATOM      7  C   UNL     1      -0.918  -7.585  10.343  1.00  0.00     0.000 C 
BRANCH   7   8
ATOM      8  C   UNL     1       0.337  -8.376  10.744  1.00  0.00     0.000 C 
BRANCH   8   9
ATOM      9  C   UNL     1       0.806  -8.058  12.172  1.00  0.00     0.000 C 
BRANCH   9  10
ATOM     10  C   UNL     1       1.980  -7.067  12.151  1.00  0.00     0.006 C 
BRANCH  10  11
ATOM     11  C   UNL     1       3.186  -7.610  11.372  1.00  0.00     0.053 C 
BRANCH  11  12
ATOM     12  C   UNL     1       4.373  -7.826  12.259  1.00  0.00     0.041 C 
ATOM     13  O   UNL     1       4.287  -8.587  13.260  1.00  0.00    -0.550 OA
ATOM     14  O   UNL     1       5.575  -7.184  11.983  1.00  0.00    -0.550 OA
ENDBRANCH  11  12
ENDBRANCH  10  11
ENDBRANCH   9  10
ENDBRANCH   8   9
ENDBRANCH   7   8
ENDBRANCH   6   7
ENDBRANCH   5   6
ENDBRANCH   4   5
ENDBRANCH   3   4
ENDBRANCH   2   3
ENDBRANCH   1   2
BRANCH   1  15
ATOM     15  C   UNL     1       1.791  -0.545   9.411  1.00  0.00     0.000 C 
BRANCH  15  16
ATOM     16  C   UNL     1       1.061   0.577  10.180  1.00  0.00     0.000 C 
BRANCH  16  17
ATOM     17  C   UNL     1       0.192   1.507   9.314  1.00  0.00     0.000 C 
BRANCH  17  18
ATOM     18  C   UNL     1       0.821   2.877   8.996  1.00  0.00    -0.000 C 
BRANCH  18  19
ATOM     19  C   UNL     1       2.360   2.902   9.121  1.00  0.00    -0.000 C 
BRANCH  19  20
ATOM     20  C   UNL     1       2.863   4.043  10.023  1.00  0.00    -0.000 C 
BRANCH  20  21
ATOM     21  C   UNL     1       4.245   3.748  10.633  1.00  0.00    -0.000 C 
BRANCH  21  22
ATOM     22  C   UNL     1       4.586   4.690  11.801  1.00  0.00    -0.000 C 
BRANCH  22  23
ATOM     23  C   UNL     1       3.530   5.789  12.000  1.00  0.00    -0.000 C 
BRANCH  23  24
ATOM     24  C   UNL     1       2.975   5.827  13.434  1.00  0.00    -0.000 C 
BRANCH  24  25
ATOM     25  C   UNL     1       3.749   6.799  14.337  1.00  0.00    -0.003 C 
ATOM     26  C   UNL     1       3.848   6.311  15.783  1.00  0.00     0.004 C 
ENDBRANCH  24  25
ENDBRANCH  23  24
ENDBRANCH  22  23
ENDBRANCH  21  22
ENDBRANCH  20  21
ENDBRANCH  19  20
ENDBRANCH  18  19
ENDBRANCH  17  18
ENDBRANCH  16  17
ENDBRANCH  15  16
ENDBRANCH   1  15
TORSDOF 22
ENDMDL
