MODEL 1
REMARK VINA RESULT:    -3.319      0.000      0.000
REMARK INTER + INTRA:          -6.753
REMARK INTER:                  -5.841
REMARK INTRA:                  -0.912
REMARK UNBOUND:                -0.912
REMARK SMILES CCCCCCCCCCCCCCC(=O)[O-]
REMARK SMILES IDX 9 1 10 2 11 3 12 4 13 5 14 6 15 7 16 8 17 9 8 10 7 11 6 12
REMARK SMILES IDX 5 13 4 14 3 15 2 16 1 17
REMARK H PARENT
REMARK Flexibility Score: inf
ROOT
ATOM      1  C   UNL     1      -2.901  -0.305  -0.940  1.00  0.00     0.000 C 
ENDROOT
BRANCH   1   2
ATOM      2  C   UNL     1      -4.314  -0.816  -1.280  1.00  0.00     0.000 C 
BRANCH   2   3
ATOM      3  C   UNL     1      -4.382  -1.522  -2.644  1.00  0.00     0.000 C 
BRANCH   3   4
ATOM      4  C   UNL     1      -3.435  -2.732  -2.740  1.00  0.00     0.000 C 
BRANCH   4   5
ATOM      5  C   UNL     1      -3.908  -4.000  -1.999  1.00  0.00     0.006 C 
BRANCH   5   6
ATOM      6  C   UNL     1      -3.509  -4.060  -0.517  1.00  0.00     0.053 C 
BRANCH   6   7
ATOM      7  C   UNL     1      -4.631  -4.553   0.345  1.00  0.00     0.041 C 
ATOM      8  O   UNL     1      -5.122  -3.809   1.234  1.00  0.00    -0.550 OA
ATOM      9  O   UNL     1      -5.110  -5.847   0.188  1.00  0.00    -0.550 OA
ENDBRANCH   6   7
ENDBRANCH   5   6
ENDBRANCH   4   5
ENDBRANCH   3   4
ENDBRANCH   2   3
ENDBRANCH   1   2
BRANCH   1  10
ATOM     10  C   UNL     1      -2.838   1.113  -0.337  1.00  0.00     0.000 C 
BRANCH  10  11
ATOM     11  C   UNL     1      -4.085   1.546   0.457  1.00  0.00    -0.000 C 
BRANCH  11  12
ATOM     12  C   UNL     1      -4.018   3.013   0.915  1.00  0.00    -0.000 C 
BRANCH  12  13
ATOM     13  C   UNL     1      -2.725   3.712   0.467  1.00  0.00    -0.000 C 
BRANCH  13  14
ATOM     14  C   UNL     1      -2.955   5.173   0.048  1.00  0.00    -0.000 C 
BRANCH  14  15
ATOM     15  C   UNL     1      -3.353   5.262  -1.432  1.00  0.00    -0.000 C 
BRANCH  15  16
ATOM     16  C   UNL     1      -2.712   4.156  -2.285  1.00  0.00    -0.003 C 
ATOM     17  C   UNL     1      -2.872   4.398  -3.786  1.00  0.00     0.004 C 
ENDBRANCH  15  16
ENDBRANCH  14  15
ENDBRANCH  13  14
ENDBRANCH  12  13
ENDBRANCH  11  12
ENDBRANCH  10  11
ENDBRANCH   1  10
TORSDOF 13
ENDMDL
MODEL 2
REMARK VINA RESULT:    -3.184      5.099      8.485
REMARK INTER + INTRA:          -6.516
REMARK INTER:                  -5.927
REMARK INTRA:                  -0.589
REMARK UNBOUND:                -0.912
REMARK SMILES CCCCCCCCCCCCCCC(=O)[O-]
REMARK SMILES IDX 9 1 10 2 11 3 12 4 13 5 14 6 15 7 16 8 17 9 8 10 7 11 6 12
REMARK SMILES IDX 5 13 4 14 3 15 2 16 1 17
REMARK H PARENT
REMARK Flexibility Score: inf
ROOT
ATOM      1  C   UNL     1      -3.382   5.081  -0.842  1.00  0.00     0.000 C 
ENDROOT
BRANCH   1   2
ATOM      2  C   UNL     1      -2.755   4.871  -2.233  1.00  0.00     0.000 C 
BRANCH   2   3
ATOM      3  C   UNL     1      -3.796   4.539  -3.314  1.00  0.00     0.000 C 
BRANCH   3   4
ATOM      4  C   UNL     1      -4.886   5.618  -3.448  1.00  0.00     0.000 C 
BRANCH   4   5
ATOM      5  C   UNL     1      -5.272   5.988  -4.896  1.00  0.00     0.006 C 
BRANCH   5   6
ATOM      6  C   UNL     1      -6.783   5.977  -5.176  1.00  0.00     0.053 C 
BRANCH   6   7
ATOM      7  C   UNL     1      -7.096   6.417  -6.574  1.00  0.00     0.041 C 
ATOM      8  O   UNL     1      -7.687   7.509  -6.777  1.00  0.00    -0.550 OA
ATOM      9  O   UNL     1      -6.765   5.602  -7.649  1.00  0.00    -0.550 OA
ENDBRANCH   6   7
ENDBRANCH   5   6
ENDBRANCH   4   5
ENDBRANCH   3   4
ENDBRANCH   2   3
ENDBRANCH   1   2
BRANCH   1  10
ATOM     10  C   UNL     1      -3.081   3.976   0.192  1.00  0.00     0.000 C 
BRANCH  10  11
ATOM     11  C   UNL     1      -2.601   2.637  -0.397  1.00  0.00    -0.000 C 
BRANCH  11  12
ATOM     12  C   UNL     1      -3.318   1.425   0.221  1.00  0.00    -0.000 C 
BRANCH  12  13
ATOM     13  C   UNL     1      -4.077   0.592  -0.826  1.00  0.00    -0.000 C 
BRANCH  13  14
ATOM     14  C   UNL     1      -3.436  -0.784  -1.068  1.00  0.00    -0.000 C 
BRANCH  14  15
ATOM     15  C   UNL     1      -4.048  -1.463  -2.302  1.00  0.00    -0.000 C 
BRANCH  15  16
ATOM     16  C   UNL     1      -3.787  -2.976  -2.335  1.00  0.00    -0.003 C 
ATOM     17  C   UNL     1      -3.750  -3.602  -0.941  1.00  0.00     0.004 C 
ENDBRANCH  15  16
ENDBRANCH  14  15
ENDBRANCH  13  14
ENDBRANCH  12  13
ENDBRANCH  11  12
ENDBRANCH  10  11
ENDBRANCH   1  10
TORSDOF 13
ENDMDL
MODEL 3
REMARK VINA RESULT:    -3.066      6.796      9.941
REMARK INTER + INTRA:          -6.309
REMARK INTER:                  -5.516
REMARK INTRA:                  -0.793
REMARK UNBOUND:                -0.912
REMARK SMILES CCCCCCCCCCCCCCC(=O)[O-]
REMARK SMILES IDX 9 1 10 2 11 3 12 4 13 5 14 6 15 7 16 8 17 9 8 10 7 11 6 12
REMARK SMILES IDX 5 13 4 14 3 15 2 16 1 17
REMARK H PARENT
REMARK Flexibility Score: inf
ROOT
ATOM      1  C   UNL     1      -5.710   6.410  -4.086  1.00  0.00     0.000 C 
ENDROOT
BRANCH   1   2
ATOM      2  C   UNL     1      -5.793   5.998  -5.568  1.00  0.00     0.000 C 
BRANCH   2   3
ATOM      3  C   UNL     1      -7.230   6.014  -6.113  1.00  0.00     0.000 C 
BRANCH   3   4
ATOM      4  C   UNL     1      -7.288   5.955  -7.650  1.00  0.00     0.000 C 
BRANCH   4   5
ATOM      5  C   UNL     1      -8.284   6.931  -8.310  1.00  0.00     0.006 C 
BRANCH   5   6
ATOM      6  C   UNL     1      -7.662   8.251  -8.791  1.00  0.00     0.053 C 
BRANCH   6   7
ATOM      7  C   UNL     1      -7.322   9.158  -7.648  1.00  0.00     0.041 C 
ATOM      8  O   UNL     1      -6.120   9.401  -7.367  1.00  0.00    -0.550 OA
ATOM      9  O   UNL     1      -8.335   9.707  -6.872  1.00  0.00    -0.550 OA
ENDBRANCH   6   7
ENDBRANCH   5   6
ENDBRANCH   4   5
ENDBRANCH   3   4
ENDBRANCH   2   3
ENDBRANCH   1   2
BRANCH   1  10
ATOM     10  C   UNL     1      -5.003   5.400  -3.158  1.00  0.00     0.000 C 
BRANCH  10  11
ATOM     11  C   UNL     1      -3.580   4.998  -3.586  1.00  0.00    -0.000 C 
BRANCH  11  12
ATOM     12  C   UNL     1      -2.722   4.504  -2.409  1.00  0.00    -0.000 C 
BRANCH  12  13
ATOM     13  C   UNL     1      -3.103   5.175  -1.079  1.00  0.00    -0.000 C 
BRANCH  13  14
ATOM     14  C   UNL     1      -3.087   4.197   0.106  1.00  0.00    -0.000 C 
BRANCH  14  15
ATOM     15  C   UNL     1      -2.595   2.810  -0.335  1.00  0.00    -0.000 C 
BRANCH  15  16
ATOM     16  C   UNL     1      -3.608   1.697  -0.026  1.00  0.00    -0.003 C 
ATOM     17  C   UNL     1      -4.559   2.062   1.114  1.00  0.00     0.004 C 
ENDBRANCH  15  16
ENDBRANCH  14  15
ENDBRANCH  13  14
ENDBRANCH  12  13
ENDBRANCH  11  12
ENDBRANCH  10  11
ENDBRANCH   1  10
TORSDOF 13
ENDMDL
MODEL 4
REMARK VINA RESULT:    -2.955      6.375      9.389
REMARK INTER + INTRA:          -6.114
REMARK INTER:                  -5.644
REMARK INTRA:                  -0.470
REMARK UNBOUND:                -0.912
REMARK SMILES CCCCCCCCCCCCCCC(=O)[O-]
REMARK SMILES IDX 9 1 10 2 11 3 12 4 13 5 14 6 15 7 16 8 17 9 8 10 7 11 6 12
REMARK SMILES IDX 5 13 4 14 3 15 2 16 1 17
REMARK H PARENT
REMARK Flexibility Score: inf
ROOT
ATOM      1  C   UNL     1      -3.719   5.196  -3.746  1.00  0.00     0.000 C 
ENDROOT
BRANCH   1   2
ATOM      2  C   UNL     1      -5.201   5.616  -3.747  1.00  0.00     0.000 C 
BRANCH   2   3
ATOM      3  C   UNL     1      -5.620   6.327  -5.043  1.00  0.00     0.000 C 
BRANCH   3   4
ATOM      4  C   UNL     1      -7.060   5.992  -5.472  1.00  0.00     0.000 C 
BRANCH   4   5
ATOM      5  C   UNL     1      -7.299   5.939  -6.995  1.00  0.00     0.006 C 
BRANCH   5   6
ATOM      6  C   UNL     1      -7.030   7.261  -7.731  1.00  0.00     0.053 C 
BRANCH   6   7
ATOM      7  C   UNL     1      -8.090   7.563  -8.746  1.00  0.00     0.041 C 
ATOM      8  O   UNL     1      -7.789   8.131  -9.827  1.00  0.00    -0.550 OA
ATOM      9  O   UNL     1      -9.416   7.247  -8.479  1.00  0.00    -0.550 OA
ENDBRANCH   6   7
ENDBRANCH   5   6
ENDBRANCH   4   5
ENDBRANCH   3   4
ENDBRANCH   2   3
ENDBRANCH   1   2
BRANCH   1  10
ATOM     10  C   UNL     1      -3.273   4.346  -2.539  1.00  0.00     0.000 C 
BRANCH  10  11
ATOM     11  C   UNL     1      -3.149   5.108  -1.207  1.00  0.00    -0.000 C 
BRANCH  11  12
ATOM     12  C   UNL     1      -3.040   4.171   0.007  1.00  0.00    -0.000 C 
BRANCH  12  13
ATOM     13  C   UNL     1      -2.539   2.768  -0.374  1.00  0.00    -0.000 C 
BRANCH  13  14
ATOM     14  C   UNL     1      -3.579   1.671  -0.098  1.00  0.00    -0.000 C 
BRANCH  14  15
ATOM     15  C   UNL     1      -3.045   0.293  -0.513  1.00  0.00    -0.000 C 
BRANCH  15  16
ATOM     16  C   UNL     1      -4.148  -0.634  -1.046  1.00  0.00    -0.003 C 
ATOM     17  C   UNL     1      -3.670  -1.526  -2.191  1.00  0.00     0.004 C 
ENDBRANCH  15  16
ENDBRANCH  14  15
ENDBRANCH  13  14
ENDBRANCH  12  13
ENDBRANCH  11  12
ENDBRANCH  10  11
ENDBRANCH   1  10
TORSDOF 13
ENDMDL
MODEL 5
REMARK VINA RESULT:    -2.899      3.231      4.982
REMARK INTER + INTRA:          -6.015
REMARK INTER:                  -5.545
REMARK INTRA:                  -0.470
REMARK UNBOUND:                -0.912
REMARK SMILES CCCCCCCCCCCCCCC(=O)[O-]
REMARK SMILES IDX 9 1 10 2 11 3 12 4 13 5 14 6 15 7 16 8 17 9 8 10 7 11 6 12
REMARK SMILES IDX 5 13 4 14 3 15 2 16 1 17
REMARK H PARENT
REMARK Flexibility Score: inf
ROOT
ATOM      1  C   UNL     1      -2.793   3.561  -0.959  1.00  0.00     0.000 C 
ENDROOT
BRANCH   1   2
ATOM      2  C   UNL     1      -3.466   3.195   0.377  1.00  0.00     0.000 C 
BRANCH   2   3
ATOM      3  C   UNL     1      -4.027   1.764   0.391  1.00  0.00     0.000 C 
BRANCH   3   4
ATOM      4  C   UNL     1      -3.356   0.847  -0.648  1.00  0.00     0.000 C 
BRANCH   4   5
ATOM      5  C   UNL     1      -3.938  -0.579  -0.742  1.00  0.00     0.006 C 
BRANCH   5   6
ATOM      6  C   UNL     1      -3.768  -1.249  -2.114  1.00  0.00     0.053 C 
BRANCH   6   7
ATOM      7  C   UNL     1      -3.832  -2.743  -2.020  1.00  0.00     0.041 C 
ATOM      8  O   UNL     1      -3.913  -3.441  -3.063  1.00  0.00    -0.550 OA
ATOM      9  O   UNL     1      -3.838  -3.360  -0.775  1.00  0.00    -0.550 OA
ENDBRANCH   6   7
ENDBRANCH   5   6
ENDBRANCH   4   5
ENDBRANCH   3   4
ENDBRANCH   2   3
ENDBRANCH   1   2
BRANCH   1  10
ATOM     10  C   UNL     1      -3.226   4.910  -1.570  1.00  0.00     0.000 C 
BRANCH  10  11
ATOM     11  C   UNL     1      -3.601   4.865  -3.063  1.00  0.00    -0.000 C 
BRANCH  11  12
ATOM     12  C   UNL     1      -4.896   5.635  -3.374  1.00  0.00    -0.000 C 
BRANCH  12  13
ATOM     13  C   UNL     1      -5.278   5.569  -4.862  1.00  0.00    -0.000 C 
BRANCH  13  14
ATOM     14  C   UNL     1      -6.469   6.476  -5.210  1.00  0.00    -0.000 C 
BRANCH  14  15
ATOM     15  C   UNL     1      -7.308   5.867  -6.343  1.00  0.00    -0.000 C 
BRANCH  15  16
ATOM     16  C   UNL     1      -7.182   6.651  -7.658  1.00  0.00    -0.003 C 
ATOM     17  C   UNL     1      -7.259   8.164  -7.456  1.00  0.00     0.004 C 
ENDBRANCH  15  16
ENDBRANCH  14  15
ENDBRANCH  13  14
ENDBRANCH  12  13
ENDBRANCH  11  12
ENDBRANCH  10  11
ENDBRANCH   1  10
TORSDOF 13
ENDMDL
MODEL 6
REMARK VINA RESULT:    -2.870      0.959      1.978
REMARK INTER + INTRA:          -5.964
REMARK INTER:                  -5.200
REMARK INTRA:                  -0.764
REMARK UNBOUND:                -0.912
REMARK SMILES CCCCCCCCCCCCCCC(=O)[O-]
REMARK SMILES IDX 9 1 10 2 11 3 12 4 13 5 14 6 15 7 16 8 17 9 8 10 7 11 6 12
REMARK SMILES IDX 5 13 4 14 3 15 2 16 1 17
REMARK H PARENT
REMARK Flexibility Score: inf
ROOT
ATOM      1  C   UNL     1      -4.312  -0.281  -0.428  1.00  0.00     0.000 C 
ENDROOT
BRANCH   1   2
ATOM      2  C   UNL     1      -3.370  -0.821  -1.520  1.00  0.00     0.000 C 
BRANCH   2   3
ATOM      3  C   UNL     1      -4.114  -1.590  -2.624  1.00  0.00     0.000 C 
BRANCH   3   4
ATOM      4  C   UNL     1      -3.515  -2.983  -2.891  1.00  0.00     0.000 C 
BRANCH   4   5
ATOM      5  C   UNL     1      -4.048  -4.114  -1.987  1.00  0.00     0.006 C 
BRANCH   5   6
ATOM      6  C   UNL     1      -3.625  -4.007  -0.514  1.00  0.00     0.053 C 
BRANCH   6   7
ATOM      7  C   UNL     1      -4.675  -4.543   0.411  1.00  0.00     0.041 C 
ATOM      8  O   UNL     1      -5.156  -3.812   1.316  1.00  0.00    -0.550 OA
ATOM      9  O   UNL     1      -5.096  -5.861   0.294  1.00  0.00    -0.550 OA
ENDBRANCH   6   7
ENDBRANCH   5   6
ENDBRANCH   4   5
ENDBRANCH   3   4
ENDBRANCH   2   3
ENDBRANCH   1   2
BRANCH   1  10
ATOM     10  C   UNL     1      -4.063   1.181  -0.004  1.00  0.00     0.000 C 
BRANCH  10  11
ATOM     11  C   UNL     1      -2.603   1.526   0.344  1.00  0.00    -0.000 C 
BRANCH  11  12
ATOM     12  C   UNL     1      -2.112   2.806  -0.352  1.00  0.00    -0.000 C 
BRANCH  12  13
ATOM     13  C   UNL     1      -3.059   3.270  -1.470  1.00  0.00    -0.000 C 
BRANCH  13  14
ATOM     14  C   UNL     1      -3.064   4.797  -1.648  1.00  0.00    -0.000 C 
BRANCH  14  15
ATOM     15  C   UNL     1      -3.419   5.501  -0.331  1.00  0.00    -0.000 C 
BRANCH  15  16
ATOM     16  C   UNL     1      -2.207   6.186   0.319  1.00  0.00    -0.003 C 
ATOM     17  C   UNL     1      -2.125   5.941   1.825  1.00  0.00     0.004 C 
ENDBRANCH  15  16
ENDBRANCH  14  15
ENDBRANCH  13  14
ENDBRANCH  12  13
ENDBRANCH  11  12
ENDBRANCH  10  11
ENDBRANCH   1  10
TORSDOF 13
ENDMDL
MODEL 7
REMARK VINA RESULT:    -2.727      4.934      7.897
REMARK INTER + INTRA:          -5.711
REMARK INTER:                  -4.860
REMARK INTRA:                  -0.851
REMARK UNBOUND:                -0.912
REMARK SMILES CCCCCCCCCCCCCCC(=O)[O-]
REMARK SMILES IDX 9 1 10 2 11 3 12 4 13 5 14 6 15 7 16 8 17 9 8 10 7 11 6 12
REMARK SMILES IDX 5 13 4 14 3 15 2 16 1 17
REMARK H PARENT
REMARK Flexibility Score: inf
ROOT
ATOM      1  C   UNL     1      -5.258   5.618  -3.715  1.00  0.00     0.000 C 
ENDROOT
BRANCH   1   2
ATOM      2  C   UNL     1      -3.768   5.231  -3.780  1.00  0.00     0.000 C 
BRANCH   2   3
ATOM      3  C   UNL     1      -3.328   4.347  -2.602  1.00  0.00     0.000 C 
BRANCH   3   4
ATOM      4  C   UNL     1      -3.047   5.154  -1.321  1.00  0.00     0.000 C 
BRANCH   4   5
ATOM      5  C   UNL     1      -3.001   4.328  -0.019  1.00  0.00     0.006 C 
BRANCH   5   6
ATOM      6  C   UNL     1      -2.597   2.858  -0.209  1.00  0.00     0.053 C 
BRANCH   6   7
ATOM      7  C   UNL     1      -3.691   1.920   0.202  1.00  0.00     0.041 C 
ATOM      8  O   UNL     1      -4.496   2.245   1.113  1.00  0.00    -0.550 OA
ATOM      9  O   UNL     1      -3.797   0.672  -0.398  1.00  0.00    -0.550 OA
ENDBRANCH   6   7
ENDBRANCH   5   6
ENDBRANCH   4   5
ENDBRANCH   3   4
ENDBRANCH   2   3
ENDBRANCH   1   2
BRANCH   1  10
ATOM     10  C   UNL     1      -5.776   6.455  -4.902  1.00  0.00     0.000 C 
BRANCH  10  11
ATOM     11  C   UNL     1      -6.938   5.827  -5.693  1.00  0.00    -0.000 C 
BRANCH  11  12
ATOM     12  C   UNL     1      -6.760   5.955  -7.215  1.00  0.00    -0.000 C 
BRANCH  12  13
ATOM     13  C   UNL     1      -8.033   6.452  -7.918  1.00  0.00    -0.000 C 
BRANCH  13  14
ATOM     14  C   UNL     1      -7.849   7.828  -8.577  1.00  0.00    -0.000 C 
BRANCH  14  15
ATOM     15  C   UNL     1      -6.365   8.219  -8.621  1.00  0.00    -0.000 C 
BRANCH  15  16
ATOM     16  C   UNL     1      -6.089   9.572  -7.947  1.00  0.00    -0.003 C 
ATOM     17  C   UNL     1      -7.286  10.094  -7.154  1.00  0.00     0.004 C 
ENDBRANCH  15  16
ENDBRANCH  14  15
ENDBRANCH  13  14
ENDBRANCH  12  13
ENDBRANCH  11  12
ENDBRANCH  10  11
ENDBRANCH   1  10
TORSDOF 13
ENDMDL
MODEL 8
REMARK VINA RESULT:    -2.670      3.713      7.851
REMARK INTER + INTRA:          -5.611
REMARK INTER:                  -4.786
REMARK INTRA:                  -0.825
REMARK UNBOUND:                -0.912
REMARK SMILES CCCCCCCCCCCCCCC(=O)[O-]
REMARK SMILES IDX 9 1 10 2 11 3 12 4 13 5 14 6 15 7 16 8 17 9 8 10 7 11 6 12
REMARK SMILES IDX 5 13 4 14 3 15 2 16 1 17
REMARK H PARENT
REMARK Flexibility Score: inf
ROOT
ATOM      1  C   UNL     1      -4.094   1.600   0.262  1.00  0.00     0.000 C 
ENDROOT
BRANCH   1   2
ATOM      2  C   UNL     1      -4.094   3.021   0.857  1.00  0.00     0.000 C 
BRANCH   2   3
ATOM      3  C   UNL     1      -2.712   3.691   0.805  1.00  0.00     0.000 C 
BRANCH   3   4
ATOM      4  C   UNL     1      -2.775   5.159   0.345  1.00  0.00     0.000 C 
BRANCH   4   5
ATOM      5  C   UNL     1      -3.132   5.369  -1.141  1.00  0.00     0.006 C 
BRANCH   5   6
ATOM      6  C   UNL     1      -2.784   4.186  -2.056  1.00  0.00     0.053 C 
BRANCH   6   7
ATOM      7  C   UNL     1      -3.018   4.506  -3.501  1.00  0.00     0.041 C 
ATOM      8  O   UNL     1      -2.209   4.108  -4.378  1.00  0.00    -0.550 OA
ATOM      9  O   UNL     1      -4.114   5.275  -3.872  1.00  0.00    -0.550 OA
ENDBRANCH   6   7
ENDBRANCH   5   6
ENDBRANCH   4   5
ENDBRANCH   3   4
ENDBRANCH   2   3
ENDBRANCH   1   2
BRANCH   1  10
ATOM     10  C   UNL     1      -2.701   1.003  -0.024  1.00  0.00     0.000 C 
BRANCH  10  11
ATOM     11  C   UNL     1      -2.672  -0.131  -1.066  1.00  0.00    -0.000 C 
BRANCH  11  12
ATOM     12  C   UNL     1      -3.984  -0.931  -1.110  1.00  0.00    -0.000 C 
BRANCH  12  13
ATOM     13  C   UNL     1      -4.240  -1.570  -2.485  1.00  0.00    -0.000 C 
BRANCH  13  14
ATOM     14  C   UNL     1      -3.800  -3.041  -2.548  1.00  0.00    -0.000 C 
BRANCH  14  15
ATOM     15  C   UNL     1      -3.443  -3.565  -1.149  1.00  0.00    -0.000 C 
BRANCH  15  16
ATOM     16  C   UNL     1      -4.459  -4.592  -0.625  1.00  0.00    -0.003 C 
ATOM     17  C   UNL     1      -4.714  -4.458   0.876  1.00  0.00     0.004 C 
ENDBRANCH  15  16
ENDBRANCH  14  15
ENDBRANCH  13  14
ENDBRANCH  12  13
ENDBRANCH  11  12
ENDBRANCH  10  11
ENDBRANCH   1  10
TORSDOF 13
ENDMDL
MODEL 9
REMARK VINA RESULT:    -2.560      1.219      2.000
REMARK INTER + INTRA:          -5.418
REMARK INTER:                  -4.571
REMARK INTRA:                  -0.847
REMARK UNBOUND:                -0.912
REMARK SMILES CCCCCCCCCCCCCCC(=O)[O-]
REMARK SMILES IDX 9 1 10 2 11 3 12 4 13 5 14 6 15 7 16 8 17 9 8 10 7 11 6 12
REMARK SMILES IDX 5 13 4 14 3 15 2 16 1 17
REMARK H PARENT
REMARK Flexibility Score: inf
ROOT
ATOM      1  C   UNL     1      -4.284   0.618  -0.154  1.00  0.00     0.000 C 
ENDROOT
BRANCH   1   2
ATOM      2  C   UNL     1      -3.104  -0.068  -0.869  1.00  0.00     0.000 C 
BRANCH   2   3
ATOM      3  C   UNL     1      -3.508  -0.712  -2.205  1.00  0.00     0.000 C 
BRANCH   3   4
ATOM      4  C   UNL     1      -4.420  -1.939  -2.027  1.00  0.00     0.000 C 
BRANCH   4   5
ATOM      5  C   UNL     1      -3.689  -3.295  -1.930  1.00  0.00     0.006 C 
BRANCH   5   6
ATOM      6  C   UNL     1      -3.349  -3.737  -0.498  1.00  0.00     0.053 C 
BRANCH   6   7
ATOM      7  C   UNL     1      -4.497  -4.441   0.158  1.00  0.00     0.041 C 
ATOM      8  O   UNL     1      -4.937  -5.519  -0.320  1.00  0.00    -0.550 OA
ATOM      9  O   UNL     1      -5.103  -3.886   1.278  1.00  0.00    -0.550 OA
ENDBRANCH   6   7
ENDBRANCH   5   6
ENDBRANCH   4   5
ENDBRANCH   3   4
ENDBRANCH   2   3
ENDBRANCH   1   2
BRANCH   1  10
ATOM     10  C   UNL     1      -3.979   2.008   0.441  1.00  0.00     0.000 C 
BRANCH  10  11
ATOM     11  C   UNL     1      -2.785   2.747  -0.192  1.00  0.00    -0.000 C 
BRANCH  11  12
ATOM     12  C   UNL     1      -2.839   4.267   0.034  1.00  0.00    -0.000 C 
BRANCH  12  13
ATOM     13  C   UNL     1      -3.264   5.036  -1.227  1.00  0.00    -0.000 C 
BRANCH  13  14
ATOM     14  C   UNL     1      -2.914   4.290  -2.524  1.00  0.00    -0.000 C 
BRANCH  14  15
ATOM     15  C   UNL     1      -3.604   4.940  -3.732  1.00  0.00    -0.000 C 
BRANCH  15  16
ATOM     16  C   UNL     1      -4.907   5.659  -3.354  1.00  0.00    -0.003 C 
ATOM     17  C   UNL     1      -5.759   6.021  -4.570  1.00  0.00     0.004 C 
ENDBRANCH  15  16
ENDBRANCH  14  15
ENDBRANCH  13  14
ENDBRANCH  12  13
ENDBRANCH  11  12
ENDBRANCH  10  11
ENDBRANCH   1  10
TORSDOF 13
ENDMDL
