MODEL 1
REMARK VINA RESULT:    -1.799      0.000      0.000
REMARK INTER + INTRA:          -1.799
REMARK INTER:                  -1.799
REMARK INTRA:                   0.000
REMARK UNBOUND:                 0.000
REMARK SMILES CC(=O)[O-]
REMARK SMILES IDX 1 1 2 2 3 3 4 4
REMARK H PARENT
REMARK Flexibility Score: inf
ROOT
ATOM      1  C   UNL     1      71.215  32.334  59.095  1.00  0.00     0.063 C 
ATOM      2  C   UNL     1      71.613  32.738  60.474  1.00  0.00     0.038 C 
ATOM      3  O   UNL     1      71.339  33.891  60.899  1.00  0.00    -0.550 OA
ATOM      4  O   UNL     1      72.335  31.862  61.275  1.00  0.00    -0.550 OA
ENDROOT
TORSDOF 0
ENDMDL
MODEL 2
REMARK VINA RESULT:    -1.783      7.653      7.922
REMARK INTER + INTRA:          -1.783
REMARK INTER:                  -1.783
REMARK INTRA:                   0.000
REMARK UNBOUND:                 0.000
REMARK SMILES CC(=O)[O-]
REMARK SMILES IDX 1 1 2 2 3 3 4 4
REMARK H PARENT
REMARK Flexibility Score: inf
ROOT
ATOM      1  C   UNL     1      62.934  35.441  61.195  1.00  0.00     0.063 C 
ATOM      2  C   UNL     1      64.190  34.720  61.548  1.00  0.00     0.038 C 
ATOM      3  O   UNL     1      65.188  35.360  61.971  1.00  0.00    -0.550 OA
ATOM      4  O   UNL     1      64.282  33.347  61.360  1.00  0.00    -0.550 OA
ENDROOT
TORSDOF 0
ENDMDL
MODEL 3
REMARK VINA RESULT:    -1.768      9.916     10.029
REMARK INTER + INTRA:          -1.768
REMARK INTER:                  -1.768
REMARK INTRA:                   0.000
REMARK UNBOUND:                 0.000
REMARK SMILES CC(=O)[O-]
REMARK SMILES IDX 1 1 2 2 3 3 4 4
REMARK H PARENT
REMARK Flexibility Score: inf
ROOT
ATOM      1  C   UNL     1      61.149  30.886  61.925  1.00  0.00     0.063 C 
ATOM      2  C   UNL     1      62.282  29.916  61.948  1.00  0.00     0.038 C 
ATOM      3  O   UNL     1      62.053  28.680  62.019  1.00  0.00    -0.550 OA
ATOM      4  O   UNL     1      63.593  30.375  61.945  1.00  0.00    -0.550 OA
ENDROOT
TORSDOF 0
ENDMDL
MODEL 4
REMARK VINA RESULT:    -1.724     16.724     17.093
REMARK INTER + INTRA:          -1.724
REMARK INTER:                  -1.724
REMARK INTRA:                   0.000
REMARK UNBOUND:                 0.000
REMARK SMILES CC(=O)[O-]
REMARK SMILES IDX 1 1 2 2 3 3 4 4
REMARK H PARENT
REMARK Flexibility Score: inf
ROOT
ATOM      1  C   UNL     1      59.091  28.879  49.220  1.00  0.00     0.063 C 
ATOM      2  C   UNL     1      59.948  27.659  49.194  1.00  0.00     0.038 C 
ATOM      3  O   UNL     1      61.200  27.768  49.123  1.00  0.00    -0.550 OA
ATOM      4  O   UNL     1      59.365  26.398  49.192  1.00  0.00    -0.550 OA
ENDROOT
TORSDOF 0
ENDMDL
MODEL 5
REMARK VINA RESULT:    -1.708      1.779      2.066
REMARK INTER + INTRA:          -1.708
REMARK INTER:                  -1.708
REMARK INTRA:                   0.000
REMARK UNBOUND:                 0.000
REMARK SMILES CC(=O)[O-]
REMARK SMILES IDX 1 1 2 2 3 3 4 4
REMARK H PARENT
REMARK Flexibility Score: inf
ROOT
ATOM      1  C   UNL     1      72.012  32.271  60.828  1.00  0.00     0.063 C 
ATOM      2  C   UNL     1      71.291  33.447  60.259  1.00  0.00     0.038 C 
ATOM      3  O   UNL     1      70.968  33.460  59.043  1.00  0.00    -0.550 OA
ATOM      4  O   UNL     1      71.023  34.552  61.056  1.00  0.00    -0.550 OA
ENDROOT
TORSDOF 0
ENDMDL
MODEL 6
REMARK VINA RESULT:    -1.681     20.670     21.023
REMARK INTER + INTRA:          -1.681
REMARK INTER:                  -1.681
REMARK INTRA:                   0.000
REMARK UNBOUND:                 0.000
REMARK SMILES CC(=O)[O-]
REMARK SMILES IDX 1 1 2 2 3 3 4 4
REMARK H PARENT
REMARK Flexibility Score: inf
ROOT
ATOM      1  C   UNL     1      54.373  27.453  50.043  1.00  0.00     0.063 C 
ATOM      2  C   UNL     1      54.919  26.100  49.735  1.00  0.00     0.038 C 
ATOM      3  O   UNL     1      56.144  25.861  49.897  1.00  0.00    -0.550 OA
ATOM      4  O   UNL     1      54.087  25.115  49.217  1.00  0.00    -0.550 OA
ENDROOT
TORSDOF 0
ENDMDL
MODEL 7
REMARK VINA RESULT:    -1.677      9.871     10.060
REMARK INTER + INTRA:          -1.677
REMARK INTER:                  -1.677
REMARK INTRA:                   0.000
REMARK UNBOUND:                 0.000
REMARK SMILES CC(=O)[O-]
REMARK SMILES IDX 1 1 2 2 3 3 4 4
REMARK H PARENT
REMARK Flexibility Score: inf
ROOT
ATOM      1  C   UNL     1      63.672  30.346  61.686  1.00  0.00     0.063 C 
ATOM      2  C   UNL     1      62.293  29.863  61.984  1.00  0.00     0.038 C 
ATOM      3  O   UNL     1      62.046  28.629  62.006  1.00  0.00    -0.550 OA
ATOM      4  O   UNL     1      61.264  30.775  62.185  1.00  0.00    -0.550 OA
ENDROOT
TORSDOF 0
ENDMDL
MODEL 8
REMARK VINA RESULT:    -1.672     22.412     22.853
REMARK INTER + INTRA:          -1.672
REMARK INTER:                  -1.672
REMARK INTRA:                   0.000
REMARK UNBOUND:                 0.000
REMARK SMILES CC(=O)[O-]
REMARK SMILES IDX 1 1 2 2 3 3 4 4
REMARK H PARENT
REMARK Flexibility Score: inf
ROOT
ATOM      1  C   UNL     1      58.077  17.103  50.558  1.00  0.00     0.063 C 
ATOM      2  C   UNL     1      58.655  17.649  49.296  1.00  0.00     0.038 C 
ATOM      3  O   UNL     1      58.691  16.937  48.259  1.00  0.00    -0.550 OA
ATOM      4  O   UNL     1      59.204  18.925  49.275  1.00  0.00    -0.550 OA
ENDROOT
TORSDOF 0
ENDMDL
MODEL 9
REMARK VINA RESULT:    -1.635      8.207      8.695
REMARK INTER + INTRA:          -1.635
REMARK INTER:                  -1.635
REMARK INTRA:                   0.000
REMARK UNBOUND:                 0.000
REMARK SMILES CC(=O)[O-]
REMARK SMILES IDX 1 1 2 2 3 3 4 4
REMARK H PARENT
REMARK Flexibility Score: inf
ROOT
ATOM      1  C   UNL     1      64.875  35.375  61.902  1.00  0.00     0.063 C 
ATOM      2  C   UNL     1      63.561  34.892  61.391  1.00  0.00     0.038 C 
ATOM      3  O   UNL     1      63.456  33.732  60.914  1.00  0.00    -0.550 OA
ATOM      4  O   UNL     1      62.460  35.740  61.390  1.00  0.00    -0.550 OA
ENDROOT
TORSDOF 0
ENDMDL
