MODEL 1
REMARK VINA RESULT:    -4.159      0.000      0.000
REMARK INTER + INTRA:          -6.800
REMARK INTER:                  -6.348
REMARK INTRA:                  -0.452
REMARK UNBOUND:                -0.452
REMARK SMILES O=C([O-])CCCCCCCCC(=O)[O-]
REMARK SMILES IDX 7 1 6 2 5 3 4 4 2 5 1 6 3 7 8 8 9 9 10 10 11 11 12 12 13 13
REMARK SMILES IDX 14 14
REMARK H PARENT
REMARK Flexibility Score: inf
ROOT
ATOM      1  C   UNL     1      13.638  25.279  33.108  1.00  0.00     0.000 C 
ENDROOT
BRANCH   1   2
ATOM      2  C   UNL     1      12.513  26.033  33.833  1.00  0.00     0.000 C 
BRANCH   2   3
ATOM      3  C   UNL     1      12.934  26.525  35.227  1.00  0.00     0.006 C 
BRANCH   3   4
ATOM      4  C   UNL     1      11.774  27.163  36.002  1.00  0.00     0.053 C 
BRANCH   4   5
ATOM      5  C   UNL     1      11.629  28.605  35.628  1.00  0.00     0.041 C 
ATOM      6  O   UNL     1      10.710  28.967  34.846  1.00  0.00    -0.550 OA
ATOM      7  O   UNL     1      12.475  29.556  36.184  1.00  0.00    -0.550 OA
ENDBRANCH   4   5
ENDBRANCH   3   4
ENDBRANCH   2   3
ENDBRANCH   1   2
BRANCH   1   8
ATOM      8  C   UNL     1      15.017  25.751  33.594  1.00  0.00     0.000 C 
BRANCH   8   9
ATOM      9  C   UNL     1      16.083  24.641  33.549  1.00  0.00     0.000 C 
BRANCH   9  10
ATOM     10  C   UNL     1      15.580  23.277  33.044  1.00  0.00     0.006 C 
BRANCH  10  11
ATOM     11  C   UNL     1      16.506  22.117  33.431  1.00  0.00     0.053 C 
BRANCH  11  12
ATOM     12  C   UNL     1      15.819  21.197  34.389  1.00  0.00     0.041 C 
ATOM     13  O   UNL     1      15.557  20.011  34.053  1.00  0.00    -0.550 OA
ATOM     14  O   UNL     1      15.421  21.661  35.636  1.00  0.00    -0.550 OA
ENDBRANCH  11  12
ENDBRANCH  10  11
ENDBRANCH   9  10
ENDBRANCH   8   9
ENDBRANCH   1   8
TORSDOF 9
ENDMDL
MODEL 2
REMARK VINA RESULT:    -4.132      0.833      6.773
REMARK INTER + INTRA:          -6.757
REMARK INTER:                  -5.995
REMARK INTRA:                  -0.762
REMARK UNBOUND:                -0.452
REMARK SMILES O=C([O-])CCCCCCCCC(=O)[O-]
REMARK SMILES IDX 7 1 6 2 5 3 4 4 2 5 1 6 3 7 8 8 9 9 10 10 11 11 12 12 13 13
REMARK SMILES IDX 14 14
REMARK H PARENT
REMARK Flexibility Score: inf
ROOT
ATOM      1  C   UNL     1      13.778  25.340  33.043  1.00  0.00     0.000 C 
ENDROOT
BRANCH   1   2
ATOM      2  C   UNL     1      15.172  25.843  33.447  1.00  0.00     0.000 C 
BRANCH   2   3
ATOM      3  C   UNL     1      16.196  24.704  33.579  1.00  0.00     0.006 C 
BRANCH   3   4
ATOM      4  C   UNL     1      15.627  23.346  33.151  1.00  0.00     0.053 C 
BRANCH   4   5
ATOM      5  C   UNL     1      15.585  22.408  34.317  1.00  0.00     0.041 C 
ATOM      6  O   UNL     1      15.281  22.834  35.462  1.00  0.00    -0.550 OA
ATOM      7  O   UNL     1      15.834  21.054  34.129  1.00  0.00    -0.550 OA
ENDBRANCH   4   5
ENDBRANCH   3   4
ENDBRANCH   2   3
ENDBRANCH   1   2
BRANCH   1   8
ATOM      8  C   UNL     1      12.702  25.887  33.993  1.00  0.00     0.000 C 
BRANCH   8   9
ATOM      9  C   UNL     1      13.068  25.715  35.479  1.00  0.00     0.000 C 
BRANCH   9  10
ATOM     10  C   UNL     1      12.613  26.863  36.398  1.00  0.00     0.006 C 
BRANCH  10  11
ATOM     11  C   UNL     1      13.023  28.245  35.876  1.00  0.00     0.053 C 
BRANCH  11  12
ATOM     12  C   UNL     1      11.825  29.132  35.749  1.00  0.00     0.041 C 
ATOM     13  O   UNL     1      10.841  28.772  35.050  1.00  0.00    -0.550 OA
ATOM     14  O   UNL     1      11.815  30.379  36.361  1.00  0.00    -0.550 OA
ENDBRANCH  11  12
ENDBRANCH  10  11
ENDBRANCH   9  10
ENDBRANCH   8   9
ENDBRANCH   1   8
TORSDOF 9
ENDMDL
MODEL 3
REMARK VINA RESULT:    -4.094      3.182      4.142
REMARK INTER + INTRA:          -6.700
REMARK INTER:                  -5.853
REMARK INTRA:                  -0.846
REMARK UNBOUND:                -0.452
REMARK SMILES O=C([O-])CCCCCCCCC(=O)[O-]
REMARK SMILES IDX 7 1 6 2 5 3 4 4 2 5 1 6 3 7 8 8 9 9 10 10 11 11 12 12 13 13
REMARK SMILES IDX 14 14
REMARK H PARENT
REMARK Flexibility Score: inf
ROOT
ATOM      1  C   UNL     1      13.624  25.189  33.071  1.00  0.00     0.000 C 
ENDROOT
BRANCH   1   2
ATOM      2  C   UNL     1      12.636  26.028  33.895  1.00  0.00     0.000 C 
BRANCH   2   3
ATOM      3  C   UNL     1      13.055  26.158  35.368  1.00  0.00     0.006 C 
BRANCH   3   4
ATOM      4  C   UNL     1      12.012  26.900  36.215  1.00  0.00     0.053 C 
BRANCH   4   5
ATOM      5  C   UNL     1      11.933  28.336  35.803  1.00  0.00     0.041 C 
ATOM      6  O   UNL     1      12.882  29.123  36.061  1.00  0.00    -0.550 OA
ATOM      7  O   UNL     1      10.833  28.795  35.090  1.00  0.00    -0.550 OA
ENDBRANCH   4   5
ENDBRANCH   3   4
ENDBRANCH   2   3
ENDBRANCH   1   2
BRANCH   1   8
ATOM      8  C   UNL     1      14.623  24.463  33.986  1.00  0.00     0.000 C 
BRANCH   8   9
ATOM      9  C   UNL     1      16.089  24.673  33.563  1.00  0.00     0.000 C 
BRANCH   9  10
ATOM     10  C   UNL     1      16.711  26.006  34.015  1.00  0.00     0.006 C 
BRANCH  10  11
ATOM     11  C   UNL     1      16.960  26.975  32.854  1.00  0.00     0.053 C 
BRANCH  11  12
ATOM     12  C   UNL     1      16.232  28.263  33.081  1.00  0.00     0.041 C 
ATOM     13  O   UNL     1      15.394  28.360  34.016  1.00  0.00    -0.550 OA
ATOM     14  O   UNL     1      16.441  29.339  32.229  1.00  0.00    -0.550 OA
ENDBRANCH  11  12
ENDBRANCH  10  11
ENDBRANCH   9  10
ENDBRANCH   8   9
ENDBRANCH   1   8
TORSDOF 9
ENDMDL
MODEL 4
REMARK VINA RESULT:    -4.059      1.678      2.107
REMARK INTER + INTRA:          -6.646
REMARK INTER:                  -5.799
REMARK INTRA:                  -0.847
REMARK UNBOUND:                -0.452
REMARK SMILES O=C([O-])CCCCCCCCC(=O)[O-]
REMARK SMILES IDX 7 1 6 2 5 3 4 4 2 5 1 6 3 7 8 8 9 9 10 10 11 11 12 12 13 13
REMARK SMILES IDX 14 14
REMARK H PARENT
REMARK Flexibility Score: inf
ROOT
ATOM      1  C   UNL     1      12.835  25.670  33.725  1.00  0.00     0.000 C 
ENDROOT
BRANCH   1   2
ATOM      2  C   UNL     1      13.542  26.896  34.321  1.00  0.00     0.000 C 
BRANCH   2   3
ATOM      3  C   UNL     1      13.273  27.062  35.825  1.00  0.00     0.006 C 
BRANCH   3   4
ATOM      4  C   UNL     1      11.800  27.363  36.132  1.00  0.00     0.053 C 
BRANCH   4   5
ATOM      5  C   UNL     1      11.442  28.739  35.667  1.00  0.00     0.041 C 
ATOM      6  O   UNL     1      11.936  29.749  36.236  1.00  0.00    -0.550 OA
ATOM      7  O   UNL     1      10.602  28.907  34.573  1.00  0.00    -0.550 OA
ENDBRANCH   4   5
ENDBRANCH   3   4
ENDBRANCH   2   3
ENDBRANCH   1   2
BRANCH   1   8
ATOM      8  C   UNL     1      13.821  24.801  32.929  1.00  0.00     0.000 C 
BRANCH   8   9
ATOM      9  C   UNL     1      15.288  25.032  33.335  1.00  0.00     0.000 C 
BRANCH   9  10
ATOM     10  C   UNL     1      16.088  23.752  33.638  1.00  0.00     0.006 C 
BRANCH  10  11
ATOM     11  C   UNL     1      15.445  22.889  34.730  1.00  0.00     0.053 C 
BRANCH  11  12
ATOM     12  C   UNL     1      15.450  23.613  36.039  1.00  0.00     0.041 C 
ATOM     13  O   UNL     1      14.373  23.797  36.666  1.00  0.00    -0.550 OA
ATOM     14  O   UNL     1      16.637  24.128  36.544  1.00  0.00    -0.550 OA
ENDBRANCH  11  12
ENDBRANCH  10  11
ENDBRANCH   9  10
ENDBRANCH   8   9
ENDBRANCH   1   8
TORSDOF 9
ENDMDL
MODEL 5
REMARK VINA RESULT:    -4.037      1.156      7.374
REMARK INTER + INTRA:          -6.612
REMARK INTER:                  -6.359
REMARK INTRA:                  -0.253
REMARK UNBOUND:                -0.452
REMARK SMILES O=C([O-])CCCCCCCCC(=O)[O-]
REMARK SMILES IDX 7 1 6 2 5 3 4 4 2 5 1 6 3 7 8 8 9 9 10 10 11 11 12 12 13 13
REMARK SMILES IDX 14 14
REMARK H PARENT
REMARK Flexibility Score: inf
ROOT
ATOM      1  C   UNL     1      15.016  23.932  32.976  1.00  0.00     0.000 C 
ENDROOT
BRANCH   1   2
ATOM      2  C   UNL     1      16.195  23.629  33.914  1.00  0.00     0.000 C 
BRANCH   2   3
ATOM      3  C   UNL     1      16.025  22.301  34.669  1.00  0.00     0.006 C 
BRANCH   3   4
ATOM      4  C   UNL     1      16.222  21.079  33.763  1.00  0.00     0.053 C 
BRANCH   4   5
ATOM      5  C   UNL     1      16.045  19.816  34.547  1.00  0.00     0.041 C 
ATOM      6  O   UNL     1      16.964  19.407  35.306  1.00  0.00    -0.550 OA
ATOM      7  O   UNL     1      14.846  19.118  34.479  1.00  0.00    -0.550 OA
ENDBRANCH   4   5
ENDBRANCH   3   4
ENDBRANCH   2   3
ENDBRANCH   1   2
BRANCH   1   8
ATOM      8  C   UNL     1      14.422  25.317  33.273  1.00  0.00     0.000 C 
BRANCH   8   9
ATOM      9  C   UNL     1      12.888  25.296  33.415  1.00  0.00     0.000 C 
BRANCH   9  10
ATOM     10  C   UNL     1      12.255  26.637  33.825  1.00  0.00     0.006 C 
BRANCH  10  11
ATOM     11  C   UNL     1      12.719  27.120  35.205  1.00  0.00     0.053 C 
BRANCH  11  12
ATOM     12  C   UNL     1      11.765  28.135  35.751  1.00  0.00     0.041 C 
ATOM     13  O   UNL     1      10.931  28.695  34.991  1.00  0.00    -0.550 OA
ATOM     14  O   UNL     1      11.830  28.501  37.089  1.00  0.00    -0.550 OA
ENDBRANCH  11  12
ENDBRANCH  10  11
ENDBRANCH   9  10
ENDBRANCH   8   9
ENDBRANCH   1   8
TORSDOF 9
ENDMDL
MODEL 6
REMARK VINA RESULT:    -3.871      1.758      2.371
REMARK INTER + INTRA:          -6.360
REMARK INTER:                  -5.810
REMARK INTRA:                  -0.550
REMARK UNBOUND:                -0.452
REMARK SMILES O=C([O-])CCCCCCCCC(=O)[O-]
REMARK SMILES IDX 7 1 6 2 5 3 4 4 2 5 1 6 3 7 8 8 9 9 10 10 11 11 12 12 13 13
REMARK SMILES IDX 14 14
REMARK H PARENT
REMARK Flexibility Score: inf
ROOT
ATOM      1  C   UNL     1      14.283  25.092  33.020  1.00  0.00     0.000 C 
ENDROOT
BRANCH   1   2
ATOM      2  C   UNL     1      12.803  25.283  33.387  1.00  0.00     0.000 C 
BRANCH   2   3
ATOM      3  C   UNL     1      12.536  26.621  34.095  1.00  0.00     0.006 C 
BRANCH   3   4
ATOM      4  C   UNL     1      13.417  26.817  35.336  1.00  0.00     0.053 C 
BRANCH   4   5
ATOM      5  C   UNL     1      12.888  26.015  36.483  1.00  0.00     0.041 C 
ATOM      6  O   UNL     1      11.879  26.415  37.124  1.00  0.00    -0.550 OA
ATOM      7  O   UNL     1      13.477  24.801  36.813  1.00  0.00    -0.550 OA
ENDBRANCH   4   5
ENDBRANCH   3   4
ENDBRANCH   2   3
ENDBRANCH   1   2
BRANCH   1   8
ATOM      8  C   UNL     1      14.780  23.705  33.454  1.00  0.00     0.000 C 
BRANCH   8   9
ATOM      9  C   UNL     1      16.283  23.684  33.790  1.00  0.00     0.000 C 
BRANCH   9  10
ATOM     10  C   UNL     1      16.881  22.282  34.005  1.00  0.00     0.006 C 
BRANCH  10  11
ATOM     11  C   UNL     1      15.853  21.159  33.825  1.00  0.00     0.053 C 
BRANCH  11  12
ATOM     12  C   UNL     1      16.048  20.099  34.863  1.00  0.00     0.041 C 
ATOM     13  O   UNL     1      16.327  20.418  36.050  1.00  0.00    -0.550 OA
ATOM     14  O   UNL     1      15.973  18.758  34.511  1.00  0.00    -0.550 OA
ENDBRANCH  11  12
ENDBRANCH  10  11
ENDBRANCH   9  10
ENDBRANCH   8   9
ENDBRANCH   1   8
TORSDOF 9
ENDMDL
MODEL 7
REMARK VINA RESULT:    -3.832      2.155      2.912
REMARK INTER + INTRA:          -6.299
REMARK INTER:                  -5.514
REMARK INTRA:                  -0.785
REMARK UNBOUND:                -0.452
REMARK SMILES O=C([O-])CCCCCCCCC(=O)[O-]
REMARK SMILES IDX 7 1 6 2 5 3 4 4 2 5 1 6 3 7 8 8 9 9 10 10 11 11 12 12 13 13
REMARK SMILES IDX 14 14
REMARK H PARENT
REMARK Flexibility Score: inf
ROOT
ATOM      1  C   UNL     1      12.456  26.572  34.164  1.00  0.00     0.000 C 
ENDROOT
BRANCH   1   2
ATOM      2  C   UNL     1      12.662  26.425  35.680  1.00  0.00     0.000 C 
BRANCH   2   3
ATOM      3  C   UNL     1      13.862  27.237  36.195  1.00  0.00     0.006 C 
BRANCH   3   4
ATOM      4  C   UNL     1      14.277  28.353  35.228  1.00  0.00     0.053 C 
BRANCH   4   5
ATOM      5  C   UNL     1      15.660  28.108  34.712  1.00  0.00     0.041 C 
ATOM      6  O   UNL     1      16.517  27.540  35.441  1.00  0.00    -0.550 OA
ATOM      7  O   UNL     1      15.990  28.461  33.410  1.00  0.00    -0.550 OA
ENDBRANCH   4   5
ENDBRANCH   3   4
ENDBRANCH   2   3
ENDBRANCH   1   2
BRANCH   1   8
ATOM      8  C   UNL     1      12.810  25.267  33.434  1.00  0.00     0.000 C 
BRANCH   8   9
ATOM      9  C   UNL     1      14.260  25.241  32.918  1.00  0.00     0.000 C 
BRANCH   9  10
ATOM     10  C   UNL     1      15.260  24.503  33.827  1.00  0.00     0.006 C 
BRANCH  10  11
ATOM     11  C   UNL     1      15.792  23.207  33.202  1.00  0.00     0.053 C 
BRANCH  11  12
ATOM     12  C   UNL     1      15.696  22.078  34.179  1.00  0.00     0.041 C 
ATOM     13  O   UNL     1      15.436  22.308  35.390  1.00  0.00    -0.550 OA
ATOM     14  O   UNL     1      15.945  20.776  33.764  1.00  0.00    -0.550 OA
ENDBRANCH  11  12
ENDBRANCH  10  11
ENDBRANCH   9  10
ENDBRANCH   8   9
ENDBRANCH   1   8
TORSDOF 9
ENDMDL
MODEL 8
REMARK VINA RESULT:    -3.696      1.860      6.830
REMARK INTER + INTRA:          -6.091
REMARK INTER:                  -5.521
REMARK INTRA:                  -0.570
REMARK UNBOUND:                -0.452
REMARK SMILES O=C([O-])CCCCCCCCC(=O)[O-]
REMARK SMILES IDX 7 1 6 2 5 3 4 4 2 5 1 6 3 7 8 8 9 9 10 10 11 11 12 12 13 13
REMARK SMILES IDX 14 14
REMARK H PARENT
REMARK Flexibility Score: inf
ROOT
ATOM      1  C   UNL     1      15.674  22.491  33.760  1.00  0.00     0.000 C 
ENDROOT
BRANCH   1   2
ATOM      2  C   UNL     1      15.412  22.793  35.244  1.00  0.00     0.000 C 
BRANCH   2   3
ATOM      3  C   UNL     1      16.045  21.752  36.181  1.00  0.00     0.006 C 
BRANCH   3   4
ATOM      4  C   UNL     1      15.095  20.591  36.500  1.00  0.00     0.053 C 
BRANCH   4   5
ATOM      5  C   UNL     1      15.543  19.345  35.803  1.00  0.00     0.041 C 
ATOM      6  O   UNL     1      16.290  18.521  36.395  1.00  0.00    -0.550 OA
ATOM      7  O   UNL     1      15.094  19.068  34.518  1.00  0.00    -0.550 OA
ENDBRANCH   4   5
ENDBRANCH   3   4
ENDBRANCH   2   3
ENDBRANCH   1   2
BRANCH   1   8
ATOM      8  C   UNL     1      15.362  23.717  32.888  1.00  0.00     0.000 C 
BRANCH   8   9
ATOM      9  C   UNL     1      15.482  25.047  33.655  1.00  0.00     0.000 C 
BRANCH   9  10
ATOM     10  C   UNL     1      14.433  26.109  33.280  1.00  0.00     0.006 C 
BRANCH  10  11
ATOM     11  C   UNL     1      13.004  25.697  33.653  1.00  0.00     0.053 C 
BRANCH  11  12
ATOM     12  C   UNL     1      12.593  26.339  34.940  1.00  0.00     0.041 C 
ATOM     13  O   UNL     1      11.859  27.363  34.931  1.00  0.00    -0.550 OA
ATOM     14  O   UNL     1      13.061  25.838  36.147  1.00  0.00    -0.550 OA
ENDBRANCH  11  12
ENDBRANCH  10  11
ENDBRANCH   9  10
ENDBRANCH   8   9
ENDBRANCH   1   8
TORSDOF 9
ENDMDL
MODEL 9
REMARK VINA RESULT:    -3.629      2.373      3.775
REMARK INTER + INTRA:          -5.989
REMARK INTER:                  -5.735
REMARK INTRA:                  -0.255
REMARK UNBOUND:                -0.452
REMARK SMILES O=C([O-])CCCCCCCCC(=O)[O-]
REMARK SMILES IDX 7 1 6 2 5 3 4 4 2 5 1 6 3 7 8 8 9 9 10 10 11 11 12 12 13 13
REMARK SMILES IDX 14 14
REMARK H PARENT
REMARK Flexibility Score: inf
ROOT
ATOM      1  C   UNL     1      16.397  23.465  33.724  1.00  0.00     0.000 C 
ENDROOT
BRANCH   1   2
ATOM      2  C   UNL     1      14.891  23.556  33.434  1.00  0.00     0.000 C 
BRANCH   2   3
ATOM      3  C   UNL     1      14.462  24.956  32.968  1.00  0.00     0.006 C 
BRANCH   3   4
ATOM      4  C   UNL     1      13.060  25.338  33.459  1.00  0.00     0.053 C 
BRANCH   4   5
ATOM      5  C   UNL     1      13.136  26.500  34.399  1.00  0.00     0.041 C 
ATOM      6  O   UNL     1      13.947  27.439  34.181  1.00  0.00    -0.550 OA
ATOM      7  O   UNL     1      12.277  26.571  35.488  1.00  0.00    -0.550 OA
ENDBRANCH   4   5
ENDBRANCH   3   4
ENDBRANCH   2   3
ENDBRANCH   1   2
BRANCH   1   8
ATOM      8  C   UNL     1      16.729  22.180  34.498  1.00  0.00     0.000 C 
BRANCH   8   9
ATOM      9  C   UNL     1      15.867  20.979  34.067  1.00  0.00     0.000 C 
BRANCH   9  10
ATOM     10  C   UNL     1      16.328  19.618  34.618  1.00  0.00     0.006 C 
BRANCH  10  11
ATOM     11  C   UNL     1      15.216  18.561  34.610  1.00  0.00     0.053 C 
BRANCH  11  12
ATOM     12  C   UNL     1      15.779  17.208  34.908  1.00  0.00     0.041 C 
ATOM     13  O   UNL     1      15.685  16.723  36.067  1.00  0.00    -0.550 OA
ATOM     14  O   UNL     1      16.452  16.501  33.919  1.00  0.00    -0.550 OA
ENDBRANCH  11  12
ENDBRANCH  10  11
ENDBRANCH   9  10
ENDBRANCH   8   9
ENDBRANCH   1   8
TORSDOF 9
ENDMDL
