MODEL 1
REMARK VINA RESULT:    -5.766      0.000      0.000
REMARK INTER + INTRA:          -5.934
REMARK INTER:                  -5.934
REMARK INTRA:                   0.000
REMARK UNBOUND:                 0.000
REMARK SMILES Oc1ccc2[nH]ccc2c1
REMARK SMILES IDX 3 1 4 2 5 3 9 4 8 5 7 6 6 7 10 8 2 9 1 11
REMARK H PARENT 6 10 1 12
REMARK Flexibility Score: inf
ROOT
ATOM      1  C   UNL     1      11.403  13.743  68.179  1.00  0.00     0.048 A 
ATOM      2  C   UNL     1      12.349  13.056  68.961  1.00  0.00     0.030 A 
ATOM      3  C   UNL     1      13.411  13.787  69.489  1.00  0.00     0.046 A 
ATOM      4  C   UNL     1      13.543  15.131  69.261  1.00  0.00     0.003 A 
ATOM      5  C   UNL     1      14.683  15.549  69.912  1.00  0.00     0.028 A 
ATOM      6  C   UNL     1      15.196  14.407  70.517  1.00  0.00     0.083 A 
ATOM      7  N   UNL     1      14.416  13.333  70.256  1.00  0.00    -0.361 N 
ATOM      8  C   UNL     1      12.625  15.841  68.491  1.00  0.00     0.056 A 
ATOM      9  C   UNL     1      11.536  15.131  67.942  1.00  0.00     0.116 A 
ATOM     10  H   UNL     1      14.567  12.353  70.585  1.00  0.00     0.166 HD
ENDROOT
BRANCH   9  11
ATOM     11  O   UNL     1      10.586  15.787  67.163  1.00  0.00    -0.508 OA
ATOM     12  H   UNL     1       9.651  15.966  67.510  1.00  0.00     0.293 HD
ENDBRANCH   9  11
TORSDOF 1
ENDMDL
MODEL 2
REMARK VINA RESULT:    -5.742      2.612      3.915
REMARK INTER + INTRA:          -5.910
REMARK INTER:                  -5.910
REMARK INTRA:                   0.000
REMARK UNBOUND:                 0.000
REMARK SMILES Oc1ccc2[nH]ccc2c1
REMARK SMILES IDX 3 1 4 2 5 3 9 4 8 5 7 6 6 7 10 8 2 9 1 11
REMARK H PARENT 6 10 1 12
REMARK Flexibility Score: inf
ROOT
ATOM      1  C   UNL     1      13.478  14.296  70.688  1.00  0.00     0.048 A 
ATOM      2  C   UNL     1      13.352  13.506  69.531  1.00  0.00     0.030 A 
ATOM      3  C   UNL     1      12.068  13.246  69.057  1.00  0.00     0.046 A 
ATOM      4  C   UNL     1      10.955  13.736  69.687  1.00  0.00     0.003 A 
ATOM      5  C   UNL     1       9.856  13.304  68.977  1.00  0.00     0.028 A 
ATOM      6  C   UNL     1      10.374  12.554  67.926  1.00  0.00     0.083 A 
ATOM      7  N   UNL     1      11.725  12.522  67.979  1.00  0.00    -0.361 N 
ATOM      8  C   UNL     1      11.044  14.521  70.834  1.00  0.00     0.056 A 
ATOM      9  C   UNL     1      12.330  14.804  71.341  1.00  0.00     0.116 A 
ATOM     10  H   UNL     1      12.367  12.033  67.316  1.00  0.00     0.166 HD
ENDROOT
BRANCH   9  11
ATOM     11  O   UNL     1      12.482  15.583  72.485  1.00  0.00    -0.508 OA
ATOM     12  H   UNL     1      12.744  15.172  73.374  1.00  0.00     0.293 HD
ENDBRANCH   9  11
TORSDOF 1
ENDMDL
MODEL 3
REMARK VINA RESULT:    -5.652      2.635      4.057
REMARK INTER + INTRA:          -5.817
REMARK INTER:                  -5.817
REMARK INTRA:                   0.000
REMARK UNBOUND:                 0.000
REMARK SMILES Oc1ccc2[nH]ccc2c1
REMARK SMILES IDX 3 1 4 2 5 3 9 4 8 5 7 6 6 7 10 8 2 9 1 11
REMARK H PARENT 6 10 1 12
REMARK Flexibility Score: inf
ROOT
ATOM      1  C   UNL     1      14.256  15.721  70.282  1.00  0.00     0.048 A 
ATOM      2  C   UNL     1      13.143  16.077  69.499  1.00  0.00     0.030 A 
ATOM      3  C   UNL     1      12.375  15.050  68.954  1.00  0.00     0.046 A 
ATOM      4  C   UNL     1      12.683  13.731  69.165  1.00  0.00     0.003 A 
ATOM      5  C   UNL     1      11.742  12.977  68.499  1.00  0.00     0.028 A 
ATOM      6  C   UNL     1      10.890  13.901  67.903  1.00  0.00     0.083 A 
ATOM      7  N   UNL     1      11.281  15.166  68.184  1.00  0.00    -0.361 N 
ATOM      8  C   UNL     1      13.778  13.345  69.934  1.00  0.00     0.056 A 
ATOM      9  C   UNL     1      14.577  14.361  70.501  1.00  0.00     0.116 A 
ATOM     10  H   UNL     1      10.823  16.049  67.866  1.00  0.00     0.166 HD
ENDROOT
BRANCH   9  11
ATOM     11  O   UNL     1      15.685  14.036  71.280  1.00  0.00    -0.508 OA
ATOM     12  H   UNL     1      16.624  14.291  70.995  1.00  0.00     0.293 HD
ENDBRANCH   9  11
TORSDOF 1
ENDMDL
MODEL 4
REMARK VINA RESULT:    -5.560      2.068      2.479
REMARK INTER + INTRA:          -5.723
REMARK INTER:                  -5.723
REMARK INTRA:                   0.000
REMARK UNBOUND:                 0.000
REMARK SMILES Oc1ccc2[nH]ccc2c1
REMARK SMILES IDX 3 1 4 2 5 3 9 4 8 5 7 6 6 7 10 8 2 9 1 11
REMARK H PARENT 6 10 1 12
REMARK Flexibility Score: inf
ROOT
ATOM      1  C   UNL     1       9.819  13.711  68.693  1.00  0.00     0.048 A 
ATOM      2  C   UNL     1      10.290  14.519  69.744  1.00  0.00     0.030 A 
ATOM      3  C   UNL     1      11.645  14.451  70.061  1.00  0.00     0.046 A 
ATOM      4  C   UNL     1      12.503  13.629  69.380  1.00  0.00     0.003 A 
ATOM      5  C   UNL     1      13.756  13.794  69.931  1.00  0.00     0.028 A 
ATOM      6  C   UNL     1      13.587  14.732  70.944  1.00  0.00     0.083 A 
ATOM      7  N   UNL     1      12.296  15.131  71.020  1.00  0.00    -0.361 N 
ATOM      8  C   UNL     1      12.070  12.817  68.335  1.00  0.00     0.056 A 
ATOM      9  C   UNL     1      10.703  12.862  67.987  1.00  0.00     0.116 A 
ATOM     10  H   UNL     1      11.893  15.824  71.688  1.00  0.00     0.166 HD
ENDROOT
BRANCH   9  11
ATOM     11  O   UNL     1      10.212  12.072  66.951  1.00  0.00    -0.508 OA
ATOM     12  H   UNL     1       9.715  11.208  67.134  1.00  0.00     0.293 HD
ENDBRANCH   9  11
TORSDOF 1
ENDMDL
MODEL 5
REMARK VINA RESULT:    -5.232      2.808      3.695
REMARK INTER + INTRA:          -5.385
REMARK INTER:                  -5.385
REMARK INTRA:                   0.000
REMARK UNBOUND:                 0.000
REMARK SMILES Oc1ccc2[nH]ccc2c1
REMARK SMILES IDX 3 1 4 2 5 3 9 4 8 5 7 6 6 7 10 8 2 9 1 11
REMARK H PARENT 6 10 1 12
REMARK Flexibility Score: inf
ROOT
ATOM      1  C   UNL     1      13.713  13.468  69.682  1.00  0.00     0.048 A 
ATOM      2  C   UNL     1      12.546  13.824  68.979  1.00  0.00     0.030 A 
ATOM      3  C   UNL     1      12.055  15.116  69.146  1.00  0.00     0.046 A 
ATOM      4  C   UNL     1      12.676  16.023  69.964  1.00  0.00     0.003 A 
ATOM      5  C   UNL     1      11.948  17.192  69.910  1.00  0.00     0.028 A 
ATOM      6  C   UNL     1      10.897  16.926  69.039  1.00  0.00     0.083 A 
ATOM      7  N   UNL     1      10.966  15.657  68.574  1.00  0.00    -0.361 N 
ATOM      8  C   UNL     1      13.831  15.704  70.673  1.00  0.00     0.056 A 
ATOM      9  C   UNL     1      14.356  14.402  70.527  1.00  0.00     0.116 A 
ATOM     10  H   UNL     1      10.307  15.197  67.909  1.00  0.00     0.166 HD
ENDROOT
BRANCH   9  11
ATOM     11  O   UNL     1      15.509  14.025  71.211  1.00  0.00    -0.508 OA
ATOM     12  H   UNL     1      15.766  13.050  71.317  1.00  0.00     0.293 HD
ENDBRANCH   9  11
TORSDOF 1
ENDMDL
MODEL 6
REMARK VINA RESULT:    -5.222      2.168      2.742
REMARK INTER + INTRA:          -5.375
REMARK INTER:                  -5.375
REMARK INTRA:                   0.000
REMARK UNBOUND:                 0.000
REMARK SMILES Oc1ccc2[nH]ccc2c1
REMARK SMILES IDX 3 1 4 2 5 3 9 4 8 5 7 6 6 7 10 8 2 9 1 11
REMARK H PARENT 6 10 1 12
REMARK Flexibility Score: inf
ROOT
ATOM      1  C   UNL     1      12.336  12.832  68.686  1.00  0.00     0.048 A 
ATOM      2  C   UNL     1      12.984  13.482  69.752  1.00  0.00     0.030 A 
ATOM      3  C   UNL     1      12.315  14.532  70.378  1.00  0.00     0.046 A 
ATOM      4  C   UNL     1      11.066  14.929  69.979  1.00  0.00     0.003 A 
ATOM      5  C   UNL     1      10.689  15.977  70.790  1.00  0.00     0.028 A 
ATOM      6  C   UNL     1      11.756  16.165  71.661  1.00  0.00     0.083 A 
ATOM      7  N   UNL     1      12.747  15.280  71.406  1.00  0.00    -0.361 N 
ATOM      8  C   UNL     1      10.398  14.308  68.927  1.00  0.00     0.056 A 
ATOM      9  C   UNL     1      11.047  13.240  68.271  1.00  0.00     0.116 A 
ATOM     10  H   UNL     1      13.659  15.198  71.908  1.00  0.00     0.166 HD
ENDROOT
BRANCH   9  11
ATOM     11  O   UNL     1      10.428  12.580  67.213  1.00  0.00    -0.508 OA
ATOM     12  H   UNL     1      10.496  12.926  66.262  1.00  0.00     0.293 HD
ENDBRANCH   9  11
TORSDOF 1
ENDMDL
MODEL 7
REMARK VINA RESULT:    -5.018      3.166      3.890
REMARK INTER + INTRA:          -5.165
REMARK INTER:                  -5.165
REMARK INTRA:                   0.000
REMARK UNBOUND:                 0.000
REMARK SMILES Oc1ccc2[nH]ccc2c1
REMARK SMILES IDX 3 1 4 2 5 3 9 4 8 5 7 6 6 7 10 8 2 9 1 11
REMARK H PARENT 6 10 1 12
REMARK Flexibility Score: inf
ROOT
ATOM      1  C   UNL     1      11.591  16.070  72.246  1.00  0.00     0.048 A 
ATOM      2  C   UNL     1      12.269  16.477  71.082  1.00  0.00     0.030 A 
ATOM      3  C   UNL     1      12.502  15.521  70.096  1.00  0.00     0.046 A 
ATOM      4  C   UNL     1      12.089  14.223  70.240  1.00  0.00     0.003 A 
ATOM      5  C   UNL     1      12.468  13.541  69.104  1.00  0.00     0.028 A 
ATOM      6  C   UNL     1      13.107  14.487  68.310  1.00  0.00     0.083 A 
ATOM      7  N   UNL     1      13.125  15.695  68.919  1.00  0.00    -0.361 N 
ATOM      8  C   UNL     1      11.416  13.787  71.379  1.00  0.00     0.056 A 
ATOM      9  C   UNL     1      11.163  14.730  72.398  1.00  0.00     0.116 A 
ATOM     10  H   UNL     1      13.540  16.578  68.548  1.00  0.00     0.166 HD
ENDROOT
BRANCH   9  11
ATOM     11  O   UNL     1      10.494  14.353  73.559  1.00  0.00    -0.508 OA
ATOM     12  H   UNL     1      10.545  14.911  74.404  1.00  0.00     0.293 HD
ENDBRANCH   9  11
TORSDOF 1
ENDMDL
MODEL 8
REMARK VINA RESULT:    -4.985      2.061      2.720
REMARK INTER + INTRA:          -5.131
REMARK INTER:                  -5.131
REMARK INTRA:                   0.000
REMARK UNBOUND:                 0.000
REMARK SMILES Oc1ccc2[nH]ccc2c1
REMARK SMILES IDX 3 1 4 2 5 3 9 4 8 5 7 6 6 7 10 8 2 9 1 11
REMARK H PARENT 6 10 1 12
REMARK Flexibility Score: inf
ROOT
ATOM      1  C   UNL     1      11.123  16.872  67.672  1.00  0.00     0.048 A 
ATOM      2  C   UNL     1      10.639  16.300  68.863  1.00  0.00     0.030 A 
ATOM      3  C   UNL     1      11.333  15.214  69.392  1.00  0.00     0.046 A 
ATOM      4  C   UNL     1      12.451  14.708  68.783  1.00  0.00     0.003 A 
ATOM      5  C   UNL     1      12.894  13.650  69.548  1.00  0.00     0.028 A 
ATOM      6  C   UNL     1      11.997  13.568  70.608  1.00  0.00     0.083 A 
ATOM      7  N   UNL     1      11.046  14.525  70.509  1.00  0.00    -0.361 N 
ATOM      8  C   UNL     1      12.956  15.251  67.604  1.00  0.00     0.056 A 
ATOM      9  C   UNL     1      12.278  16.352  67.041  1.00  0.00     0.116 A 
ATOM     10  H   UNL     1      10.253  14.691  71.167  1.00  0.00     0.166 HD
ENDROOT
BRANCH   9  11
ATOM     11  O   UNL     1      12.735  16.937  65.863  1.00  0.00    -0.508 OA
ATOM     12  H   UNL     1      13.715  16.909  65.605  1.00  0.00     0.293 HD
ENDBRANCH   9  11
TORSDOF 1
ENDMDL
MODEL 9
REMARK VINA RESULT:    -4.964     15.764     16.491
REMARK INTER + INTRA:          -5.109
REMARK INTER:                  -5.109
REMARK INTRA:                   0.000
REMARK UNBOUND:                 0.000
REMARK SMILES Oc1ccc2[nH]ccc2c1
REMARK SMILES IDX 3 1 4 2 5 3 9 4 8 5 7 6 6 7 10 8 2 9 1 11
REMARK H PARENT 6 10 1 12
REMARK Flexibility Score: inf
ROOT
ATOM      1  C   UNL     1      20.496   0.830  67.053  1.00  0.00     0.048 A 
ATOM      2  C   UNL     1      19.857   1.254  65.874  1.00  0.00     0.030 A 
ATOM      3  C   UNL     1      20.657   1.586  64.783  1.00  0.00     0.046 A 
ATOM      4  C   UNL     1      22.024   1.508  64.842  1.00  0.00     0.003 A 
ATOM      5  C   UNL     1      22.512   1.900  63.614  1.00  0.00     0.028 A 
ATOM      6  C   UNL     1      21.387   2.203  62.855  1.00  0.00     0.083 A 
ATOM      7  N   UNL     1      20.256   2.010  63.573  1.00  0.00    -0.361 N 
ATOM      8  C   UNL     1      22.688   1.092  65.993  1.00  0.00     0.056 A 
ATOM      9  C   UNL     1      21.907   0.748  67.117  1.00  0.00     0.116 A 
ATOM     10  H   UNL     1      19.275   2.160  63.249  1.00  0.00     0.166 HD
ENDROOT
BRANCH   9  11
ATOM     11  O   UNL     1      22.515   0.326  68.297  1.00  0.00    -0.508 OA
ATOM     12  H   UNL     1      23.524   0.287  68.387  1.00  0.00     0.293 HD
ENDBRANCH   9  11
TORSDOF 1
ENDMDL
