MODEL 1
REMARK VINA RESULT:    -4.117      0.000      0.000
REMARK INTER + INTRA:          -8.862
REMARK INTER:                  -7.245
REMARK INTRA:                  -1.617
REMARK UNBOUND:                -1.617
REMARK SMILES CCCCCCCCCCCCCCC(=O)[O-]
REMARK SMILES IDX 9 1 10 2 11 3 12 4 13 5 14 6 15 7 16 8 17 9 8 10 7 11 6 12
REMARK SMILES IDX 5 13 4 14 3 15 2 16 1 17
REMARK H PARENT
REMARK Flexibility Score: inf
ROOT
ATOM      1  C   UNL     1     -23.257  -7.833  -6.536  1.00  0.00     0.000 C 
ENDROOT
BRANCH   1   2
ATOM      2  C   UNL     1     -24.480  -8.726  -6.275  1.00  0.00     0.000 C 
BRANCH   2   3
ATOM      3  C   UNL     1     -24.420  -9.339  -4.870  1.00  0.00     0.000 C 
BRANCH   3   4
ATOM      4  C   UNL     1     -24.468  -8.246  -3.792  1.00  0.00     0.000 C 
BRANCH   4   5
ATOM      5  C   UNL     1     -25.763  -7.414  -3.841  1.00  0.00     0.006 C 
BRANCH   5   6
ATOM      6  C   UNL     1     -25.539  -5.904  -4.022  1.00  0.00     0.053 C 
BRANCH   6   7
ATOM      7  C   UNL     1     -26.280  -5.363  -5.206  1.00  0.00     0.041 C 
ATOM      8  O   UNL     1     -27.539  -5.386  -5.229  1.00  0.00    -0.550 OA
ATOM      9  O   UNL     1     -25.581  -4.805  -6.268  1.00  0.00    -0.550 OA
ENDBRANCH   6   7
ENDBRANCH   5   6
ENDBRANCH   4   5
ENDBRANCH   3   4
ENDBRANCH   2   3
ENDBRANCH   1   2
BRANCH   1  10
ATOM     10  C   UNL     1     -22.587  -8.124  -7.889  1.00  0.00     0.000 C 
BRANCH  10  11
ATOM     11  C   UNL     1     -22.501  -9.630  -8.194  1.00  0.00    -0.000 C 
BRANCH  11  12
ATOM     12  C   UNL     1     -21.283 -10.297  -7.533  1.00  0.00    -0.000 C 
BRANCH  12  13
ATOM     13  C   UNL     1     -21.678 -11.363  -6.500  1.00  0.00    -0.000 C 
BRANCH  13  14
ATOM     14  C   UNL     1     -21.101 -11.025  -5.117  1.00  0.00    -0.000 C 
BRANCH  14  15
ATOM     15  C   UNL     1     -19.886 -10.082  -5.187  1.00  0.00    -0.000 C 
BRANCH  15  16
ATOM     16  C   UNL     1     -18.533 -10.747  -4.880  1.00  0.00    -0.003 C 
ATOM     17  C   UNL     1     -17.439 -10.365  -5.877  1.00  0.00     0.004 C 
ENDBRANCH  15  16
ENDBRANCH  14  15
ENDBRANCH  13  14
ENDBRANCH  12  13
ENDBRANCH  11  12
ENDBRANCH  10  11
ENDBRANCH   1  10
TORSDOF 13
ENDMDL
MODEL 2
REMARK VINA RESULT:    -4.109      2.828      6.521
REMARK INTER + INTRA:          -8.849
REMARK INTER:                  -6.858
REMARK INTRA:                  -1.992
REMARK UNBOUND:                -1.617
REMARK SMILES CCCCCCCCCCCCCCC(=O)[O-]
REMARK SMILES IDX 9 1 10 2 11 3 12 4 13 5 14 6 15 7 16 8 17 9 8 10 7 11 6 12
REMARK SMILES IDX 5 13 4 14 3 15 2 16 1 17
REMARK H PARENT
REMARK Flexibility Score: inf
ROOT
ATOM      1  C   UNL     1     -23.158  -8.036  -6.478  1.00  0.00     0.000 C 
ENDROOT
BRANCH   1   2
ATOM      2  C   UNL     1     -22.641  -8.226  -7.912  1.00  0.00     0.000 C 
BRANCH   2   3
ATOM      3  C   UNL     1     -22.441  -9.714  -8.229  1.00  0.00     0.000 C 
BRANCH   3   4
ATOM      4  C   UNL     1     -21.186 -10.260  -7.531  1.00  0.00     0.000 C 
BRANCH   4   5
ATOM      5  C   UNL     1     -21.498 -11.408  -6.554  1.00  0.00     0.006 C 
BRANCH   5   6
ATOM      6  C   UNL     1     -21.337 -11.037  -5.070  1.00  0.00     0.053 C 
BRANCH   6   7
ATOM      7  C   UNL     1     -20.101 -10.228  -4.824  1.00  0.00     0.041 C 
ATOM      8  O   UNL     1     -18.966 -10.770  -4.891  1.00  0.00    -0.550 OA
ATOM      9  O   UNL     1     -20.202  -8.869  -4.555  1.00  0.00    -0.550 OA
ENDBRANCH   6   7
ENDBRANCH   5   6
ENDBRANCH   4   5
ENDBRANCH   3   4
ENDBRANCH   2   3
ENDBRANCH   1   2
BRANCH   1  10
ATOM     10  C   UNL     1     -24.422  -8.863  -6.187  1.00  0.00     0.000 C 
BRANCH  10  11
ATOM     11  C   UNL     1     -24.469  -9.378  -4.738  1.00  0.00    -0.000 C 
BRANCH  11  12
ATOM     12  C   UNL     1     -23.963  -8.337  -3.725  1.00  0.00    -0.000 C 
BRANCH  12  13
ATOM     13  C   UNL     1     -25.104  -7.658  -2.952  1.00  0.00    -0.000 C 
BRANCH  13  14
ATOM     14  C   UNL     1     -24.962  -6.129  -2.997  1.00  0.00    -0.000 C 
BRANCH  14  15
ATOM     15  C   UNL     1     -25.232  -5.542  -4.394  1.00  0.00    -0.000 C 
BRANCH  15  16
ATOM     16  C   UNL     1     -26.629  -5.846  -4.964  1.00  0.00    -0.003 C 
ATOM     17  C   UNL     1     -26.631  -6.016  -6.483  1.00  0.00     0.004 C 
ENDBRANCH  15  16
ENDBRANCH  14  15
ENDBRANCH  13  14
ENDBRANCH  12  13
ENDBRANCH  11  12
ENDBRANCH  10  11
ENDBRANCH   1  10
TORSDOF 13
ENDMDL
MODEL 3
REMARK VINA RESULT:    -4.105      2.893      6.342
REMARK INTER + INTRA:          -8.843
REMARK INTER:                  -6.897
REMARK INTRA:                  -1.945
REMARK UNBOUND:                -1.617
REMARK SMILES CCCCCCCCCCCCCCC(=O)[O-]
REMARK SMILES IDX 9 1 10 2 11 3 12 4 13 5 14 6 15 7 16 8 17 9 8 10 7 11 6 12
REMARK SMILES IDX 5 13 4 14 3 15 2 16 1 17
REMARK H PARENT
REMARK Flexibility Score: inf
ROOT
ATOM      1  C   UNL     1     -23.698  -7.791  -5.845  1.00  0.00     0.000 C 
ENDROOT
BRANCH   1   2
ATOM      2  C   UNL     1     -24.470  -9.100  -5.627  1.00  0.00     0.000 C 
BRANCH   2   3
ATOM      3  C   UNL     1     -23.728 -10.018  -4.648  1.00  0.00     0.000 C 
BRANCH   3   4
ATOM      4  C   UNL     1     -22.232  -9.673  -4.598  1.00  0.00     0.000 C 
BRANCH   4   5
ATOM      5  C   UNL     1     -21.333 -10.853  -5.008  1.00  0.00     0.006 C 
BRANCH   5   6
ATOM      6  C   UNL     1     -21.596 -11.388  -6.425  1.00  0.00     0.053 C 
BRANCH   6   7
ATOM      7  C   UNL     1     -21.265 -10.376  -7.478  1.00  0.00     0.041 C 
ATOM      8  O   UNL     1     -20.083  -9.964  -7.611  1.00  0.00    -0.550 OA
ATOM      9  O   UNL     1     -22.257  -9.914  -8.334  1.00  0.00    -0.550 OA
ENDBRANCH   6   7
ENDBRANCH   5   6
ENDBRANCH   4   5
ENDBRANCH   3   4
ENDBRANCH   2   3
ENDBRANCH   1   2
BRANCH   1  10
ATOM     10  C   UNL     1     -24.091  -7.078  -7.149  1.00  0.00     0.000 C 
BRANCH  10  11
ATOM     11  C   UNL     1     -24.930  -5.811  -6.900  1.00  0.00    -0.000 C 
BRANCH  11  12
ATOM     12  C   UNL     1     -26.431  -6.115  -6.764  1.00  0.00    -0.000 C 
BRANCH  12  13
ATOM     13  C   UNL     1     -27.006  -5.670  -5.411  1.00  0.00    -0.000 C 
BRANCH  13  14
ATOM     14  C   UNL     1     -26.086  -4.640  -4.737  1.00  0.00    -0.000 C 
BRANCH  14  15
ATOM     15  C   UNL     1     -25.852  -4.931  -3.244  1.00  0.00    -0.000 C 
BRANCH  15  16
ATOM     16  C   UNL     1     -24.703  -5.909  -2.947  1.00  0.00    -0.003 C 
ATOM     17  C   UNL     1     -25.190  -7.288  -2.503  1.00  0.00     0.004 C 
ENDBRANCH  15  16
ENDBRANCH  14  15
ENDBRANCH  13  14
ENDBRANCH  12  13
ENDBRANCH  11  12
ENDBRANCH  10  11
ENDBRANCH   1  10
TORSDOF 13
ENDMDL
MODEL 4
REMARK VINA RESULT:    -4.058      1.831      3.004
REMARK INTER + INTRA:          -8.759
REMARK INTER:                  -6.646
REMARK INTRA:                  -2.112
REMARK UNBOUND:                -1.617
REMARK SMILES CCCCCCCCCCCCCCC(=O)[O-]
REMARK SMILES IDX 9 1 10 2 11 3 12 4 13 5 14 6 15 7 16 8 17 9 8 10 7 11 6 12
REMARK SMILES IDX 5 13 4 14 3 15 2 16 1 17
REMARK H PARENT
REMARK Flexibility Score: inf
ROOT
ATOM      1  C   UNL     1     -23.717  -7.511  -6.486  1.00  0.00     0.000 C 
ENDROOT
BRANCH   1   2
ATOM      2  C   UNL     1     -24.508  -6.414  -7.212  1.00  0.00     0.000 C 
BRANCH   2   3
ATOM      3  C   UNL     1     -26.002  -6.501  -6.874  1.00  0.00     0.000 C 
BRANCH   3   4
ATOM      4  C   UNL     1     -26.394  -5.434  -5.840  1.00  0.00     0.000 C 
BRANCH   4   5
ATOM      5  C   UNL     1     -26.715  -6.031  -4.458  1.00  0.00     0.006 C 
BRANCH   5   6
ATOM      6  C   UNL     1     -25.506  -6.126  -3.512  1.00  0.00     0.053 C 
BRANCH   6   7
ATOM      7  C   UNL     1     -24.750  -4.835  -3.438  1.00  0.00     0.041 C 
ATOM      8  O   UNL     1     -23.583  -4.757  -3.906  1.00  0.00    -0.550 OA
ATOM      9  O   UNL     1     -25.346  -3.711  -2.881  1.00  0.00    -0.550 OA
ENDBRANCH   6   7
ENDBRANCH   5   6
ENDBRANCH   4   5
ENDBRANCH   3   4
ENDBRANCH   2   3
ENDBRANCH   1   2
BRANCH   1  10
ATOM     10  C   UNL     1     -24.469  -8.851  -6.433  1.00  0.00     0.000 C 
BRANCH  10  11
ATOM     11  C   UNL     1     -24.525  -9.441  -5.013  1.00  0.00    -0.000 C 
BRANCH  11  12
ATOM     12  C   UNL     1     -23.218  -9.227  -4.233  1.00  0.00    -0.000 C 
BRANCH  12  13
ATOM     13  C   UNL     1     -22.459 -10.538  -3.975  1.00  0.00    -0.000 C 
BRANCH  13  14
ATOM     14  C   UNL     1     -21.223 -10.642  -4.881  1.00  0.00    -0.000 C 
BRANCH  14  15
ATOM     15  C   UNL     1     -21.500 -11.400  -6.191  1.00  0.00    -0.000 C 
BRANCH  15  16
ATOM     16  C   UNL     1     -21.373 -10.552  -7.468  1.00  0.00    -0.003 C 
ATOM     17  C   UNL     1     -20.505  -9.309  -7.277  1.00  0.00     0.004 C 
ENDBRANCH  15  16
ENDBRANCH  14  15
ENDBRANCH  13  14
ENDBRANCH  12  13
ENDBRANCH  11  12
ENDBRANCH  10  11
ENDBRANCH   1  10
TORSDOF 13
ENDMDL
MODEL 5
REMARK VINA RESULT:    -4.056      1.320      2.363
REMARK INTER + INTRA:          -8.755
REMARK INTER:                  -6.682
REMARK INTRA:                  -2.073
REMARK UNBOUND:                -1.617
REMARK SMILES CCCCCCCCCCCCCCC(=O)[O-]
REMARK SMILES IDX 9 1 10 2 11 3 12 4 13 5 14 6 15 7 16 8 17 9 8 10 7 11 6 12
REMARK SMILES IDX 5 13 4 14 3 15 2 16 1 17
REMARK H PARENT
REMARK Flexibility Score: inf
ROOT
ATOM      1  C   UNL     1     -24.839  -9.221  -4.909  1.00  0.00     0.000 C 
ENDROOT
BRANCH   1   2
ATOM      2  C   UNL     1     -23.964  -8.379  -3.967  1.00  0.00     0.000 C 
BRANCH   2   3
ATOM      3  C   UNL     1     -24.823  -7.650  -2.927  1.00  0.00     0.000 C 
BRANCH   3   4
ATOM      4  C   UNL     1     -25.032  -6.180  -3.320  1.00  0.00     0.000 C 
BRANCH   4   5
ATOM      5  C   UNL     1     -26.429  -5.911  -3.909  1.00  0.00     0.006 C 
BRANCH   5   6
ATOM      6  C   UNL     1     -26.477  -5.899  -5.445  1.00  0.00     0.053 C 
BRANCH   6   7
ATOM      7  C   UNL     1     -25.919  -4.631  -6.015  1.00  0.00     0.041 C 
ATOM      8  O   UNL     1     -26.126  -3.532  -5.435  1.00  0.00    -0.550 OA
ATOM      9  O   UNL     1     -25.144  -4.668  -7.166  1.00  0.00    -0.550 OA
ENDBRANCH   6   7
ENDBRANCH   5   6
ENDBRANCH   4   5
ENDBRANCH   3   4
ENDBRANCH   2   3
ENDBRANCH   1   2
BRANCH   1  10
ATOM     10  C   UNL     1     -24.380  -9.143  -6.374  1.00  0.00     0.000 C 
BRANCH  10  11
ATOM     11  C   UNL     1     -23.506  -7.908  -6.655  1.00  0.00    -0.000 C 
BRANCH  11  12
ATOM     12  C   UNL     1     -22.309  -8.227  -7.565  1.00  0.00    -0.000 C 
BRANCH  12  13
ATOM     13  C   UNL     1     -22.271  -9.699  -8.002  1.00  0.00    -0.000 C 
BRANCH  13  14
ATOM     14  C   UNL     1     -21.044 -10.413  -7.415  1.00  0.00    -0.000 C 
BRANCH  14  15
ATOM     15  C   UNL     1     -21.416 -11.539  -6.434  1.00  0.00    -0.000 C 
BRANCH  15  16
ATOM     16  C   UNL     1     -21.593 -11.092  -4.973  1.00  0.00    -0.003 C 
ATOM     17  C   UNL     1     -20.676  -9.932  -4.587  1.00  0.00     0.004 C 
ENDBRANCH  15  16
ENDBRANCH  14  15
ENDBRANCH  13  14
ENDBRANCH  12  13
ENDBRANCH  11  12
ENDBRANCH  10  11
ENDBRANCH   1  10
TORSDOF 13
ENDMDL
MODEL 6
REMARK VINA RESULT:    -4.020      3.751      6.990
REMARK INTER + INTRA:          -8.693
REMARK INTER:                  -6.742
REMARK INTRA:                  -1.951
REMARK UNBOUND:                -1.617
REMARK SMILES CCCCCCCCCCCCCCC(=O)[O-]
REMARK SMILES IDX 9 1 10 2 11 3 12 4 13 5 14 6 15 7 16 8 17 9 8 10 7 11 6 12
REMARK SMILES IDX 5 13 4 14 3 15 2 16 1 17
REMARK H PARENT
REMARK Flexibility Score: inf
ROOT
ATOM      1  C   UNL     1     -19.314 -10.184  -4.363  1.00  0.00     0.000 C 
ENDROOT
BRANCH   1   2
ATOM      2  C   UNL     1     -18.371 -11.147  -5.100  1.00  0.00     0.000 C 
BRANCH   2   3
ATOM      3  C   UNL     1     -17.399 -10.378  -6.003  1.00  0.00     0.000 C 
BRANCH   3   4
ATOM      4  C   UNL     1     -17.706  -8.872  -5.984  1.00  0.00     0.000 C 
BRANCH   4   5
ATOM      5  C   UNL     1     -18.036  -8.312  -7.380  1.00  0.00     0.006 C 
BRANCH   5   6
ATOM      6  C   UNL     1     -17.971  -9.352  -8.510  1.00  0.00     0.053 C 
BRANCH   6   7
ATOM      7  C   UNL     1     -17.773  -8.713  -9.850  1.00  0.00     0.041 C 
ATOM      8  O   UNL     1     -17.967  -7.478  -9.998  1.00  0.00    -0.550 OA
ATOM      9  O   UNL     1     -17.340  -9.477 -10.927  1.00  0.00    -0.550 OA
ENDBRANCH   6   7
ENDBRANCH   5   6
ENDBRANCH   4   5
ENDBRANCH   3   4
ENDBRANCH   2   3
ENDBRANCH   1   2
BRANCH   1  10
ATOM     10  C   UNL     1     -20.796 -10.442  -4.683  1.00  0.00     0.000 C 
BRANCH  10  11
ATOM     11  C   UNL     1     -20.985 -11.445  -5.835  1.00  0.00    -0.000 C 
BRANCH  11  12
ATOM     12  C   UNL     1     -21.300 -10.754  -7.172  1.00  0.00    -0.000 C 
BRANCH  12  13
ATOM     13  C   UNL     1     -21.657  -9.270  -7.004  1.00  0.00    -0.000 C 
BRANCH  13  14
ATOM     14  C   UNL     1     -23.002  -8.950  -7.675  1.00  0.00    -0.000 C 
BRANCH  14  15
ATOM     15  C   UNL     1     -24.070  -8.465  -6.679  1.00  0.00    -0.000 C 
BRANCH  15  16
ATOM     16  C   UNL     1     -24.493  -9.504  -5.626  1.00  0.00    -0.003 C 
ATOM     17  C   UNL     1     -24.226  -9.047  -4.192  1.00  0.00     0.004 C 
ENDBRANCH  15  16
ENDBRANCH  14  15
ENDBRANCH  13  14
ENDBRANCH  12  13
ENDBRANCH  11  12
ENDBRANCH  10  11
ENDBRANCH   1  10
TORSDOF 13
ENDMDL
MODEL 7
REMARK VINA RESULT:    -3.998      1.318      2.311
REMARK INTER + INTRA:          -8.653
REMARK INTER:                  -7.038
REMARK INTRA:                  -1.615
REMARK UNBOUND:                -1.617
REMARK SMILES CCCCCCCCCCCCCCC(=O)[O-]
REMARK SMILES IDX 9 1 10 2 11 3 12 4 13 5 14 6 15 7 16 8 17 9 8 10 7 11 6 12
REMARK SMILES IDX 5 13 4 14 3 15 2 16 1 17
REMARK H PARENT
REMARK Flexibility Score: inf
ROOT
ATOM      1  C   UNL     1     -21.511 -10.141  -4.016  1.00  0.00     0.000 C 
ENDROOT
BRANCH   1   2
ATOM      2  C   UNL     1     -22.625  -9.095  -3.862  1.00  0.00     0.000 C 
BRANCH   2   3
ATOM      3  C   UNL     1     -23.964  -9.641  -4.374  1.00  0.00     0.000 C 
BRANCH   3   4
ATOM      4  C   UNL     1     -24.493  -8.793  -5.540  1.00  0.00     0.000 C 
BRANCH   4   5
ATOM      5  C   UNL     1     -25.311  -7.576  -5.070  1.00  0.00     0.006 C 
BRANCH   5   6
ATOM      6  C   UNL     1     -25.817  -6.675  -6.210  1.00  0.00     0.053 C 
BRANCH   6   7
ATOM      7  C   UNL     1     -26.443  -5.416  -5.694  1.00  0.00     0.041 C 
ATOM      8  O   UNL     1     -27.660  -5.401  -5.369  1.00  0.00    -0.550 OA
ATOM      9  O   UNL     1     -25.675  -4.269  -5.542  1.00  0.00    -0.550 OA
ENDBRANCH   6   7
ENDBRANCH   5   6
ENDBRANCH   4   5
ENDBRANCH   3   4
ENDBRANCH   2   3
ENDBRANCH   1   2
BRANCH   1  10
ATOM     10  C   UNL     1     -21.984 -11.410  -4.744  1.00  0.00     0.000 C 
BRANCH  10  11
ATOM     11  C   UNL     1     -21.230 -11.650  -6.064  1.00  0.00    -0.000 C 
BRANCH  11  12
ATOM     12  C   UNL     1     -21.804 -10.828  -7.229  1.00  0.00    -0.000 C 
BRANCH  12  13
ATOM     13  C   UNL     1     -20.905  -9.645  -7.619  1.00  0.00    -0.000 C 
BRANCH  13  14
ATOM     14  C   UNL     1     -19.421 -10.023  -7.503  1.00  0.00    -0.000 C 
BRANCH  14  15
ATOM     15  C   UNL     1     -18.591  -8.973  -6.744  1.00  0.00    -0.000 C 
BRANCH  15  16
ATOM     16  C   UNL     1     -18.034  -9.445  -5.389  1.00  0.00    -0.003 C 
ATOM     17  C   UNL     1     -17.657 -10.926  -5.381  1.00  0.00     0.004 C 
ENDBRANCH  15  16
ENDBRANCH  14  15
ENDBRANCH  13  14
ENDBRANCH  12  13
ENDBRANCH  11  12
ENDBRANCH  10  11
ENDBRANCH   1  10
TORSDOF 13
ENDMDL
MODEL 8
REMARK VINA RESULT:    -3.985      2.706      6.339
REMARK INTER + INTRA:          -8.631
REMARK INTER:                  -6.738
REMARK INTRA:                  -1.892
REMARK UNBOUND:                -1.617
REMARK SMILES CCCCCCCCCCCCCCC(=O)[O-]
REMARK SMILES IDX 9 1 10 2 11 3 12 4 13 5 14 6 15 7 16 8 17 9 8 10 7 11 6 12
REMARK SMILES IDX 5 13 4 14 3 15 2 16 1 17
REMARK H PARENT
REMARK Flexibility Score: inf
ROOT
ATOM      1  C   UNL     1     -22.332 -10.236  -3.758  1.00  0.00     0.000 C 
ENDROOT
BRANCH   1   2
ATOM      2  C   UNL     1     -21.116 -10.618  -4.615  1.00  0.00     0.000 C 
BRANCH   2   3
ATOM      3  C   UNL     1     -21.515 -11.598  -5.725  1.00  0.00     0.000 C 
BRANCH   3   4
ATOM      4  C   UNL     1     -21.364 -10.950  -7.110  1.00  0.00     0.000 C 
BRANCH   4   5
ATOM      5  C   UNL     1     -20.233  -9.906  -7.161  1.00  0.00     0.006 C 
BRANCH   5   6
ATOM      6  C   UNL     1     -20.696  -8.489  -7.538  1.00  0.00     0.053 C 
BRANCH   6   7
ATOM      7  C   UNL     1     -20.962  -8.356  -9.006  1.00  0.00     0.041 C 
ATOM      8  O   UNL     1     -20.003  -8.258  -9.817  1.00  0.00    -0.550 OA
ATOM      9  O   UNL     1     -22.267  -8.376  -9.481  1.00  0.00    -0.550 OA
ENDBRANCH   6   7
ENDBRANCH   5   6
ENDBRANCH   4   5
ENDBRANCH   3   4
ENDBRANCH   2   3
ENDBRANCH   1   2
BRANCH   1  10
ATOM     10  C   UNL     1     -22.994  -8.927  -4.216  1.00  0.00     0.000 C 
BRANCH  10  11
ATOM     11  C   UNL     1     -24.330  -9.163  -4.943  1.00  0.00    -0.000 C 
BRANCH  11  12
ATOM     12  C   UNL     1     -24.269  -8.777  -6.430  1.00  0.00    -0.000 C 
BRANCH  12  13
ATOM     13  C   UNL     1     -24.301  -7.257  -6.650  1.00  0.00    -0.000 C 
BRANCH  13  14
ATOM     14  C   UNL     1     -25.741  -6.766  -6.866  1.00  0.00    -0.000 C 
BRANCH  14  15
ATOM     15  C   UNL     1     -26.136  -5.627  -5.909  1.00  0.00    -0.000 C 
BRANCH  15  16
ATOM     16  C   UNL     1     -26.615  -6.086  -4.520  1.00  0.00    -0.003 C 
ATOM     17  C   UNL     1     -25.581  -5.846  -3.421  1.00  0.00     0.004 C 
ENDBRANCH  15  16
ENDBRANCH  14  15
ENDBRANCH  13  14
ENDBRANCH  12  13
ENDBRANCH  11  12
ENDBRANCH  10  11
ENDBRANCH   1  10
TORSDOF 13
ENDMDL
MODEL 9
REMARK VINA RESULT:    -3.963      1.863      3.254
REMARK INTER + INTRA:          -8.593
REMARK INTER:                  -6.544
REMARK INTRA:                  -2.049
REMARK UNBOUND:                -1.617
REMARK SMILES CCCCCCCCCCCCCCC(=O)[O-]
REMARK SMILES IDX 9 1 10 2 11 3 12 4 13 5 14 6 15 7 16 8 17 9 8 10 7 11 6 12
REMARK SMILES IDX 5 13 4 14 3 15 2 16 1 17
REMARK H PARENT
REMARK Flexibility Score: inf
ROOT
ATOM      1  C   UNL     1     -22.707  -8.169  -4.672  1.00  0.00     0.000 C 
ENDROOT
BRANCH   1   2
ATOM      2  C   UNL     1     -23.460  -7.311  -5.700  1.00  0.00     0.000 C 
BRANCH   2   3
ATOM      3  C   UNL     1     -24.750  -8.006  -6.153  1.00  0.00     0.000 C 
BRANCH   3   4
ATOM      4  C   UNL     1     -25.732  -6.996  -6.766  1.00  0.00     0.000 C 
BRANCH   4   5
ATOM      5  C   UNL     1     -25.805  -5.678  -5.973  1.00  0.00     0.006 C 
BRANCH   5   6
ATOM      6  C   UNL     1     -26.781  -5.707  -4.785  1.00  0.00     0.053 C 
BRANCH   6   7
ATOM      7  C   UNL     1     -26.067  -5.649  -3.470  1.00  0.00     0.041 C 
ATOM      8  O   UNL     1     -25.916  -4.547  -2.879  1.00  0.00    -0.550 OA
ATOM      9  O   UNL     1     -25.598  -6.817  -2.882  1.00  0.00    -0.550 OA
ENDBRANCH   6   7
ENDBRANCH   5   6
ENDBRANCH   4   5
ENDBRANCH   3   4
ENDBRANCH   2   3
ENDBRANCH   1   2
BRANCH   1  10
ATOM     10  C   UNL     1     -23.520  -9.388  -4.206  1.00  0.00     0.000 C 
BRANCH  10  11
ATOM     11  C   UNL     1     -22.670 -10.668  -4.124  1.00  0.00    -0.000 C 
BRANCH  11  12
ATOM     12  C   UNL     1     -21.384 -10.577  -4.961  1.00  0.00    -0.000 C 
BRANCH  12  13
ATOM     13  C   UNL     1     -21.481 -11.353  -6.283  1.00  0.00    -0.000 C 
BRANCH  13  14
ATOM     14  C   UNL     1     -21.102 -10.457  -7.473  1.00  0.00    -0.000 C 
BRANCH  14  15
ATOM     15  C   UNL     1     -22.328  -9.881  -8.204  1.00  0.00    -0.000 C 
BRANCH  15  16
ATOM     16  C   UNL     1     -22.089  -8.532  -8.904  1.00  0.00    -0.003 C 
ATOM     17  C   UNL     1     -20.903  -7.760  -8.325  1.00  0.00     0.004 C 
ENDBRANCH  15  16
ENDBRANCH  14  15
ENDBRANCH  13  14
ENDBRANCH  12  13
ENDBRANCH  11  12
ENDBRANCH  10  11
ENDBRANCH   1  10
TORSDOF 13
ENDMDL
