MODEL 1
REMARK VINA RESULT:    -4.661      0.000      0.000
REMARK INTER + INTRA:          -8.498
REMARK INTER:                  -7.386
REMARK INTRA:                  -1.112
REMARK UNBOUND:                -1.112
REMARK SMILES C=CCCCCCCCCCCC
REMARK SMILES IDX 7 1 8 2 9 3 10 4 11 5 12 6 13 7 6 8 5 9 4 10 3 11 2 12 1 13
REMARK H PARENT
REMARK Flexibility Score: inf
ROOT
ATOM      1  C   UNL     1     101.411 107.365 128.888  1.00  0.00     0.000 C 
ENDROOT
BRANCH   1   2
ATOM      2  C   UNL     1     102.901 107.483 129.253  1.00  0.00     0.000 C 
BRANCH   2   3
ATOM      3  C   UNL     1     103.794 107.764 128.036  1.00  0.00    -0.000 C 
BRANCH   3   4
ATOM      4  C   UNL     1     104.820 108.863 128.348  1.00  0.00    -0.000 C 
BRANCH   4   5
ATOM      5  C   UNL     1     104.577 110.140 127.517  1.00  0.00    -0.000 C 
BRANCH   5   6
ATOM      6  C   UNL     1     105.376 111.357 128.012  1.00  0.00    -0.003 C 
ATOM      7  C   UNL     1     104.836 111.940 129.317  1.00  0.00     0.004 C 
ENDBRANCH   5   6
ENDBRANCH   4   5
ENDBRANCH   3   4
ENDBRANCH   2   3
ENDBRANCH   1   2
BRANCH   1   8
ATOM      8  C   UNL     1     100.713 106.082 129.384  1.00  0.00     0.000 C 
BRANCH   8   9
ATOM      9  C   UNL     1     100.954 104.831 128.520  1.00  0.00     0.000 C 
BRANCH   9  10
ATOM     10  C   UNL     1     100.713 105.084 127.025  1.00  0.00     0.004 C 
BRANCH  10  11
ATOM     11  C   UNL     1     102.003 104.886 126.220  1.00  0.00     0.027 C 
BRANCH  11  12
ATOM     12  C   UNL     1     102.178 105.970 125.193  1.00  0.00    -0.035 C 
ATOM     13  C   UNL     1     101.370 107.034 125.148  1.00  0.00     0.004 C 
ENDBRANCH  11  12
ENDBRANCH  10  11
ENDBRANCH   9  10
ENDBRANCH   8   9
ENDBRANCH   1   8
TORSDOF 10
ENDMDL
MODEL 2
REMARK VINA RESULT:    -4.628      0.404      5.413
REMARK INTER + INTRA:          -8.446
REMARK INTER:                  -7.349
REMARK INTRA:                  -1.097
REMARK UNBOUND:                -1.112
REMARK SMILES C=CCCCCCCCCCCC
REMARK SMILES IDX 7 1 8 2 9 3 10 4 11 5 12 6 13 7 6 8 5 9 4 10 3 11 2 12 1 13
REMARK H PARENT
REMARK Flexibility Score: inf
ROOT
ATOM      1  C   UNL     1     101.151 107.170 129.272  1.00  0.00     0.000 C 
ENDROOT
BRANCH   1   2
ATOM      2  C   UNL     1     100.570 105.745 129.283  1.00  0.00     0.000 C 
BRANCH   2   3
ATOM      3  C   UNL     1     101.407 104.753 128.463  1.00  0.00    -0.000 C 
BRANCH   3   4
ATOM      4  C   UNL     1     101.070 104.854 126.967  1.00  0.00    -0.000 C 
BRANCH   4   5
ATOM      5  C   UNL     1     102.331 105.021 126.095  1.00  0.00    -0.000 C 
BRANCH   5   6
ATOM      6  C   UNL     1     102.205 106.131 125.038  1.00  0.00    -0.003 C 
ATOM      7  C   UNL     1     101.086 107.126 125.342  1.00  0.00     0.004 C 
ENDBRANCH   5   6
ENDBRANCH   4   5
ENDBRANCH   3   4
ENDBRANCH   2   3
ENDBRANCH   1   2
BRANCH   1   8
ATOM      8  C   UNL     1     102.690 107.252 129.305  1.00  0.00     0.000 C 
BRANCH   8   9
ATOM      9  C   UNL     1     103.331 108.001 128.122  1.00  0.00     0.000 C 
BRANCH   9  10
ATOM     10  C   UNL     1     104.597 108.772 128.521  1.00  0.00     0.004 C 
BRANCH  10  11
ATOM     11  C   UNL     1     104.660 110.129 127.808  1.00  0.00     0.027 C 
BRANCH  11  12
ATOM     12  C   UNL     1     105.405 111.144 128.631  1.00  0.00    -0.035 C 
ATOM     13  C   UNL     1     104.768 112.002 129.433  1.00  0.00     0.004 C 
ENDBRANCH  11  12
ENDBRANCH  10  11
ENDBRANCH   9  10
ENDBRANCH   8   9
ENDBRANCH   1   8
TORSDOF 10
ENDMDL
MODEL 3
REMARK VINA RESULT:    -4.601      6.264      8.310
REMARK INTER + INTRA:          -8.402
REMARK INTER:                  -6.600
REMARK INTRA:                  -1.803
REMARK UNBOUND:                -1.112
REMARK SMILES C=CCCCCCCCCCCC
REMARK SMILES IDX 7 1 8 2 9 3 10 4 11 5 12 6 13 7 6 8 5 9 4 10 3 11 2 12 1 13
REMARK H PARENT
REMARK Flexibility Score: inf
ROOT
ATOM      1  C   UNL     1     111.351 105.330 129.075  1.00  0.00     0.000 C 
ENDROOT
BRANCH   1   2
ATOM      2  C   UNL     1     109.896 104.995 129.445  1.00  0.00     0.000 C 
BRANCH   2   3
ATOM      3  C   UNL     1     109.077 104.487 128.249  1.00  0.00    -0.000 C 
BRANCH   3   4
ATOM      4  C   UNL     1     108.075 105.550 127.776  1.00  0.00    -0.000 C 
BRANCH   4   5
ATOM      5  C   UNL     1     107.909 106.692 128.800  1.00  0.00    -0.000 C 
BRANCH   5   6
ATOM      6  C   UNL     1     107.878 108.091 128.163  1.00  0.00    -0.003 C 
ATOM      7  C   UNL     1     107.808 109.219 129.191  1.00  0.00     0.004 C 
ENDBRANCH   5   6
ENDBRANCH   4   5
ENDBRANCH   3   4
ENDBRANCH   2   3
ENDBRANCH   1   2
BRANCH   1   8
ATOM      8  C   UNL     1     111.778 106.788 129.342  1.00  0.00     0.000 C 
BRANCH   8   9
ATOM      9  C   UNL     1     111.408 107.791 128.234  1.00  0.00     0.000 C 
BRANCH   9  10
ATOM     10  C   UNL     1     111.979 107.401 126.863  1.00  0.00     0.004 C 
BRANCH  10  11
ATOM     11  C   UNL     1     110.859 106.983 125.902  1.00  0.00     0.027 C 
BRANCH  11  12
ATOM     12  C   UNL     1     111.191 105.691 125.206  1.00  0.00    -0.035 C 
ATOM     13  C   UNL     1     110.250 104.949 124.613  1.00  0.00     0.004 C 
ENDBRANCH  11  12
ENDBRANCH  10  11
ENDBRANCH   9  10
ENDBRANCH   8   9
ENDBRANCH   1   8
TORSDOF 10
ENDMDL
MODEL 4
REMARK VINA RESULT:    -4.600      1.431      2.107
REMARK INTER + INTRA:          -8.401
REMARK INTER:                  -7.310
REMARK INTRA:                  -1.092
REMARK UNBOUND:                -1.112
REMARK SMILES C=CCCCCCCCCCCC
REMARK SMILES IDX 7 1 8 2 9 3 10 4 11 5 12 6 13 7 6 8 5 9 4 10 3 11 2 12 1 13
REMARK H PARENT
REMARK Flexibility Score: inf
ROOT
ATOM      1  C   UNL     1     101.376 107.377 128.700  1.00  0.00     0.000 C 
ENDROOT
BRANCH   1   2
ATOM      2  C   UNL     1     102.771 107.677 129.275  1.00  0.00     0.000 C 
BRANCH   2   3
ATOM      3  C   UNL     1     103.805 108.013 128.191  1.00  0.00    -0.000 C 
BRANCH   3   4
ATOM      4  C   UNL     1     104.637 109.243 128.585  1.00  0.00    -0.000 C 
BRANCH   4   5
ATOM      5  C   UNL     1     104.898 110.179 127.387  1.00  0.00    -0.000 C 
BRANCH   5   6
ATOM      6  C   UNL     1     104.929 111.669 127.766  1.00  0.00    -0.003 C 
ATOM      7  C   UNL     1     104.929 111.905 129.275  1.00  0.00     0.004 C 
ENDBRANCH   5   6
ENDBRANCH   4   5
ENDBRANCH   3   4
ENDBRANCH   2   3
ENDBRANCH   1   2
BRANCH   1   8
ATOM      8  C   UNL     1     100.650 106.174 129.334  1.00  0.00     0.000 C 
BRANCH   8   9
ATOM      9  C   UNL     1     101.116 104.793 128.836  1.00  0.00     0.000 C 
BRANCH   9  10
ATOM     10  C   UNL     1     101.647 104.827 127.396  1.00  0.00     0.004 C 
BRANCH  10  11
ATOM     11  C   UNL     1     103.123 104.414 127.346  1.00  0.00     0.027 C 
BRANCH  11  12
ATOM     12  C   UNL     1     103.679 104.208 128.729  1.00  0.00    -0.035 C 
ATOM     13  C   UNL     1     104.980 104.361 128.994  1.00  0.00     0.004 C 
ENDBRANCH  11  12
ENDBRANCH  10  11
ENDBRANCH   9  10
ENDBRANCH   8   9
ENDBRANCH   1   8
TORSDOF 10
ENDMDL
MODEL 5
REMARK VINA RESULT:    -4.557      1.893      4.790
REMARK INTER + INTRA:          -8.333
REMARK INTER:                  -6.456
REMARK INTRA:                  -1.877
REMARK UNBOUND:                -1.112
REMARK SMILES C=CCCCCCCCCCCC
REMARK SMILES IDX 7 1 8 2 9 3 10 4 11 5 12 6 13 7 6 8 5 9 4 10 3 11 2 12 1 13
REMARK H PARENT
REMARK Flexibility Score: inf
ROOT
ATOM      1  C   UNL     1     101.266 107.426 129.083  1.00  0.00     0.000 C 
ENDROOT
BRANCH   1   2
ATOM      2  C   UNL     1     100.559 106.080 129.326  1.00  0.00     0.000 C 
BRANCH   2   3
ATOM      3  C   UNL     1     101.156 104.934 128.496  1.00  0.00    -0.000 C 
BRANCH   3   4
ATOM      4  C   UNL     1     100.530 104.886 127.094  1.00  0.00    -0.000 C 
BRANCH   4   5
ATOM      5  C   UNL     1     101.502 105.386 126.004  1.00  0.00    -0.000 C 
BRANCH   5   6
ATOM      6  C   UNL     1     101.105 106.745 125.403  1.00  0.00    -0.003 C 
ATOM      7  C   UNL     1     102.172 107.325 124.476  1.00  0.00     0.004 C 
ENDBRANCH   5   6
ENDBRANCH   4   5
ENDBRANCH   3   4
ENDBRANCH   2   3
ENDBRANCH   1   2
BRANCH   1   8
ATOM      8  C   UNL     1     102.802 107.393 129.211  1.00  0.00     0.000 C 
BRANCH   8   9
ATOM      9  C   UNL     1     103.572 107.888 127.974  1.00  0.00     0.000 C 
BRANCH   9  10
ATOM     10  C   UNL     1     104.554 106.842 127.426  1.00  0.00     0.004 C 
BRANCH  10  11
ATOM     11  C   UNL     1     104.801 105.731 128.453  1.00  0.00     0.027 C 
BRANCH  11  12
ATOM     12  C   UNL     1     104.633 104.370 127.836  1.00  0.00    -0.035 C 
ATOM     13  C   UNL     1     104.781 103.250 128.550  1.00  0.00     0.004 C 
ENDBRANCH  11  12
ENDBRANCH  10  11
ENDBRANCH   9  10
ENDBRANCH   8   9
ENDBRANCH   1   8
TORSDOF 10
ENDMDL
MODEL 6
REMARK VINA RESULT:    -4.547      6.880      8.310
REMARK INTER + INTRA:          -8.317
REMARK INTER:                  -7.270
REMARK INTRA:                  -1.046
REMARK UNBOUND:                -1.112
REMARK SMILES C=CCCCCCCCCCCC
REMARK SMILES IDX 7 1 8 2 9 3 10 4 11 5 12 6 13 7 6 8 5 9 4 10 3 11 2 12 1 13
REMARK H PARENT
REMARK Flexibility Score: inf
ROOT
ATOM      1  C   UNL     1     110.894 105.221 129.384  1.00  0.00     0.000 C 
ENDROOT
BRANCH   1   2
ATOM      2  C   UNL     1     111.782 106.447 129.109  1.00  0.00     0.000 C 
BRANCH   2   3
ATOM      3  C   UNL     1     111.104 107.484 128.202  1.00  0.00    -0.000 C 
BRANCH   3   4
ATOM      4  C   UNL     1     111.739 107.490 126.803  1.00  0.00    -0.000 C 
BRANCH   4   5
ATOM      5  C   UNL     1     110.809 106.871 125.738  1.00  0.00    -0.000 C 
BRANCH   5   6
ATOM      6  C   UNL     1     111.200 105.439 125.339  1.00  0.00    -0.003 C 
ATOM      7  C   UNL     1     110.165 104.762 124.441  1.00  0.00     0.004 C 
ENDBRANCH   5   6
ENDBRANCH   4   5
ENDBRANCH   3   4
ENDBRANCH   2   3
ENDBRANCH   1   2
BRANCH   1   8
ATOM      8  C   UNL     1     109.441 105.336 128.879  1.00  0.00     0.000 C 
BRANCH   8   9
ATOM      9  C   UNL     1     108.964 104.173 127.990  1.00  0.00     0.000 C 
BRANCH   9  10
ATOM     10  C   UNL     1     107.658 103.539 128.489  1.00  0.00     0.004 C 
BRANCH  10  11
ATOM     11  C   UNL     1     107.172 102.453 127.522  1.00  0.00     0.027 C 
BRANCH  11  12
ATOM     12  C   UNL     1     107.563 101.082 127.999  1.00  0.00    -0.035 C 
ATOM     13  C   UNL     1     107.583 100.768 129.298  1.00  0.00     0.004 C 
ENDBRANCH  11  12
ENDBRANCH  10  11
ENDBRANCH   9  10
ENDBRANCH   8   9
ENDBRANCH   1   8
TORSDOF 10
ENDMDL
MODEL 7
REMARK VINA RESULT:    -4.537      3.430      5.785
REMARK INTER + INTRA:          -8.301
REMARK INTER:                  -7.172
REMARK INTRA:                  -1.129
REMARK UNBOUND:                -1.112
REMARK SMILES C=CCCCCCCCCCCC
REMARK SMILES IDX 7 1 8 2 9 3 10 4 11 5 12 6 13 7 6 8 5 9 4 10 3 11 2 12 1 13
REMARK H PARENT
REMARK Flexibility Score: inf
ROOT
ATOM      1  C   UNL     1     104.555 106.980 127.824  1.00  0.00     0.000 C 
ENDROOT
BRANCH   1   2
ATOM      2  C   UNL     1     104.751 105.758 128.738  1.00  0.00     0.000 C 
BRANCH   2   3
ATOM      3  C   UNL     1     104.879 104.442 127.958  1.00  0.00    -0.000 C 
BRANCH   3   4
ATOM      4  C   UNL     1     104.725 103.232 128.891  1.00  0.00    -0.000 C 
BRANCH   4   5
ATOM      5  C   UNL     1     105.256 101.932 128.252  1.00  0.00    -0.000 C 
BRANCH   5   6
ATOM      6  C   UNL     1     105.724 100.888 129.280  1.00  0.00    -0.003 C 
ATOM      7  C   UNL     1     107.228 100.624 129.226  1.00  0.00     0.004 C 
ENDBRANCH   5   6
ENDBRANCH   4   5
ENDBRANCH   3   4
ENDBRANCH   2   3
ENDBRANCH   1   2
BRANCH   1   8
ATOM      8  C   UNL     1     103.327 107.853 128.149  1.00  0.00     0.000 C 
BRANCH   8   9
ATOM      9  C   UNL     1     102.541 107.434 129.405  1.00  0.00     0.000 C 
BRANCH   9  10
ATOM     10  C   UNL     1     101.067 107.119 129.108  1.00  0.00     0.004 C 
BRANCH  10  11
ATOM     11  C   UNL     1     100.774 105.628 129.312  1.00  0.00     0.027 C 
BRANCH  11  12
ATOM     12  C   UNL     1     101.207 104.818 128.121  1.00  0.00    -0.035 C 
ATOM     13  C   UNL     1     100.822 105.131 126.880  1.00  0.00     0.004 C 
ENDBRANCH  11  12
ENDBRANCH  10  11
ENDBRANCH   9  10
ENDBRANCH   8   9
ENDBRANCH   1   8
TORSDOF 10
ENDMDL
MODEL 8
REMARK VINA RESULT:    -4.488      1.000      5.697
REMARK INTER + INTRA:          -8.223
REMARK INTER:                  -7.361
REMARK INTRA:                  -0.862
REMARK UNBOUND:                -1.112
REMARK SMILES C=CCCCCCCCCCCC
REMARK SMILES IDX 7 1 8 2 9 3 10 4 11 5 12 6 13 7 6 8 5 9 4 10 3 11 2 12 1 13
REMARK H PARENT
REMARK Flexibility Score: inf
ROOT
ATOM      1  C   UNL     1     102.726 107.351 129.269  1.00  0.00     0.000 C 
ENDROOT
BRANCH   1   2
ATOM      2  C   UNL     1     101.199 107.172 129.195  1.00  0.00     0.000 C 
BRANCH   2   3
ATOM      3  C   UNL     1     100.764 105.704 129.314  1.00  0.00    -0.000 C 
BRANCH   3   4
ATOM      4  C   UNL     1     101.383 104.854 128.194  1.00  0.00    -0.000 C 
BRANCH   4   5
ATOM      5  C   UNL     1     100.801 105.202 126.808  1.00  0.00    -0.000 C 
BRANCH   5   6
ATOM      6  C   UNL     1     101.863 105.647 125.789  1.00  0.00    -0.003 C 
ATOM      7  C   UNL     1     101.406 106.814 124.915  1.00  0.00     0.004 C 
ENDBRANCH   5   6
ENDBRANCH   4   5
ENDBRANCH   3   4
ENDBRANCH   2   3
ENDBRANCH   1   2
BRANCH   1   8
ATOM      8  C   UNL     1     103.354 108.121 128.090  1.00  0.00     0.000 C 
BRANCH   8   9
ATOM      9  C   UNL     1     104.649 108.884 128.423  1.00  0.00     0.000 C 
BRANCH   9  10
ATOM     10  C   UNL     1     104.463 110.408 128.411  1.00  0.00     0.004 C 
BRANCH  10  11
ATOM     11  C   UNL     1     105.695 111.106 127.824  1.00  0.00     0.027 C 
BRANCH  11  12
ATOM     12  C   UNL     1     105.438 111.576 126.418  1.00  0.00    -0.035 C 
ATOM     13  C   UNL     1     106.262 111.268 125.412  1.00  0.00     0.004 C 
ENDBRANCH  11  12
ENDBRANCH  10  11
ENDBRANCH   9  10
ENDBRANCH   8   9
ENDBRANCH   1   8
TORSDOF 10
ENDMDL
MODEL 9
REMARK VINA RESULT:    -4.480      4.412      7.376
REMARK INTER + INTRA:          -8.211
REMARK INTER:                  -7.340
REMARK INTRA:                  -0.871
REMARK UNBOUND:                -1.112
REMARK SMILES C=CCCCCCCCCCCC
REMARK SMILES IDX 7 1 8 2 9 3 10 4 11 5 12 6 13 7 6 8 5 9 4 10 3 11 2 12 1 13
REMARK H PARENT
REMARK Flexibility Score: inf
ROOT
ATOM      1  C   UNL     1     107.413 109.416 129.240  1.00  0.00     0.000 C 
ENDROOT
BRANCH   1   2
ATOM      2  C   UNL     1     107.391 110.878 128.759  1.00  0.00     0.000 C 
BRANCH   2   3
ATOM      3  C   UNL     1     106.184 111.664 129.293  1.00  0.00    -0.000 C 
BRANCH   3   4
ATOM      4  C   UNL     1     104.930 111.385 128.452  1.00  0.00    -0.000 C 
BRANCH   4   5
ATOM      5  C   UNL     1     105.160 111.664 126.952  1.00  0.00    -0.000 C 
BRANCH   5   6
ATOM      6  C   UNL     1     104.963 110.428 126.059  1.00  0.00    -0.003 C 
ATOM      7  C   UNL     1     104.556 109.180 126.841  1.00  0.00     0.004 C 
ENDBRANCH   5   6
ENDBRANCH   4   5
ENDBRANCH   3   4
ENDBRANCH   2   3
ENDBRANCH   1   2
BRANCH   1   8
ATOM      8  C   UNL     1     108.029 108.409 128.249  1.00  0.00     0.000 C 
BRANCH   8   9
ATOM      9  C   UNL     1     109.459 107.949 128.587  1.00  0.00     0.000 C 
BRANCH   9  10
ATOM     10  C   UNL     1     110.378 107.909 127.358  1.00  0.00     0.004 C 
BRANCH  10  11
ATOM     11  C   UNL     1     111.699 107.202 127.685  1.00  0.00     0.027 C 
BRANCH  11  12
ATOM     12  C   UNL     1     111.703 106.676 129.094  1.00  0.00    -0.035 C 
ATOM     13  C   UNL     1     111.966 105.394 129.366  1.00  0.00     0.004 C 
ENDBRANCH  11  12
ENDBRANCH  10  11
ENDBRANCH   9  10
ENDBRANCH   8   9
ENDBRANCH   1   8
TORSDOF 10
ENDMDL
