MODEL 1
REMARK VINA RESULT:    -3.826      0.000      0.000
REMARK INTER + INTRA:          -3.977
REMARK INTER:                  -4.721
REMARK INTRA:                   0.743
REMARK UNBOUND:                 0.743
REMARK SMILES CC1=CC=CC(C)(C)CC1=O
REMARK SMILES IDX 1 1 2 2 3 3 10 4 11 5 9 6 4 8 5 9 6 10 7 11 8 12
REMARK H PARENT
REMARK Flexibility Score: 80.00
ROOT
ATOM      1  C   UNL     1     -16.616 -50.316  29.632  1.00  0.00     0.048 C 
ATOM      2  C   UNL     1     -17.479 -50.875  30.739  1.00  0.00    -0.008 C 
ATOM      3  C   UNL     1     -16.870 -51.599  31.702  1.00  0.00     0.007 C 
ENDROOT
BRANCH   2   4
ATOM      4  C   UNL     1     -18.942 -50.643  30.637  1.00  0.00     0.159 C 
ATOM      5  O   UNL     1     -19.409 -50.161  29.569  1.00  0.00    -0.295 OA
BRANCH   4   6
ATOM      6  C   UNL     1     -19.904 -50.939  31.746  1.00  0.00     0.091 CG0
ATOM      7  G   UNL     1     -19.889 -52.420  32.187  1.00  0.00     0.000 G0
ENDBRANCH   4   6
ENDBRANCH   2   4
BRANCH   3   8
ATOM      8  C   UNL     1     -17.445 -52.287  32.883  1.00  0.00    -0.003 C 
ATOM      9  C   UNL     1     -18.713 -52.655  33.111  1.00  0.00    -0.020 C 
BRANCH   9  10
ATOM     10  C   UNL     1     -19.893 -52.422  32.198  1.00  0.00    -0.010 CG0
ATOM     11  C   UNL     1     -21.187 -52.671  33.005  1.00  0.00     0.016 C 
ATOM     12  C   UNL     1     -19.861 -53.429  31.025  1.00  0.00     0.016 C 
ATOM     13  G   UNL     1     -19.900 -50.952  31.720  1.00  0.00     0.000 G0
ENDBRANCH   9  10
ENDBRANCH   3   8
TORSDOF 0
ENDMDL
MODEL 2
REMARK VINA RESULT:    -3.790      8.454      9.766
REMARK INTER + INTRA:          -3.932
REMARK INTER:                  -4.679
REMARK INTRA:                   0.746
REMARK UNBOUND:                 0.743
REMARK SMILES CC1=CC=CC(C)(C)CC1=O
REMARK SMILES IDX 1 1 2 2 3 3 10 4 11 5 9 6 4 8 5 9 6 10 7 11 8 12
REMARK H PARENT
REMARK Flexibility Score: 80.00
ROOT
ATOM      1  C   UNL     1     -23.408 -54.752  26.213  1.00  0.00     0.048 C 
ATOM      2  C   UNL     1     -24.905 -54.563  26.164  1.00  0.00    -0.008 C 
ATOM      3  C   UNL     1     -25.503 -54.609  24.954  1.00  0.00     0.007 C 
ENDROOT
BRANCH   2   4
ATOM      4  C   UNL     1     -25.591 -54.265  27.446  1.00  0.00     0.159 C 
ATOM      5  O   UNL     1     -24.893 -53.976  28.457  1.00  0.00    -0.295 OA
BRANCH   4   6
ATOM      6  C   UNL     1     -27.078 -54.303  27.616  1.00  0.00     0.091 CG0
ATOM      7  G   UNL     1     -27.821 -53.297  26.708  1.00  0.00     0.000 G0
ENDBRANCH   4   6
ENDBRANCH   2   4
BRANCH   3   8
ATOM      8  C   UNL     1     -26.929 -54.435  24.589  1.00  0.00    -0.003 C 
ATOM      9  C   UNL     1     -27.921 -53.882  25.300  1.00  0.00    -0.020 C 
BRANCH   9  10
ATOM     10  C   UNL     1     -27.816 -53.314  26.696  1.00  0.00    -0.010 CG0
ATOM     11  C   UNL     1     -29.245 -53.137  27.255  1.00  0.00     0.016 C 
ATOM     12  C   UNL     1     -27.146 -51.921  26.650  1.00  0.00     0.016 C 
ATOM     13  G   UNL     1     -27.061 -54.308  27.607  1.00  0.00     0.000 G0
ENDBRANCH   9  10
ENDBRANCH   3   8
TORSDOF 0
ENDMDL
MODEL 3
REMARK VINA RESULT:    -3.784      7.029      8.002
REMARK INTER + INTRA:          -3.926
REMARK INTER:                  -4.675
REMARK INTRA:                   0.750
REMARK UNBOUND:                 0.743
REMARK SMILES CC1=CC=CC(C)(C)CC1=O
REMARK SMILES IDX 1 1 2 2 3 3 10 4 11 5 9 6 4 8 5 9 6 10 7 11 8 12
REMARK H PARENT
REMARK Flexibility Score: 80.00
ROOT
ATOM      1  C   UNL     1     -19.179 -51.877  23.071  1.00  0.00     0.048 C 
ATOM      2  C   UNL     1     -20.259 -52.814  23.556  1.00  0.00    -0.008 C 
ATOM      3  C   UNL     1     -20.960 -53.497  22.625  1.00  0.00     0.007 C 
ENDROOT
BRANCH   2   4
ATOM      4  C   UNL     1     -20.514 -52.852  25.018  1.00  0.00     0.159 C 
ATOM      5  O   UNL     1     -19.972 -51.982  25.753  1.00  0.00    -0.295 OA
BRANCH   4   6
ATOM      6  C   UNL     1     -21.375 -53.883  25.679  1.00  0.00     0.091 CG0
ATOM      7  G   UNL     1     -22.830 -53.889  25.157  1.00  0.00     0.000 G0
ENDBRANCH   4   6
ENDBRANCH   2   4
BRANCH   3   8
ATOM      8  C   UNL     1     -22.080 -54.454  22.789  1.00  0.00    -0.003 C 
ATOM      9  C   UNL     1     -22.889 -54.634  23.841  1.00  0.00    -0.020 C 
BRANCH   9  10
ATOM     10  C   UNL     1     -22.828 -53.895  25.158  1.00  0.00    -0.010 CG0
ATOM     11  C   UNL     1     -23.686 -54.667  26.186  1.00  0.00     0.016 C 
ATOM     12  C   UNL     1     -23.430 -52.481  24.999  1.00  0.00     0.016 C 
ATOM     13  G   UNL     1     -21.370 -53.868  25.671  1.00  0.00     0.000 G0
ENDBRANCH   9  10
ENDBRANCH   3   8
TORSDOF 0
ENDMDL
MODEL 4
REMARK VINA RESULT:    -3.784      1.607      2.688
REMARK INTER + INTRA:          -3.925
REMARK INTER:                  -4.672
REMARK INTRA:                   0.747
REMARK UNBOUND:                 0.743
REMARK SMILES CC1=CC=CC(C)(C)CC1=O
REMARK SMILES IDX 1 1 2 2 3 3 10 4 11 5 9 6 4 8 5 9 6 10 7 11 8 12
REMARK H PARENT
REMARK Flexibility Score: 80.00
ROOT
ATOM      1  C   UNL     1     -20.197 -49.775  27.725  1.00  0.00     0.048 C 
ATOM      2  C   UNL     1     -19.234 -50.265  28.780  1.00  0.00    -0.008 C 
ATOM      3  C   UNL     1     -18.018 -50.687  28.370  1.00  0.00     0.007 C 
ENDROOT
BRANCH   2   4
ATOM      4  C   UNL     1     -19.730 -50.314  30.178  1.00  0.00     0.159 C 
ATOM      5  O   UNL     1     -20.962 -50.143  30.392  1.00  0.00    -0.295 OA
BRANCH   4   6
ATOM      6  C   UNL     1     -18.843 -50.543  31.362  1.00  0.00     0.091 CG0
ATOM      7  G   UNL     1     -18.089 -51.891  31.307  1.00  0.00     0.000 G0
ENDBRANCH   4   6
ENDBRANCH   2   4
BRANCH   3   8
ATOM      8  C   UNL     1     -16.887 -51.238  29.154  1.00  0.00    -0.003 C 
ATOM      9  C   UNL     1     -16.891 -51.762  30.387  1.00  0.00    -0.020 C 
BRANCH   9  10
ATOM     10  C   UNL     1     -18.085 -51.892  31.303  1.00  0.00    -0.010 CG0
ATOM     11  C   UNL     1     -17.571 -52.198  32.728  1.00  0.00     0.016 C 
ATOM     12  C   UNL     1     -18.972 -53.075  30.852  1.00  0.00     0.016 C 
ATOM     13  G   UNL     1     -18.856 -50.553  31.346  1.00  0.00     0.000 G0
ENDBRANCH   9  10
ENDBRANCH   3   8
TORSDOF 0
ENDMDL
MODEL 5
REMARK VINA RESULT:    -3.745      5.752      6.864
REMARK INTER + INTRA:          -3.878
REMARK INTER:                  -4.619
REMARK INTRA:                   0.741
REMARK UNBOUND:                 0.743
REMARK SMILES CC1=CC=CC(C)(C)CC1=O
REMARK SMILES IDX 1 1 2 2 3 3 10 4 11 5 9 6 4 8 5 9 6 10 7 11 8 12
REMARK H PARENT
REMARK Flexibility Score: 80.00
ROOT
ATOM      1  C   UNL     1     -20.962 -53.510  22.752  1.00  0.00     0.048 C 
ATOM      2  C   UNL     1     -20.529 -52.480  23.769  1.00  0.00    -0.008 C 
ATOM      3  C   UNL     1     -19.422 -51.757  23.495  1.00  0.00     0.007 C 
ENDROOT
BRANCH   2   4
ATOM      4  C   UNL     1     -21.316 -52.398  25.025  1.00  0.00     0.159 C 
ATOM      5  O   UNL     1     -22.158 -53.304  25.276  1.00  0.00    -0.295 OA
BRANCH   4   6
ATOM      6  C   UNL     1     -21.176 -51.285  26.016  1.00  0.00     0.091 CG0
ATOM      7  G   UNL     1     -19.751 -51.165  26.602  1.00  0.00     0.000 G0
ENDBRANCH   4   6
ENDBRANCH   2   4
BRANCH   3   8
ATOM      8  C   UNL     1     -18.746 -50.709  24.297  1.00  0.00    -0.003 C 
ATOM      9  C   UNL     1     -18.860 -50.443  25.605  1.00  0.00    -0.020 C 
BRANCH   9  10
ATOM     10  C   UNL     1     -19.754 -51.157  26.592  1.00  0.00    -0.010 CG0
ATOM     11  C   UNL     1     -19.850 -50.293  27.870  1.00  0.00     0.016 C 
ATOM     12  C   UNL     1     -19.132 -52.517  26.981  1.00  0.00     0.016 C 
ATOM     13  G   UNL     1     -21.174 -51.299  25.999  1.00  0.00     0.000 G0
ENDBRANCH   9  10
ENDBRANCH   3   8
TORSDOF 0
ENDMDL
MODEL 6
REMARK VINA RESULT:    -3.718      8.209      9.696
REMARK INTER + INTRA:          -3.844
REMARK INTER:                  -4.601
REMARK INTRA:                   0.757
REMARK UNBOUND:                 0.743
REMARK SMILES CC1=CC=CC(C)(C)CC1=O
REMARK SMILES IDX 1 1 2 2 3 3 10 4 11 5 9 6 4 8 5 9 6 10 7 11 8 12
REMARK H PARENT
REMARK Flexibility Score: 80.00
ROOT
ATOM      1  C   UNL     1     -29.300 -52.730  27.096  1.00  0.00     0.048 C 
ATOM      2  C   UNL     1     -27.949 -53.403  27.161  1.00  0.00    -0.008 C 
ATOM      3  C   UNL     1     -27.279 -53.351  28.332  1.00  0.00     0.007 C 
ENDROOT
BRANCH   2   4
ATOM      4  C   UNL     1     -27.433 -54.004  25.905  1.00  0.00     0.159 C 
ATOM      5  O   UNL     1     -28.030 -53.755  24.822  1.00  0.00    -0.295 OA
BRANCH   4   6
ATOM      6  C   UNL     1     -26.241 -54.909  25.852  1.00  0.00     0.091 CG0
ATOM      7  G   UNL     1     -24.949 -54.247  26.380  1.00  0.00     0.000 G0
ENDBRANCH   4   6
ENDBRANCH   2   4
BRANCH   3   8
ATOM      8  C   UNL     1     -25.944 -53.886  28.690  1.00  0.00    -0.003 C 
ATOM      9  C   UNL     1     -24.941 -54.259  27.884  1.00  0.00    -0.020 C 
BRANCH   9  10
ATOM     10  C   UNL     1     -24.949 -54.244  26.374  1.00  0.00    -0.010 CG0
ATOM     11  C   UNL     1     -23.747 -55.076  25.874  1.00  0.00     0.016 C 
ATOM     12  C   UNL     1     -24.775 -52.797  25.859  1.00  0.00     0.016 C 
ATOM     13  G   UNL     1     -26.244 -54.909  25.854  1.00  0.00     0.000 G0
ENDBRANCH   9  10
ENDBRANCH   3   8
TORSDOF 0
ENDMDL
MODEL 7
REMARK VINA RESULT:    -3.684      6.759      8.253
REMARK INTER + INTRA:          -3.803
REMARK INTER:                  -4.548
REMARK INTRA:                   0.745
REMARK UNBOUND:                 0.743
REMARK SMILES CC1=CC=CC(C)(C)CC1=O
REMARK SMILES IDX 1 1 2 2 3 3 10 4 11 5 9 6 4 8 5 9 6 10 7 11 8 12
REMARK H PARENT
REMARK Flexibility Score: 80.00
ROOT
ATOM      1  C   UNL     1     -22.894 -56.813  24.636  1.00  0.00     0.048 C 
ATOM      2  C   UNL     1     -23.454 -55.572  25.291  1.00  0.00    -0.008 C 
ATOM      3  C   UNL     1     -24.731 -55.237  25.008  1.00  0.00     0.007 C 
ENDROOT
BRANCH   2   4
ATOM      4  C   UNL     1     -22.528 -54.778  26.137  1.00  0.00     0.159 C 
ATOM      5  O   UNL     1     -21.297 -55.054  26.115  1.00  0.00    -0.295 OA
BRANCH   4   6
ATOM      6  C   UNL     1     -22.976 -53.667  27.034  1.00  0.00     0.091 CG0
ATOM      7  G   UNL     1     -23.708 -52.533  26.281  1.00  0.00     0.000 G0
ENDBRANCH   4   6
ENDBRANCH   2   4
BRANCH   3   8
ATOM      8  C   UNL     1     -25.537 -54.081  25.469  1.00  0.00    -0.003 C 
ATOM      9  C   UNL     1     -25.124 -52.924  26.002  1.00  0.00    -0.020 C 
BRANCH   9  10
ATOM     10  C   UNL     1     -23.694 -52.527  26.290  1.00  0.00    -0.010 CG0
ATOM     11  C   UNL     1     -23.712 -51.299  27.227  1.00  0.00     0.016 C 
ATOM     12  C   UNL     1     -22.986 -52.117  24.979  1.00  0.00     0.016 C 
ATOM     13  G   UNL     1     -22.972 -53.681  27.021  1.00  0.00     0.000 G0
ENDBRANCH   9  10
ENDBRANCH   3   8
TORSDOF 0
ENDMDL
MODEL 8
REMARK VINA RESULT:    -3.659      8.236      9.603
REMARK INTER + INTRA:          -3.771
REMARK INTER:                  -4.527
REMARK INTRA:                   0.756
REMARK UNBOUND:                 0.743
REMARK SMILES CC1=CC=CC(C)(C)CC1=O
REMARK SMILES IDX 1 1 2 2 3 3 10 4 11 5 9 6 4 8 5 9 6 10 7 11 8 12
REMARK H PARENT
REMARK Flexibility Score: 80.00
ROOT
ATOM      1  C   UNL     1     -27.462 -53.235  23.940  1.00  0.00     0.048 C 
ATOM      2  C   UNL     1     -27.409 -53.342  25.446  1.00  0.00    -0.008 C 
ATOM      3  C   UNL     1     -28.125 -52.448  26.162  1.00  0.00     0.007 C 
ENDROOT
BRANCH   2   4
ATOM      4  C   UNL     1     -26.512 -54.376  26.019  1.00  0.00     0.159 C 
ATOM      5  O   UNL     1     -25.717 -54.984  25.251  1.00  0.00    -0.295 OA
BRANCH   4   6
ATOM      6  C   UNL     1     -26.506 -54.753  27.468  1.00  0.00     0.091 CG0
ATOM      7  G   UNL     1     -26.210 -53.562  28.407  1.00  0.00     0.000 G0
ENDBRANCH   4   6
ENDBRANCH   2   4
BRANCH   3   8
ATOM      8  C   UNL     1     -28.250 -52.285  27.630  1.00  0.00    -0.003 C 
ATOM      9  C   UNL     1     -27.445 -52.739  28.601  1.00  0.00    -0.020 C 
BRANCH   9  10
ATOM     10  C   UNL     1     -26.199 -53.572  28.417  1.00  0.00    -0.010 CG0
ATOM     11  C   UNL     1     -25.801 -54.157  29.791  1.00  0.00     0.016 C 
ATOM     12  C   UNL     1     -25.036 -52.682  27.923  1.00  0.00     0.016 C 
ATOM     13  G   UNL     1     -26.496 -54.749  27.460  1.00  0.00     0.000 G0
ENDBRANCH   9  10
ENDBRANCH   3   8
TORSDOF 0
ENDMDL
MODEL 9
REMARK VINA RESULT:    -3.572      8.048      9.547
REMARK INTER + INTRA:          -3.664
REMARK INTER:                  -4.418
REMARK INTRA:                   0.754
REMARK UNBOUND:                 0.743
REMARK SMILES CC1=CC=CC(C)(C)CC1=O
REMARK SMILES IDX 1 1 2 2 3 3 10 4 11 5 9 6 4 8 5 9 6 10 7 11 8 12
REMARK H PARENT
REMARK Flexibility Score: 80.00
ROOT
ATOM      1  C   UNL     1     -29.136 -53.127  25.850  1.00  0.00     0.048 C 
ATOM      2  C   UNL     1     -27.669 -53.479  25.774  1.00  0.00    -0.008 C 
ATOM      3  C   UNL     1     -27.330 -54.615  25.128  1.00  0.00     0.007 C 
ENDROOT
BRANCH   2   4
ATOM      4  C   UNL     1     -26.722 -52.582  26.482  1.00  0.00     0.159 C 
ATOM      5  O   UNL     1     -27.183 -51.705  27.264  1.00  0.00    -0.295 OA
BRANCH   4   6
ATOM      6  C   UNL     1     -25.236 -52.649  26.312  1.00  0.00     0.091 CG0
ATOM      7  G   UNL     1     -24.640 -54.023  26.694  1.00  0.00     0.000 G0
ENDBRANCH   4   6
ENDBRANCH   2   4
BRANCH   3   8
ATOM      8  C   UNL     1     -25.997 -55.228  24.914  1.00  0.00    -0.003 C 
ATOM      9  C   UNL     1     -24.850 -55.000  25.566  1.00  0.00    -0.020 C 
BRANCH   9  10
ATOM     10  C   UNL     1     -24.636 -54.014  26.690  1.00  0.00    -0.010 CG0
ATOM     11  C   UNL     1     -23.115 -53.821  26.883  1.00  0.00     0.016 C 
ATOM     12  C   UNL     1     -25.216 -54.579  28.007  1.00  0.00     0.016 C 
ATOM     13  G   UNL     1     -25.250 -52.648  26.308  1.00  0.00     0.000 G0
ENDBRANCH   9  10
ENDBRANCH   3   8
TORSDOF 0
ENDMDL
