MODEL 1
REMARK VINA RESULT:    -4.606      0.000      0.000
REMARK INTER + INTRA:          -9.548
REMARK INTER:                  -8.106
REMARK INTRA:                  -1.442
REMARK UNBOUND:                -1.442
REMARK SMILES CCCCCCCCCCCCCCC(=O)[O-]
REMARK SMILES IDX 9 1 10 2 11 3 12 4 13 5 14 6 15 7 16 8 17 9 8 10 7 11 6 12
REMARK SMILES IDX 5 13 4 14 3 15 2 16 1 17
REMARK H PARENT
REMARK Flexibility Score: inf
ROOT
ATOM      1  C   UNL     1      54.109  24.385  51.362  1.00  0.00     0.000 C 
ENDROOT
BRANCH   1   2
ATOM      2  C   UNL     1      53.480  23.185  52.085  1.00  0.00     0.000 C 
BRANCH   2   3
ATOM      3  C   UNL     1      54.413  21.965  52.132  1.00  0.00     0.000 C 
BRANCH   3   4
ATOM      4  C   UNL     1      55.900  22.359  52.190  1.00  0.00     0.000 C 
BRANCH   4   5
ATOM      5  C   UNL     1      56.732  21.402  53.059  1.00  0.00     0.006 C 
BRANCH   5   6
ATOM      6  C   UNL     1      56.090  21.141  54.428  1.00  0.00     0.053 C 
BRANCH   6   7
ATOM      7  C   UNL     1      56.843  21.861  55.502  1.00  0.00     0.041 C 
ATOM      8  O   UNL     1      57.228  23.045  55.322  1.00  0.00    -0.550 OA
ATOM      9  O   UNL     1      57.078  21.238  56.722  1.00  0.00    -0.550 OA
ENDBRANCH   6   7
ENDBRANCH   5   6
ENDBRANCH   4   5
ENDBRANCH   3   4
ENDBRANCH   2   3
ENDBRANCH   1   2
BRANCH   1  10
ATOM     10  C   UNL     1      53.397  24.656  50.028  1.00  0.00     0.000 C 
BRANCH  10  11
ATOM     11  C   UNL     1      53.628  23.542  48.994  1.00  0.00    -0.000 C 
BRANCH  11  12
ATOM     12  C   UNL     1      54.086  24.087  47.630  1.00  0.00    -0.000 C 
BRANCH  12  13
ATOM     13  C   UNL     1      55.612  24.259  47.548  1.00  0.00    -0.000 C 
BRANCH  13  14
ATOM     14  C   UNL     1      56.366  23.348  48.533  1.00  0.00    -0.000 C 
BRANCH  14  15
ATOM     15  C   UNL     1      56.618  21.943  47.964  1.00  0.00    -0.000 C 
BRANCH  15  16
ATOM     16  C   UNL     1      56.115  20.832  48.896  1.00  0.00    -0.003 C 
ATOM     17  C   UNL     1      56.788  19.500  48.576  1.00  0.00     0.004 C 
ENDBRANCH  15  16
ENDBRANCH  14  15
ENDBRANCH  13  14
ENDBRANCH  12  13
ENDBRANCH  11  12
ENDBRANCH  10  11
ENDBRANCH   1  10
TORSDOF 13
ENDMDL
MODEL 2
REMARK VINA RESULT:    -4.602      1.279      2.318
REMARK INTER + INTRA:          -9.541
REMARK INTER:                  -8.012
REMARK INTRA:                  -1.528
REMARK UNBOUND:                -1.442
REMARK SMILES CCCCCCCCCCCCCCC(=O)[O-]
REMARK SMILES IDX 9 1 10 2 11 3 12 4 13 5 14 6 15 7 16 8 17 9 8 10 7 11 6 12
REMARK SMILES IDX 5 13 4 14 3 15 2 16 1 17
REMARK H PARENT
REMARK Flexibility Score: inf
ROOT
ATOM      1  C   UNL     1      53.457  25.125  48.791  1.00  0.00     0.000 C 
ENDROOT
BRANCH   1   2
ATOM      2  C   UNL     1      53.354  24.072  49.905  1.00  0.00     0.000 C 
BRANCH   2   3
ATOM      3  C   UNL     1      54.114  24.479  51.178  1.00  0.00     0.000 C 
BRANCH   3   4
ATOM      4  C   UNL     1      53.568  23.786  52.439  1.00  0.00     0.000 C 
BRANCH   4   5
ATOM      5  C   UNL     1      53.825  22.271  52.439  1.00  0.00     0.006 C 
BRANCH   5   6
ATOM      6  C   UNL     1      55.251  21.915  52.879  1.00  0.00     0.053 C 
BRANCH   6   7
ATOM      7  C   UNL     1      55.268  21.522  54.322  1.00  0.00     0.041 C 
ATOM      8  O   UNL     1      56.017  20.591  54.717  1.00  0.00    -0.550 OA
ATOM      9  O   UNL     1      54.492  22.219  55.241  1.00  0.00    -0.550 OA
ENDBRANCH   6   7
ENDBRANCH   5   6
ENDBRANCH   4   5
ENDBRANCH   3   4
ENDBRANCH   2   3
ENDBRANCH   1   2
BRANCH   1  10
ATOM     10  C   UNL     1      53.763  24.464  47.439  1.00  0.00     0.000 C 
BRANCH  10  11
ATOM     11  C   UNL     1      55.042  25.012  46.785  1.00  0.00    -0.000 C 
BRANCH  11  12
ATOM     12  C   UNL     1      56.282  24.847  47.682  1.00  0.00    -0.000 C 
BRANCH  12  13
ATOM     13  C   UNL     1      57.252  23.776  47.153  1.00  0.00    -0.000 C 
BRANCH  13  14
ATOM     14  C   UNL     1      56.829  22.348  47.541  1.00  0.00    -0.000 C 
BRANCH  14  15
ATOM     15  C   UNL     1      56.297  22.261  48.980  1.00  0.00    -0.000 C 
BRANCH  15  16
ATOM     16  C   UNL     1      55.693  20.887  49.302  1.00  0.00    -0.003 C 
ATOM     17  C   UNL     1      56.475  19.769  48.619  1.00  0.00     0.004 C 
ENDBRANCH  15  16
ENDBRANCH  14  15
ENDBRANCH  13  14
ENDBRANCH  12  13
ENDBRANCH  11  12
ENDBRANCH  10  11
ENDBRANCH   1  10
TORSDOF 13
ENDMDL
MODEL 3
REMARK VINA RESULT:    -4.596      2.364      3.071
REMARK INTER + INTRA:          -9.530
REMARK INTER:                  -7.974
REMARK INTRA:                  -1.556
REMARK UNBOUND:                -1.442
REMARK SMILES CCCCCCCCCCCCCCC(=O)[O-]
REMARK SMILES IDX 9 1 10 2 11 3 12 4 13 5 14 6 15 7 16 8 17 9 8 10 7 11 6 12
REMARK SMILES IDX 5 13 4 14 3 15 2 16 1 17
REMARK H PARENT
REMARK Flexibility Score: inf
ROOT
ATOM      1  C   UNL     1      53.683  23.704  48.931  1.00  0.00     0.000 C 
ENDROOT
BRANCH   1   2
ATOM      2  C   UNL     1      53.364  24.885  49.860  1.00  0.00     0.000 C 
BRANCH   2   3
ATOM      3  C   UNL     1      54.052  24.766  51.229  1.00  0.00     0.000 C 
BRANCH   3   4
ATOM      4  C   UNL     1      54.969  23.533  51.324  1.00  0.00     0.000 C 
BRANCH   4   5
ATOM      5  C   UNL     1      54.774  22.752  52.633  1.00  0.00     0.006 C 
BRANCH   5   6
ATOM      6  C   UNL     1      53.968  21.461  52.434  1.00  0.00     0.053 C 
BRANCH   6   7
ATOM      7  C   UNL     1      52.773  21.450  53.334  1.00  0.00     0.041 C 
ATOM      8  O   UNL     1      52.342  20.364  53.802  1.00  0.00    -0.550 OA
ATOM      9  O   UNL     1      52.164  22.646  53.695  1.00  0.00    -0.550 OA
ENDBRANCH   6   7
ENDBRANCH   5   6
ENDBRANCH   4   5
ENDBRANCH   3   4
ENDBRANCH   2   3
ENDBRANCH   1   2
BRANCH   1  10
ATOM     10  C   UNL     1      53.863  24.179  47.482  1.00  0.00     0.000 C 
BRANCH  10  11
ATOM     11  C   UNL     1      55.206  24.891  47.252  1.00  0.00    -0.000 C 
BRANCH  11  12
ATOM     12  C   UNL     1      56.381  24.175  47.942  1.00  0.00    -0.000 C 
BRANCH  12  13
ATOM     13  C   UNL     1      57.195  23.308  46.967  1.00  0.00    -0.000 C 
BRANCH  13  14
ATOM     14  C   UNL     1      57.108  21.807  47.293  1.00  0.00    -0.000 C 
BRANCH  14  15
ATOM     15  C   UNL     1      56.328  21.528  48.587  1.00  0.00    -0.000 C 
BRANCH  15  16
ATOM     16  C   UNL     1      56.089  20.029  48.819  1.00  0.00    -0.003 C 
ATOM     17  C   UNL     1      57.405  19.256  48.815  1.00  0.00     0.004 C 
ENDBRANCH  15  16
ENDBRANCH  14  15
ENDBRANCH  13  14
ENDBRANCH  12  13
ENDBRANCH  11  12
ENDBRANCH  10  11
ENDBRANCH   1  10
TORSDOF 13
ENDMDL
MODEL 4
REMARK VINA RESULT:    -4.577      1.765      2.131
REMARK INTER + INTRA:          -9.498
REMARK INTER:                  -7.667
REMARK INTRA:                  -1.830
REMARK UNBOUND:                -1.442
REMARK SMILES CCCCCCCCCCCCCCC(=O)[O-]
REMARK SMILES IDX 9 1 10 2 11 3 12 4 13 5 14 6 15 7 16 8 17 9 8 10 7 11 6 12
REMARK SMILES IDX 5 13 4 14 3 15 2 16 1 17
REMARK H PARENT
REMARK Flexibility Score: inf
ROOT
ATOM      1  C   UNL     1      53.469  24.110  50.846  1.00  0.00     0.000 C 
ENDROOT
BRANCH   1   2
ATOM      2  C   UNL     1      54.198  24.952  51.904  1.00  0.00     0.000 C 
BRANCH   2   3
ATOM      3  C   UNL     1      55.721  24.743  51.882  1.00  0.00     0.000 C 
BRANCH   3   4
ATOM      4  C   UNL     1      56.115  23.257  51.950  1.00  0.00     0.000 C 
BRANCH   4   5
ATOM      5  C   UNL     1      56.393  22.785  53.386  1.00  0.00     0.006 C 
BRANCH   5   6
ATOM      6  C   UNL     1      55.644  21.493  53.737  1.00  0.00     0.053 C 
BRANCH   6   7
ATOM      7  C   UNL     1      54.168  21.735  53.758  1.00  0.00     0.041 C 
ATOM      8  O   UNL     1      53.672  22.555  54.574  1.00  0.00    -0.550 OA
ATOM      9  O   UNL     1      53.346  21.092  52.842  1.00  0.00    -0.550 OA
ENDBRANCH   6   7
ENDBRANCH   5   6
ENDBRANCH   4   5
ENDBRANCH   3   4
ENDBRANCH   2   3
ENDBRANCH   1   2
BRANCH   1  10
ATOM     10  C   UNL     1      53.514  24.796  49.473  1.00  0.00     0.000 C 
BRANCH  10  11
ATOM     11  C   UNL     1      53.771  23.809  48.323  1.00  0.00    -0.000 C 
BRANCH  11  12
ATOM     12  C   UNL     1      54.684  24.396  47.232  1.00  0.00    -0.000 C 
BRANCH  12  13
ATOM     13  C   UNL     1      56.170  24.089  47.479  1.00  0.00    -0.000 C 
BRANCH  13  14
ATOM     14  C   UNL     1      56.380  22.888  48.419  1.00  0.00    -0.000 C 
BRANCH  14  15
ATOM     15  C   UNL     1      56.786  21.613  47.666  1.00  0.00    -0.000 C 
BRANCH  15  16
ATOM     16  C   UNL     1      56.517  20.338  48.478  1.00  0.00    -0.003 C 
ATOM     17  C   UNL     1      55.576  20.619  49.646  1.00  0.00     0.004 C 
ENDBRANCH  15  16
ENDBRANCH  14  15
ENDBRANCH  13  14
ENDBRANCH  12  13
ENDBRANCH  11  12
ENDBRANCH  10  11
ENDBRANCH   1  10
TORSDOF 13
ENDMDL
MODEL 5
REMARK VINA RESULT:    -4.441      3.028      5.656
REMARK INTER + INTRA:          -9.258
REMARK INTER:                  -7.800
REMARK INTRA:                  -1.457
REMARK UNBOUND:                -1.442
REMARK SMILES CCCCCCCCCCCCCCC(=O)[O-]
REMARK SMILES IDX 9 1 10 2 11 3 12 4 13 5 14 6 15 7 16 8 17 9 8 10 7 11 6 12
REMARK SMILES IDX 5 13 4 14 3 15 2 16 1 17
REMARK H PARENT
REMARK Flexibility Score: inf
ROOT
ATOM      1  C   UNL     1      53.705  23.791  48.425  1.00  0.00     0.000 C 
ENDROOT
BRANCH   1   2
ATOM      2  C   UNL     1      54.338  24.598  47.282  1.00  0.00     0.000 C 
BRANCH   2   3
ATOM      3  C   UNL     1      55.859  24.398  47.186  1.00  0.00     0.000 C 
BRANCH   3   4
ATOM      4  C   UNL     1      56.409  23.501  48.309  1.00  0.00     0.000 C 
BRANCH   4   5
ATOM      5  C   UNL     1      56.657  22.057  47.845  1.00  0.00     0.006 C 
BRANCH   5   6
ATOM      6  C   UNL     1      56.054  21.019  48.800  1.00  0.00     0.053 C 
BRANCH   6   7
ATOM      7  C   UNL     1      56.572  19.653  48.479  1.00  0.00     0.041 C 
ATOM      8  O   UNL     1      57.720  19.305  48.858  1.00  0.00    -0.550 OA
ATOM      9  O   UNL     1      55.765  18.746  47.802  1.00  0.00    -0.550 OA
ENDBRANCH   6   7
ENDBRANCH   5   6
ENDBRANCH   4   5
ENDBRANCH   3   4
ENDBRANCH   2   3
ENDBRANCH   1   2
BRANCH   1  10
ATOM     10  C   UNL     1      53.368  24.700  49.617  1.00  0.00     0.000 C 
BRANCH  10  11
ATOM     11  C   UNL     1      53.406  23.955  50.961  1.00  0.00    -0.000 C 
BRANCH  11  12
ATOM     12  C   UNL     1      54.762  24.092  51.675  1.00  0.00    -0.000 C 
BRANCH  12  13
ATOM     13  C   UNL     1      55.377  22.729  52.036  1.00  0.00    -0.000 C 
BRANCH  13  14
ATOM     14  C   UNL     1      54.341  21.591  52.039  1.00  0.00    -0.000 C 
BRANCH  14  15
ATOM     15  C   UNL     1      53.795  21.295  53.443  1.00  0.00    -0.000 C 
BRANCH  15  16
ATOM     16  C   UNL     1      52.291  20.984  53.437  1.00  0.00    -0.003 C 
ATOM     17  C   UNL     1      51.504  22.064  54.176  1.00  0.00     0.004 C 
ENDBRANCH  15  16
ENDBRANCH  14  15
ENDBRANCH  13  14
ENDBRANCH  12  13
ENDBRANCH  11  12
ENDBRANCH  10  11
ENDBRANCH   1  10
TORSDOF 13
ENDMDL
MODEL 6
REMARK VINA RESULT:    -4.277      2.093      4.404
REMARK INTER + INTRA:          -8.969
REMARK INTER:                  -6.855
REMARK INTRA:                  -2.114
REMARK UNBOUND:                -1.442
REMARK SMILES CCCCCCCCCCCCCCC(=O)[O-]
REMARK SMILES IDX 9 1 10 2 11 3 12 4 13 5 14 6 15 7 16 8 17 9 8 10 7 11 6 12
REMARK SMILES IDX 5 13 4 14 3 15 2 16 1 17
REMARK H PARENT
REMARK Flexibility Score: inf
ROOT
ATOM      1  C   UNL     1      53.807  23.674  48.244  1.00  0.00     0.000 C 
ENDROOT
BRANCH   1   2
ATOM      2  C   UNL     1      53.717  24.827  49.254  1.00  0.00     0.000 C 
BRANCH   2   3
ATOM      3  C   UNL     1      53.102  24.395  50.595  1.00  0.00     0.000 C 
BRANCH   3   4
ATOM      4  C   UNL     1      53.943  24.843  51.803  1.00  0.00     0.000 C 
BRANCH   4   5
ATOM      5  C   UNL     1      53.572  24.092  53.092  1.00  0.00     0.006 C 
BRANCH   5   6
ATOM      6  C   UNL     1      52.514  23.006  52.858  1.00  0.00     0.053 C 
BRANCH   6   7
ATOM      7  C   UNL     1      52.613  21.946  53.909  1.00  0.00     0.041 C 
ATOM      8  O   UNL     1      52.704  22.265  55.123  1.00  0.00    -0.550 OA
ATOM      9  O   UNL     1      52.556  20.605  53.551  1.00  0.00    -0.550 OA
ENDBRANCH   6   7
ENDBRANCH   5   6
ENDBRANCH   4   5
ENDBRANCH   3   4
ENDBRANCH   2   3
ENDBRANCH   1   2
BRANCH   1  10
ATOM     10  C   UNL     1      55.270  23.276  47.995  1.00  0.00     0.000 C 
BRANCH  10  11
ATOM     11  C   UNL     1      55.978  22.787  49.269  1.00  0.00    -0.000 C 
BRANCH  11  12
ATOM     12  C   UNL     1      55.532  21.375  49.688  1.00  0.00    -0.000 C 
BRANCH  12  13
ATOM     13  C   UNL     1      55.158  21.295  51.178  1.00  0.00    -0.000 C 
BRANCH  13  14
ATOM     14  C   UNL     1      56.262  21.848  52.098  1.00  0.00    -0.000 C 
BRANCH  14  15
ATOM     15  C   UNL     1      56.303  21.140  53.461  1.00  0.00    -0.000 C 
BRANCH  15  16
ATOM     16  C   UNL     1      56.308  22.127  54.637  1.00  0.00    -0.003 C 
ATOM     17  C   UNL     1      57.095  23.389  54.292  1.00  0.00     0.004 C 
ENDBRANCH  15  16
ENDBRANCH  14  15
ENDBRANCH  13  14
ENDBRANCH  12  13
ENDBRANCH  11  12
ENDBRANCH  10  11
ENDBRANCH   1  10
TORSDOF 13
ENDMDL
MODEL 7
REMARK VINA RESULT:    -4.248      3.064      6.064
REMARK INTER + INTRA:          -8.919
REMARK INTER:                  -7.611
REMARK INTRA:                  -1.308
REMARK UNBOUND:                -1.442
REMARK SMILES CCCCCCCCCCCCCCC(=O)[O-]
REMARK SMILES IDX 9 1 10 2 11 3 12 4 13 5 14 6 15 7 16 8 17 9 8 10 7 11 6 12
REMARK SMILES IDX 5 13 4 14 3 15 2 16 1 17
REMARK H PARENT
REMARK Flexibility Score: inf
ROOT
ATOM      1  C   UNL     1      53.109  24.294  50.740  1.00  0.00     0.000 C 
ENDROOT
BRANCH   1   2
ATOM      2  C   UNL     1      53.676  24.773  49.395  1.00  0.00     0.000 C 
BRANCH   2   3
ATOM      3  C   UNL     1      53.864  23.626  48.389  1.00  0.00     0.000 C 
BRANCH   3   4
ATOM      4  C   UNL     1      55.244  23.657  47.708  1.00  0.00     0.000 C 
BRANCH   4   5
ATOM      5  C   UNL     1      56.301  22.849  48.478  1.00  0.00     0.006 C 
BRANCH   5   6
ATOM      6  C   UNL     1      56.622  21.508  47.805  1.00  0.00     0.053 C 
BRANCH   6   7
ATOM      7  C   UNL     1      56.454  20.383  48.777  1.00  0.00     0.041 C 
ATOM      8  O   UNL     1      57.281  19.435  48.798  1.00  0.00    -0.550 OA
ATOM      9  O   UNL     1      55.411  20.408  49.694  1.00  0.00    -0.550 OA
ENDBRANCH   6   7
ENDBRANCH   5   6
ENDBRANCH   4   5
ENDBRANCH   3   4
ENDBRANCH   2   3
ENDBRANCH   1   2
BRANCH   1  10
ATOM     10  C   UNL     1      54.138  24.477  51.865  1.00  0.00     0.000 C 
BRANCH  10  11
ATOM     11  C   UNL     1      54.683  23.141  52.395  1.00  0.00    -0.000 C 
BRANCH  11  12
ATOM     12  C   UNL     1      53.665  21.994  52.267  1.00  0.00    -0.000 C 
BRANCH  12  13
ATOM     13  C   UNL     1      53.509  21.197  53.573  1.00  0.00    -0.000 C 
BRANCH  13  14
ATOM     14  C   UNL     1      52.058  21.170  54.084  1.00  0.00    -0.000 C 
BRANCH  14  15
ATOM     15  C   UNL     1      51.264  22.420  53.672  1.00  0.00    -0.000 C 
BRANCH  15  16
ATOM     16  C   UNL     1      49.762  22.142  53.527  1.00  0.00    -0.003 C 
ATOM     17  C   UNL     1      49.252  22.577  52.155  1.00  0.00     0.004 C 
ENDBRANCH  15  16
ENDBRANCH  14  15
ENDBRANCH  13  14
ENDBRANCH  12  13
ENDBRANCH  11  12
ENDBRANCH  10  11
ENDBRANCH   1  10
TORSDOF 13
ENDMDL
MODEL 8
REMARK VINA RESULT:    -4.228      1.249      3.533
REMARK INTER + INTRA:          -8.883
REMARK INTER:                  -7.143
REMARK INTRA:                  -1.740
REMARK UNBOUND:                -1.442
REMARK SMILES CCCCCCCCCCCCCCC(=O)[O-]
REMARK SMILES IDX 9 1 10 2 11 3 12 4 13 5 14 6 15 7 16 8 17 9 8 10 7 11 6 12
REMARK SMILES IDX 5 13 4 14 3 15 2 16 1 17
REMARK H PARENT
REMARK Flexibility Score: inf
ROOT
ATOM      1  C   UNL     1      55.620  21.391  49.348  1.00  0.00     0.000 C 
ENDROOT
BRANCH   1   2
ATOM      2  C   UNL     1      55.248  21.150  50.818  1.00  0.00     0.000 C 
BRANCH   2   3
ATOM      3  C   UNL     1      56.046  22.040  51.785  1.00  0.00     0.000 C 
BRANCH   3   4
ATOM      4  C   UNL     1      56.525  21.276  53.032  1.00  0.00     0.000 C 
BRANCH   4   5
ATOM      5  C   UNL     1      56.045  21.922  54.341  1.00  0.00     0.006 C 
BRANCH   5   6
ATOM      6  C   UNL     1      56.705  21.303  55.581  1.00  0.00     0.053 C 
BRANCH   6   7
ATOM      7  C   UNL     1      57.258  22.375  56.466  1.00  0.00     0.041 C 
ATOM      8  O   UNL     1      57.459  23.531  56.011  1.00  0.00    -0.550 OA
ATOM      9  O   UNL     1      57.506  22.108  57.807  1.00  0.00    -0.550 OA
ENDBRANCH   6   7
ENDBRANCH   5   6
ENDBRANCH   4   5
ENDBRANCH   3   4
ENDBRANCH   2   3
ENDBRANCH   1   2
BRANCH   1  10
ATOM     10  C   UNL     1      55.531  22.884  48.998  1.00  0.00     0.000 C 
BRANCH  10  11
ATOM     11  C   UNL     1      54.085  23.359  48.778  1.00  0.00    -0.000 C 
BRANCH  11  12
ATOM     12  C   UNL     1      53.816  24.742  49.397  1.00  0.00    -0.000 C 
BRANCH  12  13
ATOM     13  C   UNL     1      53.665  24.683  50.926  1.00  0.00    -0.000 C 
BRANCH  13  14
ATOM     14  C   UNL     1      52.638  23.632  51.382  1.00  0.00    -0.000 C 
BRANCH  14  15
ATOM     15  C   UNL     1      52.839  23.203  52.843  1.00  0.00    -0.000 C 
BRANCH  15  16
ATOM     16  C   UNL     1      51.864  22.098  53.273  1.00  0.00    -0.003 C 
ATOM     17  C   UNL     1      52.615  20.854  53.740  1.00  0.00     0.004 C 
ENDBRANCH  15  16
ENDBRANCH  14  15
ENDBRANCH  13  14
ENDBRANCH  12  13
ENDBRANCH  11  12
ENDBRANCH  10  11
ENDBRANCH   1  10
TORSDOF 13
ENDMDL
MODEL 9
REMARK VINA RESULT:    -4.092      3.342      4.128
REMARK INTER + INTRA:          -8.643
REMARK INTER:                  -7.005
REMARK INTRA:                  -1.638
REMARK UNBOUND:                -1.442
REMARK SMILES CCCCCCCCCCCCCCC(=O)[O-]
REMARK SMILES IDX 9 1 10 2 11 3 12 4 13 5 14 6 15 7 16 8 17 9 8 10 7 11 6 12
REMARK SMILES IDX 5 13 4 14 3 15 2 16 1 17
REMARK H PARENT
REMARK Flexibility Score: inf
ROOT
ATOM      1  C   UNL     1      54.402  24.341  52.916  1.00  0.00     0.000 C 
ENDROOT
BRANCH   1   2
ATOM      2  C   UNL     1      55.245  23.068  53.085  1.00  0.00     0.000 C 
BRANCH   2   3
ATOM      3  C   UNL     1      54.475  21.934  53.779  1.00  0.00     0.000 C 
BRANCH   3   4
ATOM      4  C   UNL     1      53.366  21.342  52.891  1.00  0.00     0.000 C 
BRANCH   4   5
ATOM      5  C   UNL     1      52.046  21.137  53.652  1.00  0.00     0.006 C 
BRANCH   5   6
ATOM      6  C   UNL     1      51.244  22.437  53.800  1.00  0.00     0.053 C 
BRANCH   6   7
ATOM      7  C   UNL     1      49.779  22.161  53.678  1.00  0.00     0.041 C 
ATOM      8  O   UNL     1      49.054  22.119  54.706  1.00  0.00    -0.550 OA
ATOM      9  O   UNL     1      49.204  22.000  52.423  1.00  0.00    -0.550 OA
ENDBRANCH   6   7
ENDBRANCH   5   6
ENDBRANCH   4   5
ENDBRANCH   3   4
ENDBRANCH   2   3
ENDBRANCH   1   2
BRANCH   1  10
ATOM     10  C   UNL     1      54.436  24.832  51.461  1.00  0.00     0.000 C 
BRANCH  10  11
ATOM     11  C   UNL     1      53.404  24.121  50.569  1.00  0.00    -0.000 C 
BRANCH  11  12
ATOM     12  C   UNL     1      53.396  24.662  49.129  1.00  0.00    -0.000 C 
BRANCH  12  13
ATOM     13  C   UNL     1      53.970  23.655  48.119  1.00  0.00    -0.000 C 
BRANCH  13  14
ATOM     14  C   UNL     1      55.459  23.901  47.814  1.00  0.00    -0.000 C 
BRANCH  14  15
ATOM     15  C   UNL     1      56.388  23.020  48.663  1.00  0.00    -0.000 C 
BRANCH  15  16
ATOM     16  C   UNL     1      56.007  21.534  48.604  1.00  0.00    -0.003 C 
ATOM     17  C   UNL     1      55.643  21.005  49.989  1.00  0.00     0.004 C 
ENDBRANCH  15  16
ENDBRANCH  14  15
ENDBRANCH  13  14
ENDBRANCH  12  13
ENDBRANCH  11  12
ENDBRANCH  10  11
ENDBRANCH   1  10
TORSDOF 13
ENDMDL
