MODEL 1
REMARK VINA RESULT:     3.364      0.000      0.000
REMARK INTER + INTRA:           3.596
REMARK INTER:                   3.658
REMARK INTRA:                  -0.062
REMARK UNBOUND:                -0.062
REMARK SMILES CC1(C)[C@@H]2CC=C(CO)[C@H]1C2
REMARK SMILES IDX 8 1 7 2 1 3 2 4 4 5 3 6 10 7 5 8 11 9 6 10 9 11
REMARK H PARENT 9 12
REMARK Flexibility Score: inf
ROOT
ATOM      1  C   UNL     1      22.840 -32.187  38.805  1.00  0.00     0.187 C 
ENDROOT
BRANCH   1   2
ATOM      2  C   UNL     1      21.808 -31.193  39.253  1.00  0.00    -0.045 C 
ATOM      3  C   UNL     1      21.930 -28.340  38.480  1.00  0.00     0.012 C 
ATOM      4  C   UNL     1      20.608 -29.154  38.389  1.00  0.00    -0.026 C 
ATOM      5  C   UNL     1      19.783 -29.382  39.685  1.00  0.00    -0.000 C 
ATOM      6  C   UNL     1      19.749 -28.558  37.245  1.00  0.00     0.012 C 
ATOM      7  C   UNL     1      20.698 -30.701  38.312  1.00  0.00     0.023 C 
ATOM      8  C   UNL     1      20.738 -29.641  40.901  1.00  0.00     0.031 C 
ATOM      9  C   UNL     1      19.405 -30.777  39.147  1.00  0.00     0.013 C 
ATOM     10  C   UNL     1      21.806 -30.687  40.522  1.00  0.00    -0.025 C 
ENDBRANCH   1   2
BRANCH   1  11
ATOM     11  O   UNL     1      23.849 -31.527  38.092  1.00  0.00    -0.392 OA
ATOM     12  H   UNL     1      23.894 -30.609  38.467  1.00  0.00     0.211 HD
ENDBRANCH   1  11
TORSDOF 2
ENDMDL
MODEL 2
REMARK VINA RESULT:     4.531     12.917     14.215
REMARK INTER + INTRA:           4.866
REMARK INTER:                   4.889
REMARK INTRA:                  -0.023
REMARK UNBOUND:                -0.062
REMARK SMILES CC1(C)[C@@H]2CC=C(CO)[C@H]1C2
REMARK SMILES IDX 8 1 7 2 1 3 2 4 4 5 3 6 10 7 5 8 11 9 6 10 9 11
REMARK H PARENT 9 12
REMARK Flexibility Score: inf
ROOT
ATOM      1  C   UNL     1      11.772 -20.784  39.667  1.00  0.00     0.187 C 
ENDROOT
BRANCH   1   2
ATOM      2  C   UNL     1      12.569 -20.094  40.736  1.00  0.00    -0.045 C 
ATOM      3  C   UNL     1      11.361 -18.105  42.562  1.00  0.00     0.012 C 
ATOM      4  C   UNL     1      12.285 -19.239  43.088  1.00  0.00    -0.026 C 
ATOM      5  C   UNL     1      13.824 -19.067  42.958  1.00  0.00    -0.000 C 
ATOM      6  C   UNL     1      11.855 -19.584  44.536  1.00  0.00     0.012 C 
ATOM      7  C   UNL     1      12.469 -20.507  42.212  1.00  0.00     0.023 C 
ATOM      8  C   UNL     1      14.182 -18.382  41.595  1.00  0.00     0.031 C 
ATOM      9  C   UNL     1      13.928 -20.585  42.703  1.00  0.00     0.013 C 
ATOM     10  C   UNL     1      13.425 -19.071  40.441  1.00  0.00    -0.025 C 
ENDBRANCH   1   2
BRANCH   1  11
ATOM     11  O   UNL     1      11.783 -20.011  38.500  1.00  0.00    -0.392 OA
ATOM     12  H   UNL     1      12.563 -19.403  38.581  1.00  0.00     0.211 HD
ENDBRANCH   1  11
TORSDOF 2
ENDMDL
MODEL 3
REMARK VINA RESULT:     4.652     12.865     14.296
REMARK INTER + INTRA:           4.997
REMARK INTER:                   5.020
REMARK INTRA:                  -0.023
REMARK UNBOUND:                -0.062
REMARK SMILES CC1(C)[C@@H]2CC=C(CO)[C@H]1C2
REMARK SMILES IDX 8 1 7 2 1 3 2 4 4 5 3 6 10 7 5 8 11 9 6 10 9 11
REMARK H PARENT 9 12
REMARK Flexibility Score: inf
ROOT
ATOM      1  C   UNL     1      14.980 -17.229  41.100  1.00  0.00     0.187 C 
ENDROOT
BRANCH   1   2
ATOM      2  C   UNL     1      13.916 -18.287  41.135  1.00  0.00    -0.045 C 
ATOM      3  C   UNL     1      14.149 -20.697  42.835  1.00  0.00     0.012 C 
ATOM      4  C   UNL     1      12.837 -19.866  42.775  1.00  0.00    -0.026 C 
ATOM      5  C   UNL     1      11.875 -20.080  41.573  1.00  0.00    -0.000 C 
ATOM      6  C   UNL     1      12.111 -20.004  44.137  1.00  0.00     0.012 C 
ATOM      7  C   UNL     1      12.918 -18.391  42.298  1.00  0.00     0.023 C 
ATOM      8  C   UNL     1      12.691 -20.285  40.251  1.00  0.00     0.031 C 
ATOM      9  C   UNL     1      11.542 -18.574  41.629  1.00  0.00     0.013 C 
ATOM     10  C   UNL     1      13.783 -19.203  40.129  1.00  0.00    -0.025 C 
ENDBRANCH   1   2
BRANCH   1  11
ATOM     11  O   UNL     1      15.158 -16.787  39.783  1.00  0.00    -0.392 OA
ATOM     12  H   UNL     1      14.892 -15.832  39.776  1.00  0.00     0.211 HD
ENDBRANCH   1  11
TORSDOF 2
ENDMDL
MODEL 4
REMARK VINA RESULT:     4.751      1.807      3.821
REMARK INTER + INTRA:           5.105
REMARK INTER:                   5.143
REMARK INTRA:                  -0.037
REMARK UNBOUND:                -0.062
REMARK SMILES CC1(C)[C@@H]2CC=C(CO)[C@H]1C2
REMARK SMILES IDX 8 1 7 2 1 3 2 4 4 5 3 6 10 7 5 8 11 9 6 10 9 11
REMARK H PARENT 9 12
REMARK Flexibility Score: inf
ROOT
ATOM      1  C   UNL     1      20.670 -29.239  38.285  1.00  0.00     0.187 C 
ENDROOT
BRANCH   1   2
ATOM      2  C   UNL     1      21.553 -30.212  39.012  1.00  0.00    -0.045 C 
ATOM      3  C   UNL     1      21.432 -33.125  38.510  1.00  0.00     0.012 C 
ATOM      4  C   UNL     1      22.787 -32.367  38.588  1.00  0.00    -0.026 C 
ATOM      5  C   UNL     1      23.373 -32.030  39.988  1.00  0.00    -0.000 C 
ATOM      6  C   UNL     1      23.809 -33.105  37.688  1.00  0.00     0.012 C 
ATOM      7  C   UNL     1      22.789 -30.834  38.346  1.00  0.00     0.023 C 
ATOM      8  C   UNL     1      22.226 -31.616  40.973  1.00  0.00     0.031 C 
ATOM      9  C   UNL     1      23.911 -30.711  39.396  1.00  0.00     0.013 C 
ATOM     10  C   UNL     1      21.298 -30.583  40.302  1.00  0.00    -0.025 C 
ENDBRANCH   1   2
BRANCH   1  11
ATOM     11  O   UNL     1      21.294 -27.987  38.234  1.00  0.00    -0.392 OA
ATOM     12  H   UNL     1      21.873 -27.935  39.038  1.00  0.00     0.211 HD
ENDBRANCH   1  11
TORSDOF 2
ENDMDL
MODEL 5
REMARK VINA RESULT:     4.873     12.859     14.194
REMARK INTER + INTRA:           5.238
REMARK INTER:                   5.288
REMARK INTRA:                  -0.050
REMARK UNBOUND:                -0.062
REMARK SMILES CC1(C)[C@@H]2CC=C(CO)[C@H]1C2
REMARK SMILES IDX 8 1 7 2 1 3 2 4 4 5 3 6 10 7 5 8 11 9 6 10 9 11
REMARK H PARENT 9 12
REMARK Flexibility Score: inf
ROOT
ATOM      1  C   UNL     1      15.423 -17.376  40.893  1.00  0.00     0.187 C 
ENDROOT
BRANCH   1   2
ATOM      2  C   UNL     1      14.217 -18.112  41.403  1.00  0.00    -0.045 C 
ATOM      3  C   UNL     1      12.032 -18.983  39.609  1.00  0.00     0.012 C 
ATOM      4  C   UNL     1      12.637 -19.935  40.679  1.00  0.00    -0.026 C 
ATOM      5  C   UNL     1      12.171 -19.790  42.154  1.00  0.00    -0.000 C 
ATOM      6  C   UNL     1      12.506 -21.391  40.164  1.00  0.00     0.012 C 
ATOM      7  C   UNL     1      14.059 -19.628  41.220  1.00  0.00     0.023 C 
ATOM      8  C   UNL     1      11.982 -18.278  42.520  1.00  0.00     0.031 C 
ATOM      9  C   UNL     1      13.604 -20.151  42.596  1.00  0.00     0.013 C 
ATOM     10  C   UNL     1      13.208 -17.464  42.058  1.00  0.00    -0.025 C 
ENDBRANCH   1   2
BRANCH   1  11
ATOM     11  O   UNL     1      15.072 -16.626  39.764  1.00  0.00    -0.392 OA
ATOM     12  H   UNL     1      15.892 -16.136  39.496  1.00  0.00     0.211 HD
ENDBRANCH   1  11
TORSDOF 2
ENDMDL
MODEL 6
REMARK VINA RESULT:     4.879     12.750     14.058
REMARK INTER + INTRA:           5.244
REMARK INTER:                   5.269
REMARK INTRA:                  -0.025
REMARK UNBOUND:                -0.062
REMARK SMILES CC1(C)[C@@H]2CC=C(CO)[C@H]1C2
REMARK SMILES IDX 8 1 7 2 1 3 2 4 4 5 3 6 10 7 5 8 11 9 6 10 9 11
REMARK H PARENT 9 12
REMARK Flexibility Score: inf
ROOT
ATOM      1  C   UNL     1      14.936 -20.836  43.495  1.00  0.00     0.187 C 
ENDROOT
BRANCH   1   2
ATOM      2  C   UNL     1      13.946 -20.209  42.557  1.00  0.00    -0.045 C 
ATOM      3  C   UNL     1      11.297 -19.260  43.470  1.00  0.00     0.012 C 
ATOM      4  C   UNL     1      12.199 -18.394  42.547  1.00  0.00    -0.026 C 
ATOM      5  C   UNL     1      12.224 -18.706  41.024  1.00  0.00    -0.000 C 
ATOM      6  C   UNL     1      11.897 -16.901  42.833  1.00  0.00     0.012 C 
ATOM      7  C   UNL     1      13.722 -18.690  42.515  1.00  0.00     0.023 C 
ATOM      8  C   UNL     1      12.177 -20.254  40.785  1.00  0.00     0.031 C 
ATOM      9  C   UNL     1      13.720 -18.329  41.017  1.00  0.00     0.013 C 
ATOM     10  C   UNL     1      13.202 -20.962  41.693  1.00  0.00    -0.025 C 
ENDBRANCH   1   2
BRANCH   1  11
ATOM     11  O   UNL     1      14.513 -22.128  43.829  1.00  0.00    -0.392 OA
ATOM     12  H   UNL     1      13.554 -22.176  43.580  1.00  0.00     0.211 HD
ENDBRANCH   1  11
TORSDOF 2
ENDMDL
MODEL 7
REMARK VINA RESULT:     5.157      1.937      3.986
REMARK INTER + INTRA:           5.547
REMARK INTER:                   5.570
REMARK INTRA:                  -0.023
REMARK UNBOUND:                -0.062
REMARK SMILES CC1(C)[C@@H]2CC=C(CO)[C@H]1C2
REMARK SMILES IDX 8 1 7 2 1 3 2 4 4 5 3 6 10 7 5 8 11 9 6 10 9 11
REMARK H PARENT 9 12
REMARK Flexibility Score: inf
ROOT
ATOM      1  C   UNL     1      20.102 -30.168  38.302  1.00  0.00     0.187 C 
ENDROOT
BRANCH   1   2
ATOM      2  C   UNL     1      21.436 -30.786  38.605  1.00  0.00    -0.045 C 
ATOM      3  C   UNL     1      22.674 -30.621  41.287  1.00  0.00     0.012 C 
ATOM      4  C   UNL     1      22.621 -31.958  40.494  1.00  0.00    -0.026 C 
ATOM      5  C   UNL     1      23.668 -32.200  39.371  1.00  0.00    -0.000 C 
ATOM      6  C   UNL     1      22.574 -33.125  41.512  1.00  0.00     0.012 C 
ATOM      7  C   UNL     1      21.557 -32.110  39.375  1.00  0.00     0.023 C 
ATOM      8  C   UNL     1      23.938 -30.873  38.582  1.00  0.00     0.031 C 
ATOM      9  C   UNL     1      22.577 -32.944  38.575  1.00  0.00     0.013 C 
ATOM     10  C   UNL     1      22.603 -30.201  38.203  1.00  0.00    -0.025 C 
ENDBRANCH   1   2
BRANCH   1  11
ATOM     11  O   UNL     1      20.289 -28.897  37.746  1.00  0.00    -0.392 OA
ATOM     12  H   UNL     1      21.140 -28.942  37.238  1.00  0.00     0.211 HD
ENDBRANCH   1  11
TORSDOF 2
ENDMDL
MODEL 8
REMARK VINA RESULT:     5.483     12.080     13.379
REMARK INTER + INTRA:           5.901
REMARK INTER:                   5.932
REMARK INTRA:                  -0.031
REMARK UNBOUND:                -0.062
REMARK SMILES CC1(C)[C@@H]2CC=C(CO)[C@H]1C2
REMARK SMILES IDX 8 1 7 2 1 3 2 4 4 5 3 6 10 7 5 8 11 9 6 10 9 11
REMARK H PARENT 9 12
REMARK Flexibility Score: inf
ROOT
ATOM      1  C   UNL     1      13.833 -21.379  43.956  1.00  0.00     0.187 C 
ENDROOT
BRANCH   1   2
ATOM      2  C   UNL     1      13.621 -20.325  42.909  1.00  0.00    -0.045 C 
ATOM      3  C   UNL     1      13.734 -20.935  40.017  1.00  0.00     0.012 C 
ATOM      4  C   UNL     1      12.591 -20.074  40.624  1.00  0.00    -0.026 C 
ATOM      5  C   UNL     1      12.868 -18.574  40.925  1.00  0.00    -0.000 C 
ATOM      6  C   UNL     1      11.321 -20.272  39.759  1.00  0.00     0.012 C 
ATOM      7  C   UNL     1      12.296 -20.204  42.142  1.00  0.00     0.023 C 
ATOM      8  C   UNL     1      14.321 -18.390  41.483  1.00  0.00     0.031 C 
ATOM      9  C   UNL     1      11.958 -18.701  42.164  1.00  0.00     0.013 C 
ATOM     10  C   UNL     1      14.596 -19.421  42.596  1.00  0.00    -0.025 C 
ENDBRANCH   1   2
BRANCH   1  11
ATOM     11  O   UNL     1      15.099 -21.956  43.792  1.00  0.00    -0.392 OA
ATOM     12  H   UNL     1      14.989 -22.921  43.992  1.00  0.00     0.211 HD
ENDBRANCH   1  11
TORSDOF 2
ENDMDL
MODEL 9
REMARK VINA RESULT:     5.722     12.565     13.987
REMARK INTER + INTRA:           6.161
REMARK INTER:                   6.227
REMARK INTRA:                  -0.066
REMARK UNBOUND:                -0.062
REMARK SMILES CC1(C)[C@@H]2CC=C(CO)[C@H]1C2
REMARK SMILES IDX 8 1 7 2 1 3 2 4 4 5 3 6 10 7 5 8 11 9 6 10 9 11
REMARK H PARENT 9 12
REMARK Flexibility Score: inf
ROOT
ATOM      1  C   UNL     1      11.898 -20.458  39.283  1.00  0.00     0.187 C 
ENDROOT
BRANCH   1   2
ATOM      2  C   UNL     1      12.288 -19.731  40.537  1.00  0.00    -0.045 C 
ATOM      3  C   UNL     1      11.995 -20.948  43.218  1.00  0.00     0.012 C 
ATOM      4  C   UNL     1      13.297 -20.210  42.795  1.00  0.00    -0.026 C 
ATOM      5  C   UNL     1      13.323 -18.657  42.849  1.00  0.00    -0.000 C 
ATOM      6  C   UNL     1      14.485 -20.842  43.563  1.00  0.00     0.012 C 
ATOM      7  C   UNL     1      13.594 -20.047  41.281  1.00  0.00     0.023 C 
ATOM      8  C   UNL     1      11.946 -18.072  42.381  1.00  0.00     0.031 C 
ATOM      9  C   UNL     1      14.218 -18.673  41.593  1.00  0.00     0.013 C 
ATOM     10  C   UNL     1      11.501 -18.750  41.070  1.00  0.00    -0.025 C 
ENDBRANCH   1   2
BRANCH   1  11
ATOM     11  O   UNL     1      12.106 -21.832  39.453  1.00  0.00    -0.392 OA
ATOM     12  H   UNL     1      11.355 -22.283  38.987  1.00  0.00     0.211 HD
ENDBRANCH   1  11
TORSDOF 2
ENDMDL
