MODEL 1
REMARK VINA RESULT:    -5.936      0.000      0.000
REMARK INTER + INTRA:         -10.627
REMARK INTER:                  -9.060
REMARK INTRA:                  -1.567
REMARK UNBOUND:                -1.567
REMARK SMILES OC[C@@H]1O[C@H](O[C@]2(CO)O[C@H](CO)[C@@H](O)[C@H]2O)[C@H](O)[C@@H](O)[C@H]1O
REMARK SMILES IDX 6 1 5 2 3 3 22 4 4 5 20 6 18 7 2 8 1 9 23 11 21 13 19 15
REMARK SMILES IDX 7 17 16 18 10 19 14 20 11 21 8 22 9 23 17 25 15 27 12 29
REMARK SMILES IDX 13 30
REMARK H PARENT 1 10 23 12 21 14 19 16 9 24 17 26 15 28 13 31
REMARK Flexibility Score: inf
ROOT
ATOM      1  O   UNL     1      32.977 -13.752  24.999  1.00  0.00    -0.313 OA
ENDROOT
BRANCH   1   2
ATOM      2  C   UNL     1      33.294 -14.576  23.884  1.00  0.00     0.285 C 
ATOM      3  C   UNL     1      33.966 -16.786  23.247  1.00  0.00     0.178 C 
ATOM      4  C   UNL     1      33.656 -16.288  21.806  1.00  0.00     0.177 C 
ATOM      5  O   UNL     1      33.608 -15.896  24.307  1.00  0.00    -0.341 OA
ATOM      6  C   UNL     1      32.281 -15.591  21.765  1.00  0.00     0.179 C 
ATOM      7  C   UNL     1      32.073 -14.612  22.956  1.00  0.00     0.202 C 
BRANCH   3   8
ATOM      8  C   UNL     1      33.316 -18.152  23.527  1.00  0.00     0.191 C 
BRANCH   8   9
ATOM      9  O   UNL     1      32.141 -17.991  24.276  1.00  0.00    -0.394 OA
ATOM     10  H   UNL     1      32.276 -18.507  25.112  1.00  0.00     0.210 HD
ENDBRANCH   8   9
ENDBRANCH   3   8
BRANCH   4  11
ATOM     11  O   UNL     1      34.681 -15.415  21.384  1.00  0.00    -0.387 OA
ATOM     12  H   UNL     1      34.282 -14.510  21.287  1.00  0.00     0.211 HD
ENDBRANCH   4  11
BRANCH   6  13
ATOM     13  O   UNL     1      32.117 -14.927  20.541  1.00  0.00    -0.387 OA
ATOM     14  H   UNL     1      31.367 -14.284  20.669  1.00  0.00     0.211 HD
ENDBRANCH   6  13
BRANCH   7  15
ATOM     15  O   UNL     1      30.954 -15.020  23.710  1.00  0.00    -0.385 OA
ATOM     16  H   UNL     1      30.695 -14.249  24.279  1.00  0.00     0.211 HD
ENDBRANCH   7  15
ENDBRANCH   1   2
BRANCH   1  17
ATOM     17  C   UNL     1      34.082 -13.027  25.552  1.00  0.00     0.224 C 
ATOM     18  C   UNL     1      33.526 -12.187  26.719  1.00  0.00     0.208 C 
ATOM     19  O   UNL     1      35.012 -13.930  26.119  1.00  0.00    -0.337 OA
ATOM     20  C   UNL     1      33.500 -13.199  27.840  1.00  0.00     0.180 C 
ATOM     21  C   UNL     1      34.619 -14.180  27.452  1.00  0.00     0.179 C 
BRANCH  17  22
ATOM     22  C   UNL     1      34.808 -12.133  24.509  1.00  0.00     0.225 C 
BRANCH  22  23
ATOM     23  O   UNL     1      33.995 -11.040  24.171  1.00  0.00    -0.391 OA
ATOM     24  H   UNL     1      33.628 -10.694  25.021  1.00  0.00     0.210 HD
ENDBRANCH  22  23
ENDBRANCH  17  22
BRANCH  18  25
ATOM     25  O   UNL     1      34.385 -11.125  27.059  1.00  0.00    -0.385 OA
ATOM     26  H   UNL     1      34.192 -10.884  28.002  1.00  0.00     0.211 HD
ENDBRANCH  18  25
BRANCH  20  27
ATOM     27  O   UNL     1      33.762 -12.616  29.086  1.00  0.00    -0.387 OA
ATOM     28  H   UNL     1      32.880 -12.413  29.495  1.00  0.00     0.211 HD
ENDBRANCH  20  27
BRANCH  21  29
ATOM     29  C   UNL     1      34.190 -15.648  27.594  1.00  0.00     0.191 C 
BRANCH  29  30
ATOM     30  O   UNL     1      32.834 -15.774  27.217  1.00  0.00    -0.394 OA
ATOM     31  H   UNL     1      32.543 -16.694  27.455  1.00  0.00     0.210 HD
ENDBRANCH  29  30
ENDBRANCH  21  29
ENDBRANCH   1  17
TORSDOF 13
ENDMDL
MODEL 2
REMARK VINA RESULT:    -5.749      1.460      3.680
REMARK INTER + INTRA:         -10.340
REMARK INTER:                  -8.673
REMARK INTRA:                  -1.667
REMARK UNBOUND:                -1.567
REMARK SMILES OC[C@@H]1O[C@H](O[C@]2(CO)O[C@H](CO)[C@@H](O)[C@H]2O)[C@H](O)[C@@H](O)[C@H]1O
REMARK SMILES IDX 6 1 5 2 3 3 22 4 4 5 20 6 18 7 2 8 1 9 23 11 21 13 19 15
REMARK SMILES IDX 7 17 16 18 10 19 14 20 11 21 8 22 9 23 17 25 15 27 12 29
REMARK SMILES IDX 13 30
REMARK H PARENT 1 10 23 12 21 14 19 16 9 24 17 26 15 28 13 31
REMARK Flexibility Score: inf
ROOT
ATOM      1  O   UNL     1      34.748 -14.173  25.777  1.00  0.00    -0.313 OA
ENDROOT
BRANCH   1   2
ATOM      2  C   UNL     1      33.984 -15.143  25.070  1.00  0.00     0.285 C 
ATOM      3  C   UNL     1      32.847 -15.574  23.006  1.00  0.00     0.178 C 
ATOM      4  C   UNL     1      32.753 -17.028  23.551  1.00  0.00     0.177 C 
ATOM      5  O   UNL     1      33.641 -14.668  23.776  1.00  0.00    -0.341 OA
ATOM      6  C   UNL     1      34.128 -17.495  24.071  1.00  0.00     0.179 C 
ATOM      7  C   UNL     1      34.834 -16.415  24.941  1.00  0.00     0.202 C 
BRANCH   3   8
ATOM      8  C   UNL     1      33.356 -15.543  21.555  1.00  0.00     0.191 C 
BRANCH   8   9
ATOM      9  O   UNL     1      34.756 -15.447  21.529  1.00  0.00    -0.394 OA
ATOM     10  H   UNL     1      35.082 -16.006  22.280  1.00  0.00     0.210 HD
ENDBRANCH   8   9
ENDBRANCH   3   8
BRANCH   4  11
ATOM     11  O   UNL     1      31.779 -17.083  24.569  1.00  0.00    -0.387 OA
ATOM     12  H   UNL     1      31.889 -16.270  25.132  1.00  0.00     0.211 HD
ENDBRANCH   4  11
BRANCH   6  13
ATOM     13  O   UNL     1      33.988 -18.694  24.785  1.00  0.00    -0.387 OA
ATOM     14  H   UNL     1      34.027 -19.427  24.113  1.00  0.00     0.211 HD
ENDBRANCH   6  13
BRANCH   7  15
ATOM     15  O   UNL     1      36.066 -16.067  24.350  1.00  0.00    -0.385 OA
ATOM     16  H   UNL     1      36.206 -15.100  24.525  1.00  0.00     0.211 HD
ENDBRANCH   7  15
ENDBRANCH   1   2
BRANCH   1  17
ATOM     17  C   UNL     1      34.152 -13.697  26.990  1.00  0.00     0.224 C 
ATOM     18  C   UNL     1      35.053 -12.562  27.515  1.00  0.00     0.208 C 
ATOM     19  O   UNL     1      32.896 -13.109  26.707  1.00  0.00    -0.337 OA
ATOM     20  C   UNL     1      34.571 -11.386  26.699  1.00  0.00     0.180 C 
ATOM     21  C   UNL     1      33.112 -11.753  26.382  1.00  0.00     0.179 C 
BRANCH  17  22
ATOM     22  C   UNL     1      33.967 -14.811  28.057  1.00  0.00     0.225 C 
BRANCH  22  23
ATOM     23  O   UNL     1      35.218 -15.208  28.551  1.00  0.00    -0.391 OA
ATOM     24  H   UNL     1      35.537 -15.930  27.955  1.00  0.00     0.210 HD
ENDBRANCH  22  23
ENDBRANCH  17  22
BRANCH  18  25
ATOM     25  O   UNL     1      34.837 -12.310  28.883  1.00  0.00    -0.385 OA
ATOM     26  H   UNL     1      33.855 -12.297  29.026  1.00  0.00     0.211 HD
ENDBRANCH  18  25
BRANCH  20  27
ATOM     27  O   UNL     1      34.635 -10.184  27.414  1.00  0.00    -0.387 OA
ATOM     28  H   UNL     1      35.213  -9.571  26.887  1.00  0.00     0.211 HD
ENDBRANCH  20  27
BRANCH  21  29
ATOM     29  C   UNL     1      32.753 -11.515  24.907  1.00  0.00     0.191 C 
BRANCH  29  30
ATOM     30  O   UNL     1      33.911 -11.679  24.115  1.00  0.00    -0.394 OA
ATOM     31  H   UNL     1      34.054 -12.655  23.994  1.00  0.00     0.210 HD
ENDBRANCH  29  30
ENDBRANCH  21  29
ENDBRANCH   1  17
TORSDOF 13
ENDMDL
MODEL 3
REMARK VINA RESULT:    -5.672      1.324      5.759
REMARK INTER + INTRA:         -10.224
REMARK INTER:                  -9.119
REMARK INTRA:                  -1.105
REMARK UNBOUND:                -1.567
REMARK SMILES OC[C@@H]1O[C@H](O[C@]2(CO)O[C@H](CO)[C@@H](O)[C@H]2O)[C@H](O)[C@@H](O)[C@H]1O
REMARK SMILES IDX 6 1 5 2 3 3 22 4 4 5 20 6 18 7 2 8 1 9 23 11 21 13 19 15
REMARK SMILES IDX 7 17 16 18 10 19 14 20 11 21 8 22 9 23 17 25 15 27 12 29
REMARK SMILES IDX 13 30
REMARK H PARENT 1 10 23 12 21 14 19 16 9 24 17 26 15 28 13 31
REMARK Flexibility Score: inf
ROOT
ATOM      1  O   UNL     1      33.364 -15.563  24.079  1.00  0.00    -0.313 OA
ENDROOT
BRANCH   1   2
ATOM      2  C   UNL     1      33.277 -14.300  24.727  1.00  0.00     0.285 C 
ATOM      3  C   UNL     1      33.252 -13.227  26.869  1.00  0.00     0.178 C 
ATOM      4  C   UNL     1      33.384 -11.921  26.034  1.00  0.00     0.177 C 
ATOM      5  O   UNL     1      33.359 -14.450  26.137  1.00  0.00    -0.341 OA
ATOM      6  C   UNL     1      34.504 -12.068  24.984  1.00  0.00     0.179 C 
ATOM      7  C   UNL     1      34.444 -13.431  24.236  1.00  0.00     0.202 C 
BRANCH   3   8
ATOM      8  C   UNL     1      34.267 -13.268  28.024  1.00  0.00     0.191 C 
BRANCH   8   9
ATOM      9  O   UNL     1      34.475 -11.979  28.540  1.00  0.00    -0.394 OA
ATOM     10  H   UNL     1      33.939 -11.929  29.373  1.00  0.00     0.210 HD
ENDBRANCH   8   9
ENDBRANCH   3   8
BRANCH   4  11
ATOM     11  O   UNL     1      32.147 -11.631  25.421  1.00  0.00    -0.387 OA
ATOM     12  H   UNL     1      32.089 -10.644  25.318  1.00  0.00     0.211 HD
ENDBRANCH   4  11
BRANCH   6  13
ATOM     13  O   UNL     1      34.453 -11.001  24.076  1.00  0.00    -0.387 OA
ATOM     14  H   UNL     1      33.758 -10.374  24.418  1.00  0.00     0.211 HD
ENDBRANCH   6  13
BRANCH   7  15
ATOM     15  O   UNL     1      35.644 -14.139  24.450  1.00  0.00    -0.385 OA
ATOM     16  H   UNL     1      36.309 -13.779  23.807  1.00  0.00     0.211 HD
ENDBRANCH   7  15
ENDBRANCH   1   2
BRANCH   1  17
ATOM     17  C   UNL     1      32.320 -15.835  23.137  1.00  0.00     0.224 C 
ATOM     18  C   UNL     1      32.928 -15.653  21.732  1.00  0.00     0.208 C 
ATOM     19  O   UNL     1      31.934 -17.194  23.231  1.00  0.00    -0.337 OA
ATOM     20  C   UNL     1      33.607 -16.985  21.517  1.00  0.00     0.180 C 
ATOM     21  C   UNL     1      32.778 -17.946  22.385  1.00  0.00     0.179 C 
BRANCH  17  22
ATOM     22  C   UNL     1      31.071 -14.933  23.333  1.00  0.00     0.225 C 
BRANCH  22  23
ATOM     23  O   UNL     1      29.908 -15.661  23.039  1.00  0.00    -0.391 OA
ATOM     24  H   UNL     1      30.079 -16.589  23.333  1.00  0.00     0.210 HD
ENDBRANCH  22  23
ENDBRANCH  17  22
BRANCH  18  25
ATOM     25  O   UNL     1      31.937 -15.463  20.751  1.00  0.00    -0.385 OA
ATOM     26  H   UNL     1      31.159 -16.023  21.010  1.00  0.00     0.211 HD
ENDBRANCH  18  25
BRANCH  20  27
ATOM     27  O   UNL     1      33.581 -17.382  20.174  1.00  0.00    -0.387 OA
ATOM     28  H   UNL     1      32.630 -17.354  19.889  1.00  0.00     0.211 HD
ENDBRANCH  20  27
BRANCH  21  29
ATOM     29  C   UNL     1      33.655 -18.879  23.233  1.00  0.00     0.191 C 
BRANCH  29  30
ATOM     30  O   UNL     1      33.568 -18.493  24.589  1.00  0.00    -0.394 OA
ATOM     31  H   UNL     1      34.458 -18.650  25.001  1.00  0.00     0.210 HD
ENDBRANCH  29  30
ENDBRANCH  21  29
ENDBRANCH   1  17
TORSDOF 13
ENDMDL
MODEL 4
REMARK VINA RESULT:    -5.582      1.652      3.150
REMARK INTER + INTRA:         -10.086
REMARK INTER:                  -8.815
REMARK INTRA:                  -1.272
REMARK UNBOUND:                -1.567
REMARK SMILES OC[C@@H]1O[C@H](O[C@]2(CO)O[C@H](CO)[C@@H](O)[C@H]2O)[C@H](O)[C@@H](O)[C@H]1O
REMARK SMILES IDX 6 1 5 2 3 3 22 4 4 5 20 6 18 7 2 8 1 9 23 11 21 13 19 15
REMARK SMILES IDX 7 17 16 18 10 19 14 20 11 21 8 22 9 23 17 25 15 27 12 29
REMARK SMILES IDX 13 30
REMARK H PARENT 1 10 23 12 21 14 19 16 9 24 17 26 15 28 13 31
REMARK Flexibility Score: inf
ROOT
ATOM      1  O   UNL     1      35.128 -13.318  25.184  1.00  0.00    -0.313 OA
ENDROOT
BRANCH   1   2
ATOM      2  C   UNL     1      34.303 -14.412  24.804  1.00  0.00     0.285 C 
ATOM      3  C   UNL     1      32.963 -15.292  23.024  1.00  0.00     0.178 C 
ATOM      4  C   UNL     1      32.936 -16.578  23.898  1.00  0.00     0.177 C 
ATOM      5  O   UNL     1      33.825 -14.245  23.477  1.00  0.00    -0.341 OA
ATOM      6  C   UNL     1      34.359 -16.934  24.371  1.00  0.00     0.179 C 
ATOM      7  C   UNL     1      35.144 -15.694  24.889  1.00  0.00     0.202 C 
BRANCH   3   8
ATOM      8  C   UNL     1      33.320 -15.608  21.561  1.00  0.00     0.191 C 
BRANCH   8   9
ATOM      9  O   UNL     1      34.701 -15.469  21.353  1.00  0.00    -0.394 OA
ATOM     10  H   UNL     1      34.802 -15.050  20.460  1.00  0.00     0.210 HD
ENDBRANCH   8   9
ENDBRANCH   3   8
BRANCH   4  11
ATOM     11  O   UNL     1      32.071 -16.377  24.995  1.00  0.00    -0.387 OA
ATOM     12  H   UNL     1      32.386 -15.568  25.480  1.00  0.00     0.211 HD
ENDBRANCH   4  11
BRANCH   6  13
ATOM     13  O   UNL     1      34.302 -17.932  25.355  1.00  0.00    -0.387 OA
ATOM     14  H   UNL     1      34.036 -18.771  24.889  1.00  0.00     0.211 HD
ENDBRANCH   6  13
BRANCH   7  15
ATOM     15  O   UNL     1      36.306 -15.514  24.111  1.00  0.00    -0.385 OA
ATOM     16  H   UNL     1      36.011 -15.163  23.231  1.00  0.00     0.211 HD
ENDBRANCH   7  15
ENDBRANCH   1   2
BRANCH   1  17
ATOM     17  C   UNL     1      34.529 -12.397  26.105  1.00  0.00     0.224 C 
ATOM     18  C   UNL     1      33.741 -13.239  27.128  1.00  0.00     0.208 C 
ATOM     19  O   UNL     1      35.539 -11.727  26.834  1.00  0.00    -0.337 OA
ATOM     20  C   UNL     1      34.831 -13.649  28.091  1.00  0.00     0.180 C 
ATOM     21  C   UNL     1      35.859 -12.514  27.962  1.00  0.00     0.179 C 
BRANCH  17  22
ATOM     22  C   UNL     1      33.616 -11.349  25.412  1.00  0.00     0.225 C 
BRANCH  22  23
ATOM     23  O   UNL     1      34.082 -11.095  24.114  1.00  0.00    -0.391 OA
ATOM     24  H   UNL     1      33.773 -10.185  23.880  1.00  0.00     0.210 HD
ENDBRANCH  22  23
ENDBRANCH  17  22
BRANCH  18  25
ATOM     25  O   UNL     1      32.775 -12.472  27.805  1.00  0.00    -0.385 OA
ATOM     26  H   UNL     1      32.529 -12.973  28.627  1.00  0.00     0.211 HD
ENDBRANCH  18  25
BRANCH  20  27
ATOM     27  O   UNL     1      34.364 -13.748  29.407  1.00  0.00    -0.387 OA
ATOM     28  H   UNL     1      33.372 -13.776  29.355  1.00  0.00     0.211 HD
ENDBRANCH  20  27
BRANCH  21  29
ATOM     29  C   UNL     1      37.298 -13.036  27.831  1.00  0.00     0.191 C 
BRANCH  29  30
ATOM     30  O   UNL     1      37.336 -14.057  26.857  1.00  0.00    -0.394 OA
ATOM     31  H   UNL     1      37.380 -13.618  25.966  1.00  0.00     0.210 HD
ENDBRANCH  29  30
ENDBRANCH  21  29
ENDBRANCH   1  17
TORSDOF 13
ENDMDL
MODEL 5
REMARK VINA RESULT:    -5.499      9.967     12.342
REMARK INTER + INTRA:          -9.960
REMARK INTER:                  -9.580
REMARK INTRA:                  -0.380
REMARK UNBOUND:                -1.567
REMARK SMILES OC[C@@H]1O[C@H](O[C@]2(CO)O[C@H](CO)[C@@H](O)[C@H]2O)[C@H](O)[C@@H](O)[C@H]1O
REMARK SMILES IDX 6 1 5 2 3 3 22 4 4 5 20 6 18 7 2 8 1 9 23 11 21 13 19 15
REMARK SMILES IDX 7 17 16 18 10 19 14 20 11 21 8 22 9 23 17 25 15 27 12 29
REMARK SMILES IDX 13 30
REMARK H PARENT 1 10 23 12 21 14 19 16 9 24 17 26 15 28 13 31
REMARK Flexibility Score: inf
ROOT
ATOM      1  O   UNL     1      26.841  -9.336  18.476  1.00  0.00    -0.313 OA
ENDROOT
BRANCH   1   2
ATOM      2  C   UNL     1      27.184  -8.002  18.124  1.00  0.00     0.285 C 
ATOM      3  C   UNL     1      26.318  -5.779  17.907  1.00  0.00     0.178 C 
ATOM      4  C   UNL     1      27.812  -5.389  17.729  1.00  0.00     0.177 C 
ATOM      5  O   UNL     1      26.064  -7.140  18.267  1.00  0.00    -0.341 OA
ATOM      6  C   UNL     1      28.671  -6.042  18.830  1.00  0.00     0.179 C 
ATOM      7  C   UNL     1      28.311  -7.538  19.058  1.00  0.00     0.202 C 
BRANCH   3   8
ATOM      8  C   UNL     1      25.612  -4.873  18.930  1.00  0.00     0.191 C 
BRANCH   8   9
ATOM      9  O   UNL     1      25.373  -5.574  20.122  1.00  0.00    -0.394 OA
ATOM     10  H   UNL     1      26.102  -5.315  20.742  1.00  0.00     0.210 HD
ENDBRANCH   8   9
ENDBRANCH   3   8
BRANCH   4  11
ATOM     11  O   UNL     1      28.247  -5.781  16.445  1.00  0.00    -0.387 OA
ATOM     12  H   UNL     1      27.960  -5.078  15.804  1.00  0.00     0.211 HD
ENDBRANCH   4  11
BRANCH   6  13
ATOM     13  O   UNL     1      30.032  -5.900  18.524  1.00  0.00    -0.387 OA
ATOM     14  H   UNL     1      30.080  -5.309  17.724  1.00  0.00     0.211 HD
ENDBRANCH   6  13
BRANCH   7  15
ATOM     15  O   UNL     1      27.886  -7.723  20.390  1.00  0.00    -0.385 OA
ATOM     16  H   UNL     1      27.281  -8.509  20.392  1.00  0.00     0.211 HD
ENDBRANCH   7  15
ENDBRANCH   1   2
BRANCH   1  17
ATOM     17  C   UNL     1      25.734  -9.889  17.753  1.00  0.00     0.224 C 
ATOM     18  C   UNL     1      26.123 -11.332  17.375  1.00  0.00     0.208 C 
ATOM     19  O   UNL     1      24.609  -9.990  18.606  1.00  0.00    -0.337 OA
ATOM     20  C   UNL     1      25.796 -12.080  18.647  1.00  0.00     0.180 C 
ATOM     21  C   UNL     1      24.680 -11.230  19.276  1.00  0.00     0.179 C 
BRANCH  17  22
ATOM     22  C   UNL     1      25.351  -9.060  16.496  1.00  0.00     0.225 C 
BRANCH  22  23
ATOM     23  O   UNL     1      24.179  -8.330  16.746  1.00  0.00    -0.391 OA
ATOM     24  H   UNL     1      23.425  -8.940  16.555  1.00  0.00     0.210 HD
ENDBRANCH  22  23
ENDBRANCH  17  22
BRANCH  18  25
ATOM     25  O   UNL     1      25.337 -11.828  16.318  1.00  0.00    -0.385 OA
ATOM     26  H   UNL     1      24.908 -11.047  15.881  1.00  0.00     0.211 HD
ENDBRANCH  18  25
BRANCH  20  27
ATOM     27  O   UNL     1      25.344 -13.381  18.394  1.00  0.00    -0.387 OA
ATOM     28  H   UNL     1      25.957 -13.767  17.714  1.00  0.00     0.211 HD
ENDBRANCH  20  27
BRANCH  21  29
ATOM     29  C   UNL     1      24.900 -10.989  20.778  1.00  0.00     0.191 C 
BRANCH  29  30
ATOM     30  O   UNL     1      24.747 -12.211  21.471  1.00  0.00    -0.394 OA
ATOM     31  H   UNL     1      24.938 -12.034  22.430  1.00  0.00     0.210 HD
ENDBRANCH  29  30
ENDBRANCH  21  29
ENDBRANCH   1  17
TORSDOF 13
ENDMDL
MODEL 6
REMARK VINA RESULT:    -5.409      1.350      2.808
REMARK INTER + INTRA:          -9.822
REMARK INTER:                  -8.440
REMARK INTRA:                  -1.381
REMARK UNBOUND:                -1.567
REMARK SMILES OC[C@@H]1O[C@H](O[C@]2(CO)O[C@H](CO)[C@@H](O)[C@H]2O)[C@H](O)[C@@H](O)[C@H]1O
REMARK SMILES IDX 6 1 5 2 3 3 22 4 4 5 20 6 18 7 2 8 1 9 23 11 21 13 19 15
REMARK SMILES IDX 7 17 16 18 10 19 14 20 11 21 8 22 9 23 17 25 15 27 12 29
REMARK SMILES IDX 13 30
REMARK H PARENT 1 10 23 12 21 14 19 16 9 24 17 26 15 28 13 31
REMARK Flexibility Score: inf
ROOT
ATOM      1  O   UNL     1      33.180 -14.762  25.147  1.00  0.00    -0.313 OA
ENDROOT
BRANCH   1   2
ATOM      2  C   UNL     1      33.294 -15.398  23.880  1.00  0.00     0.285 C 
ATOM      3  C   UNL     1      33.430 -17.531  22.797  1.00  0.00     0.178 C 
ATOM      4  C   UNL     1      33.243 -16.699  21.496  1.00  0.00     0.177 C 
ATOM      5  O   UNL     1      33.292 -16.812  24.025  1.00  0.00    -0.341 OA
ATOM      6  C   UNL     1      32.068 -15.713  21.656  1.00  0.00     0.179 C 
ATOM      7  C   UNL     1      32.097 -14.968  23.022  1.00  0.00     0.202 C 
BRANCH   3   8
ATOM      8  C   UNL     1      32.481 -18.740  22.839  1.00  0.00     0.191 C 
BRANCH   8   9
ATOM      9  O   UNL     1      31.298 -18.410  23.519  1.00  0.00    -0.394 OA
ATOM     10  H   UNL     1      31.113 -17.461  23.301  1.00  0.00     0.210 HD
ENDBRANCH   8   9
ENDBRANCH   3   8
BRANCH   4  11
ATOM     11  O   UNL     1      34.442 -16.017  21.201  1.00  0.00    -0.387 OA
ATOM     12  H   UNL     1      34.437 -15.810  20.229  1.00  0.00     0.211 HD
ENDBRANCH   4  11
BRANCH   6  13
ATOM     13  O   UNL     1      32.062 -14.799  20.592  1.00  0.00    -0.387 OA
ATOM     14  H   UNL     1      31.169 -14.880  20.158  1.00  0.00     0.211 HD
ENDBRANCH   6  13
BRANCH   7  15
ATOM     15  O   UNL     1      30.915 -15.252  23.736  1.00  0.00    -0.385 OA
ATOM     16  H   UNL     1      30.689 -16.201  23.555  1.00  0.00     0.211 HD
ENDBRANCH   7  15
ENDBRANCH   1   2
BRANCH   1  17
ATOM     17  C   UNL     1      34.422 -14.365  25.741  1.00  0.00     0.224 C 
ATOM     18  C   UNL     1      35.295 -13.789  24.608  1.00  0.00     0.208 C 
ATOM     19  O   UNL     1      34.199 -13.303  26.650  1.00  0.00    -0.337 OA
ATOM     20  C   UNL     1      34.774 -12.374  24.509  1.00  0.00     0.180 C 
ATOM     21  C   UNL     1      34.255 -12.092  25.928  1.00  0.00     0.179 C 
BRANCH  17  22
ATOM     22  C   UNL     1      35.146 -15.526  26.477  1.00  0.00     0.225 C 
BRANCH  22  23
ATOM     23  O   UNL     1      35.830 -16.324  25.548  1.00  0.00    -0.391 OA
ATOM     24  H   UNL     1      36.146 -15.714  24.837  1.00  0.00     0.210 HD
ENDBRANCH  22  23
ENDBRANCH  17  22
BRANCH  18  25
ATOM     25  O   UNL     1      36.659 -13.769  24.954  1.00  0.00    -0.385 OA
ATOM     26  H   UNL     1      37.068 -12.997  24.481  1.00  0.00     0.211 HD
ENDBRANCH  18  25
BRANCH  20  27
ATOM     27  O   UNL     1      35.778 -11.464  24.159  1.00  0.00    -0.387 OA
ATOM     28  H   UNL     1      35.999 -10.954  24.982  1.00  0.00     0.211 HD
ENDBRANCH  20  27
BRANCH  21  29
ATOM     29  C   UNL     1      32.868 -11.431  25.927  1.00  0.00     0.191 C 
BRANCH  29  30
ATOM     30  O   UNL     1      32.186 -11.785  24.741  1.00  0.00    -0.394 OA
ATOM     31  H   UNL     1      32.850 -12.201  24.129  1.00  0.00     0.210 HD
ENDBRANCH  29  30
ENDBRANCH  21  29
ENDBRANCH   1  17
TORSDOF 13
ENDMDL
MODEL 7
REMARK VINA RESULT:    -5.271      1.444      5.448
REMARK INTER + INTRA:          -9.612
REMARK INTER:                  -8.181
REMARK INTRA:                  -1.431
REMARK UNBOUND:                -1.567
REMARK SMILES OC[C@@H]1O[C@H](O[C@]2(CO)O[C@H](CO)[C@@H](O)[C@H]2O)[C@H](O)[C@@H](O)[C@H]1O
REMARK SMILES IDX 6 1 5 2 3 3 22 4 4 5 20 6 18 7 2 8 1 9 23 11 21 13 19 15
REMARK SMILES IDX 7 17 16 18 10 19 14 20 11 21 8 22 9 23 17 25 15 27 12 29
REMARK SMILES IDX 13 30
REMARK H PARENT 1 10 23 12 21 14 19 16 9 24 17 26 15 28 13 31
REMARK Flexibility Score: inf
ROOT
ATOM      1  O   UNL     1      34.474 -15.604  24.416  1.00  0.00    -0.313 OA
ENDROOT
BRANCH   1   2
ATOM      2  C   UNL     1      34.102 -14.357  24.989  1.00  0.00     0.285 C 
ATOM      3  C   UNL     1      33.844 -13.186  27.064  1.00  0.00     0.178 C 
ATOM      4  C   UNL     1      33.667 -11.940  26.150  1.00  0.00     0.177 C 
ATOM      5  O   UNL     1      34.225 -14.396  26.404  1.00  0.00    -0.341 OA
ATOM      6  C   UNL     1      34.784 -11.892  25.088  1.00  0.00     0.179 C 
ATOM      7  C   UNL     1      35.034 -13.276  24.423  1.00  0.00     0.202 C 
BRANCH   3   8
ATOM      8  C   UNL     1      34.849 -12.921  28.198  1.00  0.00     0.191 C 
BRANCH   8   9
ATOM      9  O   UNL     1      34.684 -11.622  28.704  1.00  0.00    -0.394 OA
ATOM     10  H   UNL     1      35.105 -11.623  29.602  1.00  0.00     0.210 HD
ENDBRANCH   8   9
ENDBRANCH   3   8
BRANCH   4  11
ATOM     11  O   UNL     1      32.393 -11.981  25.547  1.00  0.00    -0.387 OA
ATOM     12  H   UNL     1      31.718 -11.846  26.264  1.00  0.00     0.211 HD
ENDBRANCH   4  11
BRANCH   6  13
ATOM     13  O   UNL     1      34.483 -10.923  24.119  1.00  0.00    -0.387 OA
ATOM     14  H   UNL     1      35.328 -10.754  23.620  1.00  0.00     0.211 HD
ENDBRANCH   6  13
BRANCH   7  15
ATOM     15  O   UNL     1      36.367 -13.675  24.655  1.00  0.00    -0.385 OA
ATOM     16  H   UNL     1      36.417 -14.643  24.446  1.00  0.00     0.211 HD
ENDBRANCH   7  15
ENDBRANCH   1   2
BRANCH   1  17
ATOM     17  C   UNL     1      33.513 -16.169  23.516  1.00  0.00     0.224 C 
ATOM     18  C   UNL     1      33.952 -17.622  23.249  1.00  0.00     0.208 C 
ATOM     19  O   UNL     1      32.251 -16.245  24.151  1.00  0.00    -0.337 OA
ATOM     20  C   UNL     1      33.392 -18.339  24.456  1.00  0.00     0.180 C 
ATOM     21  C   UNL     1      32.188 -17.469  24.851  1.00  0.00     0.179 C 
BRANCH  17  22
ATOM     22  C   UNL     1      33.374 -15.369  22.192  1.00  0.00     0.225 C 
BRANCH  22  23
ATOM     23  O   UNL     1      34.553 -15.484  21.440  1.00  0.00    -0.391 OA
ATOM     24  H   UNL     1      35.293 -15.233  22.045  1.00  0.00     0.210 HD
ENDBRANCH  22  23
ENDBRANCH  17  22
BRANCH  18  25
ATOM     25  O   UNL     1      33.370 -18.141  22.078  1.00  0.00    -0.385 OA
ATOM     26  H   UNL     1      33.569 -17.502  21.345  1.00  0.00     0.211 HD
ENDBRANCH  18  25
BRANCH  20  27
ATOM     27  O   UNL     1      32.984 -19.644  24.155  1.00  0.00    -0.387 OA
ATOM     28  H   UNL     1      33.239 -19.809  23.209  1.00  0.00     0.211 HD
ENDBRANCH  20  27
BRANCH  21  29
ATOM     29  C   UNL     1      32.131 -17.194  26.362  1.00  0.00     0.191 C 
BRANCH  29  30
ATOM     30  O   UNL     1      33.444 -17.198  26.884  1.00  0.00    -0.394 OA
ATOM     31  H   UNL     1      33.775 -18.135  26.850  1.00  0.00     0.210 HD
ENDBRANCH  29  30
ENDBRANCH  21  29
ENDBRANCH   1  17
TORSDOF 13
ENDMDL
MODEL 8
REMARK VINA RESULT:    -5.264     10.548     13.019
REMARK INTER + INTRA:          -9.601
REMARK INTER:                  -8.752
REMARK INTRA:                  -0.849
REMARK UNBOUND:                -1.567
REMARK SMILES OC[C@@H]1O[C@H](O[C@]2(CO)O[C@H](CO)[C@@H](O)[C@H]2O)[C@H](O)[C@@H](O)[C@H]1O
REMARK SMILES IDX 6 1 5 2 3 3 22 4 4 5 20 6 18 7 2 8 1 9 23 11 21 13 19 15
REMARK SMILES IDX 7 17 16 18 10 19 14 20 11 21 8 22 9 23 17 25 15 27 12 29
REMARK SMILES IDX 13 30
REMARK H PARENT 1 10 23 12 21 14 19 16 9 24 17 26 15 28 13 31
REMARK Flexibility Score: inf
ROOT
ATOM      1  O   UNL     1      25.198  -8.406  18.848  1.00  0.00    -0.313 OA
ENDROOT
BRANCH   1   2
ATOM      2  C   UNL     1      24.872  -7.110  19.335  1.00  0.00     0.285 C 
ATOM      3  C   UNL     1      25.297  -4.772  19.034  1.00  0.00     0.178 C 
ATOM      4  C   UNL     1      24.109  -4.595  20.022  1.00  0.00     0.177 C 
ATOM      5  O   UNL     1      25.549  -6.107  18.590  1.00  0.00    -0.341 OA
ATOM      6  C   UNL     1      22.919  -5.476  19.591  1.00  0.00     0.179 C 
ATOM      7  C   UNL     1      23.355  -6.917  19.196  1.00  0.00     0.202 C 
BRANCH   3   8
ATOM      8  C   UNL     1      25.142  -3.875  17.793  1.00  0.00     0.191 C 
BRANCH   8   9
ATOM      9  O   UNL     1      25.299  -4.631  16.621  1.00  0.00    -0.394 OA
ATOM     10  H   UNL     1      25.610  -5.526  16.913  1.00  0.00     0.210 HD
ENDBRANCH   8   9
ENDBRANCH   3   8
BRANCH   4  11
ATOM     11  O   UNL     1      24.535  -4.920  21.327  1.00  0.00    -0.387 OA
ATOM     12  H   UNL     1      25.047  -5.770  21.271  1.00  0.00     0.211 HD
ENDBRANCH   4  11
BRANCH   6  13
ATOM     13  O   UNL     1      21.955  -5.511  20.609  1.00  0.00    -0.387 OA
ATOM     14  H   UNL     1      22.046  -6.399  21.051  1.00  0.00     0.211 HD
ENDBRANCH   6  13
BRANCH   7  15
ATOM     15  O   UNL     1      22.998  -7.166  17.855  1.00  0.00    -0.385 OA
ATOM     16  H   UNL     1      22.511  -6.363  17.534  1.00  0.00     0.211 HD
ENDBRANCH   7  15
ENDBRANCH   1   2
BRANCH   1  17
ATOM     17  C   UNL     1      26.007  -9.199  19.725  1.00  0.00     0.224 C 
ATOM     18  C   UNL     1      25.060 -10.187  20.434  1.00  0.00     0.208 C 
ATOM     19  O   UNL     1      26.906  -9.985  18.965  1.00  0.00    -0.337 OA
ATOM     20  C   UNL     1      24.929 -11.282  19.401  1.00  0.00     0.180 C 
ATOM     21  C   UNL     1      26.251 -11.187  18.622  1.00  0.00     0.179 C 
BRANCH  17  22
ATOM     22  C   UNL     1      26.808  -8.350  20.750  1.00  0.00     0.225 C 
BRANCH  22  23
ATOM     23  O   UNL     1      27.866  -7.694  20.101  1.00  0.00    -0.391 OA
ATOM     24  H   UNL     1      28.491  -8.401  19.805  1.00  0.00     0.210 HD
ENDBRANCH  22  23
ENDBRANCH  17  22
BRANCH  18  25
ATOM     25  O   UNL     1      25.631 -10.710  21.609  1.00  0.00    -0.385 OA
ATOM     26  H   UNL     1      26.616 -10.645  21.509  1.00  0.00     0.211 HD
ENDBRANCH  18  25
BRANCH  20  27
ATOM     27  O   UNL     1      24.788 -12.546  19.986  1.00  0.00    -0.387 OA
ATOM     28  H   UNL     1      25.554 -12.658  20.608  1.00  0.00     0.211 HD
ENDBRANCH  20  27
BRANCH  21  29
ATOM     29  C   UNL     1      26.042 -11.240  17.100  1.00  0.00     0.191 C 
BRANCH  29  30
ATOM     30  O   UNL     1      25.369 -12.436  16.766  1.00  0.00    -0.394 OA
ATOM     31  H   UNL     1      25.047 -12.345  15.830  1.00  0.00     0.210 HD
ENDBRANCH  29  30
ENDBRANCH  21  29
ENDBRANCH   1  17
TORSDOF 13
ENDMDL
MODEL 9
REMARK VINA RESULT:    -5.228     11.654     13.788
REMARK INTER + INTRA:          -9.546
REMARK INTER:                  -8.156
REMARK INTRA:                  -1.389
REMARK UNBOUND:                -1.567
REMARK SMILES OC[C@@H]1O[C@H](O[C@]2(CO)O[C@H](CO)[C@@H](O)[C@H]2O)[C@H](O)[C@@H](O)[C@H]1O
REMARK SMILES IDX 6 1 5 2 3 3 22 4 4 5 20 6 18 7 2 8 1 9 23 11 21 13 19 15
REMARK SMILES IDX 7 17 16 18 10 19 14 20 11 21 8 22 9 23 17 25 15 27 12 29
REMARK SMILES IDX 13 30
REMARK H PARENT 1 10 23 12 21 14 19 16 9 24 17 26 15 28 13 31
REMARK Flexibility Score: inf
ROOT
ATOM      1  O   UNL     1      25.453  -6.713  19.858  1.00  0.00    -0.313 OA
ENDROOT
BRANCH   1   2
ATOM      2  C   UNL     1      24.343  -5.932  19.433  1.00  0.00     0.285 C 
ATOM      3  C   UNL     1      21.964  -5.951  19.152  1.00  0.00     0.178 C 
ATOM      4  C   UNL     1      22.146  -4.428  18.896  1.00  0.00     0.177 C 
ATOM      5  O   UNL     1      23.130  -6.657  19.583  1.00  0.00    -0.341 OA
ATOM      6  C   UNL     1      23.035  -3.803  19.989  1.00  0.00     0.179 C 
ATOM      7  C   UNL     1      24.294  -4.665  20.299  1.00  0.00     0.202 C 
BRANCH   3   8
ATOM      8  C   UNL     1      20.836  -6.226  20.162  1.00  0.00     0.191 C 
BRANCH   8   9
ATOM      9  O   UNL     1      19.810  -6.970  19.559  1.00  0.00    -0.394 OA
ATOM     10  H   UNL     1      19.537  -7.650  20.227  1.00  0.00     0.210 HD
ENDBRANCH   8   9
ENDBRANCH   3   8
BRANCH   4  11
ATOM     11  O   UNL     1      22.704  -4.233  17.615  1.00  0.00    -0.387 OA
ATOM     12  H   UNL     1      23.479  -3.619  17.716  1.00  0.00     0.211 HD
ENDBRANCH   4  11
BRANCH   6  13
ATOM     13  O   UNL     1      23.404  -2.501  19.622  1.00  0.00    -0.387 OA
ATOM     14  H   UNL     1      23.714  -2.553  18.677  1.00  0.00     0.211 HD
ENDBRANCH   6  13
BRANCH   7  15
ATOM     15  O   UNL     1      24.276  -5.054  21.654  1.00  0.00    -0.385 OA
ATOM     16  H   UNL     1      23.331  -5.009  21.953  1.00  0.00     0.211 HD
ENDBRANCH   7  15
ENDBRANCH   1   2
BRANCH   1  17
ATOM     17  C   UNL     1      26.477  -6.900  18.873  1.00  0.00     0.224 C 
ATOM     18  C   UNL     1      27.559  -7.788  19.517  1.00  0.00     0.208 C 
ATOM     19  O   UNL     1      25.960  -7.633  17.779  1.00  0.00    -0.337 OA
ATOM     20  C   UNL     1      26.979  -9.169  19.321  1.00  0.00     0.180 C 
ATOM     21  C   UNL     1      26.105  -9.007  18.066  1.00  0.00     0.179 C 
BRANCH  17  22
ATOM     22  C   UNL     1      27.077  -5.563  18.357  1.00  0.00     0.225 C 
BRANCH  22  23
ATOM     23  O   UNL     1      28.000  -5.065  19.288  1.00  0.00    -0.391 OA
ATOM     24  H   UNL     1      28.189  -5.805  19.916  1.00  0.00     0.210 HD
ENDBRANCH  22  23
ENDBRANCH  17  22
BRANCH  18  25
ATOM     25  O   UNL     1      28.790  -7.691  18.841  1.00  0.00    -0.385 OA
ATOM     26  H   UNL     1      29.465  -7.394  19.506  1.00  0.00     0.211 HD
ENDBRANCH  18  25
BRANCH  20  27
ATOM     27  O   UNL     1      27.971 -10.135  19.112  1.00  0.00    -0.387 OA
ATOM     28  H   UNL     1      27.506 -11.010  19.047  1.00  0.00     0.211 HD
ENDBRANCH  20  27
BRANCH  21  29
ATOM     29  C   UNL     1      24.718  -9.647  18.229  1.00  0.00     0.191 C 
BRANCH  29  30
ATOM     30  O   UNL     1      24.301  -9.516  19.572  1.00  0.00    -0.394 OA
ATOM     31  H   UNL     1      23.310  -9.433  19.569  1.00  0.00     0.210 HD
ENDBRANCH  29  30
ENDBRANCH  21  29
ENDBRANCH   1  17
TORSDOF 13
ENDMDL
