MODEL 1
REMARK VINA RESULT:    -4.254      0.000      0.000
REMARK INTER + INTRA:          -4.521
REMARK INTER:                  -4.503
REMARK INTRA:                  -0.018
REMARK UNBOUND:                -0.018
REMARK SMILES O=C([O-])c1cccnc1
REMARK SMILES IDX 4 1 5 2 9 3 6 4 8 5 7 6 2 7 1 8 3 9
REMARK H PARENT
REMARK Flexibility Score: inf
ROOT
ATOM      1  C   UNL     1     135.429 142.445 140.526  1.00  0.00     0.016 A 
ATOM      2  C   UNL     1     135.826 143.698 141.018  1.00  0.00     0.013 A 
ATOM      3  C   UNL     1     135.886 141.291 141.187  1.00  0.00     0.120 A 
ATOM      4  C   UNL     1     136.654 143.780 142.139  1.00  0.00     0.021 A 
ATOM      5  N   UNL     1     136.694 141.399 142.276  1.00  0.00    -0.264 NA
ATOM      6  C   UNL     1     137.083 142.607 142.761  1.00  0.00     0.111 A 
ENDROOT
BRANCH   1   7
ATOM      7  C   UNL     1     134.551 142.344 139.340  1.00  0.00     0.073 C 
ATOM      8  O   UNL     1     133.413 142.884 139.338  1.00  0.00    -0.545 OA
ATOM      9  O   UNL     1     134.970 141.651 138.210  1.00  0.00    -0.545 OA
ENDBRANCH   1   7
TORSDOF 1
ENDMDL
MODEL 2
REMARK VINA RESULT:    -4.216      9.761     10.947
REMARK INTER + INTRA:          -4.480
REMARK INTER:                  -4.463
REMARK INTRA:                  -0.018
REMARK UNBOUND:                -0.018
REMARK SMILES O=C([O-])c1cccnc1
REMARK SMILES IDX 4 1 5 2 9 3 6 4 8 5 7 6 2 7 1 8 3 9
REMARK H PARENT
REMARK Flexibility Score: inf
ROOT
ATOM      1  C   UNL     1     139.462 132.527 140.607  1.00  0.00     0.016 A 
ATOM      2  C   UNL     1     139.070 131.269 141.094  1.00  0.00     0.013 A 
ATOM      3  C   UNL     1     139.039 133.674 141.303  1.00  0.00     0.120 A 
ATOM      4  C   UNL     1     138.281 131.177 142.242  1.00  0.00     0.021 A 
ATOM      5  N   UNL     1     138.270 133.555 142.418  1.00  0.00    -0.264 NA
ATOM      6  C   UNL     1     137.886 132.343 142.897  1.00  0.00     0.111 A 
ENDROOT
BRANCH   1   7
ATOM      7  C   UNL     1     140.298 132.638 139.393  1.00  0.00     0.073 C 
ATOM      8  O   UNL     1     139.888 133.279 138.389  1.00  0.00    -0.545 OA
ATOM      9  O   UNL     1     141.550 132.035 139.342  1.00  0.00    -0.545 OA
ENDBRANCH   1   7
TORSDOF 1
ENDMDL
MODEL 3
REMARK VINA RESULT:    -4.123     10.199     11.339
REMARK INTER + INTRA:          -4.382
REMARK INTER:                  -4.364
REMARK INTRA:                  -0.018
REMARK UNBOUND:                -0.018
REMARK SMILES O=C([O-])c1cccnc1
REMARK SMILES IDX 4 1 5 2 9 3 6 4 8 5 7 6 2 7 1 8 3 9
REMARK H PARENT
REMARK Flexibility Score: inf
ROOT
ATOM      1  C   UNL     1     139.406 132.548 139.618  1.00  0.00     0.016 A 
ATOM      2  C   UNL     1     140.454 131.758 139.119  1.00  0.00     0.013 A 
ATOM      3  C   UNL     1     138.620 133.272 138.704  1.00  0.00     0.120 A 
ATOM      4  C   UNL     1     140.696 131.702 137.745  1.00  0.00     0.021 A 
ATOM      5  N   UNL     1     138.878 133.200 137.370  1.00  0.00    -0.264 NA
ATOM      6  C   UNL     1     139.890 132.438 136.877  1.00  0.00     0.111 A 
ENDROOT
BRANCH   1   7
ATOM      7  C   UNL     1     139.139 132.615 141.071  1.00  0.00     0.073 C 
ATOM      8  O   UNL     1     138.906 131.566 141.729  1.00  0.00    -0.545 OA
ATOM      9  O   UNL     1     139.141 133.839 141.732  1.00  0.00    -0.545 OA
ENDBRANCH   1   7
TORSDOF 1
ENDMDL
MODEL 4
REMARK VINA RESULT:    -4.093      2.715      3.881
REMARK INTER + INTRA:          -4.350
REMARK INTER:                  -4.333
REMARK INTRA:                  -0.017
REMARK UNBOUND:                -0.018
REMARK SMILES O=C([O-])c1cccnc1
REMARK SMILES IDX 4 1 5 2 9 3 6 4 8 5 7 6 2 7 1 8 3 9
REMARK H PARENT
REMARK Flexibility Score: inf
ROOT
ATOM      1  C   UNL     1     135.525 142.431 139.796  1.00  0.00     0.016 A 
ATOM      2  C   UNL     1     134.380 143.152 139.421  1.00  0.00     0.013 A 
ATOM      3  C   UNL     1     136.315 141.857 138.783  1.00  0.00     0.120 A 
ATOM      4  C   UNL     1     134.048 143.288 138.071  1.00  0.00     0.021 A 
ATOM      5  N   UNL     1     135.969 142.004 137.476  1.00  0.00    -0.264 NA
ATOM      6  C   UNL     1     134.863 142.700 137.103  1.00  0.00     0.111 A 
ENDROOT
BRANCH   1   7
ATOM      7  C   UNL     1     135.888 142.281 141.221  1.00  0.00     0.073 C 
ATOM      8  O   UNL     1     135.917 141.142 141.759  1.00  0.00    -0.545 OA
ATOM      9  O   UNL     1     136.202 143.397 141.990  1.00  0.00    -0.545 OA
ENDBRANCH   1   7
TORSDOF 1
ENDMDL
MODEL 5
REMARK VINA RESULT:    -3.994     14.132     15.187
REMARK INTER + INTRA:          -4.246
REMARK INTER:                  -4.228
REMARK INTRA:                  -0.017
REMARK UNBOUND:                -0.018
REMARK SMILES O=C([O-])c1cccnc1
REMARK SMILES IDX 4 1 5 2 9 3 6 4 8 5 7 6 2 7 1 8 3 9
REMARK H PARENT
REMARK Flexibility Score: inf
ROOT
ATOM      1  C   UNL     1     141.350 142.110 154.494  1.00  0.00     0.016 A 
ATOM      2  C   UNL     1     141.277 141.009 155.363  1.00  0.00     0.013 A 
ATOM      3  C   UNL     1     140.869 141.959 153.181  1.00  0.00     0.120 A 
ATOM      4  C   UNL     1     140.736 139.801 154.919  1.00  0.00     0.021 A 
ATOM      5  N   UNL     1     140.348 140.770 152.775  1.00  0.00    -0.264 NA
ATOM      6  C   UNL     1     140.272 139.700 153.607  1.00  0.00     0.111 A 
ENDROOT
BRANCH   1   7
ATOM      7  C   UNL     1     141.921 143.395 154.953  1.00  0.00     0.073 C 
ATOM      8  O   UNL     1     143.143 143.487 155.241  1.00  0.00    -0.545 OA
ATOM      9  O   UNL     1     141.113 144.521 155.072  1.00  0.00    -0.545 OA
ENDBRANCH   1   7
TORSDOF 1
ENDMDL
MODEL 6
REMARK VINA RESULT:    -3.943      8.639      9.387
REMARK INTER + INTRA:          -4.191
REMARK INTER:                  -4.168
REMARK INTRA:                  -0.024
REMARK UNBOUND:                -0.018
REMARK SMILES O=C([O-])c1cccnc1
REMARK SMILES IDX 4 1 5 2 9 3 6 4 8 5 7 6 2 7 1 8 3 9
REMARK H PARENT
REMARK Flexibility Score: inf
ROOT
ATOM      1  C   UNL     1     144.073 141.373 143.041  1.00  0.00     0.016 A 
ATOM      2  C   UNL     1     144.319 141.188 141.671  1.00  0.00     0.013 A 
ATOM      3  C   UNL     1     143.001 140.676 143.628  1.00  0.00     0.120 A 
ATOM      4  C   UNL     1     143.512 140.329 140.924  1.00  0.00     0.021 A 
ATOM      5  N   UNL     1     142.230 139.845 142.876  1.00  0.00    -0.264 NA
ATOM      6  C   UNL     1     142.460 139.659 141.550  1.00  0.00     0.111 A 
ENDROOT
BRANCH   1   7
ATOM      7  C   UNL     1     144.921 142.280 143.844  1.00  0.00     0.073 C 
ATOM      8  O   UNL     1     145.680 143.113 143.281  1.00  0.00    -0.545 OA
ATOM      9  O   UNL     1     144.893 142.224 145.233  1.00  0.00    -0.545 OA
ENDBRANCH   1   7
TORSDOF 1
ENDMDL
MODEL 7
REMARK VINA RESULT:    -3.911      1.586      2.006
REMARK INTER + INTRA:          -4.158
REMARK INTER:                  -4.136
REMARK INTRA:                  -0.022
REMARK UNBOUND:                -0.018
REMARK SMILES O=C([O-])c1cccnc1
REMARK SMILES IDX 4 1 5 2 9 3 6 4 8 5 7 6 2 7 1 8 3 9
REMARK H PARENT
REMARK Flexibility Score: inf
ROOT
ATOM      1  C   UNL     1     135.695 142.630 139.031  1.00  0.00     0.016 A 
ATOM      2  C   UNL     1     135.204 143.337 140.140  1.00  0.00     0.013 A 
ATOM      3  C   UNL     1     136.981 142.066 139.113  1.00  0.00     0.120 A 
ATOM      4  C   UNL     1     135.985 143.466 141.290  1.00  0.00     0.021 A 
ATOM      5  N   UNL     1     137.721 142.207 140.245  1.00  0.00    -0.264 NA
ATOM      6  C   UNL     1     137.254 142.888 141.325  1.00  0.00     0.111 A 
ENDROOT
BRANCH   1   7
ATOM      7  C   UNL     1     134.877 142.486 137.807  1.00  0.00     0.073 C 
ATOM      8  O   UNL     1     135.060 141.516 137.025  1.00  0.00    -0.545 OA
ATOM      9  O   UNL     1     133.895 143.422 137.502  1.00  0.00    -0.545 OA
ENDBRANCH   1   7
TORSDOF 1
ENDMDL
MODEL 8
REMARK VINA RESULT:    -3.879      2.938      3.868
REMARK INTER + INTRA:          -4.124
REMARK INTER:                  -4.108
REMARK INTRA:                  -0.016
REMARK UNBOUND:                -0.018
REMARK SMILES O=C([O-])c1cccnc1
REMARK SMILES IDX 4 1 5 2 9 3 6 4 8 5 7 6 2 7 1 8 3 9
REMARK H PARENT
REMARK Flexibility Score: inf
ROOT
ATOM      1  C   UNL     1     135.806 142.996 140.090  1.00  0.00     0.016 A 
ATOM      2  C   UNL     1     136.761 142.986 139.060  1.00  0.00     0.013 A 
ATOM      3  C   UNL     1     134.445 143.056 139.739  1.00  0.00     0.120 A 
ATOM      4  C   UNL     1     136.353 143.033 137.726  1.00  0.00     0.021 A 
ATOM      5  N   UNL     1     134.075 143.102 138.430  1.00  0.00    -0.264 NA
ATOM      6  C   UNL     1     134.992 143.092 137.427  1.00  0.00     0.111 A 
ENDROOT
BRANCH   1   7
ATOM      7  C   UNL     1     136.225 142.947 141.507  1.00  0.00     0.073 C 
ATOM      8  O   UNL     1     136.452 144.008 142.146  1.00  0.00    -0.545 OA
ATOM      9  O   UNL     1     136.374 141.725 142.154  1.00  0.00    -0.545 OA
ENDBRANCH   1   7
TORSDOF 1
ENDMDL
