MODEL 1
REMARK VINA RESULT:    -3.656      0.000      0.000
REMARK INTER + INTRA:          -5.319
REMARK INTER:                  -4.939
REMARK INTRA:                  -0.380
REMARK UNBOUND:                -0.380
REMARK SMILES CCCCCCC=CC(=O)[O-]
REMARK SMILES IDX 5 1 6 2 7 3 8 4 9 5 10 6 11 7 4 8 3 9 2 10 1 11
REMARK H PARENT
REMARK Flexibility Score: inf
ROOT
ATOM      1  C   UNL     1       0.045 -15.244  -7.859  1.00  0.00     0.004 C 
ENDROOT
BRANCH   1   2
ATOM      2  C   UNL     1       0.635 -15.601  -6.486  1.00  0.00     0.027 C 
BRANCH   2   3
ATOM      3  C   UNL     1       0.282 -14.564  -5.459  1.00  0.00    -0.025 C 
ATOM      4  C   UNL     1      -0.675 -13.657  -5.684  1.00  0.00     0.020 C 
BRANCH   4   5
ATOM      5  C   UNL     1      -1.047 -12.640  -4.687  1.00  0.00     0.064 C 
ATOM      6  O   UNL     1      -2.242 -12.506  -4.308  1.00  0.00    -0.545 OA
ATOM      7  O   UNL     1      -0.067 -11.812  -4.156  1.00  0.00    -0.545 OA
ENDBRANCH   4   5
ENDBRANCH   2   3
ENDBRANCH   1   2
BRANCH   1   8
ATOM      8  C   UNL     1       0.114 -16.413  -8.854  1.00  0.00     0.000 C 
BRANCH   8   9
ATOM      9  C   UNL     1       0.457 -17.748  -8.175  1.00  0.00    -0.000 C 
BRANCH   9  10
ATOM     10  C   UNL     1      -0.565 -18.829  -8.545  1.00  0.00    -0.003 C 
ATOM     11  C   UNL     1      -1.792 -18.220  -9.219  1.00  0.00     0.004 C 
ENDBRANCH   9  10
ENDBRANCH   8   9
ENDBRANCH   1   8
TORSDOF 6
ENDMDL
MODEL 2
REMARK VINA RESULT:    -3.581      3.126      3.942
REMARK INTER + INTRA:          -5.217
REMARK INTER:                  -4.472
REMARK INTRA:                  -0.745
REMARK UNBOUND:                -0.380
REMARK SMILES CCCCCCC=CC(=O)[O-]
REMARK SMILES IDX 5 1 6 2 7 3 8 4 9 5 10 6 11 7 4 8 3 9 2 10 1 11
REMARK H PARENT
REMARK Flexibility Score: inf
ROOT
ATOM      1  C   UNL     1      -0.460 -14.604  -7.396  1.00  0.00     0.004 C 
ENDROOT
BRANCH   1   2
ATOM      2  C   UNL     1      -0.352 -14.574  -5.864  1.00  0.00     0.027 C 
BRANCH   2   3
ATOM      3  C   UNL     1       0.595 -15.630  -5.367  1.00  0.00    -0.025 C 
ATOM      4  C   UNL     1       1.785 -15.826  -5.944  1.00  0.00     0.020 C 
BRANCH   4   5
ATOM      5  C   UNL     1       2.734 -16.845  -5.467  1.00  0.00     0.064 C 
ATOM      6  O   UNL     1       3.938 -16.555  -5.233  1.00  0.00    -0.545 OA
ATOM      7  O   UNL     1       2.296 -18.148  -5.271  1.00  0.00    -0.545 OA
ENDBRANCH   4   5
ENDBRANCH   2   3
ENDBRANCH   1   2
BRANCH   1   8
ATOM      8  C   UNL     1      -1.791 -15.197  -7.883  1.00  0.00     0.000 C 
BRANCH   8   9
ATOM      9  C   UNL     1      -1.664 -16.669  -8.305  1.00  0.00    -0.000 C 
BRANCH   9  10
ATOM     10  C   UNL     1      -0.238 -16.982  -8.774  1.00  0.00    -0.003 C 
ATOM     11  C   UNL     1       0.253 -18.309  -8.198  1.00  0.00     0.004 C 
ENDBRANCH   9  10
ENDBRANCH   8   9
ENDBRANCH   1   8
TORSDOF 6
ENDMDL
MODEL 3
REMARK VINA RESULT:    -3.559      3.274      5.652
REMARK INTER + INTRA:          -5.188
REMARK INTER:                  -4.838
REMARK INTRA:                  -0.349
REMARK UNBOUND:                -0.380
REMARK SMILES CCCCCCC=CC(=O)[O-]
REMARK SMILES IDX 5 1 6 2 7 3 8 4 9 5 10 6 11 7 4 8 3 9 2 10 1 11
REMARK H PARENT
REMARK Flexibility Score: inf
ROOT
ATOM      1  C   UNL     1       0.546 -15.095  -6.207  1.00  0.00     0.004 C 
ENDROOT
BRANCH   1   2
ATOM      2  C   UNL     1      -0.165 -14.723  -7.516  1.00  0.00     0.027 C 
BRANCH   2   3
ATOM      3  C   UNL     1      -1.224 -15.731  -7.862  1.00  0.00    -0.025 C 
ATOM      4  C   UNL     1      -2.525 -15.431  -7.783  1.00  0.00     0.020 C 
BRANCH   4   5
ATOM      5  C   UNL     1      -3.580 -16.398  -8.129  1.00  0.00     0.064 C 
ATOM      6  O   UNL     1      -4.162 -17.072  -7.238  1.00  0.00    -0.545 OA
ATOM      7  O   UNL     1      -3.938 -16.570  -9.459  1.00  0.00    -0.545 OA
ENDBRANCH   4   5
ENDBRANCH   2   3
ENDBRANCH   1   2
BRANCH   1   8
ATOM      8  C   UNL     1      -0.221 -14.621  -4.963  1.00  0.00     0.000 C 
BRANCH   8   9
ATOM      9  C   UNL     1      -0.732 -13.178  -5.097  1.00  0.00    -0.000 C 
BRANCH   9  10
ATOM     10  C   UNL     1      -0.177 -12.293  -3.975  1.00  0.00    -0.003 C 
ATOM     11  C   UNL     1      -1.301 -11.565  -3.241  1.00  0.00     0.004 C 
ENDBRANCH   9  10
ENDBRANCH   8   9
ENDBRANCH   1   8
TORSDOF 6
ENDMDL
MODEL 4
REMARK VINA RESULT:    -3.532      0.933      1.826
REMARK INTER + INTRA:          -5.151
REMARK INTER:                  -4.751
REMARK INTRA:                  -0.400
REMARK UNBOUND:                -0.380
REMARK SMILES CCCCCCC=CC(=O)[O-]
REMARK SMILES IDX 5 1 6 2 7 3 8 4 9 5 10 6 11 7 4 8 3 9 2 10 1 11
REMARK H PARENT
REMARK Flexibility Score: inf
ROOT
ATOM      1  C   UNL     1      -0.074 -15.402  -8.008  1.00  0.00     0.004 C 
ENDROOT
BRANCH   1   2
ATOM      2  C   UNL     1      -1.551 -15.259  -7.614  1.00  0.00     0.027 C 
BRANCH   2   3
ATOM      3  C   UNL     1      -1.709 -14.358  -6.423  1.00  0.00    -0.025 C 
ATOM      4  C   UNL     1      -0.685 -13.641  -5.949  1.00  0.00     0.020 C 
BRANCH   4   5
ATOM      5  C   UNL     1      -0.819 -12.742  -4.792  1.00  0.00     0.064 C 
ATOM      6  O   UNL     1       0.151 -12.042  -4.395  1.00  0.00    -0.545 OA
ATOM      7  O   UNL     1      -2.035 -12.664  -4.125  1.00  0.00    -0.545 OA
ENDBRANCH   4   5
ENDBRANCH   2   3
ENDBRANCH   1   2
BRANCH   1   8
ATOM      8  C   UNL     1       0.187 -16.634  -8.888  1.00  0.00     0.000 C 
BRANCH   8   9
ATOM      9  C   UNL     1      -0.802 -17.778  -8.613  1.00  0.00    -0.000 C 
BRANCH   9  10
ATOM     10  C   UNL     1      -0.165 -18.848  -7.718  1.00  0.00    -0.003 C 
ATOM     11  C   UNL     1       1.354 -18.860  -7.868  1.00  0.00     0.004 C 
ENDBRANCH   9  10
ENDBRANCH   8   9
ENDBRANCH   1   8
TORSDOF 6
ENDMDL
MODEL 5
REMARK VINA RESULT:    -3.518      4.231      5.620
REMARK INTER + INTRA:          -5.131
REMARK INTER:                  -4.796
REMARK INTRA:                  -0.335
REMARK UNBOUND:                -0.380
REMARK SMILES CCCCCCC=CC(=O)[O-]
REMARK SMILES IDX 5 1 6 2 7 3 8 4 9 5 10 6 11 7 4 8 3 9 2 10 1 11
REMARK H PARENT
REMARK Flexibility Score: inf
ROOT
ATOM      1  C   UNL     1      -0.696 -20.377  -8.985  1.00  0.00     0.004 C 
ENDROOT
BRANCH   1   2
ATOM      2  C   UNL     1      -0.144 -19.071  -8.395  1.00  0.00     0.027 C 
BRANCH   2   3
ATOM      3  C   UNL     1      -1.065 -17.918  -8.673  1.00  0.00    -0.025 C 
ATOM      4  C   UNL     1      -2.355 -18.112  -8.967  1.00  0.00     0.020 C 
BRANCH   4   5
ATOM      5  C   UNL     1      -3.280 -16.997  -9.230  1.00  0.00     0.064 C 
ATOM      6  O   UNL     1      -4.116 -17.054 -10.172  1.00  0.00    -0.545 OA
ATOM      7  O   UNL     1      -3.230 -15.864  -8.430  1.00  0.00    -0.545 OA
ENDBRANCH   4   5
ENDBRANCH   2   3
ENDBRANCH   1   2
BRANCH   1   8
ATOM      8  C   UNL     1       0.381 -21.465  -9.124  1.00  0.00     0.000 C 
BRANCH   8   9
ATOM      9  C   UNL     1       0.039 -22.500 -10.207  1.00  0.00    -0.000 C 
BRANCH   9  10
ATOM     10  C   UNL     1      -1.272 -22.138 -10.916  1.00  0.00    -0.003 C 
ATOM     11  C   UNL     1      -1.207 -22.481 -12.403  1.00  0.00     0.004 C 
ENDBRANCH   9  10
ENDBRANCH   8   9
ENDBRANCH   1   8
TORSDOF 6
ENDMDL
MODEL 6
REMARK VINA RESULT:    -3.484      3.829      4.976
REMARK INTER + INTRA:          -5.085
REMARK INTER:                  -4.346
REMARK INTRA:                  -0.739
REMARK UNBOUND:                -0.380
REMARK SMILES CCCCCCC=CC(=O)[O-]
REMARK SMILES IDX 5 1 6 2 7 3 8 4 9 5 10 6 11 7 4 8 3 9 2 10 1 11
REMARK H PARENT
REMARK Flexibility Score: inf
ROOT
ATOM      1  C   UNL     1      -0.898 -14.230  -6.725  1.00  0.00     0.004 C 
ENDROOT
BRANCH   1   2
ATOM      2  C   UNL     1      -2.245 -14.969  -6.724  1.00  0.00     0.027 C 
BRANCH   2   3
ATOM      3  C   UNL     1      -2.547 -15.546  -8.077  1.00  0.00    -0.025 C 
ATOM      4  C   UNL     1      -3.128 -16.743  -8.211  1.00  0.00     0.020 C 
BRANCH   4   5
ATOM      5  C   UNL     1      -3.446 -17.324  -9.526  1.00  0.00     0.064 C 
ATOM      6  O   UNL     1      -2.765 -18.272 -10.000  1.00  0.00    -0.545 OA
ATOM      7  O   UNL     1      -4.512 -16.817 -10.256  1.00  0.00    -0.545 OA
ENDBRANCH   4   5
ENDBRANCH   2   3
ENDBRANCH   1   2
BRANCH   1   8
ATOM      8  C   UNL     1       0.221 -15.043  -7.395  1.00  0.00     0.000 C 
BRANCH   8   9
ATOM      9  C   UNL     1       0.940 -15.980  -6.412  1.00  0.00    -0.000 C 
BRANCH   9  10
ATOM     10  C   UNL     1       0.588 -17.445  -6.696  1.00  0.00    -0.003 C 
ATOM     11  C   UNL     1       0.483 -17.706  -8.197  1.00  0.00     0.004 C 
ENDBRANCH   9  10
ENDBRANCH   8   9
ENDBRANCH   1   8
TORSDOF 6
ENDMDL
MODEL 7
REMARK VINA RESULT:    -3.458      2.286      3.570
REMARK INTER + INTRA:          -5.051
REMARK INTER:                  -4.361
REMARK INTRA:                  -0.690
REMARK UNBOUND:                -0.380
REMARK SMILES CCCCCCC=CC(=O)[O-]
REMARK SMILES IDX 5 1 6 2 7 3 8 4 9 5 10 6 11 7 4 8 3 9 2 10 1 11
REMARK H PARENT
REMARK Flexibility Score: inf
ROOT
ATOM      1  C   UNL     1      -0.431 -19.110  -7.706  1.00  0.00     0.004 C 
ENDROOT
BRANCH   1   2
ATOM      2  C   UNL     1       0.627 -18.119  -8.212  1.00  0.00     0.027 C 
BRANCH   2   3
ATOM      3  C   UNL     1       0.081 -16.720  -8.256  1.00  0.00    -0.025 C 
ATOM      4  C   UNL     1      -0.896 -16.326  -7.432  1.00  0.00     0.020 C 
BRANCH   4   5
ATOM      5  C   UNL     1      -1.437 -14.958  -7.448  1.00  0.00     0.064 C 
ATOM      6  O   UNL     1      -0.875 -14.027  -6.810  1.00  0.00    -0.545 OA
ATOM      7  O   UNL     1      -2.587 -14.686  -8.178  1.00  0.00    -0.545 OA
ENDBRANCH   4   5
ENDBRANCH   2   3
ENDBRANCH   1   2
BRANCH   1   8
ATOM      8  C   UNL     1      -1.037 -19.956  -8.836  1.00  0.00     0.000 C 
BRANCH   8   9
ATOM      9  C   UNL     1      -2.500 -19.590  -9.130  1.00  0.00    -0.000 C 
BRANCH   9  10
ATOM     10  C   UNL     1      -2.584 -18.386 -10.076  1.00  0.00    -0.003 C 
ATOM     11  C   UNL     1      -3.845 -17.566  -9.815  1.00  0.00     0.004 C 
ENDBRANCH   9  10
ENDBRANCH   8   9
ENDBRANCH   1   8
TORSDOF 6
ENDMDL
MODEL 8
REMARK VINA RESULT:    -3.457      1.357      2.109
REMARK INTER + INTRA:          -5.050
REMARK INTER:                  -4.463
REMARK INTRA:                  -0.587
REMARK UNBOUND:                -0.380
REMARK SMILES CCCCCCC=CC(=O)[O-]
REMARK SMILES IDX 5 1 6 2 7 3 8 4 9 5 10 6 11 7 4 8 3 9 2 10 1 11
REMARK H PARENT
REMARK Flexibility Score: inf
ROOT
ATOM      1  C   UNL     1       0.117 -17.129  -8.512  1.00  0.00     0.004 C 
ENDROOT
BRANCH   1   2
ATOM      2  C   UNL     1       0.129 -15.593  -8.503  1.00  0.00     0.027 C 
BRANCH   2   3
ATOM      3  C   UNL     1       0.024 -15.059  -7.103  1.00  0.00    -0.025 C 
ATOM      4  C   UNL     1      -0.885 -14.135  -6.775  1.00  0.00     0.020 C 
BRANCH   4   5
ATOM      5  C   UNL     1      -1.015 -13.606  -5.408  1.00  0.00     0.064 C 
ATOM      6  O   UNL     1      -1.864 -14.079  -4.605  1.00  0.00    -0.545 OA
ATOM      7  O   UNL     1      -0.190 -12.569  -4.995  1.00  0.00    -0.545 OA
ENDBRANCH   4   5
ENDBRANCH   2   3
ENDBRANCH   1   2
BRANCH   1   8
ATOM      8  C   UNL     1      -1.249 -17.712  -8.118  1.00  0.00     0.000 C 
BRANCH   8   9
ATOM      9  C   UNL     1      -2.098 -18.104  -9.337  1.00  0.00    -0.000 C 
BRANCH   9  10
ATOM     10  C   UNL     1      -3.392 -17.283  -9.390  1.00  0.00    -0.003 C 
ATOM     11  C   UNL     1      -3.544 -16.412  -8.145  1.00  0.00     0.004 C 
ENDBRANCH   9  10
ENDBRANCH   8   9
ENDBRANCH   1   8
TORSDOF 6
ENDMDL
MODEL 9
REMARK VINA RESULT:    -3.415      3.191      5.124
REMARK INTER + INTRA:          -4.993
REMARK INTER:                  -4.292
REMARK INTRA:                  -0.702
REMARK UNBOUND:                -0.380
REMARK SMILES CCCCCCC=CC(=O)[O-]
REMARK SMILES IDX 5 1 6 2 7 3 8 4 9 5 10 6 11 7 4 8 3 9 2 10 1 11
REMARK H PARENT
REMARK Flexibility Score: inf
ROOT
ATOM      1  C   UNL     1       0.778 -17.763  -7.762  1.00  0.00     0.004 C 
ENDROOT
BRANCH   1   2
ATOM      2  C   UNL     1      -0.331 -18.702  -8.260  1.00  0.00     0.027 C 
BRANCH   2   3
ATOM      3  C   UNL     1      -1.675 -18.034  -8.196  1.00  0.00    -0.025 C 
ATOM      4  C   UNL     1      -2.351 -17.721  -9.306  1.00  0.00     0.020 C 
BRANCH   4   5
ATOM      5  C   UNL     1      -3.675 -17.078  -9.268  1.00  0.00     0.064 C 
ATOM      6  O   UNL     1      -4.344 -16.903 -10.321  1.00  0.00    -0.545 OA
ATOM      7  O   UNL     1      -4.195 -16.657  -8.051  1.00  0.00    -0.545 OA
ENDBRANCH   4   5
ENDBRANCH   2   3
ENDBRANCH   1   2
BRANCH   1   8
ATOM      8  C   UNL     1       0.382 -17.004  -6.486  1.00  0.00     0.000 C 
BRANCH   8   9
ATOM      9  C   UNL     1       0.791 -15.524  -6.528  1.00  0.00    -0.000 C 
BRANCH   9  10
ATOM     10  C   UNL     1       0.104 -14.798  -7.691  1.00  0.00    -0.003 C 
ATOM     11  C   UNL     1      -1.341 -14.446  -7.344  1.00  0.00     0.004 C 
ENDBRANCH   9  10
ENDBRANCH   8   9
ENDBRANCH   1   8
TORSDOF 6
ENDMDL
