MODEL 1
REMARK VINA RESULT:    -6.673      0.000      0.000
REMARK INTER + INTRA:         -11.669
REMARK INTER:                 -10.183
REMARK INTRA:                  -1.486
REMARK UNBOUND:                -1.486
REMARK SMILES CC(=O)CCC=C(C)CCC=C(C)CCC=C(C)C
REMARK SMILES IDX 10 1 11 2 12 3 13 4 14 5 15 6 16 7 18 8 17 9 19 10 9 11 7 12
REMARK SMILES IDX 6 13 8 14 5 15 4 16 2 17 3 18 1 19
REMARK H PARENT
REMARK Flexibility Score: inf
ROOT
ATOM      1  C   UNL     1      11.800  28.950  72.567  1.00  0.00     0.032 C 
ENDROOT
BRANCH   1   2
ATOM      2  C   UNL     1      11.921  30.323  73.183  1.00  0.00    -0.028 C 
ATOM      3  C   UNL     1      10.866  31.003  73.682  1.00  0.00    -0.077 C 
ATOM      4  C   UNL     1       9.474  30.418  73.670  1.00  0.00     0.039 C 
BRANCH   3   5
ATOM      5  C   UNL     1      11.087  32.382  74.265  1.00  0.00     0.034 C 
BRANCH   5   6
ATOM      6  C   UNL     1      11.847  33.273  73.276  1.00  0.00     0.032 C 
BRANCH   6   7
ATOM      7  C   UNL     1      10.911  33.848  72.243  1.00  0.00    -0.028 C 
ATOM      8  C   UNL     1      10.848  36.104  73.330  1.00  0.00     0.039 C 
ATOM      9  C   UNL     1      10.435  35.113  72.267  1.00  0.00    -0.080 C 
ATOM     10  C   UNL     1       9.480  35.542  71.183  1.00  0.00     0.039 C 
ENDBRANCH   6   7
ENDBRANCH   5   6
ENDBRANCH   3   5
ENDBRANCH   1   2
BRANCH   1  11
ATOM     11  C   UNL     1      12.151  27.855  73.580  1.00  0.00     0.034 C 
BRANCH  11  12
ATOM     12  C   UNL     1      10.941  26.998  73.886  1.00  0.00    -0.077 C 
ATOM     13  C   UNL     1      10.007  26.816  72.925  1.00  0.00    -0.028 C 
ATOM     14  C   UNL     1      10.831  26.344  75.243  1.00  0.00     0.039 C 
BRANCH  13  15
ATOM     15  C   UNL     1       8.742  26.009  73.098  1.00  0.00     0.035 C 
BRANCH  15  16
ATOM     16  C   UNL     1       8.788  24.690  72.315  1.00  0.00     0.079 C 
BRANCH  16  17
ATOM     17  C   UNL     1       9.565  23.630  73.052  1.00  0.00     0.130 C 
ATOM     18  O   UNL     1      10.683  23.325  72.670  1.00  0.00    -0.300 OA
ATOM     19  C   UNL     1       8.999  22.969  74.274  1.00  0.00     0.087 C 
ENDBRANCH  16  17
ENDBRANCH  15  16
ENDBRANCH  13  15
ENDBRANCH  11  12
ENDBRANCH   1  11
TORSDOF 9
ENDMDL
MODEL 2
REMARK VINA RESULT:    -6.669      2.506      4.762
REMARK INTER + INTRA:         -11.663
REMARK INTER:                 -10.572
REMARK INTRA:                  -1.092
REMARK UNBOUND:                -1.486
REMARK SMILES CC(=O)CCC=C(C)CCC=C(C)CCC=C(C)C
REMARK SMILES IDX 10 1 11 2 12 3 13 4 14 5 15 6 16 7 18 8 17 9 19 10 9 11 7 12
REMARK SMILES IDX 6 13 8 14 5 15 4 16 2 17 3 18 1 19
REMARK H PARENT
REMARK Flexibility Score: inf
ROOT
ATOM      1  C   UNL     1      12.083  33.435  73.243  1.00  0.00     0.032 C 
ENDROOT
BRANCH   1   2
ATOM      2  C   UNL     1      11.713  34.897  73.165  1.00  0.00    -0.028 C 
ATOM      3  C   UNL     1      10.757  35.373  72.339  1.00  0.00    -0.077 C 
ATOM      4  C   UNL     1       9.970  34.455  71.433  1.00  0.00     0.039 C 
BRANCH   3   5
ATOM      5  C   UNL     1      10.469  36.858  72.321  1.00  0.00     0.034 C 
BRANCH   5   6
ATOM      6  C   UNL     1      11.639  37.629  71.700  1.00  0.00     0.032 C 
BRANCH   6   7
ATOM      7  C   UNL     1      12.200  38.633  72.676  1.00  0.00    -0.028 C 
ATOM      8  C   UNL     1      12.048  40.532  71.049  1.00  0.00     0.039 C 
ATOM      9  C   UNL     1      12.411  39.937  72.390  1.00  0.00    -0.080 C 
ATOM     10  C   UNL     1      13.009  40.819  73.456  1.00  0.00     0.039 C 
ENDBRANCH   6   7
ENDBRANCH   5   6
ENDBRANCH   3   5
ENDBRANCH   1   2
BRANCH   1  11
ATOM     11  C   UNL     1      11.355  32.739  74.397  1.00  0.00     0.034 C 
BRANCH  11  12
ATOM     12  C   UNL     1      10.765  31.421  73.944  1.00  0.00    -0.077 C 
ATOM     13  C   UNL     1      11.467  30.650  73.082  1.00  0.00    -0.028 C 
ATOM     14  C   UNL     1       9.426  30.990  74.494  1.00  0.00     0.039 C 
BRANCH  13  15
ATOM     15  C   UNL     1      10.992  29.327  72.530  1.00  0.00     0.035 C 
BRANCH  15  16
ATOM     16  C   UNL     1      11.444  28.145  73.397  1.00  0.00     0.079 C 
BRANCH  16  17
ATOM     17  C   UNL     1      10.273  27.433  74.022  1.00  0.00     0.130 C 
ATOM     18  O   UNL     1      10.138  27.443  75.236  1.00  0.00    -0.300 OA
ATOM     19  C   UNL     1       9.248  26.742  73.174  1.00  0.00     0.087 C 
ENDBRANCH  16  17
ENDBRANCH  15  16
ENDBRANCH  13  15
ENDBRANCH  11  12
ENDBRANCH   1  11
TORSDOF 9
ENDMDL
MODEL 3
REMARK VINA RESULT:    -6.561      3.248      9.355
REMARK INTER + INTRA:         -11.498
REMARK INTER:                 -10.762
REMARK INTRA:                  -0.736
REMARK UNBOUND:                -1.486
REMARK SMILES CC(=O)CCC=C(C)CCC=C(C)CCC=C(C)C
REMARK SMILES IDX 10 1 11 2 12 3 13 4 14 5 15 6 16 7 18 8 17 9 19 10 9 11 7 12
REMARK SMILES IDX 6 13 8 14 5 15 4 16 2 17 3 18 1 19
REMARK H PARENT
REMARK Flexibility Score: inf
ROOT
ATOM      1  C   UNL     1      10.224  29.294  74.379  1.00  0.00     0.032 C 
ENDROOT
BRANCH   1   2
ATOM      2  C   UNL     1       9.583  28.227  73.525  1.00  0.00    -0.028 C 
ATOM      3  C   UNL     1       9.739  26.905  73.755  1.00  0.00    -0.077 C 
ATOM      4  C   UNL     1      10.567  26.399  74.911  1.00  0.00     0.039 C 
BRANCH   3   5
ATOM      5  C   UNL     1       9.068  25.912  72.831  1.00  0.00     0.034 C 
BRANCH   5   6
ATOM      6  C   UNL     1       9.610  24.498  73.070  1.00  0.00     0.032 C 
BRANCH   6   7
ATOM      7  C   UNL     1       8.498  23.482  73.025  1.00  0.00    -0.028 C 
ATOM      8  C   UNL     1       9.717  21.854  74.488  1.00  0.00     0.039 C 
ATOM      9  C   UNL     1       8.541  22.278  73.639  1.00  0.00    -0.080 C 
ATOM     10  C   UNL     1       7.366  21.348  73.481  1.00  0.00     0.039 C 
ENDBRANCH   6   7
ENDBRANCH   5   6
ENDBRANCH   3   5
ENDBRANCH   1   2
BRANCH   1  11
ATOM     11  C   UNL     1      11.360  29.998  73.629  1.00  0.00     0.034 C 
BRANCH  11  12
ATOM     12  C   UNL     1      11.290  31.496  73.832  1.00  0.00    -0.077 C 
ATOM     13  C   UNL     1      11.602  32.313  72.800  1.00  0.00    -0.028 C 
ATOM     14  C   UNL     1      10.841  32.034  75.170  1.00  0.00     0.039 C 
BRANCH  13  15
ATOM     15  C   UNL     1      11.600  33.822  72.867  1.00  0.00     0.035 C 
BRANCH  15  16
ATOM     16  C   UNL     1      10.409  34.430  72.114  1.00  0.00     0.079 C 
BRANCH  16  17
ATOM     17  C   UNL     1      10.412  35.935  72.187  1.00  0.00     0.130 C 
ATOM     18  O   UNL     1      10.265  36.589  71.167  1.00  0.00    -0.300 OA
ATOM     19  C   UNL     1      10.558  36.642  73.501  1.00  0.00     0.087 C 
ENDBRANCH  16  17
ENDBRANCH  15  16
ENDBRANCH  13  15
ENDBRANCH  11  12
ENDBRANCH   1  11
TORSDOF 9
ENDMDL
MODEL 4
REMARK VINA RESULT:    -6.487      1.414      1.940
REMARK INTER + INTRA:         -11.386
REMARK INTER:                 -10.707
REMARK INTRA:                  -0.679
REMARK UNBOUND:                -1.486
REMARK SMILES CC(=O)CCC=C(C)CCC=C(C)CCC=C(C)C
REMARK SMILES IDX 10 1 11 2 12 3 13 4 14 5 15 6 16 7 18 8 17 9 19 10 9 11 7 12
REMARK SMILES IDX 6 13 8 14 5 15 4 16 2 17 3 18 1 19
REMARK H PARENT
REMARK Flexibility Score: inf
ROOT
ATOM      1  C   UNL     1      10.302  29.261  74.333  1.00  0.00     0.032 C 
ENDROOT
BRANCH   1   2
ATOM      2  C   UNL     1      10.960  30.279  73.433  1.00  0.00    -0.028 C 
ATOM      3  C   UNL     1      11.216  31.548  73.818  1.00  0.00    -0.077 C 
ATOM      4  C   UNL     1      10.869  32.036  75.204  1.00  0.00     0.039 C 
BRANCH   3   5
ATOM      5  C   UNL     1      11.865  32.500  72.836  1.00  0.00     0.034 C 
BRANCH   5   6
ATOM      6  C   UNL     1      10.886  33.606  72.426  1.00  0.00     0.032 C 
BRANCH   6   7
ATOM      7  C   UNL     1      11.456  34.968  72.732  1.00  0.00    -0.028 C 
ATOM      8  C   UNL     1       9.825  36.155  71.248  1.00  0.00     0.039 C 
ATOM      9  C   UNL     1      11.004  36.121  72.191  1.00  0.00    -0.080 C 
ATOM     10  C   UNL     1      11.693  37.409  72.566  1.00  0.00     0.039 C 
ENDBRANCH   6   7
ENDBRANCH   5   6
ENDBRANCH   3   5
ENDBRANCH   1   2
BRANCH   1  11
ATOM     11  C   UNL     1       9.437  28.286  73.529  1.00  0.00     0.034 C 
BRANCH  11  12
ATOM     12  C   UNL     1       9.882  26.857  73.758  1.00  0.00    -0.077 C 
ATOM     13  C   UNL     1       9.511  25.905  72.872  1.00  0.00    -0.028 C 
ATOM     14  C   UNL     1      10.755  26.545  74.949  1.00  0.00     0.039 C 
BRANCH  13  15
ATOM     15  C   UNL     1       9.862  24.440  72.987  1.00  0.00     0.035 C 
BRANCH  15  16
ATOM     16  C   UNL     1       8.687  23.533  72.597  1.00  0.00     0.079 C 
BRANCH  16  17
ATOM     17  C   UNL     1       8.361  22.544  73.686  1.00  0.00     0.130 C 
ATOM     18  O   UNL     1       7.194  22.297  73.947  1.00  0.00    -0.300 OA
ATOM     19  C   UNL     1       9.449  21.830  74.429  1.00  0.00     0.087 C 
ENDBRANCH  16  17
ENDBRANCH  15  16
ENDBRANCH  13  15
ENDBRANCH  11  12
ENDBRANCH   1  11
TORSDOF 9
ENDMDL
MODEL 5
REMARK VINA RESULT:    -6.442      1.352      2.313
REMARK INTER + INTRA:         -11.316
REMARK INTER:                 -10.496
REMARK INTRA:                  -0.820
REMARK UNBOUND:                -1.486
REMARK SMILES CC(=O)CCC=C(C)CCC=C(C)CCC=C(C)C
REMARK SMILES IDX 10 1 11 2 12 3 13 4 14 5 15 6 16 7 18 8 17 9 19 10 9 11 7 12
REMARK SMILES IDX 6 13 8 14 5 15 4 16 2 17 3 18 1 19
REMARK H PARENT
REMARK Flexibility Score: inf
ROOT
ATOM      1  C   UNL     1      10.900  30.281  71.874  1.00  0.00     0.032 C 
ENDROOT
BRANCH   1   2
ATOM      2  C   UNL     1      11.488  31.659  72.062  1.00  0.00    -0.028 C 
ATOM      3  C   UNL     1      11.490  32.304  73.249  1.00  0.00    -0.077 C 
ATOM      4  C   UNL     1      10.907  31.672  74.490  1.00  0.00     0.039 C 
BRANCH   3   5
ATOM      5  C   UNL     1      12.089  33.691  73.333  1.00  0.00     0.034 C 
BRANCH   5   6
ATOM      6  C   UNL     1      11.105  34.740  72.804  1.00  0.00     0.032 C 
BRANCH   6   7
ATOM      7  C   UNL     1      11.708  36.121  72.863  1.00  0.00    -0.028 C 
ATOM      8  C   UNL     1      10.133  37.051  71.152  1.00  0.00     0.039 C 
ATOM      9  C   UNL     1      11.297  37.164  72.108  1.00  0.00    -0.080 C 
ATOM     10  C   UNL     1      12.016  38.481  72.250  1.00  0.00     0.039 C 
ENDBRANCH   6   7
ENDBRANCH   5   6
ENDBRANCH   3   5
ENDBRANCH   1   2
BRANCH   1  11
ATOM     11  C   UNL     1      11.982  29.200  71.960  1.00  0.00     0.034 C 
BRANCH  11  12
ATOM     12  C   UNL     1      11.784  28.338  73.189  1.00  0.00    -0.077 C 
ATOM     13  C   UNL     1      10.525  28.071  73.606  1.00  0.00    -0.028 C 
ATOM     14  C   UNL     1      12.996  27.775  73.892  1.00  0.00     0.039 C 
BRANCH  13  15
ATOM     15  C   UNL     1      10.181  27.249  74.826  1.00  0.00     0.035 C 
BRANCH  15  16
ATOM     16  C   UNL     1      10.313  25.743  74.561  1.00  0.00     0.079 C 
BRANCH  16  17
ATOM     17  C   UNL     1       9.752  25.362  73.216  1.00  0.00     0.130 C 
ATOM     18  O   UNL     1      10.427  24.695  72.447  1.00  0.00    -0.300 OA
ATOM     19  C   UNL     1       8.362  25.758  72.820  1.00  0.00     0.087 C 
ENDBRANCH  16  17
ENDBRANCH  15  16
ENDBRANCH  13  15
ENDBRANCH  11  12
ENDBRANCH   1  11
TORSDOF 9
ENDMDL
MODEL 6
REMARK VINA RESULT:    -6.391      3.725      9.166
REMARK INTER + INTRA:         -11.239
REMARK INTER:                 -10.249
REMARK INTRA:                  -0.991
REMARK UNBOUND:                -1.486
REMARK SMILES CC(=O)CCC=C(C)CCC=C(C)CCC=C(C)C
REMARK SMILES IDX 10 1 11 2 12 3 13 4 14 5 15 6 16 7 18 8 17 9 19 10 9 11 7 12
REMARK SMILES IDX 6 13 8 14 5 15 4 16 2 17 3 18 1 19
REMARK H PARENT
REMARK Flexibility Score: inf
ROOT
ATOM      1  C   UNL     1       9.756  31.228  74.631  1.00  0.00     0.032 C 
ENDROOT
BRANCH   1   2
ATOM      2  C   UNL     1      10.203  29.812  74.356  1.00  0.00    -0.028 C 
ATOM      3  C   UNL     1       9.998  29.190  73.175  1.00  0.00    -0.077 C 
ATOM      4  C   UNL     1       9.310  29.888  72.026  1.00  0.00     0.039 C 
BRANCH   3   5
ATOM      5  C   UNL     1      10.470  27.763  73.001  1.00  0.00     0.034 C 
BRANCH   5   6
ATOM      6  C   UNL     1       9.632  26.808  73.859  1.00  0.00     0.032 C 
BRANCH   6   7
ATOM      7  C   UNL     1       8.663  26.030  73.005  1.00  0.00    -0.028 C 
ATOM      8  C   UNL     1      10.165  24.031  72.848  1.00  0.00     0.039 C 
ATOM      9  C   UNL     1       8.899  24.788  72.523  1.00  0.00    -0.080 C 
ATOM     10  C   UNL     1       7.850  24.144  71.655  1.00  0.00     0.039 C 
ENDBRANCH   6   7
ENDBRANCH   5   6
ENDBRANCH   3   5
ENDBRANCH   1   2
BRANCH   1  11
ATOM     11  C   UNL     1      10.954  32.150  74.878  1.00  0.00     0.034 C 
BRANCH  11  12
ATOM     12  C   UNL     1      11.301  32.928  73.626  1.00  0.00    -0.077 C 
ATOM     13  C   UNL     1      10.980  34.240  73.559  1.00  0.00    -0.028 C 
ATOM     14  C   UNL     1      12.025  32.223  72.504  1.00  0.00     0.039 C 
BRANCH  13  15
ATOM     15  C   UNL     1      11.243  35.129  72.367  1.00  0.00     0.035 C 
BRANCH  15  16
ATOM     16  C   UNL     1      11.340  36.609  72.763  1.00  0.00     0.079 C 
BRANCH  16  17
ATOM     17  C   UNL     1      11.234  37.514  71.563  1.00  0.00     0.130 C 
ATOM     18  O   UNL     1      12.090  38.362  71.368  1.00  0.00    -0.300 OA
ATOM     19  C   UNL     1      10.110  37.365  70.581  1.00  0.00     0.087 C 
ENDBRANCH  16  17
ENDBRANCH  15  16
ENDBRANCH  13  15
ENDBRANCH  11  12
ENDBRANCH   1  11
TORSDOF 9
ENDMDL
MODEL 7
REMARK VINA RESULT:    -6.316      1.471      3.029
REMARK INTER + INTRA:         -11.124
REMARK INTER:                 -10.262
REMARK INTRA:                  -0.862
REMARK UNBOUND:                -1.486
REMARK SMILES CC(=O)CCC=C(C)CCC=C(C)CCC=C(C)C
REMARK SMILES IDX 10 1 11 2 12 3 13 4 14 5 15 6 16 7 18 8 17 9 19 10 9 11 7 12
REMARK SMILES IDX 6 13 8 14 5 15 4 16 2 17 3 18 1 19
REMARK H PARENT
REMARK Flexibility Score: inf
ROOT
ATOM      1  C   UNL     1      11.094  31.374  74.633  1.00  0.00     0.032 C 
ENDROOT
BRANCH   1   2
ATOM      2  C   UNL     1      11.185  32.862  74.396  1.00  0.00    -0.028 C 
ATOM      3  C   UNL     1      11.333  33.406  73.169  1.00  0.00    -0.077 C 
ATOM      4  C   UNL     1      11.404  32.546  71.929  1.00  0.00     0.039 C 
BRANCH   3   5
ATOM      5  C   UNL     1      11.431  34.910  73.035  1.00  0.00     0.034 C 
BRANCH   5   6
ATOM      6  C   UNL     1      10.169  35.479  72.378  1.00  0.00     0.032 C 
BRANCH   6   7
ATOM      7  C   UNL     1      10.494  36.705  71.562  1.00  0.00    -0.028 C 
ATOM      8  C   UNL     1       8.603  36.332  69.962  1.00  0.00     0.039 C 
ATOM      9  C   UNL     1       9.813  37.088  70.459  1.00  0.00    -0.080 C 
ATOM     10  C   UNL     1      10.272  38.320  69.722  1.00  0.00     0.039 C 
ENDBRANCH   6   7
ENDBRANCH   5   6
ENDBRANCH   3   5
ENDBRANCH   1   2
BRANCH   1  11
ATOM     11  C   UNL     1       9.668  30.862  74.406  1.00  0.00     0.034 C 
BRANCH  11  12
ATOM     12  C   UNL     1       9.674  29.615  73.549  1.00  0.00    -0.077 C 
ATOM     13  C   UNL     1      10.114  28.453  74.085  1.00  0.00    -0.028 C 
ATOM     14  C   UNL     1       9.157  29.697  72.133  1.00  0.00     0.039 C 
BRANCH  13  15
ATOM     15  C   UNL     1      10.198  27.141  73.342  1.00  0.00     0.035 C 
BRANCH  15  16
ATOM     16  C   UNL     1      10.205  25.938  74.295  1.00  0.00     0.079 C 
BRANCH  16  17
ATOM     17  C   UNL     1       9.384  24.796  73.755  1.00  0.00     0.130 C 
ATOM     18  O   UNL     1       9.178  23.817  74.455  1.00  0.00    -0.300 OA
ATOM     19  C   UNL     1       8.783  24.858  72.383  1.00  0.00     0.087 C 
ENDBRANCH  16  17
ENDBRANCH  15  16
ENDBRANCH  13  15
ENDBRANCH  11  12
ENDBRANCH   1  11
TORSDOF 9
ENDMDL
MODEL 8
REMARK VINA RESULT:    -6.300      4.098      8.722
REMARK INTER + INTRA:         -11.100
REMARK INTER:                  -9.954
REMARK INTRA:                  -1.146
REMARK UNBOUND:                -1.486
REMARK SMILES CC(=O)CCC=C(C)CCC=C(C)CCC=C(C)C
REMARK SMILES IDX 10 1 11 2 12 3 13 4 14 5 15 6 16 7 18 8 17 9 19 10 9 11 7 12
REMARK SMILES IDX 6 13 8 14 5 15 4 16 2 17 3 18 1 19
REMARK H PARENT
REMARK Flexibility Score: inf
ROOT
ATOM      1  C   UNL     1      11.406  33.748  72.674  1.00  0.00     0.032 C 
ENDROOT
BRANCH   1   2
ATOM      2  C   UNL     1      10.414  32.678  73.064  1.00  0.00    -0.028 C 
ATOM      3  C   UNL     1      10.418  32.074  74.272  1.00  0.00    -0.077 C 
ATOM      4  C   UNL     1      11.424  32.445  75.336  1.00  0.00     0.039 C 
BRANCH   3   5
ATOM      5  C   UNL     1       9.392  31.001  74.564  1.00  0.00     0.034 C 
BRANCH   5   6
ATOM      6  C   UNL     1       9.545  29.826  73.590  1.00  0.00     0.032 C 
BRANCH   6   7
ATOM      7  C   UNL     1      10.733  28.974  73.960  1.00  0.00    -0.028 C 
ATOM      8  C   UNL     1      11.939  29.453  71.817  1.00  0.00     0.039 C 
ATOM      9  C   UNL     1      11.807  28.778  73.162  1.00  0.00    -0.080 C 
ATOM     10  C   UNL     1      12.908  27.872  73.651  1.00  0.00     0.039 C 
ENDBRANCH   6   7
ENDBRANCH   5   6
ENDBRANCH   3   5
ENDBRANCH   1   2
BRANCH   1  11
ATOM     11  C   UNL     1      11.048  35.095  73.310  1.00  0.00     0.034 C 
BRANCH  11  12
ATOM     12  C   UNL     1      10.814  36.146  72.246  1.00  0.00    -0.077 C 
ATOM     13  C   UNL     1       9.814  35.963  71.353  1.00  0.00    -0.028 C 
ATOM     14  C   UNL     1      11.681  37.382  72.234  1.00  0.00     0.039 C 
BRANCH  13  15
ATOM     15  C   UNL     1       9.484  36.915  70.227  1.00  0.00     0.035 C 
BRANCH  15  16
ATOM     16  C   UNL     1       8.067  36.692  69.681  1.00  0.00     0.079 C 
BRANCH  16  17
ATOM     17  C   UNL     1       8.080  35.884  68.409  1.00  0.00     0.130 C 
ATOM     18  O   UNL     1       9.096  35.838  67.734  1.00  0.00    -0.300 OA
ATOM     19  C   UNL     1       6.874  35.105  67.978  1.00  0.00     0.087 C 
ENDBRANCH  16  17
ENDBRANCH  15  16
ENDBRANCH  13  15
ENDBRANCH  11  12
ENDBRANCH   1  11
TORSDOF 9
ENDMDL
MODEL 9
REMARK VINA RESULT:    -6.167      3.180      8.155
REMARK INTER + INTRA:         -10.897
REMARK INTER:                  -9.795
REMARK INTRA:                  -1.102
REMARK UNBOUND:                -1.486
REMARK SMILES CC(=O)CCC=C(C)CCC=C(C)CCC=C(C)C
REMARK SMILES IDX 10 1 11 2 12 3 13 4 14 5 15 6 16 7 18 8 17 9 19 10 9 11 7 12
REMARK SMILES IDX 6 13 8 14 5 15 4 16 2 17 3 18 1 19
REMARK H PARENT
REMARK Flexibility Score: inf
ROOT
ATOM      1  C   UNL     1       9.993  26.409  74.429  1.00  0.00     0.032 C 
ENDROOT
BRANCH   1   2
ATOM      2  C   UNL     1       9.319  25.911  73.172  1.00  0.00    -0.028 C 
ATOM      3  C   UNL     1       8.968  24.620  72.986  1.00  0.00    -0.077 C 
ATOM      4  C   UNL     1       9.219  23.574  74.046  1.00  0.00     0.039 C 
BRANCH   3   5
ATOM      5  C   UNL     1       8.312  24.215  71.684  1.00  0.00     0.034 C 
BRANCH   5   6
ATOM      6  C   UNL     1       6.828  23.896  71.902  1.00  0.00     0.032 C 
BRANCH   6   7
ATOM      7  C   UNL     1       5.960  25.040  71.440  1.00  0.00    -0.028 C 
ATOM      8  C   UNL     1       5.539  24.016  69.193  1.00  0.00     0.039 C 
ATOM      9  C   UNL     1       5.392  25.119  70.216  1.00  0.00    -0.080 C 
ATOM     10  C   UNL     1       4.574  26.339  69.881  1.00  0.00     0.039 C 
ENDBRANCH   6   7
ENDBRANCH   5   6
ENDBRANCH   3   5
ENDBRANCH   1   2
BRANCH   1  11
ATOM     11  C   UNL     1      11.315  27.113  74.107  1.00  0.00     0.034 C 
BRANCH  11  12
ATOM     12  C   UNL     1      11.066  28.511  73.583  1.00  0.00    -0.077 C 
ATOM     13  C   UNL     1      10.306  29.359  74.313  1.00  0.00    -0.028 C 
ATOM     14  C   UNL     1      11.701  28.927  72.278  1.00  0.00     0.039 C 
BRANCH  13  15
ATOM     15  C   UNL     1       9.956  30.770  73.902  1.00  0.00     0.035 C 
BRANCH  15  16
ATOM     16  C   UNL     1      11.038  31.776  74.318  1.00  0.00     0.079 C 
BRANCH  16  17
ATOM     17  C   UNL     1      11.492  32.619  73.155  1.00  0.00     0.130 C 
ATOM     18  O   UNL     1      12.443  33.372  73.290  1.00  0.00    -0.300 OA
ATOM     19  C   UNL     1      10.816  32.520  71.820  1.00  0.00     0.087 C 
ENDBRANCH  16  17
ENDBRANCH  15  16
ENDBRANCH  13  15
ENDBRANCH  11  12
ENDBRANCH   1  11
TORSDOF 9
ENDMDL
