MODEL 1
REMARK VINA RESULT:    -4.396      0.000      0.000
REMARK INTER + INTRA:          -6.551
REMARK INTER:                  -6.195
REMARK INTRA:                  -0.356
REMARK UNBOUND:                -0.356
REMARK SMILES CCCCCCCCC(=O)[O-]
REMARK SMILES IDX 6 1 7 2 8 3 9 4 10 5 11 6 5 7 4 8 3 9 2 10 1 11
REMARK H PARENT
REMARK Flexibility Score: inf
ROOT
ATOM      1  C   UNL     1      13.394 -29.735  23.373  1.00  0.00     0.000 C 
ENDROOT
BRANCH   1   2
ATOM      2  C   UNL     1      13.505 -31.256  23.525  1.00  0.00     0.006 C 
BRANCH   2   3
ATOM      3  C   UNL     1      14.738 -31.793  22.792  1.00  0.00     0.053 C 
BRANCH   3   4
ATOM      4  C   UNL     1      14.330 -32.603  21.603  1.00  0.00     0.041 C 
ATOM      5  O   UNL     1      13.503 -32.138  20.774  1.00  0.00    -0.550 OA
ATOM      6  O   UNL     1      14.823 -33.891  21.435  1.00  0.00    -0.550 OA
ENDBRANCH   3   4
ENDBRANCH   2   3
ENDBRANCH   1   2
BRANCH   1   7
ATOM      7  C   UNL     1      12.034 -29.338  22.786  1.00  0.00     0.000 C 
BRANCH   7   8
ATOM      8  C   UNL     1      11.497 -28.063  23.448  1.00  0.00    -0.000 C 
BRANCH   8   9
ATOM      9  C   UNL     1      12.451 -27.571  24.546  1.00  0.00    -0.000 C 
BRANCH   9  10
ATOM     10  C   UNL     1      13.076 -26.206  24.218  1.00  0.00    -0.003 C 
ATOM     11  C   UNL     1      14.143 -25.785  25.227  1.00  0.00     0.004 C 
ENDBRANCH   9  10
ENDBRANCH   8   9
ENDBRANCH   7   8
ENDBRANCH   1   7
TORSDOF 7
ENDMDL
MODEL 2
REMARK VINA RESULT:    -4.319      1.386      1.940
REMARK INTER + INTRA:          -6.442
REMARK INTER:                  -6.052
REMARK INTRA:                  -0.390
REMARK UNBOUND:                -0.356
REMARK SMILES CCCCCCCCC(=O)[O-]
REMARK SMILES IDX 6 1 7 2 8 3 9 4 10 5 11 6 5 7 4 8 3 9 2 10 1 11
REMARK H PARENT
REMARK Flexibility Score: inf
ROOT
ATOM      1  C   UNL     1      14.508 -30.256  21.415  1.00  0.00     0.000 C 
ENDROOT
BRANCH   1   2
ATOM      2  C   UNL     1      13.531 -31.436  21.471  1.00  0.00     0.006 C 
BRANCH   2   3
ATOM      3  C   UNL     1      14.008 -32.588  20.581  1.00  0.00     0.053 C 
BRANCH   3   4
ATOM      4  C   UNL     1      14.762 -33.596  21.389  1.00  0.00     0.041 C 
ATOM      5  O   UNL     1      15.355 -34.549  20.817  1.00  0.00    -0.550 OA
ATOM      6  O   UNL     1      14.769 -33.513  22.775  1.00  0.00    -0.550 OA
ENDBRANCH   3   4
ENDBRANCH   2   3
ENDBRANCH   1   2
BRANCH   1   7
ATOM      7  C   UNL     1      14.369 -29.366  22.656  1.00  0.00     0.000 C 
BRANCH   7   8
ATOM      8  C   UNL     1      13.063 -29.659  23.403  1.00  0.00    -0.000 C 
BRANCH   8   9
ATOM      9  C   UNL     1      12.478 -28.377  24.012  1.00  0.00    -0.000 C 
BRANCH   9  10
ATOM     10  C   UNL     1      13.302 -27.128  23.663  1.00  0.00    -0.003 C 
ATOM     11  C   UNL     1      13.505 -26.199  24.859  1.00  0.00     0.004 C 
ENDBRANCH   9  10
ENDBRANCH   8   9
ENDBRANCH   7   8
ENDBRANCH   1   7
TORSDOF 7
ENDMDL
MODEL 3
REMARK VINA RESULT:    -4.180      3.039      5.387
REMARK INTER + INTRA:          -6.247
REMARK INTER:                  -5.522
REMARK INTRA:                  -0.725
REMARK UNBOUND:                -0.356
REMARK SMILES CCCCCCCCC(=O)[O-]
REMARK SMILES IDX 6 1 7 2 8 3 9 4 10 5 11 6 5 7 4 8 3 9 2 10 1 11
REMARK H PARENT
REMARK Flexibility Score: inf
ROOT
ATOM      1  C   UNL     1      13.521 -30.622  21.117  1.00  0.00     0.000 C 
ENDROOT
BRANCH   1   2
ATOM      2  C   UNL     1      12.476 -30.560  22.237  1.00  0.00     0.006 C 
BRANCH   2   3
ATOM      3  C   UNL     1      13.002 -29.768  23.438  1.00  0.00     0.053 C 
BRANCH   3   4
ATOM      4  C   UNL     1      12.121 -28.593  23.718  1.00  0.00     0.041 C 
ATOM      5  O   UNL     1      11.075 -28.410  23.039  1.00  0.00    -0.550 OA
ATOM      6  O   UNL     1      12.478 -27.672  24.694  1.00  0.00    -0.550 OA
ENDBRANCH   3   4
ENDBRANCH   2   3
ENDBRANCH   1   2
BRANCH   1   7
ATOM      7  C   UNL     1      13.517 -31.995  20.435  1.00  0.00     0.000 C 
BRANCH   7   8
ATOM      8  C   UNL     1      14.467 -32.967  21.146  1.00  0.00    -0.000 C 
BRANCH   8   9
ATOM      9  C   UNL     1      15.724 -32.241  21.646  1.00  0.00    -0.000 C 
BRANCH   9  10
ATOM     10  C   UNL     1      15.915 -32.370  23.165  1.00  0.00    -0.003 C 
ATOM     11  C   UNL     1      14.782 -33.139  23.842  1.00  0.00     0.004 C 
ENDBRANCH   9  10
ENDBRANCH   8   9
ENDBRANCH   7   8
ENDBRANCH   1   7
TORSDOF 7
ENDMDL
MODEL 4
REMARK VINA RESULT:    -4.166      2.396      2.600
REMARK INTER + INTRA:          -6.227
REMARK INTER:                  -5.827
REMARK INTRA:                  -0.400
REMARK UNBOUND:                -0.356
REMARK SMILES CCCCCCCCC(=O)[O-]
REMARK SMILES IDX 6 1 7 2 8 3 9 4 10 5 11 6 5 7 4 8 3 9 2 10 1 11
REMARK H PARENT
REMARK Flexibility Score: inf
ROOT
ATOM      1  C   UNL     1      13.129 -30.789  22.269  1.00  0.00     0.000 C 
ENDROOT
BRANCH   1   2
ATOM      2  C   UNL     1      14.266 -30.523  21.277  1.00  0.00     0.006 C 
BRANCH   2   3
ATOM      3  C   UNL     1      15.074 -29.287  21.684  1.00  0.00     0.053 C 
BRANCH   3   4
ATOM      4  C   UNL     1      16.500 -29.656  21.946  1.00  0.00     0.041 C 
ATOM      5  O   UNL     1      17.427 -29.096  21.302  1.00  0.00    -0.550 OA
ATOM      6  O   UNL     1      16.804 -30.653  22.864  1.00  0.00    -0.550 OA
ENDBRANCH   3   4
ENDBRANCH   2   3
ENDBRANCH   1   2
BRANCH   1   7
ATOM      7  C   UNL     1      13.108 -29.731  23.379  1.00  0.00     0.000 C 
BRANCH   7   8
ATOM      8  C   UNL     1      11.912 -28.784  23.217  1.00  0.00    -0.000 C 
BRANCH   8   9
ATOM      9  C   UNL     1      11.944 -27.673  24.276  1.00  0.00    -0.000 C 
BRANCH   9  10
ATOM     10  C   UNL     1      12.826 -26.485  23.859  1.00  0.00    -0.003 C 
ATOM     11  C   UNL     1      13.769 -26.029  24.971  1.00  0.00     0.004 C 
ENDBRANCH   9  10
ENDBRANCH   8   9
ENDBRANCH   7   8
ENDBRANCH   1   7
TORSDOF 7
ENDMDL
MODEL 5
REMARK VINA RESULT:    -4.110      5.616      8.268
REMARK INTER + INTRA:          -6.148
REMARK INTER:                  -5.918
REMARK INTRA:                  -0.230
REMARK UNBOUND:                -0.356
REMARK SMILES CCCCCCCCC(=O)[O-]
REMARK SMILES IDX 6 1 7 2 8 3 9 4 10 5 11 6 5 7 4 8 3 9 2 10 1 11
REMARK H PARENT
REMARK Flexibility Score: inf
ROOT
ATOM      1  C   UNL     1      17.312 -35.701  24.480  1.00  0.00     0.000 C 
ENDROOT
BRANCH   1   2
ATOM      2  C   UNL     1      16.733 -34.349  24.052  1.00  0.00     0.006 C 
BRANCH   2   3
ATOM      3  C   UNL     1      16.219 -34.402  22.610  1.00  0.00     0.053 C 
BRANCH   3   4
ATOM      4  C   UNL     1      14.968 -33.593  22.469  1.00  0.00     0.041 C 
ATOM      5  O   UNL     1      14.512 -33.327  21.325  1.00  0.00    -0.550 OA
ATOM      6  O   UNL     1      14.332 -33.093  23.598  1.00  0.00    -0.550 OA
ENDBRANCH   3   4
ENDBRANCH   2   3
ENDBRANCH   1   2
BRANCH   1   7
ATOM      7  C   UNL     1      16.936 -36.029  25.930  1.00  0.00     0.000 C 
BRANCH   7   8
ATOM      8  C   UNL     1      17.177 -37.511  26.241  1.00  0.00    -0.000 C 
BRANCH   8   9
ATOM      9  C   UNL     1      16.061 -38.074  27.132  1.00  0.00    -0.000 C 
BRANCH   9  10
ATOM     10  C   UNL     1      15.982 -37.371  28.496  1.00  0.00    -0.003 C 
ATOM     11  C   UNL     1      17.106 -37.788  29.443  1.00  0.00     0.004 C 
ENDBRANCH   9  10
ENDBRANCH   8   9
ENDBRANCH   7   8
ENDBRANCH   1   7
TORSDOF 7
ENDMDL
MODEL 6
REMARK VINA RESULT:    -4.097      3.222      4.623
REMARK INTER + INTRA:          -6.130
REMARK INTER:                  -5.529
REMARK INTRA:                  -0.601
REMARK UNBOUND:                -0.356
REMARK SMILES CCCCCCCCC(=O)[O-]
REMARK SMILES IDX 6 1 7 2 8 3 9 4 10 5 11 6 5 7 4 8 3 9 2 10 1 11
REMARK H PARENT
REMARK Flexibility Score: inf
ROOT
ATOM      1  C   UNL     1      16.037 -32.937  21.996  1.00  0.00     0.000 C 
ENDROOT
BRANCH   1   2
ATOM      2  C   UNL     1      15.376 -34.278  21.661  1.00  0.00     0.006 C 
BRANCH   2   3
ATOM      3  C   UNL     1      15.003 -34.352  20.177  1.00  0.00     0.053 C 
BRANCH   3   4
ATOM      4  C   UNL     1      16.160 -34.852  19.371  1.00  0.00     0.041 C 
ATOM      5  O   UNL     1      16.450 -36.078  19.373  1.00  0.00    -0.550 OA
ATOM      6  O   UNL     1      16.947 -33.959  18.656  1.00  0.00    -0.550 OA
ENDBRANCH   3   4
ENDBRANCH   2   3
ENDBRANCH   1   2
BRANCH   1   7
ATOM      7  C   UNL     1      15.610 -32.442  23.383  1.00  0.00     0.000 C 
BRANCH   7   8
ATOM      8  C   UNL     1      14.087 -32.289  23.470  1.00  0.00    -0.000 C 
BRANCH   8   9
ATOM      9  C   UNL     1      13.672 -30.820  23.309  1.00  0.00    -0.000 C 
BRANCH   9  10
ATOM     10  C   UNL     1      12.627 -30.620  22.201  1.00  0.00    -0.003 C 
ATOM     11  C   UNL     1      13.051 -31.238  20.869  1.00  0.00     0.004 C 
ENDBRANCH   9  10
ENDBRANCH   8   9
ENDBRANCH   7   8
ENDBRANCH   1   7
TORSDOF 7
ENDMDL
MODEL 7
REMARK VINA RESULT:    -4.082      2.838      3.577
REMARK INTER + INTRA:          -6.108
REMARK INTER:                  -5.330
REMARK INTRA:                  -0.778
REMARK UNBOUND:                -0.356
REMARK SMILES CCCCCCCCC(=O)[O-]
REMARK SMILES IDX 6 1 7 2 8 3 9 4 10 5 11 6 5 7 4 8 3 9 2 10 1 11
REMARK H PARENT
REMARK Flexibility Score: inf
ROOT
ATOM      1  C   UNL     1      15.205 -32.775  23.654  1.00  0.00     0.000 C 
ENDROOT
BRANCH   1   2
ATOM      2  C   UNL     1      15.292 -33.879  22.595  1.00  0.00     0.006 C 
BRANCH   2   3
ATOM      3  C   UNL     1      16.022 -33.383  21.342  1.00  0.00     0.053 C 
BRANCH   3   4
ATOM      4  C   UNL     1      15.377 -33.930  20.109  1.00  0.00     0.041 C 
ATOM      5  O   UNL     1      14.230 -33.537  19.766  1.00  0.00    -0.550 OA
ATOM      6  O   UNL     1      16.019 -34.911  19.364  1.00  0.00    -0.550 OA
ENDBRANCH   3   4
ENDBRANCH   2   3
ENDBRANCH   1   2
BRANCH   1   7
ATOM      7  C   UNL     1      13.749 -32.356  23.895  1.00  0.00     0.000 C 
BRANCH   7   8
ATOM      8  C   UNL     1      13.520 -30.896  23.483  1.00  0.00    -0.000 C 
BRANCH   8   9
ATOM      9  C   UNL     1      13.058 -30.803  22.022  1.00  0.00    -0.000 C 
BRANCH   9  10
ATOM     10  C   UNL     1      14.154 -30.263  21.090  1.00  0.00    -0.003 C 
ATOM     11  C   UNL     1      15.165 -29.376  21.816  1.00  0.00     0.004 C 
ENDBRANCH   9  10
ENDBRANCH   8   9
ENDBRANCH   7   8
ENDBRANCH   1   7
TORSDOF 7
ENDMDL
MODEL 8
REMARK VINA RESULT:    -4.073      2.867      3.997
REMARK INTER + INTRA:          -6.096
REMARK INTER:                  -5.706
REMARK INTRA:                  -0.391
REMARK UNBOUND:                -0.356
REMARK SMILES CCCCCCCCC(=O)[O-]
REMARK SMILES IDX 6 1 7 2 8 3 9 4 10 5 11 6 5 7 4 8 3 9 2 10 1 11
REMARK H PARENT
REMARK Flexibility Score: inf
ROOT
ATOM      1  C   UNL     1      14.251 -32.564  20.926  1.00  0.00     0.000 C 
ENDROOT
BRANCH   1   2
ATOM      2  C   UNL     1      14.538 -33.626  19.859  1.00  0.00     0.006 C 
BRANCH   2   3
ATOM      3  C   UNL     1      15.525 -34.676  20.380  1.00  0.00     0.053 C 
BRANCH   3   4
ATOM      4  C   UNL     1      16.531 -35.018  19.327  1.00  0.00     0.041 C 
ATOM      5  O   UNL     1      17.146 -34.102  18.718  1.00  0.00    -0.550 OA
ATOM      6  O   UNL     1      16.755 -36.345  18.983  1.00  0.00    -0.550 OA
ENDBRANCH   3   4
ENDBRANCH   2   3
ENDBRANCH   1   2
BRANCH   1   7
ATOM      7  C   UNL     1      13.095 -31.652  20.499  1.00  0.00     0.000 C 
BRANCH   7   8
ATOM      8  C   UNL     1      12.505 -30.907  21.702  1.00  0.00    -0.000 C 
BRANCH   8   9
ATOM      9  C   UNL     1      13.576 -30.661  22.775  1.00  0.00    -0.000 C 
BRANCH   9  10
ATOM     10  C   UNL     1      14.101 -29.217  22.765  1.00  0.00    -0.003 C 
ATOM     11  C   UNL     1      15.351 -29.047  21.902  1.00  0.00     0.004 C 
ENDBRANCH   9  10
ENDBRANCH   8   9
ENDBRANCH   7   8
ENDBRANCH   1   7
TORSDOF 7
ENDMDL
MODEL 9
REMARK VINA RESULT:    -4.041      3.242      5.309
REMARK INTER + INTRA:          -6.051
REMARK INTER:                  -5.447
REMARK INTRA:                  -0.604
REMARK UNBOUND:                -0.356
REMARK SMILES CCCCCCCCC(=O)[O-]
REMARK SMILES IDX 6 1 7 2 8 3 9 4 10 5 11 6 5 7 4 8 3 9 2 10 1 11
REMARK H PARENT
REMARK Flexibility Score: inf
ROOT
ATOM      1  C   UNL     1      13.190 -31.056  22.275  1.00  0.00     0.000 C 
ENDROOT
BRANCH   1   2
ATOM      2  C   UNL     1      12.340 -29.841  22.665  1.00  0.00     0.006 C 
BRANCH   2   3
ATOM      3  C   UNL     1      13.214 -28.718  23.231  1.00  0.00     0.053 C 
BRANCH   3   4
ATOM      4  C   UNL     1      12.365 -27.661  23.863  1.00  0.00     0.041 C 
ATOM      5  O   UNL     1      12.619 -27.259  25.030  1.00  0.00    -0.550 OA
ATOM      6  O   UNL     1      11.264 -27.154  23.185  1.00  0.00    -0.550 OA
ENDBRANCH   3   4
ENDBRANCH   2   3
ENDBRANCH   1   2
BRANCH   1   7
ATOM      7  C   UNL     1      13.920 -31.633  23.494  1.00  0.00     0.000 C 
BRANCH   7   8
ATOM      8  C   UNL     1      15.344 -32.067  23.130  1.00  0.00    -0.000 C 
BRANCH   8   9
ATOM      9  C   UNL     1      16.362 -30.979  23.500  1.00  0.00    -0.000 C 
BRANCH   9  10
ATOM     10  C   UNL     1      16.805 -30.146  22.287  1.00  0.00    -0.003 C 
ATOM     11  C   UNL     1      16.903 -30.972  21.006  1.00  0.00     0.004 C 
ENDBRANCH   9  10
ENDBRANCH   8   9
ENDBRANCH   7   8
ENDBRANCH   1   7
TORSDOF 7
ENDMDL
