MODEL 1
REMARK VINA RESULT:    -5.868      0.000      0.000
REMARK INTER + INTRA:          -8.658
REMARK INTER:                  -7.927
REMARK INTRA:                  -0.732
REMARK UNBOUND:                -0.732
REMARK SMILES C=CC(C)=CCC=C(C)CCC=C(C)C
REMARK SMILES IDX 8 1 7 2 9 3 10 4 11 5 12 6 14 7 13 8 15 9 6 10 5 11 3 12
REMARK SMILES IDX 4 13 2 14 1 15
REMARK H PARENT
REMARK Flexibility Score: inf
ROOT
ATOM      1  C   UNL     1     -50.729 -49.781  19.520  1.00  0.00    -0.077 C 
ATOM      2  C   UNL     1     -50.097 -50.413  18.505  1.00  0.00    -0.024 C 
ATOM      3  C   UNL     1     -49.970 -49.197  20.690  1.00  0.00     0.039 C 
ENDROOT
BRANCH   1   4
ATOM      4  C   UNL     1     -52.236 -49.657  19.484  1.00  0.00     0.034 C 
BRANCH   4   5
ATOM      5  C   UNL     1     -52.798 -49.397  20.886  1.00  0.00     0.032 C 
BRANCH   5   6
ATOM      6  C   UNL     1     -54.011 -48.499  20.834  1.00  0.00    -0.028 C 
ATOM      7  C   UNL     1     -55.459 -46.643  21.607  1.00  0.00     0.039 C 
ATOM      8  C   UNL     1     -54.226 -47.502  21.720  1.00  0.00    -0.080 C 
ATOM      9  C   UNL     1     -53.254 -47.214  22.837  1.00  0.00     0.039 C 
ENDBRANCH   5   6
ENDBRANCH   4   5
ENDBRANCH   1   4
BRANCH   2  10
ATOM     10  C   UNL     1     -48.602 -50.605  18.418  1.00  0.00     0.055 C 
BRANCH  10  11
ATOM     11  C   UNL     1     -47.929 -49.463  17.704  1.00  0.00    -0.020 C 
ATOM     12  C   UNL     1     -47.722 -49.398  16.372  1.00  0.00    -0.055 C 
ATOM     13  C   UNL     1     -47.078 -48.158  15.801  1.00  0.00     0.044 C 
BRANCH  12  14
ATOM     14  C   UNL     1     -48.143 -50.500  15.463  1.00  0.00    -0.005 C 
ATOM     15  C   UNL     1     -49.227 -50.434  14.689  1.00  0.00     0.009 C 
ENDBRANCH  12  14
ENDBRANCH  10  11
ENDBRANCH   2  10
TORSDOF 6
ENDMDL
MODEL 2
REMARK VINA RESULT:    -5.691     11.552     14.619
REMARK INTER + INTRA:          -8.420
REMARK INTER:                  -7.175
REMARK INTRA:                  -1.244
REMARK UNBOUND:                -0.732
REMARK SMILES C=CC(C)=CCC=C(C)CCC=C(C)C
REMARK SMILES IDX 8 1 7 2 9 3 10 4 11 5 12 6 14 7 13 8 15 9 6 10 5 11 3 12
REMARK SMILES IDX 4 13 2 14 1 15
REMARK H PARENT
REMARK Flexibility Score: inf
ROOT
ATOM      1  C   UNL     1     -42.960 -49.851  30.042  1.00  0.00    -0.077 C 
ATOM      2  C   UNL     1     -43.926 -48.906  30.064  1.00  0.00    -0.024 C 
ATOM      3  C   UNL     1     -43.287 -51.325  30.110  1.00  0.00     0.039 C 
ENDROOT
BRANCH   1   4
ATOM      4  C   UNL     1     -41.512 -49.421  29.949  1.00  0.00     0.034 C 
BRANCH   4   5
ATOM      5  C   UNL     1     -40.960 -49.658  28.538  1.00  0.00     0.032 C 
BRANCH   5   6
ATOM      6  C   UNL     1     -40.746 -48.355  27.807  1.00  0.00    -0.028 C 
ATOM      7  C   UNL     1     -41.256 -46.636  26.097  1.00  0.00     0.039 C 
ATOM      8  C   UNL     1     -41.527 -47.951  26.781  1.00  0.00    -0.080 C 
ATOM      9  C   UNL     1     -42.684 -48.786  26.292  1.00  0.00     0.039 C 
ENDBRANCH   5   6
ENDBRANCH   4   5
ENDBRANCH   1   4
BRANCH   2  10
ATOM     10  C   UNL     1     -45.405 -49.198  30.156  1.00  0.00     0.055 C 
BRANCH  10  11
ATOM     11  C   UNL     1     -45.962 -48.851  31.512  1.00  0.00    -0.020 C 
ATOM     12  C   UNL     1     -46.503 -49.738  32.374  1.00  0.00    -0.055 C 
ATOM     13  C   UNL     1     -46.972 -49.240  33.720  1.00  0.00     0.044 C 
BRANCH  12  14
ATOM     14  C   UNL     1     -46.613 -51.184  32.039  1.00  0.00    -0.005 C 
ATOM     15  C   UNL     1     -45.931 -52.135  32.678  1.00  0.00     0.009 C 
ENDBRANCH  12  14
ENDBRANCH  10  11
ENDBRANCH   2  10
TORSDOF 6
ENDMDL
MODEL 3
REMARK VINA RESULT:    -5.682      1.127      6.845
REMARK INTER + INTRA:          -8.407
REMARK INTER:                  -6.978
REMARK INTRA:                  -1.428
REMARK UNBOUND:                -0.732
REMARK SMILES C=CC(C)=CCC=C(C)CCC=C(C)C
REMARK SMILES IDX 8 1 7 2 9 3 10 4 11 5 12 6 14 7 13 8 15 9 6 10 5 11 3 12
REMARK SMILES IDX 4 13 2 14 1 15
REMARK H PARENT
REMARK Flexibility Score: inf
ROOT
ATOM      1  C   UNL     1     -49.543 -49.028  19.801  1.00  0.00    -0.077 C 
ATOM      2  C   UNL     1     -50.713 -49.262  19.164  1.00  0.00    -0.024 C 
ATOM      3  C   UNL     1     -49.261 -49.582  21.179  1.00  0.00     0.039 C 
ENDROOT
BRANCH   1   4
ATOM      4  C   UNL     1     -48.489 -48.185  19.116  1.00  0.00     0.034 C 
BRANCH   4   5
ATOM      5  C   UNL     1     -47.391 -49.068  18.511  1.00  0.00     0.032 C 
BRANCH   5   6
ATOM      6  C   UNL     1     -47.712 -49.443  17.084  1.00  0.00    -0.028 C 
ATOM      7  C   UNL     1     -48.346 -51.004  15.267  1.00  0.00     0.039 C 
ATOM      8  C   UNL     1     -48.036 -50.700  16.710  1.00  0.00    -0.080 C 
ATOM      9  C   UNL     1     -48.101 -51.830  17.708  1.00  0.00     0.039 C 
ENDBRANCH   5   6
ENDBRANCH   4   5
ENDBRANCH   1   4
BRANCH   2  10
ATOM     10  C   UNL     1     -51.845 -50.082  19.733  1.00  0.00     0.055 C 
BRANCH  10  11
ATOM     11  C   UNL     1     -53.124 -49.291  19.815  1.00  0.00    -0.020 C 
ATOM     12  C   UNL     1     -53.549 -48.620  20.907  1.00  0.00    -0.055 C 
ATOM     13  C   UNL     1     -54.832 -47.830  20.814  1.00  0.00     0.044 C 
BRANCH  12  14
ATOM     14  C   UNL     1     -52.768 -48.618  22.175  1.00  0.00    -0.005 C 
ATOM     15  C   UNL     1     -52.119 -47.546  22.631  1.00  0.00     0.009 C 
ENDBRANCH  12  14
ENDBRANCH  10  11
ENDBRANCH   2  10
TORSDOF 6
ENDMDL
MODEL 4
REMARK VINA RESULT:    -5.681      1.057      1.837
REMARK INTER + INTRA:          -8.405
REMARK INTER:                  -7.447
REMARK INTRA:                  -0.959
REMARK UNBOUND:                -0.732
REMARK SMILES C=CC(C)=CCC=C(C)CCC=C(C)C
REMARK SMILES IDX 8 1 7 2 9 3 10 4 11 5 12 6 14 7 13 8 15 9 6 10 5 11 3 12
REMARK SMILES IDX 4 13 2 14 1 15
REMARK H PARENT
REMARK Flexibility Score: inf
ROOT
ATOM      1  C   UNL     1     -49.590 -48.695  19.732  1.00  0.00    -0.077 C 
ATOM      2  C   UNL     1     -49.672 -50.000  19.386  1.00  0.00    -0.024 C 
ATOM      3  C   UNL     1     -48.480 -47.805  19.224  1.00  0.00     0.039 C 
ENDROOT
BRANCH   1   4
ATOM      4  C   UNL     1     -50.638 -48.113  20.654  1.00  0.00     0.034 C 
BRANCH   4   5
ATOM      5  C   UNL     1     -51.603 -49.200  21.143  1.00  0.00     0.032 C 
BRANCH   5   6
ATOM      6  C   UNL     1     -53.027 -48.885  20.755  1.00  0.00    -0.028 C 
ATOM      7  C   UNL     1     -55.263 -47.867  21.075  1.00  0.00     0.039 C 
ATOM      8  C   UNL     1     -53.852 -48.142  21.526  1.00  0.00    -0.080 C 
ATOM      9  C   UNL     1     -53.398 -47.568  22.845  1.00  0.00     0.039 C 
ENDBRANCH   5   6
ENDBRANCH   4   5
ENDBRANCH   1   4
BRANCH   2  10
ATOM     10  C   UNL     1     -48.694 -50.705  18.477  1.00  0.00     0.055 C 
BRANCH  10  11
ATOM     11  C   UNL     1     -49.216 -50.816  17.069  1.00  0.00    -0.020 C 
ATOM     12  C   UNL     1     -48.644 -50.249  15.985  1.00  0.00    -0.055 C 
ATOM     13  C   UNL     1     -49.262 -50.497  14.631  1.00  0.00     0.044 C 
BRANCH  12  14
ATOM     14  C   UNL     1     -47.411 -49.422  16.097  1.00  0.00    -0.005 C 
ATOM     15  C   UNL     1     -47.347 -48.150  15.703  1.00  0.00     0.009 C 
ENDBRANCH  12  14
ENDBRANCH  10  11
ENDBRANCH   2  10
TORSDOF 6
ENDMDL
MODEL 5
REMARK VINA RESULT:    -5.647      1.135      1.583
REMARK INTER + INTRA:          -8.360
REMARK INTER:                  -7.686
REMARK INTRA:                  -0.674
REMARK UNBOUND:                -0.732
REMARK SMILES C=CC(C)=CCC=C(C)CCC=C(C)C
REMARK SMILES IDX 8 1 7 2 9 3 10 4 11 5 12 6 14 7 13 8 15 9 6 10 5 11 3 12
REMARK SMILES IDX 4 13 2 14 1 15
REMARK H PARENT
REMARK Flexibility Score: inf
ROOT
ATOM      1  C   UNL     1     -51.286 -49.274  20.429  1.00  0.00    -0.077 C 
ATOM      2  C   UNL     1     -50.496 -49.581  19.375  1.00  0.00    -0.024 C 
ATOM      3  C   UNL     1     -50.710 -48.889  21.772  1.00  0.00     0.039 C 
ENDROOT
BRANCH   1   4
ATOM      4  C   UNL     1     -52.789 -49.321  20.258  1.00  0.00     0.034 C 
BRANCH   4   5
ATOM      5  C   UNL     1     -53.500 -48.880  21.543  1.00  0.00     0.032 C 
BRANCH   5   6
ATOM      6  C   UNL     1     -54.167 -47.538  21.369  1.00  0.00    -0.028 C 
ATOM      7  C   UNL     1     -56.089 -46.028  20.964  1.00  0.00     0.039 C 
ATOM      8  C   UNL     1     -55.489 -47.400  21.127  1.00  0.00    -0.080 C 
ATOM      9  C   UNL     1     -56.401 -48.597  21.014  1.00  0.00     0.039 C 
ENDBRANCH   5   6
ENDBRANCH   4   5
ENDBRANCH   1   4
BRANCH   2  10
ATOM     10  C   UNL     1     -48.987 -49.576  19.410  1.00  0.00     0.055 C 
BRANCH  10  11
ATOM     11  C   UNL     1     -48.402 -48.759  18.288  1.00  0.00    -0.020 C 
ATOM     12  C   UNL     1     -47.785 -49.270  17.201  1.00  0.00    -0.055 C 
ATOM     13  C   UNL     1     -47.297 -48.318  16.136  1.00  0.00     0.044 C 
BRANCH  12  14
ATOM     14  C   UNL     1     -47.609 -50.737  17.021  1.00  0.00    -0.005 C 
ATOM     15  C   UNL     1     -48.381 -51.472  16.221  1.00  0.00     0.009 C 
ENDBRANCH  12  14
ENDBRANCH  10  11
ENDBRANCH   2  10
TORSDOF 6
ENDMDL
MODEL 6
REMARK VINA RESULT:    -5.644     12.006     13.735
REMARK INTER + INTRA:          -8.355
REMARK INTER:                  -6.947
REMARK INTRA:                  -1.408
REMARK UNBOUND:                -0.732
REMARK SMILES C=CC(C)=CCC=C(C)CCC=C(C)C
REMARK SMILES IDX 8 1 7 2 9 3 10 4 11 5 12 6 14 7 13 8 15 9 6 10 5 11 3 12
REMARK SMILES IDX 4 13 2 14 1 15
REMARK H PARENT
REMARK Flexibility Score: inf
ROOT
ATOM      1  C   UNL     1     -44.308 -49.432  29.967  1.00  0.00    -0.077 C 
ATOM      2  C   UNL     1     -43.069 -49.492  30.507  1.00  0.00    -0.024 C 
ATOM      3  C   UNL     1     -44.620 -50.041  28.620  1.00  0.00     0.039 C 
ENDROOT
BRANCH   1   4
ATOM      4  C   UNL     1     -45.410 -48.733  30.733  1.00  0.00     0.034 C 
BRANCH   4   5
ATOM      5  C   UNL     1     -46.460 -49.739  31.220  1.00  0.00     0.032 C 
BRANCH   5   6
ATOM      6  C   UNL     1     -46.073 -50.337  32.551  1.00  0.00    -0.028 C 
ATOM      7  C   UNL     1     -45.388 -52.173  34.067  1.00  0.00     0.039 C 
ATOM      8  C   UNL     1     -45.768 -51.643  32.708  1.00  0.00    -0.080 C 
ATOM      9  C   UNL     1     -45.793 -52.606  31.548  1.00  0.00     0.039 C 
ENDBRANCH   5   6
ENDBRANCH   4   5
ENDBRANCH   1   4
BRANCH   2  10
ATOM     10  C   UNL     1     -41.883 -50.155  29.849  1.00  0.00     0.055 C 
BRANCH  10  11
ATOM     11  C   UNL     1     -40.707 -49.221  29.741  1.00  0.00    -0.020 C 
ATOM     12  C   UNL     1     -40.366 -48.533  28.630  1.00  0.00    -0.055 C 
ATOM     13  C   UNL     1     -39.186 -47.595  28.697  1.00  0.00     0.044 C 
BRANCH  12  14
ATOM     14  C   UNL     1     -41.144 -48.657  27.366  1.00  0.00    -0.005 C 
ATOM     15  C   UNL     1     -42.073 -47.777  26.991  1.00  0.00     0.009 C 
ENDBRANCH  12  14
ENDBRANCH  10  11
ENDBRANCH   2  10
TORSDOF 6
ENDMDL
MODEL 7
REMARK VINA RESULT:    -5.616      1.743      2.616
REMARK INTER + INTRA:          -8.318
REMARK INTER:                  -7.190
REMARK INTRA:                  -1.128
REMARK UNBOUND:                -0.732
REMARK SMILES C=CC(C)=CCC=C(C)CCC=C(C)C
REMARK SMILES IDX 8 1 7 2 9 3 10 4 11 5 12 6 14 7 13 8 15 9 6 10 5 11 3 12
REMARK SMILES IDX 4 13 2 14 1 15
REMARK H PARENT
REMARK Flexibility Score: inf
ROOT
ATOM      1  C   UNL     1     -51.044 -50.227  19.078  1.00  0.00    -0.077 C 
ATOM      2  C   UNL     1     -49.721 -50.298  19.347  1.00  0.00    -0.024 C 
ATOM      3  C   UNL     1     -51.609 -50.661  17.745  1.00  0.00     0.039 C 
ENDROOT
BRANCH   1   4
ATOM      4  C   UNL     1     -51.983 -49.696  20.139  1.00  0.00     0.034 C 
BRANCH   4   5
ATOM      5  C   UNL     1     -51.319 -48.573  20.945  1.00  0.00     0.032 C 
BRANCH   5   6
ATOM      6  C   UNL     1     -51.603 -48.716  22.421  1.00  0.00    -0.028 C 
ATOM      7  C   UNL     1     -51.060 -49.341  24.756  1.00  0.00     0.039 C 
ATOM      8  C   UNL     1     -50.710 -49.229  23.295  1.00  0.00    -0.080 C 
ATOM      9  C   UNL     1     -49.348 -49.699  22.849  1.00  0.00     0.039 C 
ENDBRANCH   5   6
ENDBRANCH   4   5
ENDBRANCH   1   4
BRANCH   2  10
ATOM     10  C   UNL     1     -48.678 -50.805  18.380  1.00  0.00     0.055 C 
BRANCH  10  11
ATOM     11  C   UNL     1     -47.942 -49.677  17.707  1.00  0.00    -0.020 C 
ATOM     12  C   UNL     1     -47.801 -49.533  16.372  1.00  0.00    -0.055 C 
ATOM     13  C   UNL     1     -47.077 -48.316  15.850  1.00  0.00     0.044 C 
BRANCH  12  14
ATOM     14  C   UNL     1     -48.371 -50.523  15.416  1.00  0.00    -0.005 C 
ATOM     15  C   UNL     1     -49.393 -50.250  14.605  1.00  0.00     0.009 C 
ENDBRANCH  12  14
ENDBRANCH  10  11
ENDBRANCH   2  10
TORSDOF 6
ENDMDL
MODEL 8
REMARK VINA RESULT:    -5.571      1.364      7.037
REMARK INTER + INTRA:          -8.257
REMARK INTER:                  -7.004
REMARK INTRA:                  -1.253
REMARK UNBOUND:                -0.732
REMARK SMILES C=CC(C)=CCC=C(C)CCC=C(C)C
REMARK SMILES IDX 8 1 7 2 9 3 10 4 11 5 12 6 14 7 13 8 15 9 6 10 5 11 3 12
REMARK SMILES IDX 4 13 2 14 1 15
REMARK H PARENT
REMARK Flexibility Score: inf
ROOT
ATOM      1  C   UNL     1     -49.456 -48.906  19.815  1.00  0.00    -0.077 C 
ATOM      2  C   UNL     1     -49.247 -49.090  21.139  1.00  0.00    -0.024 C 
ATOM      3  C   UNL     1     -50.680 -49.454  19.118  1.00  0.00     0.039 C 
ENDROOT
BRANCH   1   4
ATOM      4  C   UNL     1     -48.434 -48.133  19.010  1.00  0.00     0.034 C 
BRANCH   4   5
ATOM      5  C   UNL     1     -47.377 -49.074  18.420  1.00  0.00     0.032 C 
BRANCH   5   6
ATOM      6  C   UNL     1     -47.712 -49.453  16.998  1.00  0.00    -0.028 C 
ATOM      7  C   UNL     1     -48.357 -51.019  15.190  1.00  0.00     0.039 C 
ATOM      8  C   UNL     1     -48.032 -50.712  16.629  1.00  0.00    -0.080 C 
ATOM      9  C   UNL     1     -48.080 -51.841  17.629  1.00  0.00     0.039 C 
ENDBRANCH   5   6
ENDBRANCH   4   5
ENDBRANCH   1   4
BRANCH   2  10
ATOM     10  C   UNL     1     -50.184 -49.841  22.054  1.00  0.00     0.055 C 
BRANCH  10  11
ATOM     11  C   UNL     1     -50.804 -48.937  23.086  1.00  0.00    -0.020 C 
ATOM     12  C   UNL     1     -52.086 -48.513  23.072  1.00  0.00    -0.055 C 
ATOM     13  C   UNL     1     -52.572 -47.648  24.209  1.00  0.00     0.044 C 
BRANCH  12  14
ATOM     14  C   UNL     1     -53.025 -48.906  21.985  1.00  0.00    -0.005 C 
ATOM     15  C   UNL     1     -53.793 -48.032  21.333  1.00  0.00     0.009 C 
ENDBRANCH  12  14
ENDBRANCH  10  11
ENDBRANCH   2  10
TORSDOF 6
ENDMDL
MODEL 9
REMARK VINA RESULT:    -5.558     12.120     14.970
REMARK INTER + INTRA:          -8.239
REMARK INTER:                  -7.195
REMARK INTRA:                  -1.044
REMARK UNBOUND:                -0.732
REMARK SMILES C=CC(C)=CCC=C(C)CCC=C(C)C
REMARK SMILES IDX 8 1 7 2 9 3 10 4 11 5 12 6 14 7 13 8 15 9 6 10 5 11 3 12
REMARK SMILES IDX 4 13 2 14 1 15
REMARK H PARENT
REMARK Flexibility Score: inf
ROOT
ATOM      1  C   UNL     1     -43.202 -48.572  28.523  1.00  0.00    -0.077 C 
ATOM      2  C   UNL     1     -43.097 -49.594  29.403  1.00  0.00    -0.024 C 
ATOM      3  C   UNL     1     -44.043 -47.351  28.817  1.00  0.00     0.039 C 
ENDROOT
BRANCH   1   4
ATOM      4  C   UNL     1     -42.459 -48.656  27.208  1.00  0.00     0.034 C 
BRANCH   4   5
ATOM      5  C   UNL     1     -40.958 -48.867  27.438  1.00  0.00     0.032 C 
BRANCH   5   6
ATOM      6  C   UNL     1     -40.275 -47.577  27.825  1.00  0.00    -0.028 C 
ATOM      7  C   UNL     1     -38.964 -46.097  29.318  1.00  0.00     0.039 C 
ATOM      8  C   UNL     1     -39.624 -47.413  28.997  1.00  0.00    -0.080 C 
ATOM      9  C   UNL     1     -39.533 -48.524  30.013  1.00  0.00     0.039 C 
ENDBRANCH   5   6
ENDBRANCH   4   5
ENDBRANCH   1   4
BRANCH   2  10
ATOM     10  C   UNL     1     -43.785 -49.637  30.746  1.00  0.00     0.055 C 
BRANCH  10  11
ATOM     11  C   UNL     1     -44.369 -50.995  31.033  1.00  0.00    -0.020 C 
ATOM     12  C   UNL     1     -45.537 -51.214  31.675  1.00  0.00    -0.055 C 
ATOM     13  C   UNL     1     -46.013 -52.637  31.839  1.00  0.00     0.044 C 
BRANCH  12  14
ATOM     14  C   UNL     1     -46.369 -50.090  32.187  1.00  0.00    -0.005 C 
ATOM     15  C   UNL     1     -46.703 -49.956  33.470  1.00  0.00     0.009 C 
ENDBRANCH  12  14
ENDBRANCH  10  11
ENDBRANCH   2  10
TORSDOF 6
ENDMDL
