MODEL 1
REMARK VINA RESULT:    -3.852      0.000      0.000
REMARK INTER + INTRA:          -6.188
REMARK INTER:                  -5.878
REMARK INTRA:                  -0.310
REMARK UNBOUND:                -0.310
REMARK SMILES CC1=CCC[C@H](C)C(=O)C[C@@H](C(C)C)C(=O)C1
REMARK SMILES IDX 8 1 9 2 6 3 7 4 5 5 4 6 3 7 2 8 1 9 10 11 11 12 15 13 16 14
REMARK SMILES IDX 17 15 12 17 13 18 14 19
REMARK H PARENT
REMARK Flexibility Score: 70.00
ROOT
ATOM      1  C   UNL     1     214.014 204.677 217.100  1.00  0.00     0.136 C 
ATOM      2  O   UNL     1     215.144 204.221 216.980  1.00  0.00    -0.299 OA
ENDROOT
BRANCH   1   3
ATOM      3  C   UNL     1     212.990 203.795 217.792  1.00  0.00     0.053 C 
ATOM      4  C   UNL     1     211.648 204.462 218.140  1.00  0.00     0.016 C 
BRANCH   3   5
ATOM      5  C   UNL     1     212.804 202.455 217.045  1.00  0.00     0.015 C 
BRANCH   5   6
ATOM      6  C   UNL     1     212.006 202.555 215.727  1.00  0.00     0.028 C 
BRANCH   6   7
ATOM      7  C   UNL     1     212.852 202.263 214.503  1.00  0.00    -0.028 C 
ATOM      8  C   UNL     1     213.174 203.077 213.459  1.00  0.00    -0.070 CG0
ATOM      9  C   UNL     1     214.065 202.479 212.395  1.00  0.00     0.039 C 
ATOM     10  G   UNL     1     212.824 204.556 213.295  1.00  0.00     0.000 G0
ENDBRANCH   6   7
ENDBRANCH   5   6
ENDBRANCH   3   5
ENDBRANCH   1   3
BRANCH   1  11
ATOM     11  C   UNL     1     213.783 206.110 216.652  1.00  0.00     0.087 C 
BRANCH  11  12
ATOM     12  C   UNL     1     213.059 206.310 215.287  1.00  0.00     0.066 C 
BRANCH  12  13
ATOM     13  C   UNL     1     213.626 205.531 214.100  1.00  0.00     0.140 C 
ATOM     14  O   UNL     1     214.806 205.678 213.815  1.00  0.00    -0.299 OA
BRANCH  13  15
ATOM     15  C   UNL     1     212.824 204.560 213.279  1.00  0.00     0.106 CG0
ATOM     16  G   UNL     1     213.181 203.085 213.461  1.00  0.00     0.000 G0
ENDBRANCH  13  15
ENDBRANCH  12  13
BRANCH  12  17
ATOM     17  C   UNL     1     212.923 207.835 214.966  1.00  0.00    -0.006 C 
ATOM     18  C   UNL     1     214.280 208.549 214.819  1.00  0.00     0.008 C 
ATOM     19  C   UNL     1     212.061 208.090 213.718  1.00  0.00     0.008 C 
ENDBRANCH  12  17
ENDBRANCH  11  12
ENDBRANCH   1  11
TORSDOF 1
ENDMDL
MODEL 2
REMARK VINA RESULT:    -3.811     13.947     15.117
REMARK INTER + INTRA:          -6.126
REMARK INTER:                  -5.822
REMARK INTRA:                  -0.304
REMARK UNBOUND:                -0.310
REMARK SMILES CC1=CCC[C@H](C)C(=O)C[C@@H](C(C)C)C(=O)C1
REMARK SMILES IDX 8 1 9 2 6 3 7 4 5 5 4 6 3 7 2 8 1 9 10 11 11 12 15 13 16 14
REMARK SMILES IDX 17 15 12 17 13 18 14 19
REMARK H PARENT
REMARK Flexibility Score: 70.00
ROOT
ATOM      1  C   UNL     1     199.173 209.613 216.859  1.00  0.00     0.136 C 
ATOM      2  O   UNL     1     199.935 210.481 217.263  1.00  0.00    -0.299 OA
ENDROOT
BRANCH   1   3
ATOM      3  C   UNL     1     199.609 208.171 217.058  1.00  0.00     0.053 C 
ATOM      4  C   UNL     1     200.515 207.899 218.270  1.00  0.00     0.016 C 
BRANCH   3   5
ATOM      5  C   UNL     1     198.404 207.206 216.997  1.00  0.00     0.015 C 
BRANCH   5   6
ATOM      6  C   UNL     1     198.102 206.636 215.594  1.00  0.00     0.028 C 
BRANCH   6   7
ATOM      7  C   UNL     1     199.318 206.622 214.690  1.00  0.00    -0.028 C 
ATOM      8  C   UNL     1     199.616 207.421 213.626  1.00  0.00    -0.070 CG0
ATOM      9  C   UNL     1     200.937 207.157 212.942  1.00  0.00     0.039 C 
ATOM     10  G   UNL     1     198.816 208.618 213.115  1.00  0.00     0.000 G0
ENDBRANCH   6   7
ENDBRANCH   5   6
ENDBRANCH   3   5
ENDBRANCH   1   3
BRANCH   1  11
ATOM     11  C   UNL     1     197.828 210.058 216.309  1.00  0.00     0.087 C 
BRANCH  11  12
ATOM     12  C   UNL     1     197.778 210.430 214.797  1.00  0.00     0.066 C 
BRANCH  12  13
ATOM     13  C   UNL     1     198.909 209.883 213.927  1.00  0.00     0.140 C 
ATOM     14  O   UNL     1     199.972 210.487 213.904  1.00  0.00    -0.299 OA
BRANCH  13  15
ATOM     15  C   UNL     1     198.806 208.617 213.121  1.00  0.00     0.106 CG0
ATOM     16  G   UNL     1     199.626 207.435 213.637  1.00  0.00     0.000 G0
ENDBRANCH  13  15
ENDBRANCH  12  13
BRANCH  12  17
ATOM     17  C   UNL     1     197.613 211.976 214.626  1.00  0.00    -0.006 C 
ATOM     18  C   UNL     1     196.432 212.366 213.718  1.00  0.00     0.008 C 
ATOM     19  C   UNL     1     197.494 212.699 215.979  1.00  0.00     0.008 C 
ENDBRANCH  12  17
ENDBRANCH  11  12
ENDBRANCH   1  11
TORSDOF 1
ENDMDL
MODEL 3
REMARK VINA RESULT:    -3.804      2.035      4.366
REMARK INTER + INTRA:          -6.116
REMARK INTER:                  -5.762
REMARK INTRA:                  -0.354
REMARK UNBOUND:                -0.310
REMARK SMILES CC1=CCC[C@H](C)C(=O)C[C@@H](C(C)C)C(=O)C1
REMARK SMILES IDX 8 1 9 2 6 3 7 4 5 5 4 6 3 7 2 8 1 9 10 11 11 12 15 13 16 14
REMARK SMILES IDX 17 15 12 17 13 18 14 19
REMARK H PARENT
REMARK Flexibility Score: 70.00
ROOT
ATOM      1  C   UNL     1     213.153 202.811 216.900  1.00  0.00     0.136 C 
ATOM      2  O   UNL     1     212.383 201.967 217.338  1.00  0.00    -0.299 OA
ENDROOT
BRANCH   1   3
ATOM      3  C   UNL     1     212.736 204.264 217.051  1.00  0.00     0.053 C 
ATOM      4  C   UNL     1     211.829 204.586 218.250  1.00  0.00     0.016 C 
BRANCH   3   5
ATOM      5  C   UNL     1     213.955 205.210 216.964  1.00  0.00     0.015 C 
BRANCH   5   6
ATOM      6  C   UNL     1     214.129 205.918 215.603  1.00  0.00     0.028 C 
BRANCH   6   7
ATOM      7  C   UNL     1     212.891 205.833 214.732  1.00  0.00    -0.028 C 
ATOM      8  C   UNL     1     212.616 204.988 213.698  1.00  0.00    -0.070 CG0
ATOM      9  C   UNL     1     211.265 205.152 213.043  1.00  0.00     0.039 C 
ATOM     10  G   UNL     1     213.476 203.828 213.196  1.00  0.00     0.000 G0
ENDBRANCH   6   7
ENDBRANCH   5   6
ENDBRANCH   3   5
ENDBRANCH   1   3
BRANCH   1  11
ATOM     11  C   UNL     1     214.489 202.330 216.358  1.00  0.00     0.087 C 
BRANCH  11  12
ATOM     12  C   UNL     1     214.551 202.000 214.836  1.00  0.00     0.066 C 
BRANCH  12  13
ATOM     13  C   UNL     1     213.404 202.537 213.980  1.00  0.00     0.140 C 
ATOM     14  O   UNL     1     212.350 201.917 213.960  1.00  0.00    -0.299 OA
BRANCH  13  15
ATOM     15  C   UNL     1     213.482 203.811 213.185  1.00  0.00     0.106 CG0
ATOM     16  G   UNL     1     212.616 204.964 213.694  1.00  0.00     0.000 G0
ENDBRANCH  13  15
ENDBRANCH  12  13
BRANCH  12  17
ATOM     17  C   UNL     1     214.759 200.464 214.625  1.00  0.00    -0.006 C 
ATOM     18  C   UNL     1     215.872 200.134 213.613  1.00  0.00     0.008 C 
ATOM     19  C   UNL     1     215.023 199.728 215.950  1.00  0.00     0.008 C 
ENDBRANCH  12  17
ENDBRANCH  11  12
ENDBRANCH   1  11
TORSDOF 1
ENDMDL
MODEL 4
REMARK VINA RESULT:    -3.801     13.570     14.985
REMARK INTER + INTRA:          -6.111
REMARK INTER:                  -5.719
REMARK INTRA:                  -0.392
REMARK UNBOUND:                -0.310
REMARK SMILES CC1=CCC[C@H](C)C(=O)C[C@@H](C(C)C)C(=O)C1
REMARK SMILES IDX 8 1 9 2 6 3 7 4 5 5 4 6 3 7 2 8 1 9 10 11 11 12 15 13 16 14
REMARK SMILES IDX 17 15 12 17 13 18 14 19
REMARK H PARENT
REMARK Flexibility Score: 70.00
ROOT
ATOM      1  C   UNL     1     198.425 207.566 217.015  1.00  0.00     0.136 C 
ATOM      2  O   UNL     1     197.303 208.021 216.844  1.00  0.00    -0.299 OA
ENDROOT
BRANCH   1   3
ATOM      3  C   UNL     1     199.392 208.411 217.826  1.00  0.00     0.053 C 
ATOM      4  C   UNL     1     200.730 207.746 218.192  1.00  0.00     0.016 C 
BRANCH   3   5
ATOM      5  C   UNL     1     199.583 209.809 217.195  1.00  0.00     0.015 C 
BRANCH   5   6
ATOM      6  C   UNL     1     200.342 209.813 215.851  1.00  0.00     0.028 C 
BRANCH   6   7
ATOM      7  C   UNL     1     199.445 210.124 214.669  1.00  0.00    -0.028 C 
ATOM      8  C   UNL     1     199.170 209.368 213.568  1.00  0.00    -0.070 CG0
ATOM      9  C   UNL     1     198.204 209.965 212.572  1.00  0.00     0.039 C 
ATOM     10  G   UNL     1     199.644 207.943 213.281  1.00  0.00     0.000 G0
ENDBRANCH   6   7
ENDBRANCH   5   6
ENDBRANCH   3   5
ENDBRANCH   1   3
BRANCH   1  11
ATOM     11  C   UNL     1     198.701 206.163 216.502  1.00  0.00     0.087 C 
BRANCH  11  12
ATOM     12  C   UNL     1     199.463 206.048 215.147  1.00  0.00     0.066 C 
BRANCH  12  13
ATOM     13  C   UNL     1     198.887 206.846 213.978  1.00  0.00     0.140 C 
ATOM     14  O   UNL     1     197.743 206.610 213.616  1.00  0.00    -0.299 OA
BRANCH  13  15
ATOM     15  C   UNL     1     199.635 207.938 213.263  1.00  0.00     0.106 CG0
ATOM     16  G   UNL     1     199.180 209.364 213.571  1.00  0.00     0.000 G0
ENDBRANCH  13  15
ENDBRANCH  12  13
BRANCH  12  17
ATOM     17  C   UNL     1     199.675 204.545 214.772  1.00  0.00    -0.006 C 
ATOM     18  C   UNL     1     198.381 203.713 214.838  1.00  0.00     0.008 C 
ATOM     19  C   UNL     1     200.333 204.379 213.392  1.00  0.00     0.008 C 
ENDBRANCH  12  17
ENDBRANCH  11  12
ENDBRANCH   1  11
TORSDOF 1
ENDMDL
MODEL 5
REMARK VINA RESULT:    -3.665      2.369      4.316
REMARK INTER + INTRA:          -5.903
REMARK INTER:                  -5.619
REMARK INTRA:                  -0.285
REMARK UNBOUND:                -0.310
REMARK SMILES CC1=CCC[C@H](C)C(=O)C[C@@H](C(C)C)C(=O)C1
REMARK SMILES IDX 8 1 9 2 6 3 7 4 5 5 4 6 3 7 2 8 1 9 10 11 11 12 15 13 16 14
REMARK SMILES IDX 17 15 12 17 13 18 14 19
REMARK H PARENT
REMARK Flexibility Score: 70.00
ROOT
ATOM      1  C   UNL     1     211.664 204.465 213.957  1.00  0.00     0.136 C 
ATOM      2  O   UNL     1     210.972 205.468 213.846  1.00  0.00    -0.299 OA
ENDROOT
BRANCH   1   3
ATOM      3  C   UNL     1     212.518 204.084 212.760  1.00  0.00     0.053 C 
ATOM      4  C   UNL     1     213.772 204.942 212.522  1.00  0.00     0.016 C 
BRANCH   3   5
ATOM      5  C   UNL     1     212.831 202.570 212.753  1.00  0.00     0.015 C 
BRANCH   5   6
ATOM      6  C   UNL     1     214.330 202.220 212.871  1.00  0.00     0.028 C 
BRANCH   6   7
ATOM      7  C   UNL     1     214.570 200.871 213.521  1.00  0.00    -0.028 C 
ATOM      8  C   UNL     1     214.801 200.569 214.830  1.00  0.00    -0.070 CG0
ATOM      9  C   UNL     1     214.981 199.105 215.156  1.00  0.00     0.039 C 
ATOM     10  G   UNL     1     214.795 201.532 216.018  1.00  0.00     0.000 G0
ENDBRANCH   6   7
ENDBRANCH   5   6
ENDBRANCH   3   5
ENDBRANCH   1   3
BRANCH   1  11
ATOM     11  C   UNL     1     211.687 203.774 215.310  1.00  0.00     0.087 C 
BRANCH  11  12
ATOM     12  C   UNL     1     213.082 203.579 215.976  1.00  0.00     0.066 C 
BRANCH  12  13
ATOM     13  C   UNL     1     213.462 202.145 216.343  1.00  0.00     0.140 C 
ATOM     14  O   UNL     1     212.626 201.441 216.892  1.00  0.00    -0.299 OA
BRANCH  13  15
ATOM     15  C   UNL     1     214.799 201.530 216.034  1.00  0.00     0.106 CG0
ATOM     16  G   UNL     1     214.828 200.566 214.848  1.00  0.00     0.000 G0
ENDBRANCH  13  15
ENDBRANCH  12  13
BRANCH  12  17
ATOM     17  C   UNL     1     213.239 204.548 217.193  1.00  0.00    -0.006 C 
ATOM     18  C   UNL     1     213.566 205.995 216.781  1.00  0.00     0.008 C 
ATOM     19  C   UNL     1     212.005 204.532 218.110  1.00  0.00     0.008 C 
ENDBRANCH  12  17
ENDBRANCH  11  12
ENDBRANCH   1  11
TORSDOF 1
ENDMDL
MODEL 6
REMARK VINA RESULT:    -3.635     13.915     15.727
REMARK INTER + INTRA:          -5.858
REMARK INTER:                  -5.519
REMARK INTRA:                  -0.339
REMARK UNBOUND:                -0.310
REMARK SMILES CC1=CCC[C@H](C)C(=O)C[C@@H](C(C)C)C(=O)C1
REMARK SMILES IDX 8 1 9 2 6 3 7 4 5 5 4 6 3 7 2 8 1 9 10 11 11 12 15 13 16 14
REMARK SMILES IDX 17 15 12 17 13 18 14 19
REMARK H PARENT
REMARK Flexibility Score: 70.00
ROOT
ATOM      1  C   UNL     1     200.674 207.717 213.884  1.00  0.00     0.136 C 
ATOM      2  O   UNL     1     201.488 206.842 213.621  1.00  0.00    -0.299 OA
ENDROOT
BRANCH   1   3
ATOM      3  C   UNL     1     199.677 208.076 212.796  1.00  0.00     0.053 C 
ATOM      4  C   UNL     1     198.349 207.300 212.812  1.00  0.00     0.016 C 
BRANCH   3   5
ATOM      5  C   UNL     1     199.464 209.604 212.711  1.00  0.00     0.015 C 
BRANCH   5   6
ATOM      6  C   UNL     1     198.001 210.064 212.889  1.00  0.00     0.028 C 
BRANCH   6   7
ATOM      7  C   UNL     1     197.884 211.384 213.625  1.00  0.00    -0.028 C 
ATOM      8  C   UNL     1     197.701 211.620 214.955  1.00  0.00    -0.070 CG0
ATOM      9  C   UNL     1     197.648 213.070 215.375  1.00  0.00     0.039 C 
ATOM     10  G   UNL     1     197.648 210.587 216.081  1.00  0.00     0.000 G0
ENDBRANCH   6   7
ENDBRANCH   5   6
ENDBRANCH   3   5
ENDBRANCH   1   3
BRANCH   1  11
ATOM     11  C   UNL     1     200.669 208.270 215.300  1.00  0.00     0.087 C 
BRANCH  11  12
ATOM     12  C   UNL     1     199.277 208.477 215.968  1.00  0.00     0.066 C 
BRANCH  12  13
ATOM     13  C   UNL     1     198.945 209.900 216.415  1.00  0.00     0.140 C 
ATOM     14  O   UNL     1     199.791 210.529 217.036  1.00  0.00    -0.299 OA
BRANCH  13  15
ATOM     15  C   UNL     1     197.647 210.592 216.102  1.00  0.00     0.106 CG0
ATOM     16  G   UNL     1     197.698 211.614 214.966  1.00  0.00     0.000 G0
ENDBRANCH  13  15
ENDBRANCH  12  13
BRANCH  12  17
ATOM     17  C   UNL     1     199.076 207.446 217.127  1.00  0.00    -0.006 C 
ATOM     18  C   UNL     1     198.776 206.020 216.628  1.00  0.00     0.008 C 
ATOM     19  C   UNL     1     200.272 207.420 218.093  1.00  0.00     0.008 C 
ENDBRANCH  12  17
ENDBRANCH  11  12
ENDBRANCH   1  11
TORSDOF 1
ENDMDL
MODEL 7
REMARK VINA RESULT:    -3.619     13.864     14.677
REMARK INTER + INTRA:          -5.833
REMARK INTER:                  -5.531
REMARK INTRA:                  -0.301
REMARK UNBOUND:                -0.310
REMARK SMILES CC1=CCC[C@H](C)C(=O)C[C@@H](C(C)C)C(=O)C1
REMARK SMILES IDX 8 1 9 2 6 3 7 4 5 5 4 6 3 7 2 8 1 9 10 11 11 12 15 13 16 14
REMARK SMILES IDX 17 15 12 17 13 18 14 19
REMARK H PARENT
REMARK Flexibility Score: 70.00
ROOT
ATOM      1  C   UNL     1     199.860 208.903 216.551  1.00  0.00     0.136 C 
ATOM      2  O   UNL     1     199.452 209.848 217.213  1.00  0.00    -0.299 OA
ENDROOT
BRANCH   1   3
ATOM      3  C   UNL     1     200.140 207.611 217.299  1.00  0.00     0.053 C 
ATOM      4  C   UNL     1     200.573 207.759 218.767  1.00  0.00     0.016 C 
BRANCH   3   5
ATOM      5  C   UNL     1     198.984 206.600 217.126  1.00  0.00     0.015 C 
BRANCH   5   6
ATOM      6  C   UNL     1     199.416 205.201 216.638  1.00  0.00     0.028 C 
BRANCH   6   7
ATOM      7  C   UNL     1     198.600 204.711 215.458  1.00  0.00    -0.028 C 
ATOM      8  C   UNL     1     198.541 205.194 214.185  1.00  0.00    -0.070 CG0
ATOM      9  C   UNL     1     197.633 204.455 213.231  1.00  0.00     0.039 C 
ATOM     10  G   UNL     1     199.369 206.333 213.588  1.00  0.00     0.000 G0
ENDBRANCH   6   7
ENDBRANCH   5   6
ENDBRANCH   3   5
ENDBRANCH   1   3
BRANCH   1  11
ATOM     11  C   UNL     1     199.937 209.082 215.044  1.00  0.00     0.087 C 
BRANCH  11  12
ATOM     12  C   UNL     1     198.630 208.817 214.239  1.00  0.00     0.066 C 
BRANCH  12  13
ATOM     13  C   UNL     1     198.649 207.615 213.294  1.00  0.00     0.140 C 
ATOM     14  O   UNL     1     198.060 207.702 212.226  1.00  0.00    -0.299 OA
BRANCH  13  15
ATOM     15  C   UNL     1     199.386 206.337 213.585  1.00  0.00     0.106 CG0
ATOM     16  G   UNL     1     198.541 205.203 214.167  1.00  0.00     0.000 G0
ENDBRANCH  13  15
ENDBRANCH  12  13
BRANCH  12  17
ATOM     17  C   UNL     1     198.173 210.121 213.506  1.00  0.00    -0.006 C 
ATOM     18  C   UNL     1     197.570 211.173 214.455  1.00  0.00     0.008 C 
ATOM     19  C   UNL     1     199.308 210.751 212.682  1.00  0.00     0.008 C 
ENDBRANCH  12  17
ENDBRANCH  11  12
ENDBRANCH   1  11
TORSDOF 1
ENDMDL
MODEL 8
REMARK VINA RESULT:    -3.567      1.673      4.150
REMARK INTER + INTRA:          -5.754
REMARK INTER:                  -5.215
REMARK INTRA:                  -0.539
REMARK UNBOUND:                -0.310
REMARK SMILES CC1=CCC[C@H](C)C(=O)C[C@@H](C(C)C)C(=O)C1
REMARK SMILES IDX 8 1 9 2 6 3 7 4 5 5 4 6 3 7 2 8 1 9 10 11 11 12 15 13 16 14
REMARK SMILES IDX 17 15 12 17 13 18 14 19
REMARK H PARENT
REMARK Flexibility Score: 70.00
ROOT
ATOM      1  C   UNL     1     212.760 202.908 216.576  1.00  0.00     0.136 C 
ATOM      2  O   UNL     1     212.614 201.757 216.965  1.00  0.00    -0.299 OA
ENDROOT
BRANCH   1   3
ATOM      3  C   UNL     1     213.329 203.902 217.574  1.00  0.00     0.053 C 
ATOM      4  C   UNL     1     214.853 203.859 217.777  1.00  0.00     0.016 C 
BRANCH   3   5
ATOM      5  C   UNL     1     212.812 205.332 217.300  1.00  0.00     0.015 C 
BRANCH   5   6
ATOM      6  C   UNL     1     213.903 206.349 216.900  1.00  0.00     0.028 C 
BRANCH   6   7
ATOM      7  C   UNL     1     213.487 207.233 215.741  1.00  0.00    -0.028 C 
ATOM      8  C   UNL     1     213.757 207.102 214.411  1.00  0.00    -0.070 CG0
ATOM      9  C   UNL     1     213.169 208.156 213.503  1.00  0.00     0.039 C 
ATOM     10  G   UNL     1     214.496 205.953 213.725  1.00  0.00     0.000 G0
ENDBRANCH   6   7
ENDBRANCH   5   6
ENDBRANCH   3   5
ENDBRANCH   1   3
BRANCH   1  11
ATOM     11  C   UNL     1     212.467 203.198 215.114  1.00  0.00     0.087 C 
BRANCH  11  12
ATOM     12  C   UNL     1     213.695 203.446 214.188  1.00  0.00     0.066 C 
BRANCH  12  13
ATOM     13  C   UNL     1     213.680 204.742 213.377  1.00  0.00     0.140 C 
ATOM     14  O   UNL     1     212.935 204.818 212.411  1.00  0.00    -0.299 OA
BRANCH  13  15
ATOM     15  C   UNL     1     214.506 205.951 213.720  1.00  0.00     0.106 CG0
ATOM     16  G   UNL     1     213.756 207.093 214.405  1.00  0.00     0.000 G0
ENDBRANCH  13  15
ENDBRANCH  12  13
BRANCH  12  17
ATOM     17  C   UNL     1     213.947 202.198 213.279  1.00  0.00    -0.006 C 
ATOM     18  C   UNL     1     214.950 201.198 213.883  1.00  0.00     0.008 C 
ATOM     19  C   UNL     1     212.640 201.473 212.915  1.00  0.00     0.008 C 
ENDBRANCH  12  17
ENDBRANCH  11  12
ENDBRANCH   1  11
TORSDOF 1
ENDMDL
MODEL 9
REMARK VINA RESULT:    -3.509      1.602      2.573
REMARK INTER + INTRA:          -5.666
REMARK INTER:                  -5.123
REMARK INTRA:                  -0.543
REMARK UNBOUND:                -0.310
REMARK SMILES CC1=CCC[C@H](C)C(=O)C[C@@H](C(C)C)C(=O)C1
REMARK SMILES IDX 8 1 9 2 6 3 7 4 5 5 4 6 3 7 2 8 1 9 10 11 11 12 15 13 16 14
REMARK SMILES IDX 17 15 12 17 13 18 14 19
REMARK H PARENT
REMARK Flexibility Score: 70.00
ROOT
ATOM      1  C   UNL     1     214.252 205.238 216.222  1.00  0.00     0.136 C 
ATOM      2  O   UNL     1     213.848 206.200 216.860  1.00  0.00    -0.299 OA
ENDROOT
BRANCH   1   3
ATOM      3  C   UNL     1     214.632 203.999 217.015  1.00  0.00     0.053 C 
ATOM      4  C   UNL     1     215.877 204.125 217.911  1.00  0.00     0.016 C 
BRANCH   3   5
ATOM      5  C   UNL     1     213.417 203.424 217.776  1.00  0.00     0.015 C 
BRANCH   5   6
ATOM      6  C   UNL     1     212.723 202.233 217.080  1.00  0.00     0.028 C 
BRANCH   6   7
ATOM      7  C   UNL     1     213.655 201.458 216.171  1.00  0.00    -0.028 C 
ATOM      8  C   UNL     1     213.649 201.350 214.812  1.00  0.00    -0.070 CG0
ATOM      9  C   UNL     1     214.743 200.506 214.203  1.00  0.00     0.039 C 
ATOM     10  G   UNL     1     212.724 202.071 213.831  1.00  0.00     0.000 G0
ENDBRANCH   6   7
ENDBRANCH   5   6
ENDBRANCH   3   5
ENDBRANCH   1   3
BRANCH   1  11
ATOM     11  C   UNL     1     214.225 205.338 214.706  1.00  0.00     0.087 C 
BRANCH  11  12
ATOM     12  C   UNL     1     212.993 204.716 213.984  1.00  0.00     0.066 C 
BRANCH  12  13
ATOM     13  C   UNL     1     213.223 203.376 213.285  1.00  0.00     0.140 C 
ATOM     14  O   UNL     1     213.873 203.362 212.249  1.00  0.00    -0.299 OA
BRANCH  13  15
ATOM     15  C   UNL     1     212.728 202.060 213.818  1.00  0.00     0.106 CG0
ATOM     16  G   UNL     1     213.656 201.354 214.807  1.00  0.00     0.000 G0
ENDBRANCH  13  15
ENDBRANCH  12  13
BRANCH  12  17
ATOM     17  C   UNL     1     212.345 205.765 213.022  1.00  0.00    -0.006 C 
ATOM     18  C   UNL     1     210.917 205.389 212.584  1.00  0.00     0.008 C 
ATOM     19  C   UNL     1     212.351 207.182 213.621  1.00  0.00     0.008 C 
ENDBRANCH  12  17
ENDBRANCH  11  12
ENDBRANCH   1  11
TORSDOF 1
ENDMDL
