MODEL 1
REMARK VINA RESULT:    -3.903      0.000      0.000
REMARK INTER + INTRA:          -4.705
REMARK INTER:                  -4.702
REMARK INTRA:                  -0.003
REMARK UNBOUND:                -0.003
REMARK SMILES OCC(O)CO
REMARK SMILES IDX 3 1 5 2 6 3 2 5 1 6 4 8
REMARK H PARENT 6 4 1 7 4 9
REMARK Flexibility Score: inf
ROOT
ATOM      1  C   UNL     1      22.085 -34.945 -29.065  1.00  0.00     0.165 C 
ENDROOT
BRANCH   1   2
ATOM      2  C   UNL     1      23.329 -35.002 -28.158  1.00  0.00     0.190 C 
BRANCH   2   3
ATOM      3  O   UNL     1      24.112 -33.847 -28.301  1.00  0.00    -0.394 OA
ATOM      4  H   UNL     1      24.132 -33.636 -29.271  1.00  0.00     0.210 HD
ENDBRANCH   2   3
ENDBRANCH   1   2
BRANCH   1   5
ATOM      5  C   UNL     1      21.774 -36.302 -29.719  1.00  0.00     0.190 C 
BRANCH   5   6
ATOM      6  O   UNL     1      20.482 -36.298 -30.259  1.00  0.00    -0.394 OA
ATOM      7  H   UNL     1      20.516 -36.880 -31.061  1.00  0.00     0.210 HD
ENDBRANCH   5   6
ENDBRANCH   1   5
BRANCH   1   8
ATOM      8  O   UNL     1      22.254 -33.960 -30.054  1.00  0.00    -0.388 OA
ATOM      9  H   UNL     1      23.132 -33.523 -29.894  1.00  0.00     0.211 HD
ENDBRANCH   1   8
TORSDOF 5
ENDMDL
MODEL 2
REMARK VINA RESULT:    -3.840     15.256     15.809
REMARK INTER + INTRA:          -4.628
REMARK INTER:                  -4.624
REMARK INTRA:                  -0.004
REMARK UNBOUND:                -0.003
REMARK SMILES OCC(O)CO
REMARK SMILES IDX 3 1 5 2 6 3 2 5 1 6 4 8
REMARK H PARENT 6 4 1 7 4 9
REMARK Flexibility Score: inf
ROOT
ATOM      1  C   UNL     1      17.694 -20.351 -27.295  1.00  0.00     0.165 C 
ENDROOT
BRANCH   1   2
ATOM      2  C   UNL     1      18.894 -19.385 -27.252  1.00  0.00     0.190 C 
BRANCH   2   3
ATOM      3  O   UNL     1      18.523 -18.141 -26.721  1.00  0.00    -0.394 OA
ATOM      4  H   UNL     1      19.299 -17.535 -26.848  1.00  0.00     0.210 HD
ENDBRANCH   2   3
ENDBRANCH   1   2
BRANCH   1   5
ATOM      5  C   UNL     1      17.136 -20.654 -25.894  1.00  0.00     0.190 C 
BRANCH   5   6
ATOM      6  O   UNL     1      15.928 -21.357 -25.992  1.00  0.00    -0.394 OA
ATOM      7  H   UNL     1      15.703 -21.649 -25.072  1.00  0.00     0.210 HD
ENDBRANCH   5   6
ENDBRANCH   1   5
BRANCH   1   8
ATOM      8  O   UNL     1      18.060 -21.547 -27.938  1.00  0.00    -0.388 OA
ATOM      9  H   UNL     1      17.279 -22.159 -27.900  1.00  0.00     0.211 HD
ENDBRANCH   1   8
TORSDOF 5
ENDMDL
MODEL 3
REMARK VINA RESULT:    -3.839      0.703      3.046
REMARK INTER + INTRA:          -4.628
REMARK INTER:                  -4.624
REMARK INTRA:                  -0.003
REMARK UNBOUND:                -0.003
REMARK SMILES OCC(O)CO
REMARK SMILES IDX 3 1 5 2 6 3 2 5 1 6 4 8
REMARK H PARENT 6 4 1 7 4 9
REMARK Flexibility Score: inf
ROOT
ATOM      1  C   UNL     1      22.748 -35.170 -29.483  1.00  0.00     0.165 C 
ENDROOT
BRANCH   1   2
ATOM      2  C   UNL     1      21.700 -36.296 -29.389  1.00  0.00     0.190 C 
BRANCH   2   3
ATOM      3  O   UNL     1      20.480 -35.810 -28.896  1.00  0.00    -0.394 OA
ATOM      4  H   UNL     1      20.701 -35.151 -28.188  1.00  0.00     0.210 HD
ENDBRANCH   2   3
ENDBRANCH   1   2
BRANCH   1   5
ATOM      5  C   UNL     1      23.382 -34.844 -28.121  1.00  0.00     0.190 C 
BRANCH   5   6
ATOM      6  O   UNL     1      24.120 -33.656 -28.199  1.00  0.00    -0.394 OA
ATOM      7  H   UNL     1      25.039 -33.883 -27.904  1.00  0.00     0.210 HD
ENDBRANCH   5   6
ENDBRANCH   1   5
BRANCH   1   8
ATOM      8  O   UNL     1      22.166 -34.015 -30.034  1.00  0.00    -0.388 OA
ATOM      9  H   UNL     1      22.756 -33.247 -29.812  1.00  0.00     0.211 HD
ENDBRANCH   1   8
TORSDOF 5
ENDMDL
MODEL 4
REMARK VINA RESULT:    -3.829     16.528     17.058
REMARK INTER + INTRA:          -4.615
REMARK INTER:                  -4.396
REMARK INTRA:                  -0.219
REMARK UNBOUND:                -0.003
REMARK SMILES OCC(O)CO
REMARK SMILES IDX 3 1 5 2 6 3 2 5 1 6 4 8
REMARK H PARENT 6 4 1 7 4 9
REMARK Flexibility Score: inf
ROOT
ATOM      1  C   UNL     1      17.095 -18.915 -26.486  1.00  0.00     0.165 C 
ENDROOT
BRANCH   1   2
ATOM      2  C   UNL     1      16.279 -18.311 -25.327  1.00  0.00     0.190 C 
BRANCH   2   3
ATOM      3  O   UNL     1      16.492 -19.019 -24.135  1.00  0.00    -0.394 OA
ATOM      4  H   UNL     1      17.210 -19.679 -24.322  1.00  0.00     0.210 HD
ENDBRANCH   2   3
ENDBRANCH   1   2
BRANCH   1   5
ATOM      5  C   UNL     1      17.289 -20.434 -26.336  1.00  0.00     0.190 C 
BRANCH   5   6
ATOM      6  O   UNL     1      16.060 -21.060 -26.092  1.00  0.00    -0.394 OA
ATOM      7  H   UNL     1      16.275 -21.943 -25.696  1.00  0.00     0.210 HD
ENDBRANCH   5   6
ENDBRANCH   1   5
BRANCH   1   8
ATOM      8  O   UNL     1      18.344 -18.276 -26.581  1.00  0.00    -0.388 OA
ATOM      9  H   UNL     1      18.932 -18.849 -27.141  1.00  0.00     0.211 HD
ENDBRANCH   1   8
TORSDOF 5
ENDMDL
MODEL 5
REMARK VINA RESULT:    -3.818      1.815      2.942
REMARK INTER + INTRA:          -4.602
REMARK INTER:                  -4.398
REMARK INTRA:                  -0.204
REMARK UNBOUND:                -0.003
REMARK SMILES OCC(O)CO
REMARK SMILES IDX 3 1 5 2 6 3 2 5 1 6 4 8
REMARK H PARENT 6 4 1 7 4 9
REMARK Flexibility Score: inf
ROOT
ATOM      1  C   UNL     1      23.211 -36.307 -28.706  1.00  0.00     0.165 C 
ENDROOT
BRANCH   1   2
ATOM      2  C   UNL     1      24.115 -36.692 -27.518  1.00  0.00     0.190 C 
BRANCH   2   3
ATOM      3  O   UNL     1      23.865 -35.874 -26.406  1.00  0.00    -0.394 OA
ATOM      4  H   UNL     1      23.734 -34.954 -26.754  1.00  0.00     0.210 HD
ENDBRANCH   2   3
ENDBRANCH   1   2
BRANCH   1   5
ATOM      5  C   UNL     1      22.916 -34.798 -28.753  1.00  0.00     0.190 C 
BRANCH   5   6
ATOM      6  O   UNL     1      24.083 -34.066 -28.498  1.00  0.00    -0.394 OA
ATOM      7  H   UNL     1      24.332 -34.262 -27.559  1.00  0.00     0.210 HD
ENDBRANCH   5   6
ENDBRANCH   1   5
BRANCH   1   8
ATOM      8  O   UNL     1      22.008 -37.033 -28.649  1.00  0.00    -0.388 OA
ATOM      9  H   UNL     1      22.112 -37.732 -27.951  1.00  0.00     0.211 HD
ENDBRANCH   1   8
TORSDOF 5
ENDMDL
MODEL 6
REMARK VINA RESULT:    -3.775     15.458     16.200
REMARK INTER + INTRA:          -4.550
REMARK INTER:                  -4.547
REMARK INTRA:                  -0.003
REMARK UNBOUND:                -0.003
REMARK SMILES OCC(O)CO
REMARK SMILES IDX 3 1 5 2 6 3 2 5 1 6 4 8
REMARK H PARENT 6 4 1 7 4 9
REMARK Flexibility Score: inf
ROOT
ATOM      1  C   UNL     1      18.043 -20.062 -26.893  1.00  0.00     0.165 C 
ENDROOT
BRANCH   1   2
ATOM      2  C   UNL     1      16.843 -20.024 -25.927  1.00  0.00     0.190 C 
BRANCH   2   3
ATOM      3  O   UNL     1      16.008 -21.135 -26.114  1.00  0.00    -0.394 OA
ATOM      4  H   UNL     1      15.093 -20.850 -25.855  1.00  0.00     0.210 HD
ENDBRANCH   2   3
ENDBRANCH   1   2
BRANCH   1   5
ATOM      5  C   UNL     1      18.257 -18.721 -27.616  1.00  0.00     0.190 C 
BRANCH   5   6
ATOM      6  O   UNL     1      19.466 -18.736 -28.322  1.00  0.00    -0.394 OA
ATOM      7  H   UNL     1      19.809 -17.806 -28.301  1.00  0.00     0.210 HD
ENDBRANCH   5   6
ENDBRANCH   1   5
BRANCH   1   8
ATOM      8  O   UNL     1      17.873 -21.095 -27.832  1.00  0.00    -0.388 OA
ATOM      9  H   UNL     1      18.132 -20.737 -28.721  1.00  0.00     0.211 HD
ENDBRANCH   1   8
TORSDOF 5
ENDMDL
MODEL 7
REMARK VINA RESULT:    -3.691     17.033     17.351
REMARK INTER + INTRA:          -4.449
REMARK INTER:                  -4.225
REMARK INTRA:                  -0.224
REMARK UNBOUND:                -0.003
REMARK SMILES OCC(O)CO
REMARK SMILES IDX 3 1 5 2 6 3 2 5 1 6 4 8
REMARK H PARENT 6 4 1 7 4 9
REMARK Flexibility Score: inf
ROOT
ATOM      1  C   UNL     1      16.576 -18.592 -27.142  1.00  0.00     0.165 C 
ENDROOT
BRANCH   1   2
ATOM      2  C   UNL     1      17.984 -18.228 -27.652  1.00  0.00     0.190 C 
BRANCH   2   3
ATOM      3  O   UNL     1      18.973 -18.658 -26.755  1.00  0.00    -0.394 OA
ATOM      4  H   UNL     1      19.441 -17.843 -26.436  1.00  0.00     0.210 HD
ENDBRANCH   2   3
ENDBRANCH   1   2
BRANCH   1   5
ATOM      5  C   UNL     1      16.407 -18.312 -25.639  1.00  0.00     0.190 C 
BRANCH   5   6
ATOM      6  O   UNL     1      16.839 -19.412 -24.887  1.00  0.00    -0.394 OA
ATOM      7  H   UNL     1      16.061 -19.694 -24.339  1.00  0.00     0.210 HD
ENDBRANCH   5   6
ENDBRANCH   1   5
BRANCH   1   8
ATOM      8  O   UNL     1      16.299 -19.943 -27.416  1.00  0.00    -0.388 OA
ATOM      9  H   UNL     1      15.570 -20.229 -26.805  1.00  0.00     0.211 HD
ENDBRANCH   1   8
TORSDOF 5
ENDMDL
MODEL 8
REMARK VINA RESULT:    -3.662     16.216     16.921
REMARK INTER + INTRA:          -4.414
REMARK INTER:                  -4.409
REMARK INTRA:                  -0.005
REMARK UNBOUND:                -0.003
REMARK SMILES OCC(O)CO
REMARK SMILES IDX 3 1 5 2 6 3 2 5 1 6 4 8
REMARK H PARENT 6 4 1 7 4 9
REMARK Flexibility Score: inf
ROOT
ATOM      1  C   UNL     1      17.130 -18.991 -26.499  1.00  0.00     0.165 C 
ENDROOT
BRANCH   1   2
ATOM      2  C   UNL     1      17.135 -20.366 -25.803  1.00  0.00     0.190 C 
BRANCH   2   3
ATOM      3  O   UNL     1      15.989 -21.104 -26.134  1.00  0.00    -0.394 OA
ATOM      4  H   UNL     1      16.076 -21.983 -25.679  1.00  0.00     0.210 HD
ENDBRANCH   2   3
ENDBRANCH   1   2
BRANCH   1   5
ATOM      5  C   UNL     1      18.368 -18.779 -27.387  1.00  0.00     0.190 C 
BRANCH   5   6
ATOM      6  O   UNL     1      19.539 -18.984 -26.647  1.00  0.00    -0.394 OA
ATOM      7  H   UNL     1      19.269 -19.489 -25.837  1.00  0.00     0.210 HD
ENDBRANCH   5   6
ENDBRANCH   1   5
BRANCH   1   8
ATOM      8  O   UNL     1      17.043 -17.967 -25.539  1.00  0.00    -0.388 OA
ATOM      9  H   UNL     1      17.453 -18.306 -24.701  1.00  0.00     0.211 HD
ENDBRANCH   1   8
TORSDOF 5
ENDMDL
MODEL 9
REMARK VINA RESULT:    -3.661      1.670      2.194
REMARK INTER + INTRA:          -4.413
REMARK INTER:                  -4.191
REMARK INTRA:                  -0.222
REMARK UNBOUND:                -0.003
REMARK SMILES OCC(O)CO
REMARK SMILES IDX 3 1 5 2 6 3 2 5 1 6 4 8
REMARK H PARENT 6 4 1 7 4 9
REMARK Flexibility Score: inf
ROOT
ATOM      1  C   UNL     1      23.173 -34.930 -28.178  1.00  0.00     0.165 C 
ENDROOT
BRANCH   1   2
ATOM      2  C   UNL     1      23.853 -36.296 -27.965  1.00  0.00     0.190 C 
BRANCH   2   3
ATOM      3  O   UNL     1      22.937 -37.347 -28.120  1.00  0.00    -0.394 OA
ATOM      4  H   UNL     1      23.465 -38.151 -28.363  1.00  0.00     0.210 HD
ENDBRANCH   2   3
ENDBRANCH   1   2
BRANCH   1   5
ATOM      5  C   UNL     1      22.147 -34.958 -29.323  1.00  0.00     0.190 C 
BRANCH   5   6
ATOM      6  O   UNL     1      20.909 -35.420 -28.856  1.00  0.00    -0.394 OA
ATOM      7  H   UNL     1      21.065 -35.732 -27.928  1.00  0.00     0.210 HD
ENDBRANCH   5   6
ENDBRANCH   1   5
BRANCH   1   8
ATOM      8  O   UNL     1      24.144 -33.942 -28.423  1.00  0.00    -0.388 OA
ATOM      9  H   UNL     1      24.209 -33.378 -27.607  1.00  0.00     0.211 HD
ENDBRANCH   1   8
TORSDOF 5
ENDMDL
