MODEL 1
REMARK VINA RESULT:    -3.960      0.000      0.000
REMARK INTER + INTRA:          -4.326
REMARK INTER:                  -4.307
REMARK INTRA:                  -0.019
REMARK UNBOUND:                -0.019
REMARK SMILES OCc1ccco1
REMARK SMILES IDX 2 1 3 2 5 3 6 4 4 5 7 6 1 7
REMARK H PARENT 1 8
REMARK Flexibility Score: inf
ROOT
ATOM      1  C   UNL     1     -33.462  46.219  36.501  1.00  0.00     0.231 C 
ENDROOT
BRANCH   1   2
ATOM      2  C   UNL     1     -33.553  45.234  37.622  1.00  0.00     0.129 A 
ATOM      3  C   UNL     1     -33.231  44.178  39.521  1.00  0.00     0.042 A 
ATOM      4  C   UNL     1     -34.248  43.593  38.791  1.00  0.00     0.195 A 
ATOM      5  C   UNL     1     -32.784  45.242  38.767  1.00  0.00     0.048 A 
ATOM      6  O   UNL     1     -34.418  44.247  37.665  1.00  0.00    -0.467 OA
ENDBRANCH   1   2
BRANCH   1   7
ATOM      7  O   UNL     1     -34.744  46.655  36.140  1.00  0.00    -0.388 OA
ATOM      8  H   UNL     1     -34.754  47.640  36.267  1.00  0.00     0.211 HD
ENDBRANCH   1   7
TORSDOF 2
ENDMDL
MODEL 2
REMARK VINA RESULT:    -3.948     14.340     15.783
REMARK INTER + INTRA:          -4.313
REMARK INTER:                  -4.291
REMARK INTRA:                  -0.022
REMARK UNBOUND:                -0.019
REMARK SMILES OCc1ccco1
REMARK SMILES IDX 2 1 3 2 5 3 6 4 4 5 7 6 1 7
REMARK H PARENT 1 8
REMARK Flexibility Score: inf
ROOT
ATOM      1  C   UNL     1     -41.835  37.217  50.848  1.00  0.00     0.231 C 
ENDROOT
BRANCH   1   2
ATOM      2  C   UNL     1     -41.138  37.166  49.527  1.00  0.00     0.129 A 
ATOM      3  C   UNL     1     -40.169  36.452  47.689  1.00  0.00     0.042 A 
ATOM      4  C   UNL     1     -40.270  37.830  47.696  1.00  0.00     0.195 A 
ATOM      5  C   UNL     1     -40.734  36.022  48.871  1.00  0.00     0.048 A 
ATOM      6  O   UNL     1     -40.855  38.225  48.803  1.00  0.00    -0.467 OA
ENDBRANCH   1   2
BRANCH   1   7
ATOM      7  O   UNL     1     -42.267  38.523  51.113  1.00  0.00    -0.388 OA
ATOM      8  H   UNL     1     -41.542  38.962  51.630  1.00  0.00     0.211 HD
ENDBRANCH   1   7
TORSDOF 2
ENDMDL
MODEL 3
REMARK VINA RESULT:    -3.908     13.700     14.979
REMARK INTER + INTRA:          -4.269
REMARK INTER:                  -4.255
REMARK INTRA:                  -0.014
REMARK UNBOUND:                -0.019
REMARK SMILES OCc1ccco1
REMARK SMILES IDX 2 1 3 2 5 3 6 4 4 5 7 6 1 7
REMARK H PARENT 1 8
REMARK Flexibility Score: inf
ROOT
ATOM      1  C   UNL     1     -40.327  38.438  47.151  1.00  0.00     0.231 C 
ENDROOT
BRANCH   1   2
ATOM      2  C   UNL     1     -40.667  37.507  48.270  1.00  0.00     0.129 A 
ATOM      3  C   UNL     1     -40.859  35.717  49.529  1.00  0.00     0.042 A 
ATOM      4  C   UNL     1     -41.373  36.831  50.165  1.00  0.00     0.195 A 
ATOM      5  C   UNL     1     -40.399  36.154  48.305  1.00  0.00     0.048 A 
ATOM      6  O   UNL     1     -41.241  37.883  49.390  1.00  0.00    -0.467 OA
ENDBRANCH   1   2
BRANCH   1   7
ATOM      7  O   UNL     1     -41.497  38.875  46.516  1.00  0.00    -0.388 OA
ATOM      8  H   UNL     1     -41.774  38.147  45.901  1.00  0.00     0.211 HD
ENDBRANCH   1   7
TORSDOF 2
ENDMDL
MODEL 4
REMARK VINA RESULT:    -3.897      1.887      2.146
REMARK INTER + INTRA:          -4.257
REMARK INTER:                  -4.243
REMARK INTRA:                  -0.015
REMARK UNBOUND:                -0.019
REMARK SMILES OCc1ccco1
REMARK SMILES IDX 2 1 3 2 5 3 6 4 4 5 7 6 1 7
REMARK H PARENT 1 8
REMARK Flexibility Score: inf
ROOT
ATOM      1  C   UNL     1     -31.907  45.799  37.195  1.00  0.00     0.231 C 
ENDROOT
BRANCH   1   2
ATOM      2  C   UNL     1     -33.041  45.512  38.125  1.00  0.00     0.129 A 
ATOM      3  C   UNL     1     -34.235  44.788  39.822  1.00  0.00     0.042 A 
ATOM      4  C   UNL     1     -34.996  45.568  38.974  1.00  0.00     0.195 A 
ATOM      5  C   UNL     1     -32.969  44.754  39.276  1.00  0.00     0.048 A 
ATOM      6  O   UNL     1     -34.256  45.988  37.974  1.00  0.00    -0.467 OA
ENDBRANCH   1   2
BRANCH   1   7
ATOM      7  O   UNL     1     -30.990  44.740  37.213  1.00  0.00    -0.388 OA
ATOM      8  H   UNL     1     -31.039  44.307  36.321  1.00  0.00     0.211 HD
ENDBRANCH   1   7
TORSDOF 2
ENDMDL
MODEL 5
REMARK VINA RESULT:    -3.864     13.243     14.558
REMARK INTER + INTRA:          -4.221
REMARK INTER:                  -4.205
REMARK INTRA:                  -0.017
REMARK UNBOUND:                -0.019
REMARK SMILES OCc1ccco1
REMARK SMILES IDX 2 1 3 2 5 3 6 4 4 5 7 6 1 7
REMARK H PARENT 1 8
REMARK Flexibility Score: inf
ROOT
ATOM      1  C   UNL     1     -39.426  38.561  47.108  1.00  0.00     0.231 C 
ENDROOT
BRANCH   1   2
ATOM      2  C   UNL     1     -40.194  37.723  48.079  1.00  0.00     0.129 A 
ATOM      3  C   UNL     1     -41.062  36.013  49.150  1.00  0.00     0.042 A 
ATOM      4  C   UNL     1     -41.390  37.205  49.766  1.00  0.00     0.195 A 
ATOM      5  C   UNL     1     -40.285  36.346  48.062  1.00  0.00     0.048 A 
ATOM      6  O   UNL     1     -40.856  38.206  49.105  1.00  0.00    -0.467 OA
ENDBRANCH   1   2
BRANCH   1   7
ATOM      7  O   UNL     1     -38.437  39.291  47.780  1.00  0.00    -0.388 OA
ATOM      8  H   UNL     1     -38.275  38.823  48.641  1.00  0.00     0.211 HD
ENDBRANCH   1   7
TORSDOF 2
ENDMDL
MODEL 6
REMARK VINA RESULT:    -3.859      1.242      2.886
REMARK INTER + INTRA:          -4.216
REMARK INTER:                  -4.202
REMARK INTRA:                  -0.014
REMARK UNBOUND:                -0.019
REMARK SMILES OCc1ccco1
REMARK SMILES IDX 2 1 3 2 5 3 6 4 4 5 7 6 1 7
REMARK H PARENT 1 8
REMARK Flexibility Score: inf
ROOT
ATOM      1  C   UNL     1     -34.747  44.565  39.450  1.00  0.00     0.231 C 
ENDROOT
BRANCH   1   2
ATOM      2  C   UNL     1     -33.872  45.199  38.417  1.00  0.00     0.129 A 
ATOM      3  C   UNL     1     -32.123  45.844  37.254  1.00  0.00     0.042 A 
ATOM      4  C   UNL     1     -33.298  46.253  36.654  1.00  0.00     0.195 A 
ATOM      5  C   UNL     1     -32.493  45.159  38.392  1.00  0.00     0.048 A 
ATOM      6  O   UNL     1     -34.323  45.850  37.369  1.00  0.00    -0.467 OA
ENDBRANCH   1   2
BRANCH   1   7
ATOM      7  O   UNL     1     -35.128  43.283  39.035  1.00  0.00    -0.388 OA
ATOM      8  H   UNL     1     -36.028  43.116  39.420  1.00  0.00     0.211 HD
ENDBRANCH   1   7
TORSDOF 2
ENDMDL
MODEL 7
REMARK VINA RESULT:    -3.753      1.701      3.133
REMARK INTER + INTRA:          -4.101
REMARK INTER:                  -4.089
REMARK INTRA:                  -0.013
REMARK UNBOUND:                -0.019
REMARK SMILES OCc1ccco1
REMARK SMILES IDX 2 1 3 2 5 3 6 4 4 5 7 6 1 7
REMARK H PARENT 1 8
REMARK Flexibility Score: inf
ROOT
ATOM      1  C   UNL     1     -34.438  44.344  39.534  1.00  0.00     0.231 C 
ENDROOT
BRANCH   1   2
ATOM      2  C   UNL     1     -33.734  45.049  38.419  1.00  0.00     0.129 A 
ATOM      3  C   UNL     1     -33.310  46.253  36.632  1.00  0.00     0.042 A 
ATOM      4  C   UNL     1     -32.142  45.821  37.230  1.00  0.00     0.195 A 
ATOM      5  C   UNL     1     -34.340  45.758  37.402  1.00  0.00     0.048 A 
ATOM      6  O   UNL     1     -32.428  45.108  38.295  1.00  0.00    -0.467 OA
ENDBRANCH   1   2
BRANCH   1   7
ATOM      7  O   UNL     1     -35.149  43.245  39.034  1.00  0.00    -0.388 OA
ATOM      8  H   UNL     1     -35.943  43.131  39.619  1.00  0.00     0.211 HD
ENDBRANCH   1   7
TORSDOF 2
ENDMDL
MODEL 8
REMARK VINA RESULT:    -3.617     11.561     13.111
REMARK INTER + INTRA:          -3.953
REMARK INTER:                  -3.932
REMARK INTRA:                  -0.021
REMARK UNBOUND:                -0.019
REMARK SMILES OCc1ccco1
REMARK SMILES IDX 2 1 3 2 5 3 6 4 4 5 7 6 1 7
REMARK H PARENT 1 8
REMARK Flexibility Score: inf
ROOT
ATOM      1  C   UNL     1     -39.633  37.833  48.908  1.00  0.00     0.231 C 
ENDROOT
BRANCH   1   2
ATOM      2  C   UNL     1     -39.472  38.355  47.517  1.00  0.00     0.129 A 
ATOM      3  C   UNL     1     -39.885  39.110  45.495  1.00  0.00     0.042 A 
ATOM      4  C   UNL     1     -38.529  39.112  45.761  1.00  0.00     0.195 A 
ATOM      5  C   UNL     1     -40.496  38.624  46.632  1.00  0.00     0.048 A 
ATOM      6  O   UNL     1     -38.315  38.659  46.974  1.00  0.00    -0.467 OA
ENDBRANCH   1   2
BRANCH   1   7
ATOM      7  O   UNL     1     -38.477  38.094  49.656  1.00  0.00    -0.388 OA
ATOM      8  H   UNL     1     -38.303  39.068  49.578  1.00  0.00     0.211 HD
ENDBRANCH   1   7
TORSDOF 2
ENDMDL
MODEL 9
REMARK VINA RESULT:    -3.613      2.329      3.339
REMARK INTER + INTRA:          -3.949
REMARK INTER:                  -3.932
REMARK INTRA:                  -0.017
REMARK UNBOUND:                -0.019
REMARK SMILES OCc1ccco1
REMARK SMILES IDX 2 1 3 2 5 3 6 4 4 5 7 6 1 7
REMARK H PARENT 1 8
REMARK Flexibility Score: inf
ROOT
ATOM      1  C   UNL     1     -34.357  44.108  38.626  1.00  0.00     0.231 C 
ENDROOT
BRANCH   1   2
ATOM      2  C   UNL     1     -34.277  43.334  39.902  1.00  0.00     0.129 A 
ATOM      3  C   UNL     1     -34.735  42.483  41.875  1.00  0.00     0.042 A 
ATOM      4  C   UNL     1     -33.561  41.961  41.368  1.00  0.00     0.195 A 
ATOM      5  C   UNL     1     -35.201  43.368  40.926  1.00  0.00     0.048 A 
ATOM      6  O   UNL     1     -33.316  42.486  40.189  1.00  0.00    -0.467 OA
ENDBRANCH   1   2
BRANCH   1   7
ATOM      7  O   UNL     1     -34.399  43.230  37.534  1.00  0.00    -0.388 OA
ATOM      8  H   UNL     1     -34.468  43.794  36.720  1.00  0.00     0.211 HD
ENDBRANCH   1   7
TORSDOF 2
ENDMDL
