MODEL 1
REMARK VINA RESULT:     2.668      0.000      0.000
REMARK INTER + INTRA:           2.920
REMARK INTER:                   3.292
REMARK INTRA:                  -0.372
REMARK UNBOUND:                -0.372
REMARK SMILES Oc1cc(O)c2cc(O)c(-c3cc(O)c(O)c(O)c3)[o+]c2c1
REMARK SMILES IDX 10 1 20 2 21 3 22 4 2 5 3 6 4 7 6 8 7 9 8 10 11 11 12 12
REMARK SMILES IDX 13 13 19 14 15 15 17 16 14 17 16 19 18 21 9 23 1 25 5 27
REMARK H PARENT 14 18 16 20 18 22 9 24 1 26 5 28
REMARK Flexibility Score: inf
ROOT
ATOM      1  C   UNL     1      20.061  12.215  -9.114  1.00  0.00     0.402 A 
ATOM      2  O   UNL     1      19.707  11.622  -7.976  1.00  0.00    -0.202 OA
ATOM      3  C   UNL     1      20.319  10.547  -7.493  1.00  0.00     0.368 A 
ATOM      4  C   UNL     1      19.876   9.997  -6.286  1.00  0.00     0.162 A 
ATOM      5  C   UNL     1      20.504   8.868  -5.754  1.00  0.00     0.128 A 
ATOM      6  C   UNL     1      21.579   8.285  -6.429  1.00  0.00     0.093 A 
ATOM      7  C   UNL     1      22.041   8.817  -7.639  1.00  0.00     0.136 A 
ATOM      8  C   UNL     1      21.407   9.963  -8.186  1.00  0.00     0.125 A 
ATOM      9  C   UNL     1      21.793  10.555  -9.399  1.00  0.00     0.078 A 
ATOM     10  C   UNL     1      21.116  11.681  -9.877  1.00  0.00     0.223 A 
ENDROOT
BRANCH   1  11
ATOM     11  C   UNL     1      19.307  13.415  -9.543  1.00  0.00     0.091 A 
ATOM     12  C   UNL     1      18.043  13.262 -10.131  1.00  0.00     0.068 A 
ATOM     13  C   UNL     1      17.299  14.381 -10.529  1.00  0.00     0.162 A 
ATOM     14  C   UNL     1      19.806  14.710  -9.322  1.00  0.00     0.068 A 
ATOM     15  C   UNL     1      17.815  15.673 -10.324  1.00  0.00     0.200 A 
ATOM     16  C   UNL     1      19.066  15.834  -9.716  1.00  0.00     0.162 A 
BRANCH  13  17
ATOM     17  O   UNL     1      16.050  14.216 -11.125  1.00  0.00    -0.504 OA
ATOM     18  H   UNL     1      15.270  14.823 -10.901  1.00  0.00     0.293 HD
ENDBRANCH  13  17
BRANCH  15  19
ATOM     19  O   UNL     1      17.095  16.802 -10.712  1.00  0.00    -0.502 OA
ATOM     20  H   UNL     1      16.957  17.046 -11.686  1.00  0.00     0.293 HD
ENDBRANCH  15  19
BRANCH  16  21
ATOM     21  O   UNL     1      19.568  17.117  -9.501  1.00  0.00    -0.504 OA
ATOM     22  H   UNL     1      19.101  17.938  -9.871  1.00  0.00     0.293 HD
ENDBRANCH  16  21
ENDBRANCH   1  11
BRANCH  10  23
ATOM     23  O   UNL     1      21.468  12.240 -11.106  1.00  0.00    -0.500 OA
ATOM     24  H   UNL     1      21.677  11.664 -11.913  1.00  0.00     0.294 HD
ENDBRANCH  10  23
BRANCH   5  25
ATOM     25  O   UNL     1      20.068   8.314  -4.552  1.00  0.00    -0.507 OA
ATOM     26  H   UNL     1      20.722   7.996  -3.847  1.00  0.00     0.293 HD
ENDBRANCH   5  25
BRANCH   7  27
ATOM     27  O   UNL     1      23.125   8.178  -8.251  1.00  0.00    -0.507 OA
ATOM     28  H   UNL     1      23.084   7.725  -9.152  1.00  0.00     0.293 HD
ENDBRANCH   7  27
TORSDOF 7
ENDMDL
MODEL 2
REMARK VINA RESULT:     4.339      2.637      7.539
REMARK INTER + INTRA:           4.981
REMARK INTER:                   5.346
REMARK INTRA:                  -0.365
REMARK UNBOUND:                -0.372
REMARK SMILES Oc1cc(O)c2cc(O)c(-c3cc(O)c(O)c(O)c3)[o+]c2c1
REMARK SMILES IDX 10 1 20 2 21 3 22 4 2 5 3 6 4 7 6 8 7 9 8 10 11 11 12 12
REMARK SMILES IDX 13 13 19 14 15 15 17 16 14 17 16 19 18 21 9 23 1 25 5 27
REMARK H PARENT 14 18 16 20 18 22 9 24 1 26 5 28
REMARK Flexibility Score: inf
ROOT
ATOM      1  C   UNL     1      20.512   9.715  -6.774  1.00  0.00     0.402 A 
ATOM      2  O   UNL     1      19.250   9.788  -7.190  1.00  0.00    -0.202 OA
ATOM      3  C   UNL     1      18.881  10.433  -8.291  1.00  0.00     0.368 A 
ATOM      4  C   UNL     1      17.530  10.450  -8.649  1.00  0.00     0.162 A 
ATOM      5  C   UNL     1      17.114  11.118  -9.804  1.00  0.00     0.128 A 
ATOM      6  C   UNL     1      18.053  11.772 -10.606  1.00  0.00     0.093 A 
ATOM      7  C   UNL     1      19.412  11.770 -10.269  1.00  0.00     0.136 A 
ATOM      8  C   UNL     1      19.840  11.095  -9.096  1.00  0.00     0.125 A 
ATOM      9  C   UNL     1      21.178  11.051  -8.674  1.00  0.00     0.078 A 
ATOM     10  C   UNL     1      21.523  10.369  -7.503  1.00  0.00     0.223 A 
ENDROOT
BRANCH   1  11
ATOM     11  C   UNL     1      20.798   8.958  -5.535  1.00  0.00     0.091 A 
ATOM     12  C   UNL     1      20.872   9.638  -4.310  1.00  0.00     0.068 A 
ATOM     13  C   UNL     1      21.122   8.943  -3.119  1.00  0.00     0.162 A 
ATOM     14  C   UNL     1      20.943   7.560  -5.549  1.00  0.00     0.068 A 
ATOM     15  C   UNL     1      21.287   7.548  -3.146  1.00  0.00     0.200 A 
ATOM     16  C   UNL     1      21.192   6.859  -4.361  1.00  0.00     0.162 A 
BRANCH  13  17
ATOM     17  O   UNL     1      21.207   9.633  -1.912  1.00  0.00    -0.504 OA
ATOM     18  H   UNL     1      20.540  10.355  -1.664  1.00  0.00     0.293 HD
ENDBRANCH  13  17
BRANCH  15  19
ATOM     19  O   UNL     1      21.539   6.834  -1.975  1.00  0.00    -0.502 OA
ATOM     20  H   UNL     1      21.412   7.242  -1.056  1.00  0.00     0.293 HD
ENDBRANCH  15  19
BRANCH  16  21
ATOM     21  O   UNL     1      21.341   5.472  -4.380  1.00  0.00    -0.504 OA
ATOM     22  H   UNL     1      20.695   4.862  -3.893  1.00  0.00     0.293 HD
ENDBRANCH  16  21
ENDBRANCH   1  11
BRANCH  10  23
ATOM     23  O   UNL     1      22.845  10.367  -7.057  1.00  0.00    -0.500 OA
ATOM     24  H   UNL     1      23.421   9.536  -7.101  1.00  0.00     0.294 HD
ENDBRANCH  10  23
BRANCH   5  25
ATOM     25  O   UNL     1      15.769  11.139 -10.167  1.00  0.00    -0.507 OA
ATOM     26  H   UNL     1      15.038  10.915  -9.502  1.00  0.00     0.293 HD
ENDBRANCH   5  25
BRANCH   7  27
ATOM     27  O   UNL     1      20.289  12.445 -11.125  1.00  0.00    -0.507 OA
ATOM     28  H   UNL     1      21.215  12.752 -10.866  1.00  0.00     0.293 HD
ENDBRANCH   7  27
TORSDOF 7
ENDMDL
MODEL 3
REMARK VINA RESULT:     4.394      2.637      7.402
REMARK INTER + INTRA:           5.050
REMARK INTER:                   5.414
REMARK INTRA:                  -0.364
REMARK UNBOUND:                -0.372
REMARK SMILES Oc1cc(O)c2cc(O)c(-c3cc(O)c(O)c(O)c3)[o+]c2c1
REMARK SMILES IDX 10 1 20 2 21 3 22 4 2 5 3 6 4 7 6 8 7 9 8 10 11 11 12 12
REMARK SMILES IDX 13 13 19 14 15 15 17 16 14 17 16 19 18 21 9 23 1 25 5 27
REMARK H PARENT 14 18 16 20 18 22 9 24 1 26 5 28
REMARK Flexibility Score: inf
ROOT
ATOM      1  C   UNL     1      20.507   9.748  -6.745  1.00  0.00     0.402 A 
ATOM      2  O   UNL     1      19.250   9.827  -7.174  1.00  0.00    -0.202 OA
ATOM      3  C   UNL     1      18.897  10.464  -8.285  1.00  0.00     0.368 A 
ATOM      4  C   UNL     1      17.549  10.489  -8.656  1.00  0.00     0.162 A 
ATOM      5  C   UNL     1      17.151  11.149  -9.821  1.00  0.00     0.128 A 
ATOM      6  C   UNL     1      18.103  11.787 -10.620  1.00  0.00     0.093 A 
ATOM      7  C   UNL     1      19.459  11.777 -10.270  1.00  0.00     0.136 A 
ATOM      8  C   UNL     1      19.869  11.110  -9.087  1.00  0.00     0.125 A 
ATOM      9  C   UNL     1      21.203  11.060  -8.652  1.00  0.00     0.078 A 
ATOM     10  C   UNL     1      21.531  10.386  -7.471  1.00  0.00     0.223 A 
ENDROOT
BRANCH   1  11
ATOM     11  C   UNL     1      20.775   9.001  -5.496  1.00  0.00     0.091 A 
ATOM     12  C   UNL     1      20.973   7.613  -5.551  1.00  0.00     0.068 A 
ATOM     13  C   UNL     1      21.248   6.882  -4.387  1.00  0.00     0.162 A 
ATOM     14  C   UNL     1      20.894   9.659  -4.260  1.00  0.00     0.068 A 
ATOM     15  C   UNL     1      21.343   7.546  -3.152  1.00  0.00     0.200 A 
ATOM     16  C   UNL     1      21.170   8.935  -3.092  1.00  0.00     0.162 A 
BRANCH  13  17
ATOM     17  O   UNL     1      21.428   5.502  -4.453  1.00  0.00    -0.504 OA
ATOM     18  H   UNL     1      20.653   4.859  -4.341  1.00  0.00     0.293 HD
ENDBRANCH  13  17
BRANCH  15  19
ATOM     19  O   UNL     1      21.615   6.842  -1.979  1.00  0.00    -0.502 OA
ATOM     20  H   UNL     1      21.166   7.066  -1.099  1.00  0.00     0.293 HD
ENDBRANCH  15  19
BRANCH  16  21
ATOM     21  O   UNL     1      21.280   9.591  -1.867  1.00  0.00    -0.504 OA
ATOM     22  H   UNL     1      20.921   9.181  -1.012  1.00  0.00     0.293 HD
ENDBRANCH  16  21
ENDBRANCH   1  11
BRANCH  10  23
ATOM     23  O   UNL     1      22.849  10.378  -7.012  1.00  0.00    -0.500 OA
ATOM     24  H   UNL     1      23.070  10.465  -6.028  1.00  0.00     0.294 HD
ENDBRANCH  10  23
BRANCH   5  25
ATOM     25  O   UNL     1      15.809  11.177 -10.197  1.00  0.00    -0.507 OA
ATOM     26  H   UNL     1      15.092  11.531  -9.575  1.00  0.00     0.293 HD
ENDBRANCH   5  25
BRANCH   7  27
ATOM     27  O   UNL     1      20.348  12.436 -11.125  1.00  0.00    -0.507 OA
ATOM     28  H   UNL     1      20.943  13.203 -10.847  1.00  0.00     0.293 HD
ENDBRANCH   7  27
TORSDOF 7
ENDMDL
MODEL 4
REMARK VINA RESULT:     4.512      2.800      5.086
REMARK INTER + INTRA:           5.195
REMARK INTER:                   5.151
REMARK INTRA:                   0.044
REMARK UNBOUND:                -0.372
REMARK SMILES Oc1cc(O)c2cc(O)c(-c3cc(O)c(O)c(O)c3)[o+]c2c1
REMARK SMILES IDX 10 1 20 2 21 3 22 4 2 5 3 6 4 7 6 8 7 9 8 10 11 11 12 12
REMARK SMILES IDX 13 13 19 14 15 15 17 16 14 17 16 19 18 21 9 23 1 25 5 27
REMARK H PARENT 14 18 16 20 18 22 9 24 1 26 5 28
REMARK Flexibility Score: inf
ROOT
ATOM      1  C   UNL     1      20.895   9.172  -6.364  1.00  0.00     0.402 A 
ATOM      2  O   UNL     1      21.504   7.990  -6.414  1.00  0.00    -0.202 OA
ATOM      3  C   UNL     1      21.655   7.201  -5.356  1.00  0.00     0.368 A 
ATOM      4  C   UNL     1      22.307   5.974  -5.510  1.00  0.00     0.162 A 
ATOM      5  C   UNL     1      22.476   5.123  -4.414  1.00  0.00     0.128 A 
ATOM      6  C   UNL     1      21.992   5.500  -3.159  1.00  0.00     0.093 A 
ATOM      7  C   UNL     1      21.335   6.724  -2.979  1.00  0.00     0.136 A 
ATOM      8  C   UNL     1      21.162   7.593  -4.087  1.00  0.00     0.125 A 
ATOM      9  C   UNL     1      20.529   8.843  -3.998  1.00  0.00     0.078 A 
ATOM     10  C   UNL     1      20.400   9.647  -5.134  1.00  0.00     0.223 A 
ENDROOT
BRANCH   1  11
ATOM     11  C   UNL     1      20.780   9.955  -7.614  1.00  0.00     0.091 A 
ATOM     12  C   UNL     1      19.576  10.612  -7.910  1.00  0.00     0.068 A 
ATOM     13  C   UNL     1      19.446  11.377  -9.077  1.00  0.00     0.162 A 
ATOM     14  C   UNL     1      21.871  10.103  -8.488  1.00  0.00     0.068 A 
ATOM     15  C   UNL     1      20.536  11.501  -9.956  1.00  0.00     0.200 A 
ATOM     16  C   UNL     1      21.748  10.867  -9.656  1.00  0.00     0.162 A 
BRANCH  13  17
ATOM     17  O   UNL     1      18.241  12.013  -9.366  1.00  0.00    -0.504 OA
ATOM     18  H   UNL     1      18.176  13.023  -9.433  1.00  0.00     0.293 HD
ENDBRANCH  13  17
BRANCH  15  19
ATOM     19  O   UNL     1      20.431  12.255 -11.125  1.00  0.00    -0.502 OA
ATOM     20  H   UNL     1      20.463  13.268 -11.118  1.00  0.00     0.293 HD
ENDBRANCH  15  19
BRANCH  16  21
ATOM     21  O   UNL     1      22.831  11.006 -10.524  1.00  0.00    -0.504 OA
ATOM     22  H   UNL     1      23.339  10.201 -10.871  1.00  0.00     0.293 HD
ENDBRANCH  16  21
ENDBRANCH   1  11
BRANCH  10  23
ATOM     23  O   UNL     1      19.815  10.910  -5.035  1.00  0.00    -0.500 OA
ATOM     24  H   UNL     1      20.260  11.664  -4.526  1.00  0.00     0.294 HD
ENDBRANCH  10  23
BRANCH   5  25
ATOM     25  O   UNL     1      23.125   3.899  -4.560  1.00  0.00    -0.507 OA
ATOM     26  H   UNL     1      23.061   3.178  -3.851  1.00  0.00     0.293 HD
ENDBRANCH   5  25
BRANCH   7  27
ATOM     27  O   UNL     1      20.878   7.025  -1.692  1.00  0.00    -0.507 OA
ATOM     28  H   UNL     1      21.398   7.560  -1.013  1.00  0.00     0.293 HD
ENDBRANCH   7  27
TORSDOF 7
ENDMDL
