MODEL 1
REMARK VINA RESULT:    -5.071      0.000      0.000
REMARK INTER + INTRA:          -5.701
REMARK INTER:                  -5.515
REMARK INTRA:                  -0.186
REMARK UNBOUND:                -0.186
REMARK SMILES CC1=CC[C@H](C(C)(C)O)CC1
REMARK SMILES IDX 6 1 7 2 8 3 5 4 1 5 2 6 3 7 11 8 4 9 10 10 9 11
REMARK H PARENT 9 12
REMARK Flexibility Score: inf
ROOT
ATOM      1  C   UNL     1      38.729 -40.251  -3.829  1.00  0.00     0.062 C 
ATOM      2  C   UNL     1      37.564 -40.861  -4.644  1.00  0.00     0.042 C 
ATOM      3  C   UNL     1      38.751 -38.718  -4.025  1.00  0.00     0.042 C 
ENDROOT
BRANCH   1   4
ATOM      4  C   UNL     1      40.117 -40.866  -4.221  1.00  0.00     0.024 C 
ATOM      5  C   UNL     1      44.010 -42.045  -5.556  1.00  0.00     0.039 C 
ATOM      6  C   UNL     1      42.718 -41.302  -5.355  1.00  0.00    -0.077 C 
ATOM      7  C   UNL     1      41.618 -41.669  -6.033  1.00  0.00    -0.028 C 
ATOM      8  C   UNL     1      42.627 -40.139  -4.393  1.00  0.00     0.031 C 
ATOM      9  C   UNL     1      40.316 -40.972  -5.753  1.00  0.00     0.034 C 
ATOM     10  C   UNL     1      41.350 -40.202  -3.522  1.00  0.00     0.011 C 
ENDBRANCH   1   4
BRANCH   1  11
ATOM     11  O   UNL     1      38.518 -40.520  -2.460  1.00  0.00    -0.390 OA
ATOM     12  H   UNL     1      38.587 -39.666  -1.958  1.00  0.00     0.211 HD
ENDBRANCH   1  11
TORSDOF 2
ENDMDL
MODEL 2
REMARK VINA RESULT:    -4.428      1.937      4.281
REMARK INTER + INTRA:          -5.003
REMARK INTER:                  -4.811
REMARK INTRA:                  -0.191
REMARK UNBOUND:                -0.186
REMARK SMILES CC1=CC[C@H](C(C)(C)O)CC1
REMARK SMILES IDX 6 1 7 2 8 3 5 4 1 5 2 6 3 7 11 8 4 9 10 10 9 11
REMARK H PARENT 9 12
REMARK Flexibility Score: inf
ROOT
ATOM      1  C   UNL     1      42.784 -40.204  -3.821  1.00  0.00     0.062 C 
ATOM      2  C   UNL     1      43.477 -41.236  -4.744  1.00  0.00     0.042 C 
ATOM      3  C   UNL     1      43.106 -40.530  -2.345  1.00  0.00     0.042 C 
ENDROOT
BRANCH   1   4
ATOM      4  C   UNL     1      41.232 -40.160  -4.038  1.00  0.00     0.024 C 
ATOM      5  C   UNL     1      37.011 -40.613  -4.594  1.00  0.00     0.039 C 
ATOM      6  C   UNL     1      38.484 -40.881  -4.452  1.00  0.00    -0.077 C 
ATOM      7  C   UNL     1      39.303 -40.715  -5.504  1.00  0.00    -0.028 C 
ATOM      8  C   UNL     1      39.072 -41.336  -3.135  1.00  0.00     0.031 C 
ATOM      9  C   UNL     1      40.783 -40.903  -5.320  1.00  0.00     0.034 C 
ATOM     10  C   UNL     1      40.383 -40.588  -2.793  1.00  0.00     0.011 C 
ENDBRANCH   1   4
BRANCH   1  11
ATOM     11  O   UNL     1      43.289 -38.920  -4.112  1.00  0.00    -0.390 OA
ATOM     12  H   UNL     1      44.269 -38.924  -3.950  1.00  0.00     0.211 HD
ENDBRANCH   1  11
TORSDOF 2
ENDMDL
MODEL 3
REMARK VINA RESULT:    -4.412      1.507      2.015
REMARK INTER + INTRA:          -4.985
REMARK INTER:                  -4.820
REMARK INTRA:                  -0.165
REMARK UNBOUND:                -0.186
REMARK SMILES CC1=CC[C@H](C(C)(C)O)CC1
REMARK SMILES IDX 6 1 7 2 8 3 5 4 1 5 2 6 3 7 11 8 4 9 10 10 9 11
REMARK H PARENT 9 12
REMARK Flexibility Score: inf
ROOT
ATOM      1  C   UNL     1      39.532 -40.107  -2.027  1.00  0.00     0.062 C 
ATOM      2  C   UNL     1      39.709 -38.584  -1.811  1.00  0.00     0.042 C 
ATOM      3  C   UNL     1      39.583 -40.832  -0.663  1.00  0.00     0.042 C 
ENDROOT
BRANCH   1   4
ATOM      4  C   UNL     1      40.611 -40.700  -2.996  1.00  0.00     0.024 C 
ATOM      5  C   UNL     1      43.617 -41.784  -5.845  1.00  0.00     0.039 C 
ATOM      6  C   UNL     1      42.572 -41.035  -5.067  1.00  0.00    -0.077 C 
ATOM      7  C   UNL     1      41.269 -41.220  -5.336  1.00  0.00    -0.028 C 
ATOM      8  C   UNL     1      42.959 -40.067  -3.971  1.00  0.00     0.031 C 
ATOM      9  C   UNL     1      40.238 -40.529  -4.489  1.00  0.00     0.034 C 
ATOM     10  C   UNL     1      42.078 -40.232  -2.710  1.00  0.00     0.011 C 
ENDBRANCH   1   4
BRANCH   1  11
ATOM     11  O   UNL     1      38.267 -40.341  -2.606  1.00  0.00    -0.390 OA
ATOM     12  H   UNL     1      38.111 -41.321  -2.634  1.00  0.00     0.211 HD
ENDBRANCH   1  11
TORSDOF 2
ENDMDL
MODEL 4
REMARK VINA RESULT:    -4.245      1.401      2.370
REMARK INTER + INTRA:          -4.803
REMARK INTER:                  -4.631
REMARK INTRA:                  -0.172
REMARK UNBOUND:                -0.186
REMARK SMILES CC1=CC[C@H](C(C)(C)O)CC1
REMARK SMILES IDX 6 1 7 2 8 3 5 4 1 5 2 6 3 7 11 8 4 9 10 10 9 11
REMARK H PARENT 9 12
REMARK Flexibility Score: inf
ROOT
ATOM      1  C   UNL     1      39.342 -38.743  -3.737  1.00  0.00     0.062 C 
ATOM      2  C   UNL     1      39.650 -37.353  -3.129  1.00  0.00     0.042 C 
ATOM      3  C   UNL     1      38.769 -39.672  -2.642  1.00  0.00     0.042 C 
ENDROOT
BRANCH   1   4
ATOM      4  C   UNL     1      40.605 -39.399  -4.396  1.00  0.00     0.024 C 
ATOM      5  C   UNL     1      43.859 -41.686  -5.977  1.00  0.00     0.039 C 
ATOM      6  C   UNL     1      42.641 -41.251  -5.211  1.00  0.00    -0.077 C 
ATOM      7  C   UNL     1      42.775 -40.563  -4.065  1.00  0.00    -0.028 C 
ATOM      8  C   UNL     1      41.249 -41.571  -5.710  1.00  0.00     0.031 C 
ATOM      9  C   UNL     1      41.546 -40.061  -3.361  1.00  0.00     0.034 C 
ATOM     10  C   UNL     1      40.296 -40.358  -5.594  1.00  0.00     0.011 C 
ENDBRANCH   1   4
BRANCH   1  11
ATOM     11  O   UNL     1      38.367 -38.593  -4.746  1.00  0.00    -0.390 OA
ATOM     12  H   UNL     1      38.368 -37.646  -5.045  1.00  0.00     0.211 HD
ENDBRANCH   1  11
TORSDOF 2
ENDMDL
MODEL 5
REMARK VINA RESULT:    -4.048      2.167      4.386
REMARK INTER + INTRA:          -4.589
REMARK INTER:                  -4.415
REMARK INTRA:                  -0.174
REMARK UNBOUND:                -0.186
REMARK SMILES CC1=CC[C@H](C(C)(C)O)CC1
REMARK SMILES IDX 6 1 7 2 8 3 5 4 1 5 2 6 3 7 11 8 4 9 10 10 9 11
REMARK H PARENT 9 12
REMARK Flexibility Score: inf
ROOT
ATOM      1  C   UNL     1      42.730 -40.090  -3.292  1.00  0.00     0.062 C 
ATOM      2  C   UNL     1      43.135 -40.462  -1.846  1.00  0.00     0.042 C 
ATOM      3  C   UNL     1      42.908 -38.569  -3.504  1.00  0.00     0.042 C 
ENDROOT
BRANCH   1   4
ATOM      4  C   UNL     1      41.259 -40.514  -3.627  1.00  0.00     0.024 C 
ATOM      5  C   UNL     1      37.190 -41.157  -4.793  1.00  0.00     0.039 C 
ATOM      6  C   UNL     1      38.527 -40.530  -4.510  1.00  0.00    -0.077 C 
ATOM      7  C   UNL     1      38.831 -40.125  -3.266  1.00  0.00    -0.028 C 
ATOM      8  C   UNL     1      39.552 -40.345  -5.606  1.00  0.00     0.031 C 
ATOM      9  C   UNL     1      40.204 -39.582  -2.984  1.00  0.00     0.034 C 
ATOM     10  C   UNL     1      40.974 -40.748  -5.149  1.00  0.00     0.011 C 
ENDBRANCH   1   4
BRANCH   1  11
ATOM     11  O   UNL     1      43.581 -40.765  -4.192  1.00  0.00    -0.390 OA
ATOM     12  H   UNL     1      44.058 -41.482  -3.695  1.00  0.00     0.211 HD
ENDBRANCH   1  11
TORSDOF 2
ENDMDL
MODEL 6
REMARK VINA RESULT:    -3.815      2.265      3.280
REMARK INTER + INTRA:          -4.336
REMARK INTER:                  -4.151
REMARK INTRA:                  -0.185
REMARK UNBOUND:                -0.186
REMARK SMILES CC1=CC[C@H](C(C)(C)O)CC1
REMARK SMILES IDX 6 1 7 2 8 3 5 4 1 5 2 6 3 7 11 8 4 9 10 10 9 11
REMARK H PARENT 9 12
REMARK Flexibility Score: inf
ROOT
ATOM      1  C   UNL     1      41.764 -38.372  -3.150  1.00  0.00     0.062 C 
ATOM      2  C   UNL     1      42.912 -37.963  -2.196  1.00  0.00     0.042 C 
ATOM      3  C   UNL     1      40.605 -38.987  -2.333  1.00  0.00     0.042 C 
ENDROOT
BRANCH   1   4
ATOM      4  C   UNL     1      42.238 -39.378  -4.256  1.00  0.00     0.024 C 
ATOM      5  C   UNL     1      43.231 -42.521  -6.987  1.00  0.00     0.039 C 
ATOM      6  C   UNL     1      42.733 -41.749  -5.797  1.00  0.00    -0.077 C 
ATOM      7  C   UNL     1      43.584 -41.389  -4.823  1.00  0.00    -0.028 C 
ATOM      8  C   UNL     1      41.277 -41.360  -5.672  1.00  0.00     0.031 C 
ATOM      9  C   UNL     1      43.085 -40.542  -3.686  1.00  0.00     0.034 C 
ATOM     10  C   UNL     1      41.102 -39.897  -5.201  1.00  0.00     0.011 C 
ENDBRANCH   1   4
BRANCH   1  11
ATOM     11  O   UNL     1      41.283 -37.219  -3.804  1.00  0.00    -0.390 OA
ATOM     12  H   UNL     1      42.061 -36.678  -4.101  1.00  0.00     0.211 HD
ENDBRANCH   1  11
TORSDOF 2
ENDMDL
MODEL 7
REMARK VINA RESULT:    -3.749      1.671      2.170
REMARK INTER + INTRA:          -4.264
REMARK INTER:                  -4.071
REMARK INTRA:                  -0.193
REMARK UNBOUND:                -0.186
REMARK SMILES CC1=CC[C@H](C(C)(C)O)CC1
REMARK SMILES IDX 6 1 7 2 8 3 5 4 1 5 2 6 3 7 11 8 4 9 10 10 9 11
REMARK H PARENT 9 12
REMARK Flexibility Score: inf
ROOT
ATOM      1  C   UNL     1      37.570 -40.464  -4.551  1.00  0.00     0.062 C 
ATOM      2  C   UNL     1      37.523 -40.011  -6.030  1.00  0.00     0.042 C 
ATOM      3  C   UNL     1      36.794 -39.455  -3.675  1.00  0.00     0.042 C 
ENDROOT
BRANCH   1   4
ATOM      4  C   UNL     1      39.038 -40.622  -4.022  1.00  0.00     0.024 C 
ATOM      5  C   UNL     1      43.114 -40.496  -2.721  1.00  0.00     0.039 C 
ATOM      6  C   UNL     1      41.788 -40.156  -3.341  1.00  0.00    -0.077 C 
ATOM      7  C   UNL     1      41.466 -40.639  -4.552  1.00  0.00    -0.028 C 
ATOM      8  C   UNL     1      40.793 -39.273  -2.622  1.00  0.00     0.031 C 
ATOM      9  C   UNL     1      40.101 -40.360  -5.117  1.00  0.00     0.034 C 
ATOM     10  C   UNL     1      39.351 -39.827  -2.710  1.00  0.00     0.011 C 
ENDBRANCH   1   4
BRANCH   1  11
ATOM     11  O   UNL     1      36.943 -41.723  -4.440  1.00  0.00    -0.390 OA
ATOM     12  H   UNL     1      37.095 -42.225  -5.283  1.00  0.00     0.211 HD
ENDBRANCH   1  11
TORSDOF 2
ENDMDL
MODEL 8
REMARK VINA RESULT:    -3.605      3.024      4.543
REMARK INTER + INTRA:          -4.108
REMARK INTER:                  -3.948
REMARK INTRA:                  -0.159
REMARK UNBOUND:                -0.186
REMARK SMILES CC1=CC[C@H](C(C)(C)O)CC1
REMARK SMILES IDX 6 1 7 2 8 3 5 4 1 5 2 6 3 7 11 8 4 9 10 10 9 11
REMARK H PARENT 9 12
REMARK Flexibility Score: inf
ROOT
ATOM      1  C   UNL     1      41.728 -39.843  -4.225  1.00  0.00     0.062 C 
ATOM      2  C   UNL     1      40.714 -38.677  -4.318  1.00  0.00     0.042 C 
ATOM      3  C   UNL     1      41.386 -40.913  -5.287  1.00  0.00     0.042 C 
ENDROOT
BRANCH   1   4
ATOM      4  C   UNL     1      41.761 -40.490  -2.797  1.00  0.00     0.024 C 
ATOM      5  C   UNL     1      41.809 -41.719   1.304  1.00  0.00     0.039 C 
ATOM      6  C   UNL     1      41.838 -40.899   0.044  1.00  0.00    -0.077 C 
ATOM      7  C   UNL     1      42.981 -40.769  -0.649  1.00  0.00    -0.028 C 
ATOM      8  C   UNL     1      40.593 -40.211  -0.470  1.00  0.00     0.031 C 
ATOM      9  C   UNL     1      42.970 -40.019  -1.952  1.00  0.00     0.034 C 
ATOM     10  C   UNL     1      40.419 -40.383  -1.997  1.00  0.00     0.011 C 
ENDBRANCH   1   4
BRANCH   1  11
ATOM     11  O   UNL     1      43.020 -39.347  -4.495  1.00  0.00    -0.390 OA
ATOM     12  H   UNL     1      43.627 -39.635  -3.764  1.00  0.00     0.211 HD
ENDBRANCH   1  11
TORSDOF 2
ENDMDL
MODEL 9
REMARK VINA RESULT:    -3.599      2.377      3.577
REMARK INTER + INTRA:          -4.101
REMARK INTER:                  -3.939
REMARK INTRA:                  -0.162
REMARK UNBOUND:                -0.186
REMARK SMILES CC1=CC[C@H](C(C)(C)O)CC1
REMARK SMILES IDX 6 1 7 2 8 3 5 4 1 5 2 6 3 7 11 8 4 9 10 10 9 11
REMARK H PARENT 9 12
REMARK Flexibility Score: inf
ROOT
ATOM      1  C   UNL     1      40.003 -40.462  -5.044  1.00  0.00     0.062 C 
ATOM      2  C   UNL     1      39.037 -41.280  -4.153  1.00  0.00     0.042 C 
ATOM      3  C   UNL     1      40.952 -41.421  -5.797  1.00  0.00     0.042 C 
ENDROOT
BRANCH   1   4
ATOM      4  C   UNL     1      40.832 -39.417  -4.220  1.00  0.00     0.024 C 
ATOM      5  C   UNL     1      43.376 -36.456  -2.462  1.00  0.00     0.039 C 
ATOM      6  C   UNL     1      42.758 -37.448  -3.407  1.00  0.00    -0.077 C 
ATOM      7  C   UNL     1      43.041 -38.756  -3.292  1.00  0.00    -0.028 C 
ATOM      8  C   UNL     1      41.808 -37.003  -4.497  1.00  0.00     0.031 C 
ATOM      9  C   UNL     1      42.345 -39.742  -4.189  1.00  0.00     0.034 C 
ATOM     10  C   UNL     1      40.568 -37.922  -4.603  1.00  0.00     0.011 C 
ENDBRANCH   1   4
BRANCH   1  11
ATOM     11  O   UNL     1      39.247 -39.746  -5.997  1.00  0.00    -0.390 OA
ATOM     12  H   UNL     1      39.700 -38.879  -6.169  1.00  0.00     0.211 HD
ENDBRANCH   1  11
TORSDOF 2
ENDMDL
