MODEL 1
REMARK VINA RESULT:    -3.847      0.000      0.000
REMARK INTER + INTRA:          -5.433
REMARK INTER:                  -5.197
REMARK INTRA:                  -0.236
REMARK UNBOUND:                -0.236
REMARK SMILES CCCCCCC=CC(=O)[O-]
REMARK SMILES IDX 5 1 6 2 7 3 8 4 9 5 10 6 11 7 4 8 3 9 2 10 1 11
REMARK H PARENT
REMARK Flexibility Score: inf
ROOT
ATOM      1  C   UNL     1     411.045 -85.379 114.147  1.00  0.00     0.004 C 
ENDROOT
BRANCH   1   2
ATOM      2  C   UNL     1     410.053 -85.678 115.277  1.00  0.00     0.027 C 
BRANCH   2   3
ATOM      3  C   UNL     1     408.654 -85.294 114.889  1.00  0.00    -0.025 C 
ATOM      4  C   UNL     1     407.653 -86.182 114.915  1.00  0.00     0.020 C 
BRANCH   4   5
ATOM      5  C   UNL     1     406.273 -85.825 114.551  1.00  0.00     0.064 C 
ATOM      6  O   UNL     1     405.746 -86.254 113.491  1.00  0.00    -0.545 OA
ATOM      7  O   UNL     1     405.539 -84.998 115.392  1.00  0.00    -0.545 OA
ENDBRANCH   4   5
ENDBRANCH   2   3
ENDBRANCH   1   2
BRANCH   1   8
ATOM      8  C   UNL     1     412.494 -85.532 114.634  1.00  0.00     0.000 C 
BRANCH   8   9
ATOM      9  C   UNL     1     412.659 -85.181 116.122  1.00  0.00    -0.000 C 
BRANCH   9  10
ATOM     10  C   UNL     1     413.520 -86.203 116.878  1.00  0.00    -0.003 C 
ATOM     11  C   UNL     1     414.261 -85.546 118.039  1.00  0.00     0.004 C 
ENDBRANCH   9  10
ENDBRANCH   8   9
ENDBRANCH   1   8
TORSDOF 6
ENDMDL
MODEL 2
REMARK VINA RESULT:    -3.788      3.877      6.304
REMARK INTER + INTRA:          -5.353
REMARK INTER:                  -5.096
REMARK INTRA:                  -0.257
REMARK UNBOUND:                -0.236
REMARK SMILES CCCCCCC=CC(=O)[O-]
REMARK SMILES IDX 5 1 6 2 7 3 8 4 9 5 10 6 11 7 4 8 3 9 2 10 1 11
REMARK H PARENT
REMARK Flexibility Score: inf
ROOT
ATOM      1  C   UNL     1     410.147 -84.740 114.652  1.00  0.00     0.004 C 
ENDROOT
BRANCH   1   2
ATOM      2  C   UNL     1     411.579 -84.843 114.114  1.00  0.00     0.027 C 
BRANCH   2   3
ATOM      3  C   UNL     1     412.461 -85.613 115.056  1.00  0.00    -0.025 C 
ATOM      4  C   UNL     1     412.805 -85.119 116.252  1.00  0.00     0.020 C 
BRANCH   4   5
ATOM      5  C   UNL     1     413.657 -85.861 117.195  1.00  0.00     0.064 C 
ATOM      6  O   UNL     1     414.018 -87.043 116.956  1.00  0.00    -0.545 OA
ATOM      7  O   UNL     1     414.070 -85.245 118.369  1.00  0.00    -0.545 OA
ENDBRANCH   4   5
ENDBRANCH   2   3
ENDBRANCH   1   2
BRANCH   1   8
ATOM      8  C   UNL     1     409.607 -86.123 115.044  1.00  0.00     0.000 C 
BRANCH   8   9
ATOM      9  C   UNL     1     408.075 -86.148 115.171  1.00  0.00    -0.000 C 
BRANCH   9  10
ATOM     10  C   UNL     1     407.387 -85.162 114.215  1.00  0.00    -0.003 C 
ATOM     11  C   UNL     1     405.889 -85.438 114.126  1.00  0.00     0.004 C 
ENDBRANCH   9  10
ENDBRANCH   8   9
ENDBRANCH   1   8
TORSDOF 6
ENDMDL
MODEL 3
REMARK VINA RESULT:    -3.745      1.363      2.376
REMARK INTER + INTRA:          -5.296
REMARK INTER:                  -4.926
REMARK INTRA:                  -0.370
REMARK UNBOUND:                -0.236
REMARK SMILES CCCCCCC=CC(=O)[O-]
REMARK SMILES IDX 5 1 6 2 7 3 8 4 9 5 10 6 11 7 4 8 3 9 2 10 1 11
REMARK H PARENT
REMARK Flexibility Score: inf
ROOT
ATOM      1  C   UNL     1     408.773 -84.475 114.108  1.00  0.00     0.004 C 
ENDROOT
BRANCH   1   2
ATOM      2  C   UNL     1     408.430 -85.675 114.998  1.00  0.00     0.027 C 
BRANCH   2   3
ATOM      3  C   UNL     1     406.956 -85.963 114.981  1.00  0.00    -0.025 C 
ATOM      4  C   UNL     1     406.208 -85.712 113.900  1.00  0.00     0.020 C 
BRANCH   4   5
ATOM      5  C   UNL     1     404.765 -85.997 113.857  1.00  0.00     0.064 C 
ATOM      6  O   UNL     1     403.958 -85.395 114.614  1.00  0.00    -0.545 OA
ATOM      7  O   UNL     1     404.285 -86.949 112.966  1.00  0.00    -0.545 OA
ENDBRANCH   4   5
ENDBRANCH   2   3
ENDBRANCH   1   2
BRANCH   1   8
ATOM      8  C   UNL     1     410.283 -84.410 113.833  1.00  0.00     0.000 C 
BRANCH   8   9
ATOM      9  C   UNL     1     411.011 -85.711 114.208  1.00  0.00    -0.000 C 
BRANCH   9  10
ATOM     10  C   UNL     1     412.462 -85.470 114.649  1.00  0.00    -0.003 C 
ATOM     11  C   UNL     1     412.519 -84.887 116.059  1.00  0.00     0.004 C 
ENDBRANCH   9  10
ENDBRANCH   8   9
ENDBRANCH   1   8
TORSDOF 6
ENDMDL
MODEL 4
REMARK VINA RESULT:    -3.615      3.348      6.690
REMARK INTER + INTRA:          -5.119
REMARK INTER:                  -4.862
REMARK INTRA:                  -0.257
REMARK UNBOUND:                -0.236
REMARK SMILES CCCCCCC=CC(=O)[O-]
REMARK SMILES IDX 5 1 6 2 7 3 8 4 9 5 10 6 11 7 4 8 3 9 2 10 1 11
REMARK H PARENT
REMARK Flexibility Score: inf
ROOT
ATOM      1  C   UNL     1     407.569 -84.953 115.499  1.00  0.00     0.004 C 
ENDROOT
BRANCH   1   2
ATOM      2  C   UNL     1     408.439 -86.146 115.087  1.00  0.00     0.027 C 
BRANCH   2   3
ATOM      3  C   UNL     1     409.826 -85.707 114.713  1.00  0.00    -0.025 C 
ATOM      4  C   UNL     1     410.711 -85.324 115.641  1.00  0.00     0.020 C 
BRANCH   4   5
ATOM      5  C   UNL     1     412.079 -84.902 115.298  1.00  0.00     0.064 C 
ATOM      6  O   UNL     1     412.890 -84.534 116.188  1.00  0.00    -0.545 OA
ATOM      7  O   UNL     1     412.480 -84.910 113.969  1.00  0.00    -0.545 OA
ENDBRANCH   4   5
ENDBRANCH   2   3
ENDBRANCH   1   2
BRANCH   1   8
ATOM      8  C   UNL     1     406.319 -84.853 114.612  1.00  0.00     0.000 C 
BRANCH   8   9
ATOM      9  C   UNL     1     406.024 -86.157 113.854  1.00  0.00    -0.000 C 
BRANCH   9  10
ATOM     10  C   UNL     1     404.538 -86.310 113.497  1.00  0.00    -0.003 C 
ATOM     11  C   UNL     1     404.343 -86.420 111.988  1.00  0.00     0.004 C 
ENDBRANCH   9  10
ENDBRANCH   8   9
ENDBRANCH   1   8
TORSDOF 6
ENDMDL
MODEL 5
REMARK VINA RESULT:    -3.557      1.343      2.133
REMARK INTER + INTRA:          -5.041
REMARK INTER:                  -4.785
REMARK INTRA:                  -0.256
REMARK UNBOUND:                -0.236
REMARK SMILES CCCCCCC=CC(=O)[O-]
REMARK SMILES IDX 5 1 6 2 7 3 8 4 9 5 10 6 11 7 4 8 3 9 2 10 1 11
REMARK H PARENT
REMARK Flexibility Score: inf
ROOT
ATOM      1  C   UNL     1     412.508 -85.745 114.841  1.00  0.00     0.004 C 
ENDROOT
BRANCH   1   2
ATOM      2  C   UNL     1     412.038 -84.656 113.869  1.00  0.00     0.027 C 
BRANCH   2   3
ATOM      3  C   UNL     1     410.550 -84.467 113.940  1.00  0.00    -0.025 C 
ATOM      4  C   UNL     1     409.744 -85.432 114.401  1.00  0.00     0.020 C 
BRANCH   4   5
ATOM      5  C   UNL     1     408.285 -85.262 114.491  1.00  0.00     0.064 C 
ATOM      6  O   UNL     1     407.718 -84.235 114.034  1.00  0.00    -0.545 OA
ATOM      7  O   UNL     1     407.520 -86.254 115.092  1.00  0.00    -0.545 OA
ENDBRANCH   4   5
ENDBRANCH   2   3
ENDBRANCH   1   2
BRANCH   1   8
ATOM      8  C   UNL     1     412.812 -85.150 116.224  1.00  0.00     0.000 C 
BRANCH   8   9
ATOM      9  C   UNL     1     413.640 -86.098 117.108  1.00  0.00    -0.000 C 
BRANCH   9  10
ATOM     10  C   UNL     1     414.393 -85.359 118.223  1.00  0.00    -0.003 C 
ATOM     11  C   UNL     1     414.647 -83.903 117.844  1.00  0.00     0.004 C 
ENDBRANCH   9  10
ENDBRANCH   8   9
ENDBRANCH   1   8
TORSDOF 6
ENDMDL
MODEL 6
REMARK VINA RESULT:    -3.209     12.371     13.503
REMARK INTER + INTRA:          -4.571
REMARK INTER:                  -4.305
REMARK INTRA:                  -0.266
REMARK UNBOUND:                -0.236
REMARK SMILES CCCCCCC=CC(=O)[O-]
REMARK SMILES IDX 5 1 6 2 7 3 8 4 9 5 10 6 11 7 4 8 3 9 2 10 1 11
REMARK H PARENT
REMARK Flexibility Score: inf
ROOT
ATOM      1  C   UNL     1     405.405 -93.768 107.072  1.00  0.00     0.004 C 
ENDROOT
BRANCH   1   2
ATOM      2  C   UNL     1     404.470 -93.683 105.860  1.00  0.00     0.027 C 
BRANCH   2   3
ATOM      3  C   UNL     1     404.569 -92.344 105.187  1.00  0.00    -0.025 C 
ATOM      4  C   UNL     1     405.088 -91.282 105.817  1.00  0.00     0.020 C 
BRANCH   4   5
ATOM      5  C   UNL     1     405.206 -89.965 105.173  1.00  0.00     0.064 C 
ATOM      6  O   UNL     1     404.186 -89.285 104.886  1.00  0.00    -0.545 OA
ATOM      7  O   UNL     1     406.467 -89.463 104.875  1.00  0.00    -0.545 OA
ENDBRANCH   4   5
ENDBRANCH   2   3
ENDBRANCH   1   2
BRANCH   1   8
ATOM      8  C   UNL     1     404.637 -94.207 108.328  1.00  0.00     0.000 C 
BRANCH   8   9
ATOM      9  C   UNL     1     403.977 -95.586 108.168  1.00  0.00    -0.000 C 
BRANCH   9  10
ATOM     10  C   UNL     1     404.907 -96.613 107.507  1.00  0.00    -0.003 C 
ATOM     11  C   UNL     1     404.208 -97.323 106.350  1.00  0.00     0.004 C 
ENDBRANCH   9  10
ENDBRANCH   8   9
ENDBRANCH   1   8
TORSDOF 6
ENDMDL
MODEL 7
REMARK VINA RESULT:    -3.152     13.290     14.563
REMARK INTER + INTRA:          -4.494
REMARK INTER:                  -3.884
REMARK INTRA:                  -0.610
REMARK UNBOUND:                -0.236
REMARK SMILES CCCCCCC=CC(=O)[O-]
REMARK SMILES IDX 5 1 6 2 7 3 8 4 9 5 10 6 11 7 4 8 3 9 2 10 1 11
REMARK H PARENT
REMARK Flexibility Score: inf
ROOT
ATOM      1  C   UNL     1     420.376 -88.212 122.115  1.00  0.00     0.004 C 
ENDROOT
BRANCH   1   2
ATOM      2  C   UNL     1     420.328 -89.030 120.820  1.00  0.00     0.027 C 
BRANCH   2   3
ATOM      3  C   UNL     1     421.219 -90.237 120.903  1.00  0.00    -0.025 C 
ATOM      4  C   UNL     1     422.548 -90.133 120.788  1.00  0.00     0.020 C 
BRANCH   4   5
ATOM      5  C   UNL     1     423.440 -91.300 120.879  1.00  0.00     0.064 C 
ATOM      6  O   UNL     1     424.124 -91.677 119.891  1.00  0.00    -0.545 OA
ATOM      7  O   UNL     1     423.528 -91.998 122.077  1.00  0.00    -0.545 OA
ENDBRANCH   4   5
ENDBRANCH   2   3
ENDBRANCH   1   2
BRANCH   1   8
ATOM      8  C   UNL     1     420.388 -86.706 121.814  1.00  0.00     0.000 C 
BRANCH   8   9
ATOM      9  C   UNL     1     420.370 -86.403 120.307  1.00  0.00    -0.000 C 
BRANCH   9  10
ATOM     10  C   UNL     1     421.609 -85.623 119.846  1.00  0.00    -0.003 C 
ATOM     11  C   UNL     1     422.846 -86.516 119.829  1.00  0.00     0.004 C 
ENDBRANCH   9  10
ENDBRANCH   8   9
ENDBRANCH   1   8
TORSDOF 6
ENDMDL
MODEL 8
REMARK VINA RESULT:    -3.117     12.966     14.070
REMARK INTER + INTRA:          -4.446
REMARK INTER:                  -4.101
REMARK INTRA:                  -0.346
REMARK UNBOUND:                -0.236
REMARK SMILES CCCCCCC=CC(=O)[O-]
REMARK SMILES IDX 5 1 6 2 7 3 8 4 9 5 10 6 11 7 4 8 3 9 2 10 1 11
REMARK H PARENT
REMARK Flexibility Score: inf
ROOT
ATOM      1  C   UNL     1     420.352 -87.297 120.695  1.00  0.00     0.004 C 
ENDROOT
BRANCH   1   2
ATOM      2  C   UNL     1     420.346 -88.482 121.668  1.00  0.00     0.027 C 
BRANCH   2   3
ATOM      3  C   UNL     1     420.781 -89.748 120.988  1.00  0.00    -0.025 C 
ATOM      4  C   UNL     1     422.057 -90.153 121.016  1.00  0.00     0.020 C 
BRANCH   4   5
ATOM      5  C   UNL     1     422.502 -91.397 120.367  1.00  0.00     0.064 C 
ATOM      6  O   UNL     1     421.699 -92.341 120.146  1.00  0.00    -0.545 OA
ATOM      7  O   UNL     1     423.833 -91.530 119.991  1.00  0.00    -0.545 OA
ENDBRANCH   4   5
ENDBRANCH   2   3
ENDBRANCH   1   2
BRANCH   1   8
ATOM      8  C   UNL     1     420.418 -85.964 121.455  1.00  0.00     0.000 C 
BRANCH   8   9
ATOM      9  C   UNL     1     420.413 -86.149 122.980  1.00  0.00    -0.000 C 
BRANCH   9  10
ATOM     10  C   UNL     1     419.184 -85.516 123.649  1.00  0.00    -0.003 C 
ATOM     11  C   UNL     1     418.713 -86.349 124.837  1.00  0.00     0.004 C 
ENDBRANCH   9  10
ENDBRANCH   8   9
ENDBRANCH   1   8
TORSDOF 6
ENDMDL
MODEL 9
REMARK VINA RESULT:    -3.043     13.569     14.925
REMARK INTER + INTRA:          -4.347
REMARK INTER:                  -3.725
REMARK INTRA:                  -0.621
REMARK UNBOUND:                -0.236
REMARK SMILES CCCCCCC=CC(=O)[O-]
REMARK SMILES IDX 5 1 6 2 7 3 8 4 9 5 10 6 11 7 4 8 3 9 2 10 1 11
REMARK H PARENT
REMARK Flexibility Score: inf
ROOT
ATOM      1  C   UNL     1     420.370 -87.410 121.355  1.00  0.00     0.004 C 
ENDROOT
BRANCH   1   2
ATOM      2  C   UNL     1     420.377 -88.737 120.587  1.00  0.00     0.027 C 
BRANCH   2   3
ATOM      3  C   UNL     1     421.726 -89.395 120.649  1.00  0.00    -0.025 C 
ATOM      4  C   UNL     1     421.855 -90.697 120.932  1.00  0.00     0.020 C 
BRANCH   4   5
ATOM      5  C   UNL     1     423.165 -91.365 120.985  1.00  0.00     0.064 C 
ATOM      6  O   UNL     1     423.858 -91.525 119.945  1.00  0.00    -0.545 OA
ATOM      7  O   UNL     1     423.645 -91.827 122.203  1.00  0.00    -0.545 OA
ENDBRANCH   4   5
ENDBRANCH   2   3
ENDBRANCH   1   2
BRANCH   1   8
ATOM      8  C   UNL     1     420.312 -87.653 122.870  1.00  0.00     0.000 C 
BRANCH   8   9
ATOM      9  C   UNL     1     421.239 -86.713 123.658  1.00  0.00    -0.000 C 
BRANCH   9  10
ATOM     10  C   UNL     1     422.649 -86.630 123.054  1.00  0.00    -0.003 C 
ATOM     11  C   UNL     1     423.505 -87.815 123.492  1.00  0.00     0.004 C 
ENDBRANCH   9  10
ENDBRANCH   8   9
ENDBRANCH   1   8
TORSDOF 6
ENDMDL
