MODEL 1
REMARK VINA RESULT:    -6.131      0.000      0.000
REMARK INTER + INTRA:          -6.490
REMARK INTER:                  -6.490
REMARK INTRA:                   0.000
REMARK UNBOUND:                 0.000
REMARK SMILES O=c1ccc2cc(O)c(O)cc2o1
REMARK SMILES IDX 4 1 3 2 2 3 1 4 13 5 12 6 11 7 9 8 7 9 6 10 5 11 8 12 10 14
REMARK H PARENT 8 13 10 15
REMARK Flexibility Score: inf
ROOT
ATOM      1  C   UNL     1     -32.598   9.219 -36.430  1.00  0.00     0.019 A 
ATOM      2  C   UNL     1     -32.233   9.603 -35.140  1.00  0.00     0.094 A 
ATOM      3  C   UNL     1     -32.389  10.941 -34.763  1.00  0.00     0.336 A 
ATOM      4  O   UNL     1     -32.065  11.308 -33.603  1.00  0.00    -0.246 OA
ATOM      5  O   UNL     1     -32.876  11.832 -35.623  1.00  0.00    -0.423 OA
ATOM      6  C   UNL     1     -33.236  11.506 -36.863  1.00  0.00     0.142 A 
ATOM      7  C   UNL     1     -33.743  12.486 -37.723  1.00  0.00     0.098 A 
ATOM      8  C   UNL     1     -34.124  12.150 -39.030  1.00  0.00     0.161 A 
ATOM      9  C   UNL     1     -33.996  10.822 -39.478  1.00  0.00     0.158 A 
ATOM     10  C   UNL     1     -33.488   9.840 -38.620  1.00  0.00     0.062 A 
ATOM     11  C   UNL     1     -33.108  10.175 -37.314  1.00  0.00     0.022 A 
ENDROOT
BRANCH   9  12
ATOM     12  O   UNL     1     -34.367  10.462 -40.774  1.00  0.00    -0.504 OA
ATOM     13  H   UNL     1     -35.312  10.584 -41.117  1.00  0.00     0.293 HD
ENDBRANCH   9  12
BRANCH   8  14
ATOM     14  O   UNL     1     -34.628  13.129 -39.885  1.00  0.00    -0.504 OA
ATOM     15  H   UNL     1     -34.640  13.001 -40.890  1.00  0.00     0.293 HD
ENDBRANCH   8  14
TORSDOF 2
ENDMDL
MODEL 2
REMARK VINA RESULT:    -6.129      1.447      4.408
REMARK INTER + INTRA:          -6.487
REMARK INTER:                  -6.487
REMARK INTRA:                   0.000
REMARK UNBOUND:                 0.000
REMARK SMILES O=c1ccc2cc(O)c(O)cc2o1
REMARK SMILES IDX 4 1 3 2 2 3 1 4 13 5 12 6 11 7 9 8 7 9 6 10 5 11 8 12 10 14
REMARK H PARENT 8 13 10 15
REMARK Flexibility Score: inf
ROOT
ATOM      1  C   UNL     1     -31.664   8.932 -37.551  1.00  0.00     0.019 A 
ATOM      2  C   UNL     1     -31.974   8.875 -38.910  1.00  0.00     0.094 A 
ATOM      3  C   UNL     1     -32.852   9.825 -39.444  1.00  0.00     0.336 A 
ATOM      4  O   UNL     1     -33.145   9.791 -40.668  1.00  0.00    -0.246 OA
ATOM      5  O   UNL     1     -33.383  10.764 -38.666  1.00  0.00    -0.423 OA
ATOM      6  C   UNL     1     -33.114  10.853 -37.365  1.00  0.00     0.142 A 
ATOM      7  C   UNL     1     -33.701  11.863 -36.597  1.00  0.00     0.098 A 
ATOM      8  C   UNL     1     -33.422  11.963 -35.226  1.00  0.00     0.161 A 
ATOM      9  C   UNL     1     -32.546  11.042 -34.621  1.00  0.00     0.158 A 
ATOM     10  C   UNL     1     -31.957  10.029 -35.388  1.00  0.00     0.062 A 
ATOM     11  C   UNL     1     -32.236   9.930 -36.757  1.00  0.00     0.022 A 
ENDROOT
BRANCH   9  12
ATOM     12  O   UNL     1     -32.251  11.118 -33.260  1.00  0.00    -0.504 OA
ATOM     13  H   UNL     1     -31.723  11.887 -32.865  1.00  0.00     0.293 HD
ENDBRANCH   9  12
BRANCH   8  14
ATOM     14  O   UNL     1     -34.010  12.971 -34.464  1.00  0.00    -0.504 OA
ATOM     15  H   UNL     1     -33.467  13.745 -34.100  1.00  0.00     0.293 HD
ENDBRANCH   8  14
TORSDOF 2
ENDMDL
MODEL 3
REMARK VINA RESULT:    -5.944      1.279      1.550
REMARK INTER + INTRA:          -6.292
REMARK INTER:                  -6.292
REMARK INTRA:                   0.000
REMARK UNBOUND:                 0.000
REMARK SMILES O=c1ccc2cc(O)c(O)cc2o1
REMARK SMILES IDX 4 1 3 2 2 3 1 4 13 5 12 6 11 7 9 8 7 9 6 10 5 11 8 12 10 14
REMARK H PARENT 8 13 10 15
REMARK Flexibility Score: inf
ROOT
ATOM      1  C   UNL     1     -31.898  10.317 -35.050  1.00  0.00     0.019 A 
ATOM      2  C   UNL     1     -32.130  11.138 -33.948  1.00  0.00     0.094 A 
ATOM      3  C   UNL     1     -32.887  12.303 -34.119  1.00  0.00     0.336 A 
ATOM      4  O   UNL     1     -33.109  13.058 -33.136  1.00  0.00    -0.246 OA
ATOM      5  O   UNL     1     -33.375  12.619 -35.315  1.00  0.00    -0.423 OA
ATOM      6  C   UNL     1     -33.175  11.862 -36.393  1.00  0.00     0.142 A 
ATOM      7  C   UNL     1     -33.714  12.246 -37.625  1.00  0.00     0.098 A 
ATOM      8  C   UNL     1     -33.507  11.453 -38.764  1.00  0.00     0.161 A 
ATOM      9  C   UNL     1     -32.756  10.267 -38.666  1.00  0.00     0.158 A 
ATOM     10  C   UNL     1     -32.216   9.881 -37.433  1.00  0.00     0.062 A 
ATOM     11  C   UNL     1     -32.422  10.673 -36.296  1.00  0.00     0.022 A 
ENDROOT
BRANCH   9  12
ATOM     12  O   UNL     1     -32.536   9.461 -39.783  1.00  0.00    -0.504 OA
ATOM     13  H   UNL     1     -31.953   9.759 -40.556  1.00  0.00     0.293 HD
ENDBRANCH   9  12
BRANCH   8  14
ATOM     14  O   UNL     1     -34.045  11.839 -39.991  1.00  0.00    -0.504 OA
ATOM     15  H   UNL     1     -35.009  12.140 -40.076  1.00  0.00     0.293 HD
ENDBRANCH   8  14
TORSDOF 2
ENDMDL
MODEL 4
REMARK VINA RESULT:    -5.899      1.466      4.938
REMARK INTER + INTRA:          -6.243
REMARK INTER:                  -6.243
REMARK INTRA:                   0.000
REMARK UNBOUND:                 0.000
REMARK SMILES O=c1ccc2cc(O)c(O)cc2o1
REMARK SMILES IDX 4 1 3 2 2 3 1 4 13 5 12 6 11 7 9 8 7 9 6 10 5 11 8 12 10 14
REMARK H PARENT 8 13 10 15
REMARK Flexibility Score: inf
ROOT
ATOM      1  C   UNL     1     -33.980  12.358 -38.474  1.00  0.00     0.019 A 
ATOM      2  C   UNL     1     -33.979  11.563 -39.619  1.00  0.00     0.094 A 
ATOM      3  C   UNL     1     -33.600  10.220 -39.511  1.00  0.00     0.336 A 
ATOM      4  O   UNL     1     -33.593   9.485 -40.533  1.00  0.00    -0.246 OA
ATOM      5  O   UNL     1     -33.246   9.712 -38.333  1.00  0.00    -0.423 OA
ATOM      6  C   UNL     1     -33.233  10.437 -37.216  1.00  0.00     0.142 A 
ATOM      7  C   UNL     1     -32.852   9.849 -36.006  1.00  0.00     0.098 A 
ATOM      8  C   UNL     1     -32.837  10.607 -34.826  1.00  0.00     0.161 A 
ATOM      9  C   UNL     1     -33.206  11.965 -34.860  1.00  0.00     0.158 A 
ATOM     10  C   UNL     1     -33.588  12.556 -36.070  1.00  0.00     0.062 A 
ATOM     11  C   UNL     1     -33.604  11.799 -37.249  1.00  0.00     0.022 A 
ENDROOT
BRANCH   9  12
ATOM     12  O   UNL     1     -33.199  12.741 -33.700  1.00  0.00    -0.504 OA
ATOM     13  H   UNL     1     -33.536  13.696 -33.689  1.00  0.00     0.293 HD
ENDBRANCH   9  12
BRANCH   8  14
ATOM     14  O   UNL     1     -32.456  10.018 -33.621  1.00  0.00    -0.504 OA
ATOM     15  H   UNL     1     -32.905   9.177 -33.277  1.00  0.00     0.293 HD
ENDBRANCH   8  14
TORSDOF 2
ENDMDL
MODEL 5
REMARK VINA RESULT:    -5.790      1.180      4.565
REMARK INTER + INTRA:          -6.129
REMARK INTER:                  -6.129
REMARK INTRA:                   0.000
REMARK UNBOUND:                 0.000
REMARK SMILES O=c1ccc2cc(O)c(O)cc2o1
REMARK SMILES IDX 4 1 3 2 2 3 1 4 13 5 12 6 11 7 9 8 7 9 6 10 5 11 8 12 10 14
REMARK H PARENT 8 13 10 15
REMARK Flexibility Score: inf
ROOT
ATOM      1  C   UNL     1     -33.515  10.040 -38.347  1.00  0.00     0.019 A 
ATOM      2  C   UNL     1     -33.960  10.788 -39.436  1.00  0.00     0.094 A 
ATOM      3  C   UNL     1     -34.251  12.145 -39.253  1.00  0.00     0.336 A 
ATOM      4  O   UNL     1     -34.654  12.838 -40.223  1.00  0.00    -0.246 OA
ATOM      5  O   UNL     1     -34.105  12.709 -38.057  1.00  0.00    -0.423 OA
ATOM      6  C   UNL     1     -33.683  12.030 -36.992  1.00  0.00     0.142 A 
ATOM      7  C   UNL     1     -33.548  12.678 -35.759  1.00  0.00     0.098 A 
ATOM      8  C   UNL     1     -33.103  11.969 -34.634  1.00  0.00     0.161 A 
ATOM      9  C   UNL     1     -32.792  10.601 -34.745  1.00  0.00     0.158 A 
ATOM     10  C   UNL     1     -32.926   9.950 -35.977  1.00  0.00     0.062 A 
ATOM     11  C   UNL     1     -33.370  10.659 -37.102  1.00  0.00     0.022 A 
ENDROOT
BRANCH   9  12
ATOM     12  O   UNL     1     -32.348   9.873 -33.641  1.00  0.00    -0.504 OA
ATOM     13  H   UNL     1     -32.145   8.882 -33.695  1.00  0.00     0.293 HD
ENDBRANCH   9  12
BRANCH   8  14
ATOM     14  O   UNL     1     -32.970  12.617 -33.407  1.00  0.00    -0.504 OA
ATOM     15  H   UNL     1     -32.723  13.598 -33.350  1.00  0.00     0.293 HD
ENDBRANCH   8  14
TORSDOF 2
ENDMDL
MODEL 6
REMARK VINA RESULT:    -5.543      1.847      2.960
REMARK INTER + INTRA:          -5.867
REMARK INTER:                  -5.867
REMARK INTRA:                   0.000
REMARK UNBOUND:                 0.000
REMARK SMILES O=c1ccc2cc(O)c(O)cc2o1
REMARK SMILES IDX 4 1 3 2 2 3 1 4 13 5 12 6 11 7 9 8 7 9 6 10 5 11 8 12 10 14
REMARK H PARENT 8 13 10 15
REMARK Flexibility Score: inf
ROOT
ATOM      1  C   UNL     1     -33.627  12.761 -35.425  1.00  0.00     0.019 A 
ATOM      2  C   UNL     1     -33.337  12.832 -34.064  1.00  0.00     0.094 A 
ATOM      3  C   UNL     1     -32.409  11.936 -33.521  1.00  0.00     0.336 A 
ATOM      4  O   UNL     1     -32.134  11.984 -32.294  1.00  0.00    -0.246 OA
ATOM      5  O   UNL     1     -31.816  11.030 -34.294  1.00  0.00    -0.423 OA
ATOM      6  C   UNL     1     -32.065  10.929 -35.599  1.00  0.00     0.142 A 
ATOM      7  C   UNL     1     -31.410   9.957 -36.362  1.00  0.00     0.098 A 
ATOM      8  C   UNL     1     -31.667   9.845 -37.736  1.00  0.00     0.161 A 
ATOM      9  C   UNL     1     -32.589  10.715 -38.349  1.00  0.00     0.158 A 
ATOM     10  C   UNL     1     -33.246  11.688 -37.588  1.00  0.00     0.062 A 
ATOM     11  C   UNL     1     -32.989  11.800 -36.215  1.00  0.00     0.022 A 
ENDROOT
BRANCH   9  12
ATOM     12  O   UNL     1     -32.863  10.624 -39.714  1.00  0.00    -0.504 OA
ATOM     13  H   UNL     1     -32.476   9.890 -40.294  1.00  0.00     0.293 HD
ENDBRANCH   9  12
BRANCH   8  14
ATOM     14  O   UNL     1     -31.013   8.875 -38.493  1.00  0.00    -0.504 OA
ATOM     15  H   UNL     1     -31.496   8.345 -39.208  1.00  0.00     0.293 HD
ENDBRANCH   8  14
TORSDOF 2
ENDMDL
MODEL 7
REMARK VINA RESULT:    -5.259      1.004      2.238
REMARK INTER + INTRA:          -5.566
REMARK INTER:                  -5.566
REMARK INTRA:                   0.000
REMARK UNBOUND:                 0.000
REMARK SMILES O=c1ccc2cc(O)c(O)cc2o1
REMARK SMILES IDX 4 1 3 2 2 3 1 4 13 5 12 6 11 7 9 8 7 9 6 10 5 11 8 12 10 14
REMARK H PARENT 8 13 10 15
REMARK Flexibility Score: inf
ROOT
ATOM      1  C   UNL     1     -33.257  12.552 -35.776  1.00  0.00     0.019 A 
ATOM      2  C   UNL     1     -32.774  11.727 -34.762  1.00  0.00     0.094 A 
ATOM      3  C   UNL     1     -32.578  10.367 -35.031  1.00  0.00     0.336 A 
ATOM      4  O   UNL     1     -32.143   9.605 -34.129  1.00  0.00    -0.246 OA
ATOM      5  O   UNL     1     -32.852   9.873 -36.235  1.00  0.00    -0.423 OA
ATOM      6  C   UNL     1     -33.315  10.626 -37.230  1.00  0.00     0.142 A 
ATOM      7  C   UNL     1     -33.584  10.050 -38.476  1.00  0.00     0.098 A 
ATOM      8  C   UNL     1     -34.072  10.839 -39.529  1.00  0.00     0.161 A 
ATOM      9  C   UNL     1     -34.292  12.215 -39.330  1.00  0.00     0.158 A 
ATOM     10  C   UNL     1     -34.024  12.794 -38.084  1.00  0.00     0.062 A 
ATOM     11  C   UNL     1     -33.536  12.006 -37.033  1.00  0.00     0.022 A 
ENDROOT
BRANCH   9  12
ATOM     12  O   UNL     1     -34.777  13.021 -40.360  1.00  0.00    -0.504 OA
ATOM     13  H   UNL     1     -35.704  13.426 -40.336  1.00  0.00     0.293 HD
ENDBRANCH   9  12
BRANCH   8  14
ATOM     14  O   UNL     1     -34.339  10.261 -40.769  1.00  0.00    -0.504 OA
ATOM     15  H   UNL     1     -34.648   9.300 -40.850  1.00  0.00     0.293 HD
ENDBRANCH   8  14
TORSDOF 2
ENDMDL
MODEL 8
REMARK VINA RESULT:    -4.976      1.285      4.593
REMARK INTER + INTRA:          -5.267
REMARK INTER:                  -5.267
REMARK INTRA:                   0.000
REMARK UNBOUND:                 0.000
REMARK SMILES O=c1ccc2cc(O)c(O)cc2o1
REMARK SMILES IDX 4 1 3 2 2 3 1 4 13 5 12 6 11 7 9 8 7 9 6 10 5 11 8 12 10 14
REMARK H PARENT 8 13 10 15
REMARK Flexibility Score: inf
ROOT
ATOM      1  C   UNL     1     -32.904   8.875 -39.539  1.00  0.00     0.019 A 
ATOM      2  C   UNL     1     -33.686   9.205 -40.645  1.00  0.00     0.094 A 
ATOM      3  C   UNL     1     -34.444  10.381 -40.612  1.00  0.00     0.336 A 
ATOM      4  O   UNL     1     -35.157  10.697 -41.600  1.00  0.00    -0.246 OA
ATOM      5  O   UNL     1     -34.419  11.169 -39.540  1.00  0.00    -0.423 OA
ATOM      6  C   UNL     1     -33.686  10.889 -38.464  1.00  0.00     0.142 A 
ATOM      7  C   UNL     1     -33.699  11.756 -37.366  1.00  0.00     0.098 A 
ATOM      8  C   UNL     1     -32.929  11.468 -36.229  1.00  0.00     0.161 A 
ATOM      9  C   UNL     1     -32.142  10.302 -36.193  1.00  0.00     0.158 A 
ATOM     10  C   UNL     1     -32.127   9.433 -37.290  1.00  0.00     0.062 A 
ATOM     11  C   UNL     1     -32.896   9.721 -38.426  1.00  0.00     0.022 A 
ENDROOT
BRANCH   9  12
ATOM     12  O   UNL     1     -31.367   9.992 -35.075  1.00  0.00    -0.504 OA
ATOM     13  H   UNL     1     -30.512  10.489 -34.857  1.00  0.00     0.293 HD
ENDBRANCH   9  12
BRANCH   8  14
ATOM     14  O   UNL     1     -32.945  12.333 -35.137  1.00  0.00    -0.504 OA
ATOM     15  H   UNL     1     -33.753  12.907 -34.926  1.00  0.00     0.293 HD
ENDBRANCH   8  14
TORSDOF 2
ENDMDL
MODEL 9
REMARK VINA RESULT:    -4.622      1.948      5.404
REMARK INTER + INTRA:          -4.892
REMARK INTER:                  -4.892
REMARK INTRA:                   0.000
REMARK UNBOUND:                 0.000
REMARK SMILES O=c1ccc2cc(O)c(O)cc2o1
REMARK SMILES IDX 4 1 3 2 2 3 1 4 13 5 12 6 11 7 9 8 7 9 6 10 5 11 8 12 10 14
REMARK H PARENT 8 13 10 15
REMARK Flexibility Score: inf
ROOT
ATOM      1  C   UNL     1     -35.219  11.889 -40.459  1.00  0.00     0.019 A 
ATOM      2  C   UNL     1     -35.581  11.126 -41.568  1.00  0.00     0.094 A 
ATOM      3  C   UNL     1     -34.985   9.874 -41.753  1.00  0.00     0.336 A 
ATOM      4  O   UNL     1     -35.298   9.170 -42.749  1.00  0.00    -0.246 OA
ATOM      5  O   UNL     1     -34.085   9.421 -40.884  1.00  0.00    -0.423 OA
ATOM      6  C   UNL     1     -33.712  10.118 -39.812  1.00  0.00     0.142 A 
ATOM      7  C   UNL     1     -32.762   9.589 -38.932  1.00  0.00     0.098 A 
ATOM      8  C   UNL     1     -32.364  10.318 -37.802  1.00  0.00     0.161 A 
ATOM      9  C   UNL     1     -32.923  11.585 -37.552  1.00  0.00     0.158 A 
ATOM     10  C   UNL     1     -33.874  12.116 -38.431  1.00  0.00     0.062 A 
ATOM     11  C   UNL     1     -34.271  11.388 -39.561  1.00  0.00     0.022 A 
ENDROOT
BRANCH   9  12
ATOM     12  O   UNL     1     -32.544  12.330 -36.435  1.00  0.00    -0.504 OA
ATOM     13  H   UNL     1     -32.298  11.894 -35.554  1.00  0.00     0.293 HD
ENDBRANCH   9  12
BRANCH   8  14
ATOM     14  O   UNL     1     -31.416   9.788 -36.927  1.00  0.00    -0.504 OA
ATOM     15  H   UNL     1     -31.429   8.811 -36.660  1.00  0.00     0.293 HD
ENDBRANCH   8  14
TORSDOF 2
ENDMDL
