MODEL 1
REMARK VINA RESULT:    -3.418      0.000      0.000
REMARK INTER + INTRA:          -5.071
REMARK INTER:                  -4.517
REMARK INTRA:                  -0.554
REMARK UNBOUND:                -0.554
REMARK SMILES C=C[C@@H](O)CCCCC
REMARK SMILES IDX 6 1 7 2 8 3 9 4 5 5 3 6 2 7 1 8 4 9
REMARK H PARENT 4 10
REMARK Flexibility Score: inf
ROOT
ATOM      1  C   UNL     1     143.534 144.538 143.896  1.00  0.00     0.003 C 
ENDROOT
BRANCH   1   2
ATOM      2  C   UNL     1     143.093 143.953 142.543  1.00  0.00    -0.000 C 
BRANCH   2   3
ATOM      3  C   UNL     1     141.594 143.613 142.509  1.00  0.00    -0.003 C 
ATOM      4  C   UNL     1     141.328 142.111 142.594  1.00  0.00     0.004 C 
ENDBRANCH   2   3
ENDBRANCH   1   2
BRANCH   1   5
ATOM      5  C   UNL     1     143.827 143.459 144.954  1.00  0.00     0.036 C 
BRANCH   5   6
ATOM      6  C   UNL     1     143.079 143.682 146.283  1.00  0.00     0.136 C 
BRANCH   6   7
ATOM      7  C   UNL     1     141.707 143.054 146.226  1.00  0.00    -0.004 C 
ATOM      8  C   UNL     1     140.609 143.797 146.065  1.00  0.00     0.007 C 
ENDBRANCH   6   7
BRANCH   6   9
ATOM      9  O   UNL     1     143.806 143.102 147.336  1.00  0.00    -0.389 OA
ATOM     10  H   UNL     1     144.174 143.846 147.880  1.00  0.00     0.211 HD
ENDBRANCH   6   9
ENDBRANCH   5   6
ENDBRANCH   1   5
TORSDOF 6
ENDMDL
MODEL 2
REMARK VINA RESULT:    -3.387      2.146      3.816
REMARK INTER + INTRA:          -5.029
REMARK INTER:                  -4.535
REMARK INTRA:                  -0.494
REMARK UNBOUND:                -0.554
REMARK SMILES C=C[C@@H](O)CCCCC
REMARK SMILES IDX 6 1 7 2 8 3 9 4 5 5 3 6 2 7 1 8 4 9
REMARK H PARENT 4 10
REMARK Flexibility Score: inf
ROOT
ATOM      1  C   UNL     1     144.050 143.824 145.039  1.00  0.00     0.003 C 
ENDROOT
BRANCH   1   2
ATOM      2  C   UNL     1     142.940 143.674 146.094  1.00  0.00    -0.000 C 
BRANCH   2   3
ATOM      3  C   UNL     1     141.695 144.512 145.762  1.00  0.00    -0.003 C 
ATOM      4  C   UNL     1     140.392 143.746 145.983  1.00  0.00     0.004 C 
ENDBRANCH   2   3
ENDBRANCH   1   2
BRANCH   1   5
ATOM      5  C   UNL     1     143.669 144.781 143.895  1.00  0.00     0.036 C 
BRANCH   5   6
ATOM      6  C   UNL     1     143.827 144.157 142.494  1.00  0.00     0.136 C 
BRANCH   6   7
ATOM      7  C   UNL     1     142.486 143.713 141.961  1.00  0.00    -0.004 C 
ATOM      8  C   UNL     1     141.835 142.676 142.496  1.00  0.00     0.007 C 
ENDBRANCH   6   7
BRANCH   6   9
ATOM      9  O   UNL     1     144.379 145.105 141.616  1.00  0.00    -0.389 OA
ATOM     10  H   UNL     1     143.730 145.227 140.875  1.00  0.00     0.211 HD
ENDBRANCH   6   9
ENDBRANCH   5   6
ENDBRANCH   1   5
TORSDOF 6
ENDMDL
MODEL 3
REMARK VINA RESULT:    -3.362     11.307     12.530
REMARK INTER + INTRA:          -4.997
REMARK INTER:                  -4.491
REMARK INTRA:                  -0.506
REMARK UNBOUND:                -0.554
REMARK SMILES C=C[C@@H](O)CCCCC
REMARK SMILES IDX 6 1 7 2 8 3 9 4 5 5 3 6 2 7 1 8 4 9
REMARK H PARENT 4 10
REMARK Flexibility Score: inf
ROOT
ATOM      1  C   UNL     1     137.424 132.993 150.534  1.00  0.00     0.003 C 
ENDROOT
BRANCH   1   2
ATOM      2  C   UNL     1     136.674 132.359 149.348  1.00  0.00    -0.000 C 
BRANCH   2   3
ATOM      3  C   UNL     1     137.596 132.081 148.151  1.00  0.00    -0.003 C 
ATOM      4  C   UNL     1     137.792 133.307 147.260  1.00  0.00     0.004 C 
ENDBRANCH   2   3
ENDBRANCH   1   2
BRANCH   1   5
ATOM      5  C   UNL     1     138.644 132.170 150.985  1.00  0.00     0.036 C 
BRANCH   5   6
ATOM      6  C   UNL     1     139.822 133.036 151.474  1.00  0.00     0.136 C 
BRANCH   6   7
ATOM      7  C   UNL     1     139.903 134.315 150.675  1.00  0.00    -0.004 C 
ATOM      8  C   UNL     1     140.777 134.454 149.675  1.00  0.00     0.007 C 
ENDBRANCH   6   7
BRANCH   6   9
ATOM      9  O   UNL     1     139.641 133.354 152.831  1.00  0.00    -0.389 OA
ATOM     10  H   UNL     1     138.681 133.209 153.039  1.00  0.00     0.211 HD
ENDBRANCH   6   9
ENDBRANCH   5   6
ENDBRANCH   1   5
TORSDOF 6
ENDMDL
MODEL 4
REMARK VINA RESULT:    -3.182     12.009     13.231
REMARK INTER + INTRA:          -4.759
REMARK INTER:                  -4.478
REMARK INTRA:                  -0.281
REMARK UNBOUND:                -0.554
REMARK SMILES C=C[C@@H](O)CCCCC
REMARK SMILES IDX 6 1 7 2 8 3 9 4 5 5 3 6 2 7 1 8 4 9
REMARK H PARENT 4 10
REMARK Flexibility Score: inf
ROOT
ATOM      1  C   UNL     1     137.478 133.074 149.233  1.00  0.00     0.003 C 
ENDROOT
BRANCH   1   2
ATOM      2  C   UNL     1     137.136 131.658 148.737  1.00  0.00    -0.000 C 
BRANCH   2   3
ATOM      3  C   UNL     1     136.543 130.774 149.845  1.00  0.00    -0.003 C 
ATOM      4  C   UNL     1     135.497 129.792 149.320  1.00  0.00     0.004 C 
ENDBRANCH   2   3
ENDBRANCH   1   2
BRANCH   1   5
ATOM      5  C   UNL     1     137.720 133.140 150.752  1.00  0.00     0.036 C 
BRANCH   5   6
ATOM      6  C   UNL     1     139.212 133.127 151.137  1.00  0.00     0.136 C 
BRANCH   6   7
ATOM      7  C   UNL     1     139.954 134.222 150.407  1.00  0.00    -0.004 C 
ATOM      8  C   UNL     1     141.123 133.987 149.806  1.00  0.00     0.007 C 
ENDBRANCH   6   7
BRANCH   6   9
ATOM      9  O   UNL     1     139.344 133.327 152.521  1.00  0.00    -0.389 OA
ATOM     10  H   UNL     1     140.301 133.518 152.698  1.00  0.00     0.211 HD
ENDBRANCH   6   9
ENDBRANCH   5   6
ENDBRANCH   1   5
TORSDOF 6
ENDMDL
MODEL 5
REMARK VINA RESULT:    -3.177      2.234      3.861
REMARK INTER + INTRA:          -4.753
REMARK INTER:                  -4.099
REMARK INTRA:                  -0.654
REMARK UNBOUND:                -0.554
REMARK SMILES C=C[C@@H](O)CCCCC
REMARK SMILES IDX 6 1 7 2 8 3 9 4 5 5 3 6 2 7 1 8 4 9
REMARK H PARENT 4 10
REMARK Flexibility Score: inf
ROOT
ATOM      1  C   UNL     1     140.878 144.297 144.052  1.00  0.00     0.003 C 
ENDROOT
BRANCH   1   2
ATOM      2  C   UNL     1     141.982 145.034 144.831  1.00  0.00    -0.000 C 
BRANCH   2   3
ATOM      3  C   UNL     1     142.505 144.217 146.023  1.00  0.00    -0.003 C 
ATOM      4  C   UNL     1     141.505 143.165 146.502  1.00  0.00     0.004 C 
ENDBRANCH   2   3
ENDBRANCH   1   2
BRANCH   1   5
ATOM      5  C   UNL     1     141.339 143.811 142.666  1.00  0.00     0.036 C 
BRANCH   5   6
ATOM      6  C   UNL     1     141.506 142.282 142.576  1.00  0.00     0.136 C 
BRANCH   6   7
ATOM      7  C   UNL     1     142.894 141.877 143.014  1.00  0.00    -0.004 C 
ATOM      8  C   UNL     1     143.081 140.961 143.968  1.00  0.00     0.007 C 
ENDBRANCH   6   7
BRANCH   6   9
ATOM      9  O   UNL     1     140.562 141.655 143.406  1.00  0.00    -0.389 OA
ATOM     10  H   UNL     1     140.723 141.982 144.329  1.00  0.00     0.211 HD
ENDBRANCH   6   9
ENDBRANCH   5   6
ENDBRANCH   1   5
TORSDOF 6
ENDMDL
MODEL 6
REMARK VINA RESULT:    -3.155      1.845      2.716
REMARK INTER + INTRA:          -4.723
REMARK INTER:                  -4.066
REMARK INTRA:                  -0.657
REMARK UNBOUND:                -0.554
REMARK SMILES C=C[C@@H](O)CCCCC
REMARK SMILES IDX 6 1 7 2 8 3 9 4 5 5 3 6 2 7 1 8 4 9
REMARK H PARENT 4 10
REMARK Flexibility Score: inf
ROOT
ATOM      1  C   UNL     1     142.031 143.119 142.873  1.00  0.00     0.003 C 
ENDROOT
BRANCH   1   2
ATOM      2  C   UNL     1     141.521 141.687 143.113  1.00  0.00    -0.000 C 
BRANCH   2   3
ATOM      3  C   UNL     1     142.167 141.032 144.344  1.00  0.00    -0.003 C 
ATOM      4  C   UNL     1     143.565 141.575 144.635  1.00  0.00     0.004 C 
ENDBRANCH   2   3
ENDBRANCH   1   2
BRANCH   1   5
ATOM      5  C   UNL     1     141.094 144.197 143.448  1.00  0.00     0.036 C 
BRANCH   5   6
ATOM      6  C   UNL     1     141.754 145.067 144.536  1.00  0.00     0.136 C 
BRANCH   6   7
ATOM      7  C   UNL     1     141.570 144.438 145.896  1.00  0.00    -0.004 C 
ATOM      8  C   UNL     1     140.467 143.748 146.198  1.00  0.00     0.007 C 
ENDBRANCH   6   7
BRANCH   6   9
ATOM      9  O   UNL     1     143.128 145.191 144.270  1.00  0.00    -0.389 OA
ATOM     10  H   UNL     1     143.532 144.294 144.399  1.00  0.00     0.211 HD
ENDBRANCH   6   9
ENDBRANCH   5   6
ENDBRANCH   1   5
TORSDOF 6
ENDMDL
MODEL 7
REMARK VINA RESULT:    -3.020     11.994     13.280
REMARK INTER + INTRA:          -4.545
REMARK INTER:                  -4.004
REMARK INTRA:                  -0.541
REMARK UNBOUND:                -0.554
REMARK SMILES C=C[C@@H](O)CCCCC
REMARK SMILES IDX 6 1 7 2 8 3 9 4 5 5 3 6 2 7 1 8 4 9
REMARK H PARENT 4 10
REMARK Flexibility Score: inf
ROOT
ATOM      1  C   UNL     1     138.985 133.379 151.451  1.00  0.00     0.003 C 
ENDROOT
BRANCH   1   2
ATOM      2  C   UNL     1     140.056 134.052 150.574  1.00  0.00    -0.000 C 
BRANCH   2   3
ATOM      3  C   UNL     1     141.230 133.113 150.255  1.00  0.00    -0.003 C 
ATOM      4  C   UNL     1     141.606 132.217 151.434  1.00  0.00     0.004 C 
ENDBRANCH   2   3
ENDBRANCH   1   2
BRANCH   1   5
ATOM      5  C   UNL     1     137.661 133.133 150.705  1.00  0.00     0.036 C 
BRANCH   5   6
ATOM      6  C   UNL     1     137.413 131.650 150.366  1.00  0.00     0.136 C 
BRANCH   6   7
ATOM      7  C   UNL     1     137.602 131.409 148.887  1.00  0.00    -0.004 C 
ATOM      8  C   UNL     1     137.696 132.424 148.024  1.00  0.00     0.007 C 
ENDBRANCH   6   7
BRANCH   6   9
ATOM      9  O   UNL     1     138.317 130.847 151.081  1.00  0.00    -0.389 OA
ATOM     10  H   UNL     1     137.858 129.986 151.266  1.00  0.00     0.211 HD
ENDBRANCH   6   9
ENDBRANCH   5   6
ENDBRANCH   1   5
TORSDOF 6
ENDMDL
MODEL 8
REMARK VINA RESULT:    -3.013      2.347      3.758
REMARK INTER + INTRA:          -4.535
REMARK INTER:                  -3.967
REMARK INTRA:                  -0.569
REMARK UNBOUND:                -0.554
REMARK SMILES C=C[C@@H](O)CCCCC
REMARK SMILES IDX 6 1 7 2 8 3 9 4 5 5 3 6 2 7 1 8 4 9
REMARK H PARENT 4 10
REMARK Flexibility Score: inf
ROOT
ATOM      1  C   UNL     1     142.842 143.643 144.154  1.00  0.00     0.003 C 
ENDROOT
BRANCH   1   2
ATOM      2  C   UNL     1     142.998 143.814 145.675  1.00  0.00    -0.000 C 
BRANCH   2   3
ATOM      3  C   UNL     1     141.823 143.207 146.458  1.00  0.00    -0.003 C 
ATOM      4  C   UNL     1     140.478 143.823 146.075  1.00  0.00     0.004 C 
ENDBRANCH   2   3
ENDBRANCH   1   2
BRANCH   1   5
ATOM      5  C   UNL     1     142.890 142.172 143.703  1.00  0.00     0.036 C 
BRANCH   5   6
ATOM      6  C   UNL     1     141.607 141.706 142.988  1.00  0.00     0.136 C 
BRANCH   6   7
ATOM      7  C   UNL     1     140.815 140.778 143.878  1.00  0.00    -0.004 C 
ATOM      8  C   UNL     1     141.330 139.626 144.314  1.00  0.00     0.007 C 
ENDBRANCH   6   7
BRANCH   6   9
ATOM      9  O   UNL     1     140.815 142.821 142.667  1.00  0.00    -0.389 OA
ATOM     10  H   UNL     1     140.394 142.636 141.787  1.00  0.00     0.211 HD
ENDBRANCH   6   9
ENDBRANCH   5   6
ENDBRANCH   1   5
TORSDOF 6
ENDMDL
MODEL 9
REMARK VINA RESULT:    -2.998     13.130     14.484
REMARK INTER + INTRA:          -4.516
REMARK INTER:                  -3.955
REMARK INTRA:                  -0.561
REMARK UNBOUND:                -0.554
REMARK SMILES C=C[C@@H](O)CCCCC
REMARK SMILES IDX 6 1 7 2 8 3 9 4 5 5 3 6 2 7 1 8 4 9
REMARK H PARENT 4 10
REMARK Flexibility Score: inf
ROOT
ATOM      1  C   UNL     1     137.113 132.043 149.377  1.00  0.00     0.003 C 
ENDROOT
BRANCH   1   2
ATOM      2  C   UNL     1     137.331 133.326 150.198  1.00  0.00    -0.000 C 
BRANCH   2   3
ATOM      3  C   UNL     1     138.820 133.663 150.377  1.00  0.00    -0.003 C 
ATOM      4  C   UNL     1     139.335 133.331 151.777  1.00  0.00     0.004 C 
ENDBRANCH   2   3
ENDBRANCH   1   2
BRANCH   1   5
ATOM      5  C   UNL     1     136.583 130.869 150.220  1.00  0.00     0.036 C 
BRANCH   5   6
ATOM      6  C   UNL     1     137.574 129.695 150.330  1.00  0.00     0.136 C 
BRANCH   6   7
ATOM      7  C   UNL     1     138.873 130.035 149.637  1.00  0.00    -0.004 C 
ATOM      8  C   UNL     1     140.044 129.935 150.270  1.00  0.00     0.007 C 
ENDBRANCH   6   7
BRANCH   6   9
ATOM      9  O   UNL     1     137.834 129.422 151.683  1.00  0.00    -0.389 OA
ATOM     10  H   UNL     1     137.011 129.018 152.062  1.00  0.00     0.211 HD
ENDBRANCH   6   9
ENDBRANCH   5   6
ENDBRANCH   1   5
TORSDOF 6
ENDMDL
