MODEL 1
REMARK VINA RESULT:    -4.501      0.000      0.000
REMARK INTER + INTRA:          -5.524
REMARK INTER:                  -5.422
REMARK INTRA:                  -0.101
REMARK UNBOUND:                -0.101
REMARK SMILES CC[C@H](C)[C@H]([NH3+])C(=O)[O-]
REMARK SMILES IDX 3 1 4 2 5 3 6 4 7 8 8 9 9 10 2 11 1 12
REMARK H PARENT 6 5 6 6 6 7
REMARK Flexibility Score: inf
ROOT
ATOM      1  C   UNL     1     -18.544 -68.165   0.103  1.00  0.00     0.050 C 
ATOM      2  C   UNL     1     -17.735 -67.189  -0.768  1.00  0.00     0.014 C 
ENDROOT
BRANCH   1   3
ATOM      3  C   UNL     1     -19.847 -68.616  -0.640  1.00  0.00     0.230 C 
BRANCH   3   4
ATOM      4  N   UNL     1     -21.076 -68.178   0.044  1.00  0.00    -0.350 N 
ATOM      5  H   UNL     1     -20.822 -67.616   0.889  1.00  0.00     0.345 HD
ATOM      6  H   UNL     1     -21.669 -67.588  -0.582  1.00  0.00     0.345 HD
ATOM      7  H   UNL     1     -21.628 -69.004   0.367  1.00  0.00     0.345 HD
ENDBRANCH   3   4
BRANCH   3   8
ATOM      8  C   UNL     1     -19.864 -70.106  -0.895  1.00  0.00     0.099 C 
ATOM      9  O   UNL     1     -19.221 -70.880  -0.139  1.00  0.00    -0.544 OA
ATOM     10  O   UNL     1     -20.556 -70.638  -1.979  1.00  0.00    -0.544 OA
ENDBRANCH   3   8
ENDBRANCH   1   3
BRANCH   1  11
ATOM     11  C   UNL     1     -18.765 -67.539   1.505  1.00  0.00     0.006 C 
ATOM     12  C   UNL     1     -18.302 -66.086   1.608  1.00  0.00     0.004 C 
ENDBRANCH   1  11
TORSDOF 4
ENDMDL
MODEL 2
REMARK VINA RESULT:    -4.475      2.790      3.942
REMARK INTER + INTRA:          -5.492
REMARK INTER:                  -5.660
REMARK INTRA:                   0.168
REMARK UNBOUND:                -0.101
REMARK SMILES CC[C@H](C)[C@H]([NH3+])C(=O)[O-]
REMARK SMILES IDX 3 1 4 2 5 3 6 4 7 8 8 9 9 10 2 11 1 12
REMARK H PARENT 6 5 6 6 6 7
REMARK Flexibility Score: inf
ROOT
ATOM      1  C   UNL     1     -19.548 -69.356   0.211  1.00  0.00     0.050 C 
ATOM      2  C   UNL     1     -20.448 -68.201   0.685  1.00  0.00     0.014 C 
ENDROOT
BRANCH   1   3
ATOM      3  C   UNL     1     -18.046 -68.912   0.191  1.00  0.00     0.230 C 
BRANCH   3   4
ATOM      4  N   UNL     1     -17.276 -69.455   1.322  1.00  0.00    -0.350 N 
ATOM      5  H   UNL     1     -17.214 -68.734   2.078  1.00  0.00     0.345 HD
ATOM      6  H   UNL     1     -17.729 -70.310   1.715  1.00  0.00     0.345 HD
ATOM      7  H   UNL     1     -16.302 -69.685   1.023  1.00  0.00     0.345 HD
ENDBRANCH   3   4
BRANCH   3   8
ATOM      8  C   UNL     1     -17.902 -67.410   0.100  1.00  0.00     0.099 C 
ATOM      9  O   UNL     1     -17.731 -66.862  -1.020  1.00  0.00    -0.544 OA
ATOM     10  O   UNL     1     -17.921 -66.619   1.245  1.00  0.00    -0.544 OA
ENDBRANCH   3   8
ENDBRANCH   1   3
BRANCH   1  11
ATOM     11  C   UNL     1     -20.092 -69.911  -1.131  1.00  0.00     0.006 C 
ATOM     12  C   UNL     1     -20.365 -68.830  -2.177  1.00  0.00     0.004 C 
ENDBRANCH   1  11
TORSDOF 4
ENDMDL
MODEL 3
REMARK VINA RESULT:    -4.341      2.656      4.066
REMARK INTER + INTRA:          -5.330
REMARK INTER:                  -5.243
REMARK INTRA:                  -0.087
REMARK UNBOUND:                -0.101
REMARK SMILES CC[C@H](C)[C@H]([NH3+])C(=O)[O-]
REMARK SMILES IDX 3 1 4 2 5 3 6 4 7 8 8 9 9 10 2 11 1 12
REMARK H PARENT 6 5 6 6 6 7
REMARK Flexibility Score: inf
ROOT
ATOM      1  C   UNL     1     -19.673 -68.740  -0.526  1.00  0.00     0.050 C 
ATOM      2  C   UNL     1     -19.894 -68.300  -1.984  1.00  0.00     0.014 C 
ENDROOT
BRANCH   1   3
ATOM      3  C   UNL     1     -18.365 -68.098   0.051  1.00  0.00     0.230 C 
BRANCH   3   4
ATOM      4  N   UNL     1     -17.354 -69.100   0.425  1.00  0.00    -0.350 N 
ATOM      5  H   UNL     1     -17.025 -68.915   1.401  1.00  0.00     0.345 HD
ATOM      6  H   UNL     1     -17.746 -70.069   0.386  1.00  0.00     0.345 HD
ATOM      7  H   UNL     1     -16.525 -69.036  -0.206  1.00  0.00     0.345 HD
ENDBRANCH   3   4
BRANCH   3   8
ATOM      8  C   UNL     1     -18.657 -67.158   1.198  1.00  0.00     0.099 C 
ATOM      9  O   UNL     1     -19.572 -67.433   2.018  1.00  0.00    -0.544 OA
ATOM     10  O   UNL     1     -17.949 -65.969   1.347  1.00  0.00    -0.544 OA
ENDBRANCH   3   8
ENDBRANCH   1   3
BRANCH   1  11
ATOM     11  C   UNL     1     -19.744 -70.286  -0.441  1.00  0.00     0.006 C 
ATOM     12  C   UNL     1     -20.180 -70.954  -1.745  1.00  0.00     0.004 C 
ENDBRANCH   1  11
TORSDOF 4
ENDMDL
MODEL 4
REMARK VINA RESULT:    -4.061      2.297      3.466
REMARK INTER + INTRA:          -4.993
REMARK INTER:                  -5.034
REMARK INTRA:                   0.041
REMARK UNBOUND:                -0.101
REMARK SMILES CC[C@H](C)[C@H]([NH3+])C(=O)[O-]
REMARK SMILES IDX 3 1 4 2 5 3 6 4 7 8 8 9 9 10 2 11 1 12
REMARK H PARENT 6 5 6 6 6 7
REMARK Flexibility Score: inf
ROOT
ATOM      1  C   UNL     1     -20.186 -69.061   0.544  1.00  0.00     0.050 C 
ATOM      2  C   UNL     1     -21.265 -67.979   0.365  1.00  0.00     0.014 C 
ENDROOT
BRANCH   1   3
ATOM      3  C   UNL     1     -18.944 -68.481   1.303  1.00  0.00     0.230 C 
BRANCH   3   4
ATOM      4  N   UNL     1     -19.084 -67.049   1.616  1.00  0.00    -0.350 N 
ATOM      5  H   UNL     1     -19.748 -66.608   0.938  1.00  0.00     0.345 HD
ATOM      6  H   UNL     1     -19.454 -66.906   2.583  1.00  0.00     0.345 HD
ATOM      7  H   UNL     1     -18.165 -66.563   1.520  1.00  0.00     0.345 HD
ENDBRANCH   3   4
BRANCH   3   8
ATOM      8  C   UNL     1     -17.653 -68.757   0.567  1.00  0.00     0.099 C 
ATOM      9  O   UNL     1     -17.129 -67.857  -0.140  1.00  0.00    -0.544 OA
ATOM     10  O   UNL     1     -17.047 -70.007   0.630  1.00  0.00    -0.544 OA
ENDBRANCH   3   8
ENDBRANCH   1   3
BRANCH   1  11
ATOM     11  C   UNL     1     -19.878 -69.710  -0.830  1.00  0.00     0.006 C 
ATOM     12  C   UNL     1     -20.237 -68.824  -2.023  1.00  0.00     0.004 C 
ENDBRANCH   1  11
TORSDOF 4
ENDMDL
MODEL 5
REMARK VINA RESULT:    -3.980      1.329      2.194
REMARK INTER + INTRA:          -4.895
REMARK INTER:                  -5.016
REMARK INTRA:                   0.121
REMARK UNBOUND:                -0.101
REMARK SMILES CC[C@H](C)[C@H]([NH3+])C(=O)[O-]
REMARK SMILES IDX 3 1 4 2 5 3 6 4 7 8 8 9 9 10 2 11 1 12
REMARK H PARENT 6 5 6 6 6 7
REMARK Flexibility Score: inf
ROOT
ATOM      1  C   UNL     1     -18.996 -67.631   0.211  1.00  0.00     0.050 C 
ATOM      2  C   UNL     1     -19.097 -67.172   1.676  1.00  0.00     0.014 C 
ENDROOT
BRANCH   1   3
ATOM      3  C   UNL     1     -20.248 -68.485  -0.186  1.00  0.00     0.230 C 
BRANCH   3   4
ATOM      4  N   UNL     1     -20.575 -69.517   0.811  1.00  0.00    -0.350 N 
ATOM      5  H   UNL     1     -21.434 -69.233   1.336  1.00  0.00     0.345 HD
ATOM      6  H   UNL     1     -20.754 -70.441   0.357  1.00  0.00     0.345 HD
ATOM      7  H   UNL     1     -19.799 -69.615   1.503  1.00  0.00     0.345 HD
ENDBRANCH   3   4
BRANCH   3   8
ATOM      8  C   UNL     1     -20.107 -69.083  -1.568  1.00  0.00     0.099 C 
ATOM      9  O   UNL     1     -19.899 -68.334  -2.558  1.00  0.00    -0.544 OA
ATOM     10  O   UNL     1     -20.239 -70.453  -1.771  1.00  0.00    -0.544 OA
ENDBRANCH   3   8
ENDBRANCH   1   3
BRANCH   1  11
ATOM     11  C   UNL     1     -17.625 -68.319  -0.017  1.00  0.00     0.006 C 
ATOM     12  C   UNL     1     -17.388 -69.530   0.886  1.00  0.00     0.004 C 
ENDBRANCH   1  11
TORSDOF 4
ENDMDL
MODEL 6
REMARK VINA RESULT:    -3.948      9.022      9.697
REMARK INTER + INTRA:          -4.857
REMARK INTER:                  -4.837
REMARK INTRA:                  -0.020
REMARK UNBOUND:                -0.101
REMARK SMILES CC[C@H](C)[C@H]([NH3+])C(=O)[O-]
REMARK SMILES IDX 3 1 4 2 5 3 6 4 7 8 8 9 9 10 2 11 1 12
REMARK H PARENT 6 5 6 6 6 7
REMARK Flexibility Score: inf
ROOT
ATOM      1  C   UNL     1     -11.670 -71.966   2.475  1.00  0.00     0.050 C 
ATOM      2  C   UNL     1     -11.125 -73.250   3.125  1.00  0.00     0.014 C 
ENDROOT
BRANCH   1   3
ATOM      3  C   UNL     1     -10.823 -70.724   2.912  1.00  0.00     0.230 C 
BRANCH   3   4
ATOM      4  N   UNL     1     -11.630 -69.500   3.045  1.00  0.00    -0.350 N 
ATOM      5  H   UNL     1     -11.032 -68.728   3.422  1.00  0.00     0.345 HD
ATOM      6  H   UNL     1     -12.018 -69.199   2.122  1.00  0.00     0.345 HD
ATOM      7  H   UNL     1     -12.414 -69.651   3.718  1.00  0.00     0.345 HD
ENDBRANCH   3   4
BRANCH   3   8
ATOM      8  C   UNL     1      -9.636 -70.501   2.003  1.00  0.00     0.099 C 
ATOM      9  O   UNL     1      -8.886 -69.506   2.182  1.00  0.00    -0.544 OA
ATOM     10  O   UNL     1      -9.374 -71.364   0.944  1.00  0.00    -0.544 OA
ENDBRANCH   3   8
ENDBRANCH   1   3
BRANCH   1  11
ATOM     11  C   UNL     1     -13.193 -71.860   2.750  1.00  0.00     0.006 C 
ATOM     12  C   UNL     1     -13.875 -73.211   2.959  1.00  0.00     0.004 C 
ENDBRANCH   1  11
TORSDOF 4
ENDMDL
MODEL 7
REMARK VINA RESULT:    -3.630      2.337      3.678
REMARK INTER + INTRA:          -4.475
REMARK INTER:                  -4.333
REMARK INTRA:                  -0.141
REMARK UNBOUND:                -0.101
REMARK SMILES CC[C@H](C)[C@H]([NH3+])C(=O)[O-]
REMARK SMILES IDX 3 1 4 2 5 3 6 4 7 8 8 9 9 10 2 11 1 12
REMARK H PARENT 6 5 6 6 6 7
REMARK Flexibility Score: inf
ROOT
ATOM      1  C   UNL     1     -19.451 -69.349  -0.574  1.00  0.00     0.050 C 
ATOM      2  C   UNL     1     -19.474 -70.858  -0.277  1.00  0.00     0.014 C 
ENDROOT
BRANCH   1   3
ATOM      3  C   UNL     1     -19.907 -68.533   0.683  1.00  0.00     0.230 C 
BRANCH   3   4
ATOM      4  N   UNL     1     -21.215 -67.882   0.497  1.00  0.00    -0.350 N 
ATOM      5  H   UNL     1     -21.798 -68.453  -0.157  1.00  0.00     0.345 HD
ATOM      6  H   UNL     1     -21.726 -67.791   1.404  1.00  0.00     0.345 HD
ATOM      7  H   UNL     1     -21.095 -66.936   0.071  1.00  0.00     0.345 HD
ENDBRANCH   3   4
BRANCH   3   8
ATOM      8  C   UNL     1     -18.858 -67.538   1.122  1.00  0.00     0.099 C 
ATOM      9  O   UNL     1     -17.672 -67.653   0.713  1.00  0.00    -0.544 OA
ATOM     10  O   UNL     1     -19.172 -66.508   2.004  1.00  0.00    -0.544 OA
ENDBRANCH   3   8
ENDBRANCH   1   3
BRANCH   1  11
ATOM     11  C   UNL     1     -20.252 -69.069  -1.872  1.00  0.00     0.006 C 
ATOM     12  C   UNL     1     -19.652 -67.962  -2.738  1.00  0.00     0.004 C 
ENDBRANCH   1  11
TORSDOF 4
ENDMDL
MODEL 8
REMARK VINA RESULT:    -3.628      1.920      2.168
REMARK INTER + INTRA:          -4.472
REMARK INTER:                  -4.622
REMARK INTRA:                   0.150
REMARK UNBOUND:                -0.101
REMARK SMILES CC[C@H](C)[C@H]([NH3+])C(=O)[O-]
REMARK SMILES IDX 3 1 4 2 5 3 6 4 7 8 8 9 9 10 2 11 1 12
REMARK H PARENT 6 5 6 6 6 7
REMARK Flexibility Score: inf
ROOT
ATOM      1  C   UNL     1     -18.708 -68.694   1.221  1.00  0.00     0.050 C 
ATOM      2  C   UNL     1     -17.423 -68.610   0.379  1.00  0.00     0.014 C 
ENDROOT
BRANCH   1   3
ATOM      3  C   UNL     1     -19.815 -69.499   0.459  1.00  0.00     0.230 C 
BRANCH   3   4
ATOM      4  N   UNL     1     -19.279 -70.662  -0.267  1.00  0.00    -0.350 N 
ATOM      5  H   UNL     1     -19.844 -71.510  -0.032  1.00  0.00     0.345 HD
ATOM      6  H   UNL     1     -19.316 -70.514  -1.301  1.00  0.00     0.345 HD
ATOM      7  H   UNL     1     -18.293 -70.848   0.021  1.00  0.00     0.345 HD
ENDBRANCH   3   4
BRANCH   3   8
ATOM      8  C   UNL     1     -20.631 -68.611  -0.454  1.00  0.00     0.099 C 
ATOM      9  O   UNL     1     -20.399 -68.602  -1.691  1.00  0.00    -0.544 OA
ATOM     10  O   UNL     1     -21.617 -67.773   0.057  1.00  0.00    -0.544 OA
ENDBRANCH   3   8
ENDBRANCH   1   3
BRANCH   1  11
ATOM     11  C   UNL     1     -19.119 -67.269   1.674  1.00  0.00     0.006 C 
ATOM     12  C   UNL     1     -18.078 -66.198   1.350  1.00  0.00     0.004 C 
ENDBRANCH   1  11
TORSDOF 4
ENDMDL
MODEL 9
REMARK VINA RESULT:    -3.419     10.710     11.049
REMARK INTER + INTRA:          -4.220
REMARK INTER:                  -4.204
REMARK INTRA:                  -0.016
REMARK UNBOUND:                -0.101
REMARK SMILES CC[C@H](C)[C@H]([NH3+])C(=O)[O-]
REMARK SMILES IDX 3 1 4 2 5 3 6 4 7 8 8 9 9 10 2 11 1 12
REMARK H PARENT 6 5 6 6 6 7
REMARK Flexibility Score: inf
ROOT
ATOM      1  C   UNL     1      -8.687 -70.999   1.020  1.00  0.00     0.050 C 
ATOM      2  C   UNL     1      -7.879 -71.866   2.001  1.00  0.00     0.014 C 
ENDROOT
BRANCH   1   3
ATOM      3  C   UNL     1      -8.383 -71.412  -0.460  1.00  0.00     0.230 C 
BRANCH   3   4
ATOM      4  N   UNL     1      -8.364 -70.264  -1.381  1.00  0.00    -0.350 N 
ATOM      5  H   UNL     1      -9.207 -70.300  -2.000  1.00  0.00     0.345 HD
ATOM      6  H   UNL     1      -8.374 -69.358  -0.860  1.00  0.00     0.345 HD
ATOM      7  H   UNL     1      -7.519 -70.302  -1.994  1.00  0.00     0.345 HD
ENDBRANCH   3   4
BRANCH   3   8
ATOM      8  C   UNL     1      -9.321 -72.492  -0.949  1.00  0.00     0.099 C 
ATOM      9  O   UNL     1     -10.192 -72.966  -0.173  1.00  0.00    -0.544 OA
ATOM     10  O   UNL     1      -9.217 -72.999  -2.241  1.00  0.00    -0.544 OA
ENDBRANCH   3   8
ENDBRANCH   1   3
BRANCH   1  11
ATOM     11  C   UNL     1      -8.456 -69.502   1.350  1.00  0.00     0.006 C 
ATOM     12  C   UNL     1      -8.282 -69.222   2.843  1.00  0.00     0.004 C 
ENDBRANCH   1  11
TORSDOF 4
ENDMDL
