MODEL 1
REMARK VINA RESULT:     2.651      0.000      0.000
REMARK INTER + INTRA:           3.339
REMARK INTER:                   3.736
REMARK INTRA:                  -0.397
REMARK UNBOUND:                -0.397
REMARK SMILES C=C(CC[C@H](C(=O)[O-])[C@H]1[C@H](O)C[C@]2(C)C3=C(CC[C@]12C)[C@]1(C)CC[C@H](O)C(C)(C)[C@@H]1CC3)C(C)C
REMARK SMILES IDX 4 1 5 2 6 3 7 4 8 5 9 6 10 7 19 8 12 9 13 10 18 11 20 12
REMARK SMILES IDX 14 13 15 14 17 15 16 16 32 17 21 18 31 19 30 20 23 21 22 22
REMARK SMILES IDX 27 23 24 24 25 25 28 26 29 27 11 28 26 30 3 32 2 33 1 34
REMARK SMILES IDX 33 35 34 36 35 37
REMARK H PARENT 11 29 26 31
REMARK Flexibility Score: inf
ROOT
ATOM      1  C   UNL     1       3.391  38.277  12.191  1.00  0.00     0.014 C 
ENDROOT
BRANCH   1   2
ATOM      2  C   UNL     1       3.768  39.786  12.119  1.00  0.00     0.042 C 
BRANCH   2   3
ATOM      3  C   UNL     1       4.570  40.254  13.316  1.00  0.00     0.045 C 
ATOM      4  O   UNL     1       5.297  41.282  13.262  1.00  0.00    -0.550 OA
ATOM      5  O   UNL     1       4.495  39.545  14.509  1.00  0.00    -0.550 OA
ENDBRANCH   2   3
BRANCH   2   6
ATOM      6  C   UNL     1       2.610  40.790  11.783  1.00  0.00     0.033 C 
ATOM      7  C   UNL     1       1.938  41.392  13.032  1.00  0.00     0.119 C 
ATOM      8  C   UNL     1       2.802  41.987  10.758  1.00  0.00    -0.017 C 
ATOM      9  C   UNL     1       1.270  42.676  12.550  1.00  0.00     0.043 C 
ATOM     10  C   UNL     1       2.222  43.267  11.493  1.00  0.00    -0.003 C 
ATOM     11  C   UNL     1       1.926  41.673   9.515  1.00  0.00     0.012 C 
ATOM     12  C   UNL     1       4.263  42.189  10.268  1.00  0.00     0.013 C 
ATOM     13  C   UNL     1       3.326  44.079  12.233  1.00  0.00     0.017 C 
ATOM     14  C   UNL     1       1.462  44.261  10.580  1.00  0.00    -0.064 C 
ATOM     15  C   UNL     1       1.820  42.844   8.548  1.00  0.00     0.032 C 
ATOM     16  C   UNL     1       1.337  44.115   9.226  1.00  0.00    -0.064 C 
ATOM     17  C   UNL     1       0.832  45.481  11.218  1.00  0.00     0.032 C 
ATOM     18  C   UNL     1       0.917  45.346   8.362  1.00  0.00    -0.008 C 
ATOM     19  C   UNL     1      -0.491  45.767  10.530  1.00  0.00     0.009 C 
ATOM     20  C   UNL     1      -0.286  46.172   9.036  1.00  0.00     0.007 C 
ATOM     21  C   UNL     1       2.219  46.187   8.209  1.00  0.00     0.014 C 
ATOM     22  C   UNL     1       0.472  44.872   6.948  1.00  0.00     0.016 C 
ATOM     23  C   UNL     1      -0.338  47.750   8.725  1.00  0.00    -0.006 C 
ATOM     24  C   UNL     1       1.996  47.593   7.669  1.00  0.00     0.033 C 
ATOM     25  C   UNL     1       1.079  48.390   8.599  1.00  0.00     0.120 C 
ATOM     26  C   UNL     1      -1.125  48.012   7.405  1.00  0.00     0.014 C 
ATOM     27  C   UNL     1      -1.125  48.554   9.799  1.00  0.00     0.014 C 
BRANCH   7  28
ATOM     28  O   UNL     1       1.020  40.512  13.634  1.00  0.00    -0.393 OA
ATOM     29  H   UNL     1       0.720  39.856  12.953  1.00  0.00     0.210 HD
ENDBRANCH   7  28
BRANCH  25  30
ATOM     30  O   UNL     1       1.682  48.514   9.864  1.00  0.00    -0.393 OA
ATOM     31  H   UNL     1       1.756  49.486  10.059  1.00  0.00     0.210 HD
ENDBRANCH  25  30
ENDBRANCH   2   6
ENDBRANCH   1   2
BRANCH   1  32
ATOM     32  C   UNL     1       1.954  38.041  12.691  1.00  0.00     0.031 C 
BRANCH  32  33
ATOM     33  C   UNL     1       1.304  36.822  12.065  1.00  0.00    -0.075 C 
ATOM     34  C   UNL     1       2.064  35.952  11.375  1.00  0.00     0.008 C 
BRANCH  33  35
ATOM     35  C   UNL     1      -0.210  36.660  12.127  1.00  0.00     0.008 C 
ATOM     36  C   UNL     1      -0.589  35.381  12.882  1.00  0.00     0.012 C 
ATOM     37  C   UNL     1      -0.899  37.885  12.746  1.00  0.00     0.012 C 
ENDBRANCH  33  35
ENDBRANCH  32  33
ENDBRANCH   1  32
TORSDOF 8
ENDMDL
MODEL 2
REMARK VINA RESULT:     5.621      1.899      3.129
REMARK INTER + INTRA:           7.525
REMARK INTER:                   7.369
REMARK INTRA:                   0.157
REMARK UNBOUND:                -0.397
REMARK SMILES C=C(CC[C@H](C(=O)[O-])[C@H]1[C@H](O)C[C@]2(C)C3=C(CC[C@]12C)[C@]1(C)CC[C@H](O)C(C)(C)[C@@H]1CC3)C(C)C
REMARK SMILES IDX 4 1 5 2 6 3 7 4 8 5 9 6 10 7 19 8 12 9 13 10 18 11 20 12
REMARK SMILES IDX 14 13 15 14 17 15 16 16 32 17 21 18 31 19 30 20 23 21 22 22
REMARK SMILES IDX 27 23 24 24 25 25 28 26 29 27 11 28 26 30 3 32 2 33 1 34
REMARK SMILES IDX 33 35 34 36 35 37
REMARK H PARENT 11 29 26 31
REMARK Flexibility Score: inf
ROOT
ATOM      1  C   UNL     1       2.316  39.947  13.033  1.00  0.00     0.014 C 
ENDROOT
BRANCH   1   2
ATOM      2  C   UNL     1       3.472  40.709  12.320  1.00  0.00     0.042 C 
BRANCH   2   3
ATOM      3  C   UNL     1       4.838  40.367  12.878  1.00  0.00     0.045 C 
ATOM      4  O   UNL     1       5.001  40.080  14.095  1.00  0.00    -0.550 OA
ATOM      5  O   UNL     1       5.940  40.353  12.031  1.00  0.00    -0.550 OA
ENDBRANCH   2   3
BRANCH   2   6
ATOM      6  C   UNL     1       3.299  42.258  12.148  1.00  0.00     0.033 C 
ATOM      7  C   UNL     1       4.634  43.011  11.992  1.00  0.00     0.119 C 
ATOM      8  C   UNL     1       2.307  42.883  11.077  1.00  0.00    -0.017 C 
ATOM      9  C   UNL     1       4.275  44.331  11.319  1.00  0.00     0.043 C 
ATOM     10  C   UNL     1       3.148  43.996  10.324  1.00  0.00    -0.003 C 
ATOM     11  C   UNL     1       1.151  43.562  11.862  1.00  0.00     0.012 C 
ATOM     12  C   UNL     1       1.674  41.849  10.104  1.00  0.00     0.013 C 
ATOM     13  C   UNL     1       3.799  43.463   9.013  1.00  0.00     0.017 C 
ATOM     14  C   UNL     1       2.359  45.276   9.952  1.00  0.00    -0.064 C 
ATOM     15  C   UNL     1       0.248  44.409  10.978  1.00  0.00     0.032 C 
ATOM     16  C   UNL     1       1.021  45.444  10.180  1.00  0.00    -0.064 C 
ATOM     17  C   UNL     1       3.107  46.408   9.278  1.00  0.00     0.032 C 
ATOM     18  C   UNL     1       0.255  46.573   9.419  1.00  0.00    -0.008 C 
ATOM     19  C   UNL     1       2.574  47.729   9.803  1.00  0.00     0.009 C 
ATOM     20  C   UNL     1       1.083  47.950   9.393  1.00  0.00     0.007 C 
ATOM     21  C   UNL     1      -0.001  45.991   7.998  1.00  0.00     0.014 C 
ATOM     22  C   UNL     1      -1.122  46.827  10.100  1.00  0.00     0.016 C 
ATOM     23  C   UNL     1       0.841  48.910   8.124  1.00  0.00    -0.006 C 
ATOM     24  C   UNL     1      -0.460  47.020   6.974  1.00  0.00     0.033 C 
ATOM     25  C   UNL     1       0.592  48.119   6.803  1.00  0.00     0.120 C 
ATOM     26  C   UNL     1      -0.378  49.847   8.384  1.00  0.00     0.014 C 
ATOM     27  C   UNL     1       2.022  49.891   7.871  1.00  0.00     0.014 C 
BRANCH   7  28
ATOM     28  O   UNL     1       5.295  43.207  13.220  1.00  0.00    -0.393 OA
ATOM     29  H   UNL     1       5.547  44.164  13.292  1.00  0.00     0.210 HD
ENDBRANCH   7  28
BRANCH  25  30
ATOM     30  O   UNL     1       1.791  47.556   6.329  1.00  0.00    -0.393 OA
ATOM     31  H   UNL     1       1.571  47.062   5.495  1.00  0.00     0.210 HD
ENDBRANCH  25  30
ENDBRANCH   2   6
ENDBRANCH   1   2
BRANCH   1  32
ATOM     32  C   UNL     1       0.981  40.714  12.996  1.00  0.00     0.031 C 
BRANCH  32  33
ATOM     33  C   UNL     1      -0.131  39.999  13.740  1.00  0.00    -0.075 C 
ATOM     34  C   UNL     1      -0.403  38.715  13.442  1.00  0.00     0.008 C 
BRANCH  33  35
ATOM     35  C   UNL     1      -0.995  40.772  14.729  1.00  0.00     0.008 C 
ATOM     36  C   UNL     1      -0.456  40.620  16.157  1.00  0.00     0.012 C 
ATOM     37  C   UNL     1      -1.124  42.255  14.349  1.00  0.00     0.012 C 
ENDBRANCH  33  35
ENDBRANCH  32  33
ENDBRANCH   1  32
TORSDOF 8
ENDMDL
