MODEL 1
REMARK VINA RESULT:    -4.356      0.000      0.000
REMARK INTER + INTRA:          -4.356
REMARK INTER:                  -4.356
REMARK INTRA:                   0.000
REMARK UNBOUND:                 0.000
REMARK SMILES CC(C)=C1CC[C@H](C)CC1=O
REMARK SMILES IDX 8 1 7 2 6 3 5 4 4 5 2 6 1 7 3 8 10 9 11 10 9 11
REMARK H PARENT
REMARK Flexibility Score: inf
ROOT
ATOM      1  C   UNL     1      -2.995   8.150 -11.452  1.00  0.00     0.008 C 
ATOM      2  C   UNL     1      -2.398   6.791 -11.054  1.00  0.00    -0.006 C 
ATOM      3  C   UNL     1      -1.018   6.552 -11.693  1.00  0.00     0.008 C 
ATOM      4  C   UNL     1       0.065   7.506 -11.164  1.00  0.00     0.039 C 
ATOM      5  C   UNL     1       0.102   7.577  -9.643  1.00  0.00    -0.006 C 
ATOM      6  C   UNL     1       1.265   7.834  -8.976  1.00  0.00    -0.070 C 
ATOM      7  C   UNL     1       2.558   8.075  -9.721  1.00  0.00     0.039 C 
ATOM      8  C   UNL     1       1.329   7.853  -7.467  1.00  0.00     0.039 C 
ATOM      9  C   UNL     1      -1.214   7.472  -8.944  1.00  0.00     0.159 C 
ATOM     10  O   UNL     1      -1.432   8.087  -7.866  1.00  0.00    -0.295 OA
ATOM     11  C   UNL     1      -2.312   6.631  -9.528  1.00  0.00     0.084 C 
ENDROOT
TORSDOF 0
ENDMDL
MODEL 2
REMARK VINA RESULT:    -4.243      1.607      2.280
REMARK INTER + INTRA:          -4.243
REMARK INTER:                  -4.243
REMARK INTRA:                   0.000
REMARK UNBOUND:                 0.000
REMARK SMILES CC(C)=C1CC[C@H](C)CC1=O
REMARK SMILES IDX 8 1 7 2 6 3 5 4 4 5 2 6 1 7 3 8 10 9 11 10 9 11
REMARK H PARENT
REMARK Flexibility Score: inf
ROOT
ATOM      1  C   UNL     1      -2.514   6.619 -11.783  1.00  0.00     0.008 C 
ATOM      2  C   UNL     1      -2.742   7.560 -10.590  1.00  0.00    -0.006 C 
ATOM      3  C   UNL     1      -2.272   6.942  -9.261  1.00  0.00     0.008 C 
ATOM      4  C   UNL     1      -0.747   6.755  -9.190  1.00  0.00     0.039 C 
ATOM      5  C   UNL     1       0.023   8.007  -9.586  1.00  0.00    -0.006 C 
ATOM      6  C   UNL     1       1.251   8.279  -9.054  1.00  0.00    -0.070 C 
ATOM      7  C   UNL     1       1.901   7.340  -8.063  1.00  0.00     0.039 C 
ATOM      8  C   UNL     1       2.004   9.544  -9.394  1.00  0.00     0.039 C 
ATOM      9  C   UNL     1      -0.582   8.842 -10.666  1.00  0.00     0.159 C 
ATOM     10  O   UNL     1       0.138   9.479 -11.482  1.00  0.00    -0.295 OA
ATOM     11  C   UNL     1      -2.074   8.927 -10.806  1.00  0.00     0.084 C 
ENDROOT
TORSDOF 0
ENDMDL
MODEL 3
REMARK VINA RESULT:    -4.189      1.910      4.317
REMARK INTER + INTRA:          -4.189
REMARK INTER:                  -4.189
REMARK INTRA:                   0.000
REMARK UNBOUND:                 0.000
REMARK SMILES CC(C)=C1CC[C@H](C)CC1=O
REMARK SMILES IDX 8 1 7 2 6 3 5 4 4 5 2 6 1 7 3 8 10 9 11 10 9 11
REMARK H PARENT
REMARK Flexibility Score: inf
ROOT
ATOM      1  C   UNL     1       1.114   7.902  -8.004  1.00  0.00     0.008 C 
ATOM      2  C   UNL     1       0.668   7.163  -9.275  1.00  0.00    -0.006 C 
ATOM      3  C   UNL     1      -0.785   6.665  -9.181  1.00  0.00     0.008 C 
ATOM      4  C   UNL     1      -1.812   7.808  -9.140  1.00  0.00     0.039 C 
ATOM      5  C   UNL     1      -1.592   8.843 -10.235  1.00  0.00    -0.006 C 
ATOM      6  C   UNL     1      -2.636   9.549 -10.761  1.00  0.00    -0.070 C 
ATOM      7  C   UNL     1      -4.050   9.343 -10.263  1.00  0.00     0.039 C 
ATOM      8  C   UNL     1      -2.443  10.538 -11.886  1.00  0.00     0.039 C 
ATOM      9  C   UNL     1      -0.173   9.121 -10.607  1.00  0.00     0.159 C 
ATOM     10  O   UNL     1       0.193  10.268 -10.979  1.00  0.00    -0.295 OA
ATOM     11  C   UNL     1       0.853   8.027 -10.532  1.00  0.00     0.084 C 
ENDROOT
TORSDOF 0
ENDMDL
MODEL 4
REMARK VINA RESULT:    -4.155      1.904      4.099
REMARK INTER + INTRA:          -4.155
REMARK INTER:                  -4.155
REMARK INTRA:                   0.000
REMARK UNBOUND:                 0.000
REMARK SMILES CC(C)=C1CC[C@H](C)CC1=O
REMARK SMILES IDX 8 1 7 2 6 3 5 4 4 5 2 6 1 7 3 8 10 9 11 10 9 11
REMARK H PARENT
REMARK Flexibility Score: inf
ROOT
ATOM      1  C   UNL     1       2.000   7.415 -11.533  1.00  0.00     0.008 C 
ATOM      2  C   UNL     1       1.445   7.820 -10.159  1.00  0.00    -0.006 C 
ATOM      3  C   UNL     1       1.064   9.309 -10.099  1.00  0.00     0.008 C 
ATOM      4  C   UNL     1      -0.128   9.663 -11.004  1.00  0.00     0.039 C 
ATOM      5  C   UNL     1      -1.312   8.724 -10.820  1.00  0.00    -0.006 C 
ATOM      6  C   UNL     1      -2.593   9.154 -11.019  1.00  0.00    -0.070 C 
ATOM      7  C   UNL     1      -2.884  10.575 -11.446  1.00  0.00     0.039 C 
ATOM      8  C   UNL     1      -3.781   8.250 -10.788  1.00  0.00     0.039 C 
ATOM      9  C   UNL     1      -0.985   7.296 -10.533  1.00  0.00     0.159 C 
ATOM     10  O   UNL     1      -1.721   6.360 -10.947  1.00  0.00    -0.295 OA
ATOM     11  C   UNL     1       0.247   6.948  -9.749  1.00  0.00     0.084 C 
ENDROOT
TORSDOF 0
ENDMDL
MODEL 5
REMARK VINA RESULT:    -3.870      1.885      2.824
REMARK INTER + INTRA:          -3.870
REMARK INTER:                  -3.870
REMARK INTRA:                   0.000
REMARK UNBOUND:                 0.000
REMARK SMILES CC(C)=C1CC[C@H](C)CC1=O
REMARK SMILES IDX 8 1 7 2 6 3 5 4 4 5 2 6 1 7 3 8 10 9 11 10 9 11
REMARK H PARENT
REMARK Flexibility Score: inf
ROOT
ATOM      1  C   UNL     1      -4.949   9.655 -10.546  1.00  0.00     0.008 C 
ATOM      2  C   UNL     1      -4.182   9.223 -11.806  1.00  0.00    -0.006 C 
ATOM      3  C   UNL     1      -2.983  10.141 -12.102  1.00  0.00     0.008 C 
ATOM      4  C   UNL     1      -1.872  10.042 -11.044  1.00  0.00     0.039 C 
ATOM      5  C   UNL     1      -1.477   8.605 -10.731  1.00  0.00    -0.006 C 
ATOM      6  C   UNL     1      -0.208   8.291 -10.337  1.00  0.00    -0.070 C 
ATOM      7  C   UNL     1       0.850   9.360 -10.179  1.00  0.00     0.039 C 
ATOM      8  C   UNL     1       0.215   6.864 -10.077  1.00  0.00     0.039 C 
ATOM      9  C   UNL     1      -2.576   7.595 -10.764  1.00  0.00     0.159 C 
ATOM     10  O   UNL     1      -2.571   6.598  -9.992  1.00  0.00    -0.295 OA
ATOM     11  C   UNL     1      -3.722   7.759 -11.719  1.00  0.00     0.084 C 
ENDROOT
TORSDOF 0
ENDMDL
MODEL 6
REMARK VINA RESULT:    -3.866     15.295     16.387
REMARK INTER + INTRA:          -3.866
REMARK INTER:                  -3.866
REMARK INTRA:                   0.000
REMARK UNBOUND:                 0.000
REMARK SMILES CC(C)=C1CC[C@H](C)CC1=O
REMARK SMILES IDX 8 1 7 2 6 3 5 4 4 5 2 6 1 7 3 8 10 9 11 10 9 11
REMARK H PARENT
REMARK Flexibility Score: inf
ROOT
ATOM      1  C   UNL     1      -2.010  13.512   5.917  1.00  0.00     0.008 C 
ATOM      2  C   UNL     1      -1.352  12.510   4.956  1.00  0.00    -0.006 C 
ATOM      3  C   UNL     1      -0.399  13.196   3.961  1.00  0.00     0.008 C 
ATOM      4  C   UNL     1       0.842  13.802   4.636  1.00  0.00     0.039 C 
ATOM      5  C   UNL     1       1.541  12.829   5.577  1.00  0.00    -0.006 C 
ATOM      6  C   UNL     1       2.888  12.898   5.791  1.00  0.00    -0.070 C 
ATOM      7  C   UNL     1       3.735  13.953   5.116  1.00  0.00     0.039 C 
ATOM      8  C   UNL     1       3.604  11.906   6.678  1.00  0.00     0.039 C 
ATOM      9  C   UNL     1       0.659  11.890   6.331  1.00  0.00     0.159 C 
ATOM     10  O   UNL     1       0.955  11.506   7.495  1.00  0.00    -0.295 OA
ATOM     11  C   UNL     1      -0.616  11.393   5.713  1.00  0.00     0.084 C 
ENDROOT
TORSDOF 0
ENDMDL
MODEL 7
REMARK VINA RESULT:    -3.840      2.010      2.785
REMARK INTER + INTRA:          -3.840
REMARK INTER:                  -3.840
REMARK INTRA:                   0.000
REMARK UNBOUND:                 0.000
REMARK SMILES CC(C)=C1CC[C@H](C)CC1=O
REMARK SMILES IDX 8 1 7 2 6 3 5 4 4 5 2 6 1 7 3 8 10 9 11 10 9 11
REMARK H PARENT
REMARK Flexibility Score: inf
ROOT
ATOM      1  C   UNL     1      -1.882   8.125  -8.357  1.00  0.00     0.008 C 
ATOM      2  C   UNL     1      -1.649   7.393  -9.687  1.00  0.00    -0.006 C 
ATOM      3  C   UNL     1      -1.723   8.342 -10.896  1.00  0.00     0.008 C 
ATOM      4  C   UNL     1      -0.577   9.366 -10.930  1.00  0.00     0.039 C 
ATOM      5  C   UNL     1       0.793   8.731 -10.737  1.00  0.00    -0.006 C 
ATOM      6  C   UNL     1       1.911   9.277 -11.301  1.00  0.00    -0.070 C 
ATOM      7  C   UNL     1       1.833  10.543 -12.125  1.00  0.00     0.039 C 
ATOM      8  C   UNL     1       3.268   8.628 -11.167  1.00  0.00     0.039 C 
ATOM      9  C   UNL     1       0.856   7.563  -9.809  1.00  0.00     0.159 C 
ATOM     10  O   UNL     1       1.877   7.343  -9.104  1.00  0.00    -0.295 OA
ATOM     11  C   UNL     1      -0.315   6.630  -9.692  1.00  0.00     0.084 C 
ENDROOT
TORSDOF 0
ENDMDL
MODEL 8
REMARK VINA RESULT:    -3.750     15.254     17.316
REMARK INTER + INTRA:          -3.750
REMARK INTER:                  -3.750
REMARK INTRA:                   0.000
REMARK UNBOUND:                 0.000
REMARK SMILES CC(C)=C1CC[C@H](C)CC1=O
REMARK SMILES IDX 8 1 7 2 6 3 5 4 4 5 2 6 1 7 3 8 10 9 11 10 9 11
REMARK H PARENT
REMARK Flexibility Score: inf
ROOT
ATOM      1  C   UNL     1       5.172  12.064   6.138  1.00  0.00     0.008 C 
ATOM      2  C   UNL     1       4.374  13.233   6.734  1.00  0.00    -0.006 C 
ATOM      3  C   UNL     1       3.747  14.125   5.647  1.00  0.00     0.008 C 
ATOM      4  C   UNL     1       2.650  13.411   4.840  1.00  0.00     0.039 C 
ATOM      5  C   UNL     1       1.624  12.714   5.722  1.00  0.00    -0.006 C 
ATOM      6  C   UNL     1       0.329  12.560   5.314  1.00  0.00    -0.070 C 
ATOM      7  C   UNL     1      -0.131  13.061   3.964  1.00  0.00     0.039 C 
ATOM      8  C   UNL     1      -0.714  11.920   6.200  1.00  0.00     0.039 C 
ATOM      9  C   UNL     1       2.139  12.110   6.987  1.00  0.00     0.159 C 
ATOM     10  O   UNL     1       1.632  11.060   7.465  1.00  0.00    -0.295 OA
ATOM     11  C   UNL     1       3.291  12.746   7.710  1.00  0.00     0.084 C 
ENDROOT
TORSDOF 0
ENDMDL
MODEL 9
REMARK VINA RESULT:    -3.711     10.683     12.652
REMARK INTER + INTRA:          -3.711
REMARK INTER:                  -3.711
REMARK INTRA:                   0.000
REMARK UNBOUND:                 0.000
REMARK SMILES CC(C)=C1CC[C@H](C)CC1=O
REMARK SMILES IDX 8 1 7 2 6 3 5 4 4 5 2 6 1 7 3 8 10 9 11 10 9 11
REMARK H PARENT
REMARK Flexibility Score: inf
ROOT
ATOM      1  C   UNL     1      12.375   9.199  -6.866  1.00  0.00     0.008 C 
ATOM      2  C   UNL     1      12.115   9.353  -5.360  1.00  0.00    -0.006 C 
ATOM      3  C   UNL     1      12.411  10.778  -4.860  1.00  0.00     0.008 C 
ATOM      4  C   UNL     1      11.442  11.828  -5.426  1.00  0.00     0.039 C 
ATOM      5  C   UNL     1       9.980  11.424  -5.285  1.00  0.00    -0.006 C 
ATOM      6  C   UNL     1       8.998  12.363  -5.145  1.00  0.00    -0.070 C 
ATOM      7  C   UNL     1       9.321  13.840  -5.141  1.00  0.00     0.039 C 
ATOM      8  C   UNL     1       7.551  11.977  -4.948  1.00  0.00     0.039 C 
ATOM      9  C   UNL     1       9.680   9.969  -5.430  1.00  0.00     0.159 C 
ATOM     10  O   UNL     1       8.594   9.572  -5.934  1.00  0.00    -0.295 OA
ATOM     11  C   UNL     1      10.682   8.945  -4.983  1.00  0.00     0.084 C 
ENDROOT
TORSDOF 0
ENDMDL
