MODEL 1
REMARK VINA RESULT:    -4.041      0.000      0.000
REMARK INTER + INTRA:          -9.640
REMARK INTER:                  -7.466
REMARK INTRA:                  -2.174
REMARK UNBOUND:                -2.174
REMARK SMILES CCCCCCCCCCCCCCCCO
REMARK SMILES IDX 9 1 8 2 7 3 6 4 5 5 4 6 3 7 2 8 1 9 10 10 11 11 12 12 13 13
REMARK SMILES IDX 14 14 15 15 16 16 17 17
REMARK H PARENT 17 18
REMARK Flexibility Score: inf
ROOT
ATOM      1  C   UNL     1     172.417 173.478 150.415  1.00  0.00     0.000 C 
ENDROOT
BRANCH   1   2
ATOM      2  C   UNL     1     171.834 172.085 150.713  1.00  0.00    -0.000 C 
BRANCH   2   3
ATOM      3  C   UNL     1     172.685 170.898 150.224  1.00  0.00    -0.000 C 
BRANCH   3   4
ATOM      4  C   UNL     1     173.409 170.169 151.369  1.00  0.00    -0.000 C 
BRANCH   4   5
ATOM      5  C   UNL     1     174.910 169.959 151.094  1.00  0.00    -0.000 C 
BRANCH   5   6
ATOM      6  C   UNL     1     175.240 169.163 149.819  1.00  0.00    -0.000 C 
BRANCH   6   7
ATOM      7  C   UNL     1     174.646 167.746 149.823  1.00  0.00    -0.000 C 
BRANCH   7   8
ATOM      8  C   UNL     1     173.710 167.541 148.626  1.00  0.00    -0.003 C 
ATOM      9  C   UNL     1     172.273 167.306 149.084  1.00  0.00     0.004 C 
ENDBRANCH   7   8
ENDBRANCH   6   7
ENDBRANCH   5   6
ENDBRANCH   4   5
ENDBRANCH   3   4
ENDBRANCH   2   3
ENDBRANCH   1   2
BRANCH   1  10
ATOM     10  C   UNL     1     173.717 173.424 149.599  1.00  0.00     0.000 C 
BRANCH  10  11
ATOM     11  C   UNL     1     174.931 173.763 150.474  1.00  0.00     0.000 C 
BRANCH  11  12
ATOM     12  C   UNL     1     174.489 174.357 151.817  1.00  0.00     0.000 C 
BRANCH  12  13
ATOM     13  C   UNL     1     175.506 174.032 152.922  1.00  0.00     0.000 C 
BRANCH  13  14
ATOM     14  C   UNL     1     175.194 172.710 153.642  1.00  0.00     0.002 C 
BRANCH  14  15
ATOM     15  C   UNL     1     173.745 172.642 154.151  1.00  0.00     0.028 C 
BRANCH  15  16
ATOM     16  C   UNL     1     173.572 173.406 155.468  1.00  0.00     0.156 C 
BRANCH  16  17
ATOM     17  O   UNL     1     172.865 174.599 155.267  1.00  0.00    -0.396 OA
ATOM     18  H   UNL     1     172.492 174.862 156.150  1.00  0.00     0.210 HD
ENDBRANCH  16  17
ENDBRANCH  15  16
ENDBRANCH  14  15
ENDBRANCH  13  14
ENDBRANCH  12  13
ENDBRANCH  11  12
ENDBRANCH  10  11
ENDBRANCH   1  10
TORSDOF 15
ENDMDL
MODEL 2
REMARK VINA RESULT:    -3.910      1.297      2.049
REMARK INTER + INTRA:          -9.397
REMARK INTER:                  -6.882
REMARK INTRA:                  -2.516
REMARK UNBOUND:                -2.174
REMARK SMILES CCCCCCCCCCCCCCCCO
REMARK SMILES IDX 9 1 8 2 7 3 6 4 5 5 4 6 3 7 2 8 1 9 10 10 11 11 12 12 13 13
REMARK SMILES IDX 14 14 15 15 16 16 17 17
REMARK H PARENT 17 18
REMARK Flexibility Score: inf
ROOT
ATOM      1  C   UNL     1     172.311 174.054 150.865  1.00  0.00     0.000 C 
ENDROOT
BRANCH   1   2
ATOM      2  C   UNL     1     171.115 173.085 150.876  1.00  0.00    -0.000 C 
BRANCH   2   3
ATOM      3  C   UNL     1     171.020 172.172 152.113  1.00  0.00    -0.000 C 
BRANCH   3   4
ATOM      4  C   UNL     1     171.408 170.714 151.812  1.00  0.00    -0.000 C 
BRANCH   4   5
ATOM      5  C   UNL     1     171.805 170.490 150.342  1.00  0.00    -0.000 C 
BRANCH   5   6
ATOM      6  C   UNL     1     173.139 169.754 150.126  1.00  0.00    -0.000 C 
BRANCH   6   7
ATOM      7  C   UNL     1     173.855 169.406 151.440  1.00  0.00    -0.000 C 
BRANCH   7   8
ATOM      8  C   UNL     1     175.366 169.265 151.221  1.00  0.00    -0.003 C 
ATOM      9  C   UNL     1     175.797 169.926 149.914  1.00  0.00     0.004 C 
ENDBRANCH   7   8
ENDBRANCH   6   7
ENDBRANCH   5   6
ENDBRANCH   4   5
ENDBRANCH   3   4
ENDBRANCH   2   3
ENDBRANCH   1   2
BRANCH   1  10
ATOM     10  C   UNL     1     173.383 173.676 149.832  1.00  0.00     0.000 C 
BRANCH  10  11
ATOM     11  C   UNL     1     174.680 173.234 150.521  1.00  0.00     0.000 C 
BRANCH  11  12
ATOM     12  C   UNL     1     175.218 174.339 151.438  1.00  0.00     0.000 C 
BRANCH  12  13
ATOM     13  C   UNL     1     175.423 173.816 152.867  1.00  0.00     0.000 C 
BRANCH  13  14
ATOM     14  C   UNL     1     174.756 172.450 153.098  1.00  0.00     0.002 C 
BRANCH  14  15
ATOM     15  C   UNL     1     173.870 172.431 154.354  1.00  0.00     0.028 C 
BRANCH  15  16
ATOM     16  C   UNL     1     173.707 173.832 154.953  1.00  0.00     0.156 C 
BRANCH  16  17
ATOM     17  O   UNL     1     172.464 174.382 154.610  1.00  0.00    -0.396 OA
ATOM     18  H   UNL     1     172.457 174.476 153.621  1.00  0.00     0.210 HD
ENDBRANCH  16  17
ENDBRANCH  15  16
ENDBRANCH  14  15
ENDBRANCH  13  14
ENDBRANCH  12  13
ENDBRANCH  11  12
ENDBRANCH  10  11
ENDBRANCH   1  10
TORSDOF 15
ENDMDL
MODEL 3
REMARK VINA RESULT:    -3.839      2.593      5.787
REMARK INTER + INTRA:          -9.267
REMARK INTER:                  -7.317
REMARK INTRA:                  -1.950
REMARK UNBOUND:                -2.174
REMARK SMILES CCCCCCCCCCCCCCCCO
REMARK SMILES IDX 9 1 8 2 7 3 6 4 5 5 4 6 3 7 2 8 1 9 10 10 11 11 12 12 13 13
REMARK SMILES IDX 14 14 15 15 16 16 17 17
REMARK H PARENT 17 18
REMARK Flexibility Score: inf
ROOT
ATOM      1  C   UNL     1     173.673 171.458 150.132  1.00  0.00     0.000 C 
ENDROOT
BRANCH   1   2
ATOM      2  C   UNL     1     173.448 172.942 149.788  1.00  0.00    -0.000 C 
BRANCH   2   3
ATOM      3  C   UNL     1     174.463 173.922 150.407  1.00  0.00    -0.000 C 
BRANCH   3   4
ATOM      4  C   UNL     1     174.175 174.224 151.888  1.00  0.00    -0.000 C 
BRANCH   4   5
ATOM      5  C   UNL     1     175.394 173.989 152.798  1.00  0.00    -0.000 C 
BRANCH   5   6
ATOM      6  C   UNL     1     175.277 172.793 153.759  1.00  0.00    -0.000 C 
BRANCH   6   7
ATOM      7  C   UNL     1     173.834 172.292 153.923  1.00  0.00    -0.000 C 
BRANCH   7   8
ATOM      8  C   UNL     1     173.741 170.786 153.648  1.00  0.00    -0.003 C 
ATOM      9  C   UNL     1     174.926 170.041 154.259  1.00  0.00     0.004 C 
ENDBRANCH   7   8
ENDBRANCH   6   7
ENDBRANCH   5   6
ENDBRANCH   4   5
ENDBRANCH   3   4
ENDBRANCH   2   3
ENDBRANCH   1   2
BRANCH   1  10
ATOM     10  C   UNL     1     175.158 171.068 150.169  1.00  0.00     0.000 C 
BRANCH  10  11
ATOM     11  C   UNL     1     175.326 169.558 150.377  1.00  0.00     0.000 C 
BRANCH  11  12
ATOM     12  C   UNL     1     173.973 168.840 150.296  1.00  0.00     0.000 C 
BRANCH  12  13
ATOM     13  C   UNL     1     174.060 167.605 149.386  1.00  0.00     0.000 C 
BRANCH  13  14
ATOM     14  C   UNL     1     174.607 166.369 150.118  1.00  0.00     0.002 C 
BRANCH  14  15
ATOM     15  C   UNL     1     173.760 165.984 151.342  1.00  0.00     0.028 C 
BRANCH  15  16
ATOM     16  C   UNL     1     174.636 165.581 152.532  1.00  0.00     0.156 C 
BRANCH  16  17
ATOM     17  O   UNL     1     175.463 166.641 152.929  1.00  0.00    -0.396 OA
ATOM     18  H   UNL     1     176.008 166.889 152.136  1.00  0.00     0.210 HD
ENDBRANCH  16  17
ENDBRANCH  15  16
ENDBRANCH  14  15
ENDBRANCH  13  14
ENDBRANCH  12  13
ENDBRANCH  11  12
ENDBRANCH  10  11
ENDBRANCH   1  10
TORSDOF 15
ENDMDL
MODEL 4
REMARK VINA RESULT:    -3.835      2.587      5.031
REMARK INTER + INTRA:          -9.259
REMARK INTER:                  -6.753
REMARK INTRA:                  -2.506
REMARK UNBOUND:                -2.174
REMARK SMILES CCCCCCCCCCCCCCCCO
REMARK SMILES IDX 9 1 8 2 7 3 6 4 5 5 4 6 3 7 2 8 1 9 10 10 11 11 12 12 13 13
REMARK SMILES IDX 14 14 15 15 16 16 17 17
REMARK H PARENT 17 18
REMARK Flexibility Score: inf
ROOT
ATOM      1  C   UNL     1     172.185 173.349 150.504  1.00  0.00     0.000 C 
ENDROOT
BRANCH   1   2
ATOM      2  C   UNL     1     173.515 173.528 149.750  1.00  0.00    -0.000 C 
BRANCH   2   3
ATOM      3  C   UNL     1     174.721 173.919 150.627  1.00  0.00    -0.000 C 
BRANCH   3   4
ATOM      4  C   UNL     1     174.328 174.218 152.084  1.00  0.00    -0.000 C 
BRANCH   4   5
ATOM      5  C   UNL     1     175.387 173.751 153.099  1.00  0.00    -0.000 C 
BRANCH   5   6
ATOM      6  C   UNL     1     175.159 172.348 153.689  1.00  0.00    -0.000 C 
BRANCH   6   7
ATOM      7  C   UNL     1     173.678 172.042 153.960  1.00  0.00    -0.000 C 
BRANCH   7   8
ATOM      8  C   UNL     1     173.500 170.611 154.482  1.00  0.00    -0.003 C 
ATOM      9  C   UNL     1     172.271 169.949 153.864  1.00  0.00     0.004 C 
ENDBRANCH   7   8
ENDBRANCH   6   7
ENDBRANCH   5   6
ENDBRANCH   4   5
ENDBRANCH   3   4
ENDBRANCH   2   3
ENDBRANCH   1   2
BRANCH   1  10
ATOM     10  C   UNL     1     171.840 171.877 150.773  1.00  0.00     0.000 C 
BRANCH  10  11
ATOM     11  C   UNL     1     172.409 170.968 149.676  1.00  0.00     0.000 C 
BRANCH  11  12
ATOM     12  C   UNL     1     173.243 169.833 150.281  1.00  0.00     0.000 C 
BRANCH  12  13
ATOM     13  C   UNL     1     174.667 170.309 150.604  1.00  0.00     0.000 C 
BRANCH  13  14
ATOM     14  C   UNL     1     175.454 169.291 151.445  1.00  0.00     0.002 C 
BRANCH  14  15
ATOM     15  C   UNL     1     174.691 167.972 151.641  1.00  0.00     0.028 C 
BRANCH  15  16
ATOM     16  C   UNL     1     174.888 167.408 153.051  1.00  0.00     0.156 C 
BRANCH  16  17
ATOM     17  O   UNL     1     175.214 166.045 153.005  1.00  0.00    -0.396 OA
ATOM     18  H   UNL     1     175.676 165.892 152.139  1.00  0.00     0.210 HD
ENDBRANCH  16  17
ENDBRANCH  15  16
ENDBRANCH  14  15
ENDBRANCH  13  14
ENDBRANCH  12  13
ENDBRANCH  11  12
ENDBRANCH  10  11
ENDBRANCH   1  10
TORSDOF 15
ENDMDL
MODEL 5
REMARK VINA RESULT:    -3.770      1.435      2.197
REMARK INTER + INTRA:          -9.139
REMARK INTER:                  -7.404
REMARK INTRA:                  -1.735
REMARK UNBOUND:                -2.174
REMARK SMILES CCCCCCCCCCCCCCCCO
REMARK SMILES IDX 9 1 8 2 7 3 6 4 5 5 4 6 3 7 2 8 1 9 10 10 11 11 12 12 13 13
REMARK SMILES IDX 14 14 15 15 16 16 17 17
REMARK H PARENT 17 18
REMARK Flexibility Score: inf
ROOT
ATOM      1  C   UNL     1     174.000 170.799 150.164  1.00  0.00     0.000 C 
ENDROOT
BRANCH   1   2
ATOM      2  C   UNL     1     175.086 170.378 151.171  1.00  0.00    -0.000 C 
BRANCH   2   3
ATOM      3  C   UNL     1     174.582 170.086 152.597  1.00  0.00    -0.000 C 
BRANCH   3   4
ATOM      4  C   UNL     1     174.871 168.644 153.050  1.00  0.00    -0.000 C 
BRANCH   4   5
ATOM      5  C   UNL     1     173.848 167.629 152.508  1.00  0.00    -0.000 C 
BRANCH   5   6
ATOM      6  C   UNL     1     174.438 166.286 152.042  1.00  0.00    -0.000 C 
BRANCH   6   7
ATOM      7  C   UNL     1     174.087 165.948 150.585  1.00  0.00    -0.000 C 
BRANCH   7   8
ATOM      8  C   UNL     1     174.542 167.063 149.637  1.00  0.00    -0.003 C 
ATOM      9  C   UNL     1     173.410 167.494 148.708  1.00  0.00     0.004 C 
ENDBRANCH   7   8
ENDBRANCH   6   7
ENDBRANCH   5   6
ENDBRANCH   4   5
ENDBRANCH   3   4
ENDBRANCH   2   3
ENDBRANCH   1   2
BRANCH   1  10
ATOM     10  C   UNL     1     173.511 172.240 150.374  1.00  0.00     0.000 C 
BRANCH  10  11
ATOM     11  C   UNL     1     174.439 173.243 149.676  1.00  0.00     0.000 C 
BRANCH  11  12
ATOM     12  C   UNL     1     175.026 174.239 150.683  1.00  0.00     0.000 C 
BRANCH  12  13
ATOM     13  C   UNL     1     174.289 174.159 152.028  1.00  0.00     0.000 C 
BRANCH  13  14
ATOM     14  C   UNL     1     175.251 174.068 153.224  1.00  0.00     0.002 C 
BRANCH  14  15
ATOM     15  C   UNL     1     174.668 173.252 154.389  1.00  0.00     0.028 C 
BRANCH  15  16
ATOM     16  C   UNL     1     173.151 173.433 154.503  1.00  0.00     0.156 C 
BRANCH  16  17
ATOM     17  O   UNL     1     172.837 174.626 155.170  1.00  0.00    -0.396 OA
ATOM     18  H   UNL     1     172.049 174.432 155.745  1.00  0.00     0.210 HD
ENDBRANCH  16  17
ENDBRANCH  15  16
ENDBRANCH  14  15
ENDBRANCH  13  14
ENDBRANCH  12  13
ENDBRANCH  11  12
ENDBRANCH  10  11
ENDBRANCH   1  10
TORSDOF 15
ENDMDL
MODEL 6
REMARK VINA RESULT:    -3.747      2.657      5.349
REMARK INTER + INTRA:          -9.097
REMARK INTER:                  -6.547
REMARK INTRA:                  -2.550
REMARK UNBOUND:                -2.174
REMARK SMILES CCCCCCCCCCCCCCCCO
REMARK SMILES IDX 9 1 8 2 7 3 6 4 5 5 4 6 3 7 2 8 1 9 10 10 11 11 12 12 13 13
REMARK SMILES IDX 14 14 15 15 16 16 17 17
REMARK H PARENT 17 18
REMARK Flexibility Score: inf
ROOT
ATOM      1  C   UNL     1     174.558 173.881 150.197  1.00  0.00     0.000 C 
ENDROOT
BRANCH   1   2
ATOM      2  C   UNL     1     175.465 174.254 151.383  1.00  0.00    -0.000 C 
BRANCH   2   3
ATOM      3  C   UNL     1     174.798 174.179 152.770  1.00  0.00    -0.000 C 
BRANCH   3   4
ATOM      4  C   UNL     1     174.779 172.754 153.348  1.00  0.00    -0.000 C 
BRANCH   4   5
ATOM      5  C   UNL     1     173.359 172.256 153.674  1.00  0.00    -0.000 C 
BRANCH   5   6
ATOM      6  C   UNL     1     172.236 173.286 153.455  1.00  0.00    -0.000 C 
BRANCH   6   7
ATOM      7  C   UNL     1     171.019 172.703 152.720  1.00  0.00    -0.000 C 
BRANCH   7   8
ATOM      8  C   UNL     1     170.532 173.657 151.623  1.00  0.00    -0.003 C 
ATOM      9  C   UNL     1     171.388 174.919 151.571  1.00  0.00     0.004 C 
ENDBRANCH   7   8
ENDBRANCH   6   7
ENDBRANCH   5   6
ENDBRANCH   4   5
ENDBRANCH   3   4
ENDBRANCH   2   3
ENDBRANCH   1   2
BRANCH   1  10
ATOM     10  C   UNL     1     174.610 172.387 149.846  1.00  0.00     0.000 C 
BRANCH  10  11
ATOM     11  C   UNL     1     173.240 171.726 150.044  1.00  0.00     0.000 C 
BRANCH  11  12
ATOM     12  C   UNL     1     173.394 170.272 150.506  1.00  0.00     0.000 C 
BRANCH  12  13
ATOM     13  C   UNL     1     174.872 169.854 150.522  1.00  0.00     0.000 C 
BRANCH  13  14
ATOM     14  C   UNL     1     175.311 169.288 151.882  1.00  0.00     0.002 C 
BRANCH  14  15
ATOM     15  C   UNL     1     174.147 168.661 152.664  1.00  0.00     0.028 C 
BRANCH  15  16
ATOM     16  C   UNL     1     174.190 167.130 152.613  1.00  0.00     0.156 C 
BRANCH  16  17
ATOM     17  O   UNL     1     175.425 166.648 153.071  1.00  0.00    -0.396 OA
ATOM     18  H   UNL     1     175.970 167.444 153.311  1.00  0.00     0.210 HD
ENDBRANCH  16  17
ENDBRANCH  15  16
ENDBRANCH  14  15
ENDBRANCH  13  14
ENDBRANCH  12  13
ENDBRANCH  11  12
ENDBRANCH  10  11
ENDBRANCH   1  10
TORSDOF 15
ENDMDL
MODEL 7
REMARK VINA RESULT:    -3.707      2.030      4.497
REMARK INTER + INTRA:          -9.022
REMARK INTER:                  -6.501
REMARK INTRA:                  -2.522
REMARK UNBOUND:                -2.174
REMARK SMILES CCCCCCCCCCCCCCCCO
REMARK SMILES IDX 9 1 8 2 7 3 6 4 5 5 4 6 3 7 2 8 1 9 10 10 11 11 12 12 13 13
REMARK SMILES IDX 14 14 15 15 16 16 17 17
REMARK H PARENT 17 18
REMARK Flexibility Score: inf
ROOT
ATOM      1  C   UNL     1     174.417 172.875 149.768  1.00  0.00     0.000 C 
ENDROOT
BRANCH   1   2
ATOM      2  C   UNL     1     175.008 174.042 150.580  1.00  0.00    -0.000 C 
BRANCH   2   3
ATOM      3  C   UNL     1     174.409 174.234 151.987  1.00  0.00    -0.000 C 
BRANCH   3   4
ATOM      4  C   UNL     1     175.424 173.964 153.111  1.00  0.00    -0.000 C 
BRANCH   4   5
ATOM      5  C   UNL     1     174.876 173.030 154.204  1.00  0.00    -0.000 C 
BRANCH   5   6
ATOM      6  C   UNL     1     174.899 171.530 153.860  1.00  0.00    -0.000 C 
BRANCH   6   7
ATOM      7  C   UNL     1     173.646 170.782 154.340  1.00  0.00    -0.000 C 
BRANCH   7   8
ATOM      8  C   UNL     1     173.727 169.293 153.985  1.00  0.00    -0.003 C 
ATOM      9  C   UNL     1     175.145 168.898 153.583  1.00  0.00     0.004 C 
ENDBRANCH   7   8
ENDBRANCH   6   7
ENDBRANCH   5   6
ENDBRANCH   4   5
ENDBRANCH   3   4
ENDBRANCH   2   3
ENDBRANCH   1   2
BRANCH   1  10
ATOM     10  C   UNL     1     174.979 171.508 150.186  1.00  0.00     0.000 C 
BRANCH  10  11
ATOM     11  C   UNL     1     173.849 170.494 150.408  1.00  0.00     0.000 C 
BRANCH  11  12
ATOM     12  C   UNL     1     172.484 171.115 150.092  1.00  0.00     0.000 C 
BRANCH  12  13
ATOM     13  C   UNL     1     171.530 170.984 151.288  1.00  0.00     0.000 C 
BRANCH  13  14
ATOM     14  C   UNL     1     171.216 172.338 151.945  1.00  0.00     0.002 C 
BRANCH  14  15
ATOM     15  C   UNL     1     170.969 173.450 150.914  1.00  0.00     0.028 C 
BRANCH  15  16
ATOM     16  C   UNL     1     169.689 174.235 151.224  1.00  0.00     0.156 C 
BRANCH  16  17
ATOM     17  O   UNL     1     169.664 174.644 152.564  1.00  0.00    -0.396 OA
ATOM     18  H   UNL     1     170.566 174.456 152.936  1.00  0.00     0.210 HD
ENDBRANCH  16  17
ENDBRANCH  15  16
ENDBRANCH  14  15
ENDBRANCH  13  14
ENDBRANCH  12  13
ENDBRANCH  11  12
ENDBRANCH  10  11
ENDBRANCH   1  10
TORSDOF 15
ENDMDL
MODEL 8
REMARK VINA RESULT:    -3.707      2.277      5.278
REMARK INTER + INTRA:          -9.022
REMARK INTER:                  -6.655
REMARK INTRA:                  -2.367
REMARK UNBOUND:                -2.174
REMARK SMILES CCCCCCCCCCCCCCCCO
REMARK SMILES IDX 9 1 8 2 7 3 6 4 5 5 4 6 3 7 2 8 1 9 10 10 11 11 12 12 13 13
REMARK SMILES IDX 14 14 15 15 16 16 17 17
REMARK H PARENT 17 18
REMARK Flexibility Score: inf
ROOT
ATOM      1  C   UNL     1     171.769 171.708 151.494  1.00  0.00     0.000 C 
ENDROOT
BRANCH   1   2
ATOM      2  C   UNL     1     171.340 173.038 150.847  1.00  0.00    -0.000 C 
BRANCH   2   3
ATOM      3  C   UNL     1     172.474 174.058 150.629  1.00  0.00    -0.000 C 
BRANCH   3   4
ATOM      4  C   UNL     1     173.652 173.482 149.826  1.00  0.00    -0.000 C 
BRANCH   4   5
ATOM      5  C   UNL     1     174.995 173.586 150.571  1.00  0.00    -0.000 C 
BRANCH   5   6
ATOM      6  C   UNL     1     174.927 174.243 151.961  1.00  0.00    -0.000 C 
BRANCH   6   7
ATOM      7  C   UNL     1     175.259 173.271 153.104  1.00  0.00    -0.000 C 
BRANCH   7   8
ATOM      8  C   UNL     1     174.023 172.996 153.967  1.00  0.00    -0.003 C 
ATOM      9  C   UNL     1     174.073 173.791 155.270  1.00  0.00     0.004 C 
ENDBRANCH   7   8
ENDBRANCH   6   7
ENDBRANCH   5   6
ENDBRANCH   4   5
ENDBRANCH   3   4
ENDBRANCH   2   3
ENDBRANCH   1   2
BRANCH   1  10
ATOM     10  C   UNL     1     171.248 170.476 150.739  1.00  0.00     0.000 C 
BRANCH  10  11
ATOM     11  C   UNL     1     172.204 170.081 149.605  1.00  0.00     0.000 C 
BRANCH  11  12
ATOM     12  C   UNL     1     173.317 169.163 150.123  1.00  0.00     0.000 C 
BRANCH  12  13
ATOM     13  C   UNL     1     174.684 169.861 150.049  1.00  0.00     0.000 C 
BRANCH  13  14
ATOM     14  C   UNL     1     175.346 170.012 151.429  1.00  0.00     0.002 C 
BRANCH  14  15
ATOM     15  C   UNL     1     174.503 169.397 152.557  1.00  0.00     0.028 C 
BRANCH  15  16
ATOM     16  C   UNL     1     175.366 168.590 153.533  1.00  0.00     0.156 C 
BRANCH  16  17
ATOM     17  O   UNL     1     175.443 167.247 153.141  1.00  0.00    -0.396 OA
ATOM     18  H   UNL     1     174.581 166.825 153.400  1.00  0.00     0.210 HD
ENDBRANCH  16  17
ENDBRANCH  15  16
ENDBRANCH  14  15
ENDBRANCH  13  14
ENDBRANCH  12  13
ENDBRANCH  11  12
ENDBRANCH  10  11
ENDBRANCH   1  10
TORSDOF 15
ENDMDL
MODEL 9
REMARK VINA RESULT:    -3.672      1.868      3.461
REMARK INTER + INTRA:          -8.958
REMARK INTER:                  -6.416
REMARK INTRA:                  -2.543
REMARK UNBOUND:                -2.174
REMARK SMILES CCCCCCCCCCCCCCCCO
REMARK SMILES IDX 9 1 8 2 7 3 6 4 5 5 4 6 3 7 2 8 1 9 10 10 11 11 12 12 13 13
REMARK SMILES IDX 14 14 15 15 16 16 17 17
REMARK H PARENT 17 18
REMARK Flexibility Score: inf
ROOT
ATOM      1  C   UNL     1     174.441 174.257 152.052  1.00  0.00     0.000 C 
ENDROOT
BRANCH   1   2
ATOM      2  C   UNL     1     174.749 173.847 150.600  1.00  0.00    -0.000 C 
BRANCH   2   3
ATOM      3  C   UNL     1     173.602 173.133 149.861  1.00  0.00    -0.000 C 
BRANCH   3   4
ATOM      4  C   UNL     1     173.604 171.610 150.081  1.00  0.00    -0.000 C 
BRANCH   4   5
ATOM      5  C   UNL     1     175.023 171.017 150.157  1.00  0.00    -0.000 C 
BRANCH   5   6
ATOM      6  C   UNL     1     175.088 169.488 150.319  1.00  0.00    -0.000 C 
BRANCH   6   7
ATOM      7  C   UNL     1     174.352 168.982 151.569  1.00  0.00    -0.000 C 
BRANCH   7   8
ATOM      8  C   UNL     1     175.339 168.670 152.699  1.00  0.00    -0.003 C 
ATOM      9  C   UNL     1     174.614 168.498 154.032  1.00  0.00     0.004 C 
ENDBRANCH   7   8
ENDBRANCH   6   7
ENDBRANCH   5   6
ENDBRANCH   4   5
ENDBRANCH   3   4
ENDBRANCH   2   3
ENDBRANCH   1   2
BRANCH   1  10
ATOM     10  C   UNL     1     175.329 173.541 153.080  1.00  0.00     0.000 C 
BRANCH  10  11
ATOM     11  C   UNL     1     174.667 172.247 153.573  1.00  0.00     0.000 C 
BRANCH  11  12
ATOM     12  C   UNL     1     173.229 172.508 154.033  1.00  0.00     0.000 C 
BRANCH  12  13
ATOM     13  C   UNL     1     172.346 171.272 153.804  1.00  0.00     0.000 C 
BRANCH  13  14
ATOM     14  C   UNL     1     171.288 171.495 152.711  1.00  0.00     0.002 C 
BRANCH  14  15
ATOM     15  C   UNL     1     170.956 172.982 152.507  1.00  0.00     0.028 C 
BRANCH  15  16
ATOM     16  C   UNL     1     169.605 173.350 153.130  1.00  0.00     0.156 C 
BRANCH  16  17
ATOM     17  O   UNL     1     169.721 173.516 154.517  1.00  0.00    -0.396 OA
ATOM     18  H   UNL     1     170.205 174.372 154.662  1.00  0.00     0.210 HD
ENDBRANCH  16  17
ENDBRANCH  15  16
ENDBRANCH  14  15
ENDBRANCH  13  14
ENDBRANCH  12  13
ENDBRANCH  11  12
ENDBRANCH  10  11
ENDBRANCH   1  10
TORSDOF 15
ENDMDL
