MODEL 1
REMARK VINA RESULT:    -4.927      0.000      0.000
REMARK INTER + INTRA:         -10.260
REMARK INTER:                  -8.959
REMARK INTRA:                  -1.300
REMARK UNBOUND:                -1.300
REMARK SMILES CCCCCCCCCCCCCC[C@@H](C)C(=O)[O-]
REMARK SMILES IDX 9 1 10 2 11 3 12 4 13 5 14 6 15 7 16 8 17 9 18 10 19 11 8 12
REMARK SMILES IDX 7 13 6 14 5 15 4 16 3 17 2 18 1 19
REMARK H PARENT
REMARK Flexibility Score: inf
ROOT
ATOM      1  C   UNL     1       8.952  28.402 -14.745  1.00  0.00     0.000 C 
ENDROOT
BRANCH   1   2
ATOM      2  C   UNL     1      10.235  27.772 -15.316  1.00  0.00     0.000 C 
BRANCH   2   3
ATOM      3  C   UNL     1      10.911  26.721 -14.411  1.00  0.00     0.000 C 
BRANCH   3   4
ATOM      4  C   UNL     1      10.798  25.260 -14.887  1.00  0.00     0.000 C 
BRANCH   4   5
ATOM      5  C   UNL     1       9.621  24.507 -14.250  1.00  0.00     0.001 C 
BRANCH   5   6
ATOM      6  C   UNL     1       9.359  24.897 -12.779  1.00  0.00     0.009 C 
BRANCH   6   7
ATOM      7  C   UNL     1       8.161  24.216 -12.064  1.00  0.00     0.032 C 
ATOM      8  C   UNL     1       8.378  24.049 -10.551  1.00  0.00     0.014 C 
BRANCH   7   9
ATOM      9  C   UNL     1       6.839  24.861 -12.388  1.00  0.00     0.044 C 
ATOM     10  O   UNL     1       5.757  24.358 -11.983  1.00  0.00    -0.550 OA
ATOM     11  O   UNL     1       6.813  26.054 -13.098  1.00  0.00    -0.550 OA
ENDBRANCH   7   9
ENDBRANCH   6   7
ENDBRANCH   5   6
ENDBRANCH   4   5
ENDBRANCH   3   4
ENDBRANCH   2   3
ENDBRANCH   1   2
BRANCH   1  12
ATOM     12  C   UNL     1       9.100  28.827 -13.277  1.00  0.00     0.000 C 
BRANCH  12  13
ATOM     13  C   UNL     1       7.822  29.510 -12.771  1.00  0.00    -0.000 C 
BRANCH  13  14
ATOM     14  C   UNL     1       7.876  31.026 -13.015  1.00  0.00    -0.000 C 
BRANCH  14  15
ATOM     15  C   UNL     1       6.481  31.670 -13.034  1.00  0.00    -0.000 C 
BRANCH  15  16
ATOM     16  C   UNL     1       5.696  31.345 -14.316  1.00  0.00    -0.000 C 
BRANCH  16  17
ATOM     17  C   UNL     1       6.578  31.365 -15.577  1.00  0.00    -0.000 C 
BRANCH  17  18
ATOM     18  C   UNL     1       6.464  32.671 -16.389  1.00  0.00    -0.003 C 
ATOM     19  C   UNL     1       5.546  32.525 -17.603  1.00  0.00     0.004 C 
ENDBRANCH  17  18
ENDBRANCH  16  17
ENDBRANCH  15  16
ENDBRANCH  14  15
ENDBRANCH  13  14
ENDBRANCH  12  13
ENDBRANCH   1  12
TORSDOF 14
ENDMDL
MODEL 2
REMARK VINA RESULT:    -4.913      3.778      8.248
REMARK INTER + INTRA:         -10.235
REMARK INTER:                  -9.029
REMARK INTRA:                  -1.206
REMARK UNBOUND:                -1.300
REMARK SMILES CCCCCCCCCCCCCC[C@@H](C)C(=O)[O-]
REMARK SMILES IDX 9 1 10 2 11 3 12 4 13 5 14 6 15 7 16 8 17 9 18 10 19 11 8 12
REMARK SMILES IDX 7 13 6 14 5 15 4 16 3 17 2 18 1 19
REMARK H PARENT
REMARK Flexibility Score: inf
ROOT
ATOM      1  C   UNL     1       7.532  29.795 -12.815  1.00  0.00     0.000 C 
ENDROOT
BRANCH   1   2
ATOM      2  C   UNL     1       7.587  31.332 -12.806  1.00  0.00     0.000 C 
BRANCH   2   3
ATOM      3  C   UNL     1       6.842  32.024 -13.967  1.00  0.00     0.000 C 
BRANCH   3   4
ATOM      4  C   UNL     1       5.592  31.289 -14.488  1.00  0.00     0.000 C 
BRANCH   4   5
ATOM      5  C   UNL     1       4.277  31.965 -14.074  1.00  0.00     0.001 C 
BRANCH   5   6
ATOM      6  C   UNL     1       4.476  33.264 -13.264  1.00  0.00     0.009 C 
BRANCH   6   7
ATOM      7  C   UNL     1       3.822  33.334 -11.858  1.00  0.00     0.032 C 
ATOM      8  C   UNL     1       4.851  33.380 -10.716  1.00  0.00     0.014 C 
BRANCH   7   9
ATOM      9  C   UNL     1       2.788  34.424 -11.744  1.00  0.00     0.044 C 
ATOM     10  O   UNL     1       1.863  34.353 -10.892  1.00  0.00    -0.550 OA
ATOM     11  O   UNL     1       2.884  35.548 -12.555  1.00  0.00    -0.550 OA
ENDBRANCH   7   9
ENDBRANCH   6   7
ENDBRANCH   5   6
ENDBRANCH   4   5
ENDBRANCH   3   4
ENDBRANCH   2   3
ENDBRANCH   1   2
BRANCH   1  12
ATOM     12  C   UNL     1       8.909  29.150 -13.023  1.00  0.00     0.000 C 
BRANCH  12  13
ATOM     13  C   UNL     1       8.777  27.645 -13.291  1.00  0.00    -0.000 C 
BRANCH  13  14
ATOM     14  C   UNL     1       7.317  27.188 -13.152  1.00  0.00    -0.000 C 
BRANCH  14  15
ATOM     15  C   UNL     1       7.194  25.683 -12.864  1.00  0.00    -0.000 C 
BRANCH  15  16
ATOM     16  C   UNL     1       8.475  24.908 -13.214  1.00  0.00    -0.000 C 
BRANCH  16  17
ATOM     17  C   UNL     1       8.768  23.764 -12.228  1.00  0.00    -0.000 C 
BRANCH  17  18
ATOM     18  C   UNL     1       8.558  24.154 -10.750  1.00  0.00    -0.003 C 
ATOM     19  C   UNL     1       7.725  23.124  -9.988  1.00  0.00     0.004 C 
ENDBRANCH  17  18
ENDBRANCH  16  17
ENDBRANCH  15  16
ENDBRANCH  14  15
ENDBRANCH  13  14
ENDBRANCH  12  13
ENDBRANCH   1  12
TORSDOF 14
ENDMDL
MODEL 3
REMARK VINA RESULT:    -4.911      8.821     10.695
REMARK INTER + INTRA:         -10.231
REMARK INTER:                  -9.440
REMARK INTRA:                  -0.790
REMARK UNBOUND:                -1.300
REMARK SMILES CCCCCCCCCCCCCC[C@@H](C)C(=O)[O-]
REMARK SMILES IDX 9 1 10 2 11 3 12 4 13 5 14 6 15 7 16 8 17 9 18 10 19 11 8 12
REMARK SMILES IDX 7 13 6 14 5 15 4 16 3 17 2 18 1 19
REMARK H PARENT
REMARK Flexibility Score: inf
ROOT
ATOM      1  C   UNL     1       2.493  21.872 -14.076  1.00  0.00     0.000 C 
ENDROOT
BRANCH   1   2
ATOM      2  C   UNL     1       2.120  20.425 -13.707  1.00  0.00     0.000 C 
BRANCH   2   3
ATOM      3  C   UNL     1       2.083  20.120 -12.195  1.00  0.00     0.000 C 
BRANCH   3   4
ATOM      4  C   UNL     1       1.467  21.219 -11.309  1.00  0.00     0.000 C 
BRANCH   4   5
ATOM      5  C   UNL     1       2.202  21.398  -9.972  1.00  0.00     0.001 C 
BRANCH   5   6
ATOM      6  C   UNL     1       1.263  21.694  -8.783  1.00  0.00     0.009 C 
BRANCH   6   7
ATOM      7  C   UNL     1       1.345  20.746  -7.557  1.00  0.00     0.032 C 
ATOM      8  C   UNL     1       0.228  20.990  -6.529  1.00  0.00     0.014 C 
BRANCH   7   9
ATOM      9  C   UNL     1       1.463  19.295  -7.944  1.00  0.00     0.044 C 
ATOM     10  O   UNL     1       2.445  18.601  -7.568  1.00  0.00    -0.550 OA
ATOM     11  O   UNL     1       0.449  18.696  -8.682  1.00  0.00    -0.550 OA
ENDBRANCH   7   9
ENDBRANCH   6   7
ENDBRANCH   5   6
ENDBRANCH   4   5
ENDBRANCH   3   4
ENDBRANCH   2   3
ENDBRANCH   1   2
BRANCH   1  12
ATOM     12  C   UNL     1       3.255  21.971 -15.405  1.00  0.00     0.000 C 
BRANCH  12  13
ATOM     13  C   UNL     1       2.286  21.990 -16.594  1.00  0.00    -0.000 C 
BRANCH  13  14
ATOM     14  C   UNL     1       2.843  22.842 -17.744  1.00  0.00    -0.000 C 
BRANCH  14  15
ATOM     15  C   UNL     1       2.161  22.538 -19.088  1.00  0.00    -0.000 C 
BRANCH  15  16
ATOM     16  C   UNL     1       1.366  21.223 -19.064  1.00  0.00    -0.000 C 
BRANCH  16  17
ATOM     17  C   UNL     1       1.746  20.274 -20.214  1.00  0.00    -0.000 C 
BRANCH  17  18
ATOM     18  C   UNL     1       3.124  20.581 -20.837  1.00  0.00    -0.003 C 
ATOM     19  C   UNL     1       3.849  19.317 -21.299  1.00  0.00     0.004 C 
ENDBRANCH  17  18
ENDBRANCH  16  17
ENDBRANCH  15  16
ENDBRANCH  14  15
ENDBRANCH  13  14
ENDBRANCH  12  13
ENDBRANCH   1  12
TORSDOF 14
ENDMDL
MODEL 4
REMARK VINA RESULT:    -4.909      1.871      2.930
REMARK INTER + INTRA:         -10.227
REMARK INTER:                  -8.235
REMARK INTRA:                  -1.992
REMARK UNBOUND:                -1.300
REMARK SMILES CCCCCCCCCCCCCC[C@@H](C)C(=O)[O-]
REMARK SMILES IDX 9 1 10 2 11 3 12 4 13 5 14 6 15 7 16 8 17 9 18 10 19 11 8 12
REMARK SMILES IDX 7 13 6 14 5 15 4 16 3 17 2 18 1 19
REMARK H PARENT
REMARK Flexibility Score: inf
ROOT
ATOM      1  C   UNL     1       7.827  28.805 -14.723  1.00  0.00     0.000 C 
ENDROOT
BRANCH   1   2
ATOM      2  C   UNL     1       7.938  28.135 -13.342  1.00  0.00     0.000 C 
BRANCH   2   3
ATOM      3  C   UNL     1       9.328  27.559 -13.000  1.00  0.00     0.000 C 
BRANCH   3   4
ATOM      4  C   UNL     1       9.840  26.451 -13.940  1.00  0.00     0.000 C 
BRANCH   4   5
ATOM      5  C   UNL     1       9.478  25.038 -13.460  1.00  0.00     0.001 C 
BRANCH   5   6
ATOM      6  C   UNL     1       9.365  24.914 -11.925  1.00  0.00     0.009 C 
BRANCH   6   7
ATOM      7  C   UNL     1       7.995  24.471 -11.345  1.00  0.00     0.032 C 
ATOM      8  C   UNL     1       6.837  24.628 -12.344  1.00  0.00     0.014 C 
BRANCH   7   9
ATOM      9  C   UNL     1       8.036  23.099 -10.724  1.00  0.00     0.044 C 
ATOM     10  O   UNL     1       8.437  22.102 -11.381  1.00  0.00    -0.550 OA
ATOM     11  O   UNL     1       7.676  22.938  -9.392  1.00  0.00    -0.550 OA
ENDBRANCH   7   9
ENDBRANCH   6   7
ENDBRANCH   5   6
ENDBRANCH   4   5
ENDBRANCH   3   4
ENDBRANCH   2   3
ENDBRANCH   1   2
BRANCH   1  12
ATOM     12  C   UNL     1       6.375  29.094 -15.130  1.00  0.00     0.000 C 
BRANCH  12  13
ATOM     13  C   UNL     1       6.202  30.561 -15.544  1.00  0.00    -0.000 C 
BRANCH  13  14
ATOM     14  C   UNL     1       5.270  31.299 -14.572  1.00  0.00    -0.000 C 
BRANCH  14  15
ATOM     15  C   UNL     1       6.005  32.368 -13.747  1.00  0.00    -0.000 C 
BRANCH  15  16
ATOM     16  C   UNL     1       6.576  31.811 -12.432  1.00  0.00    -0.000 C 
BRANCH  16  17
ATOM     17  C   UNL     1       8.107  31.664 -12.462  1.00  0.00    -0.000 C 
BRANCH  17  18
ATOM     18  C   UNL     1       8.802  32.633 -13.441  1.00  0.00    -0.003 C 
ATOM     19  C   UNL     1       9.725  31.909 -14.421  1.00  0.00     0.004 C 
ENDBRANCH  17  18
ENDBRANCH  16  17
ENDBRANCH  15  16
ENDBRANCH  14  15
ENDBRANCH  13  14
ENDBRANCH  12  13
ENDBRANCH   1  12
TORSDOF 14
ENDMDL
MODEL 5
REMARK VINA RESULT:    -4.888      3.178      7.846
REMARK INTER + INTRA:         -10.189
REMARK INTER:                  -8.692
REMARK INTRA:                  -1.496
REMARK UNBOUND:                -1.300
REMARK SMILES CCCCCCCCCCCCCC[C@@H](C)C(=O)[O-]
REMARK SMILES IDX 9 1 10 2 11 3 12 4 13 5 14 6 15 7 16 8 17 9 18 10 19 11 8 12
REMARK SMILES IDX 7 13 6 14 5 15 4 16 3 17 2 18 1 19
REMARK H PARENT
REMARK Flexibility Score: inf
ROOT
ATOM      1  C   UNL     1       8.869  30.512 -12.816  1.00  0.00     0.000 C 
ENDROOT
BRANCH   1   2
ATOM      2  C   UNL     1       8.564  32.018 -12.728  1.00  0.00     0.000 C 
BRANCH   2   3
ATOM      3  C   UNL     1       7.181  32.376 -12.145  1.00  0.00     0.000 C 
BRANCH   3   4
ATOM      4  C   UNL     1       6.242  33.155 -13.087  1.00  0.00     0.000 C 
BRANCH   4   5
ATOM      5  C   UNL     1       4.844  32.529 -13.197  1.00  0.00     0.001 C 
BRANCH   5   6
ATOM      6  C   UNL     1       4.656  31.646 -14.449  1.00  0.00     0.009 C 
BRANCH   6   7
ATOM      7  C   UNL     1       5.774  31.686 -15.524  1.00  0.00     0.032 C 
ATOM      8  C   UNL     1       6.271  30.289 -15.931  1.00  0.00     0.014 C 
BRANCH   7   9
ATOM      9  C   UNL     1       5.416  32.538 -16.714  1.00  0.00     0.044 C 
ATOM     10  O   UNL     1       5.682  32.159 -17.886  1.00  0.00    -0.550 OA
ATOM     11  O   UNL     1       4.737  33.735 -16.522  1.00  0.00    -0.550 OA
ENDBRANCH   7   9
ENDBRANCH   6   7
ENDBRANCH   5   6
ENDBRANCH   4   5
ENDBRANCH   3   4
ENDBRANCH   2   3
ENDBRANCH   1   2
BRANCH   1  12
ATOM     12  C   UNL     1       7.608  29.642 -12.714  1.00  0.00     0.000 C 
BRANCH  12  13
ATOM     13  C   UNL     1       7.862  28.238 -13.277  1.00  0.00    -0.000 C 
BRANCH  13  14
ATOM     14  C   UNL     1       9.255  27.728 -12.874  1.00  0.00    -0.000 C 
BRANCH  14  15
ATOM     15  C   UNL     1       9.504  26.279 -13.321  1.00  0.00    -0.000 C 
BRANCH  15  16
ATOM     16  C   UNL     1       9.422  25.278 -12.156  1.00  0.00    -0.000 C 
BRANCH  16  17
ATOM     17  C   UNL     1       8.099  24.494 -12.135  1.00  0.00    -0.000 C 
BRANCH  17  18
ATOM     18  C   UNL     1       8.179  23.169 -11.349  1.00  0.00    -0.003 C 
ATOM     19  C   UNL     1       8.003  23.372  -9.844  1.00  0.00     0.004 C 
ENDBRANCH  17  18
ENDBRANCH  16  17
ENDBRANCH  15  16
ENDBRANCH  14  15
ENDBRANCH  13  14
ENDBRANCH  12  13
ENDBRANCH   1  12
TORSDOF 14
ENDMDL
MODEL 6
REMARK VINA RESULT:    -4.859      8.816     10.670
REMARK INTER + INTRA:         -10.137
REMARK INTER:                  -9.264
REMARK INTRA:                  -0.872
REMARK UNBOUND:                -1.300
REMARK SMILES CCCCCCCCCCCCCC[C@@H](C)C(=O)[O-]
REMARK SMILES IDX 9 1 10 2 11 3 12 4 13 5 14 6 15 7 16 8 17 9 18 10 19 11 8 12
REMARK SMILES IDX 7 13 6 14 5 15 4 16 3 17 2 18 1 19
REMARK H PARENT
REMARK Flexibility Score: inf
ROOT
ATOM      1  C   UNL     1       2.431  21.141 -13.790  1.00  0.00     0.000 C 
ENDROOT
BRANCH   1   2
ATOM      2  C   UNL     1       2.103  19.799 -13.113  1.00  0.00     0.000 C 
BRANCH   2   3
ATOM      3  C   UNL     1       2.447  19.719 -11.611  1.00  0.00     0.000 C 
BRANCH   3   4
ATOM      4  C   UNL     1       1.827  18.533 -10.848  1.00  0.00     0.000 C 
BRANCH   4   5
ATOM      5  C   UNL     1       1.587  18.831  -9.361  1.00  0.00     0.001 C 
BRANCH   5   6
ATOM      6  C   UNL     1       2.843  19.337  -8.619  1.00  0.00     0.009 C 
BRANCH   6   7
ATOM      7  C   UNL     1       2.686  20.602  -7.734  1.00  0.00     0.032 C 
ATOM      8  C   UNL     1       1.862  21.712  -8.407  1.00  0.00     0.014 C 
BRANCH   7   9
ATOM      9  C   UNL     1       2.201  20.290  -6.342  1.00  0.00     0.044 C 
ATOM     10  O   UNL     1       1.151  20.817  -5.888  1.00  0.00    -0.550 OA
ATOM     11  O   UNL     1       2.892  19.368  -5.565  1.00  0.00    -0.550 OA
ENDBRANCH   7   9
ENDBRANCH   6   7
ENDBRANCH   5   6
ENDBRANCH   4   5
ENDBRANCH   3   4
ENDBRANCH   2   3
ENDBRANCH   1   2
BRANCH   1  12
ATOM     12  C   UNL     1       2.610  21.013 -15.310  1.00  0.00     0.000 C 
BRANCH  12  13
ATOM     13  C   UNL     1       3.589  22.069 -15.839  1.00  0.00    -0.000 C 
BRANCH  13  14
ATOM     14  C   UNL     1       3.265  22.440 -17.294  1.00  0.00    -0.000 C 
BRANCH  14  15
ATOM     15  C   UNL     1       1.797  22.855 -17.484  1.00  0.00    -0.000 C 
BRANCH  15  16
ATOM     16  C   UNL     1       1.112  22.098 -18.633  1.00  0.00    -0.000 C 
BRANCH  16  17
ATOM     17  C   UNL     1       2.115  21.446 -19.600  1.00  0.00    -0.000 C 
BRANCH  17  18
ATOM     18  C   UNL     1       1.791  19.973 -19.926  1.00  0.00    -0.003 C 
ATOM     19  C   UNL     1       2.895  19.301 -20.742  1.00  0.00     0.004 C 
ENDBRANCH  17  18
ENDBRANCH  16  17
ENDBRANCH  15  16
ENDBRANCH  14  15
ENDBRANCH  13  14
ENDBRANCH  12  13
ENDBRANCH   1  12
TORSDOF 14
ENDMDL
MODEL 7
REMARK VINA RESULT:    -4.851      3.109      7.099
REMARK INTER + INTRA:         -10.122
REMARK INTER:                  -8.319
REMARK INTRA:                  -1.803
REMARK UNBOUND:                -1.300
REMARK SMILES CCCCCCCCCCCCCC[C@@H](C)C(=O)[O-]
REMARK SMILES IDX 9 1 10 2 11 3 12 4 13 5 14 6 15 7 16 8 17 9 18 10 19 11 8 12
REMARK SMILES IDX 7 13 6 14 5 15 4 16 3 17 2 18 1 19
REMARK H PARENT
REMARK Flexibility Score: inf
ROOT
ATOM      1  C   UNL     1       9.855  29.725 -14.305  1.00  0.00     0.000 C 
ENDROOT
BRANCH   1   2
ATOM      2  C   UNL     1       9.095  29.609 -12.972  1.00  0.00     0.000 C 
BRANCH   2   3
ATOM      3  C   UNL     1       7.644  29.094 -13.086  1.00  0.00     0.000 C 
BRANCH   3   4
ATOM      4  C   UNL     1       7.245  28.526 -14.461  1.00  0.00     0.000 C 
BRANCH   4   5
ATOM      5  C   UNL     1       6.181  29.371 -15.176  1.00  0.00     0.001 C 
BRANCH   5   6
ATOM      6  C   UNL     1       6.247  30.874 -14.831  1.00  0.00     0.009 C 
BRANCH   6   7
ATOM      7  C   UNL     1       5.217  31.810 -15.519  1.00  0.00     0.032 C 
ATOM      8  C   UNL     1       4.441  32.689 -14.524  1.00  0.00     0.014 C 
BRANCH   7   9
ATOM      9  C   UNL     1       5.812  32.608 -16.649  1.00  0.00     0.044 C 
ATOM     10  O   UNL     1       6.547  33.606 -16.421  1.00  0.00    -0.550 OA
ATOM     11  O   UNL     1       5.591  32.211 -17.961  1.00  0.00    -0.550 OA
ENDBRANCH   7   9
ENDBRANCH   6   7
ENDBRANCH   5   6
ENDBRANCH   4   5
ENDBRANCH   3   4
ENDBRANCH   2   3
ENDBRANCH   1   2
BRANCH   1  12
ATOM     12  C   UNL     1      10.974  28.683 -14.446  1.00  0.00     0.000 C 
BRANCH  12  13
ATOM     13  C   UNL     1      10.536  27.527 -15.354  1.00  0.00    -0.000 C 
BRANCH  13  14
ATOM     14  C   UNL     1      10.670  26.178 -14.631  1.00  0.00    -0.000 C 
BRANCH  14  15
ATOM     15  C   UNL     1      10.907  26.340 -13.121  1.00  0.00    -0.000 C 
BRANCH  15  16
ATOM     16  C   UNL     1       9.659  26.006 -12.286  1.00  0.00    -0.000 C 
BRANCH  16  17
ATOM     17  C   UNL     1       9.259  24.523 -12.380  1.00  0.00    -0.000 C 
BRANCH  17  18
ATOM     18  C   UNL     1       7.759  24.271 -12.119  1.00  0.00    -0.003 C 
ATOM     19  C   UNL     1       6.868  25.322 -12.780  1.00  0.00     0.004 C 
ENDBRANCH  17  18
ENDBRANCH  16  17
ENDBRANCH  15  16
ENDBRANCH  14  15
ENDBRANCH  13  14
ENDBRANCH  12  13
ENDBRANCH   1  12
TORSDOF 14
ENDMDL
MODEL 8
REMARK VINA RESULT:    -4.757      2.792      7.393
REMARK INTER + INTRA:          -9.951
REMARK INTER:                  -8.506
REMARK INTRA:                  -1.445
REMARK UNBOUND:                -1.300
REMARK SMILES CCCCCCCCCCCCCC[C@@H](C)C(=O)[O-]
REMARK SMILES IDX 9 1 10 2 11 3 12 4 13 5 14 6 15 7 16 8 17 9 18 10 19 11 8 12
REMARK SMILES IDX 7 13 6 14 5 15 4 16 3 17 2 18 1 19
REMARK H PARENT
REMARK Flexibility Score: inf
ROOT
ATOM      1  C   UNL     1      10.478  29.110 -12.465  1.00  0.00     0.000 C 
ENDROOT
BRANCH   1   2
ATOM      2  C   UNL     1       9.946  30.049 -13.562  1.00  0.00     0.000 C 
BRANCH   2   3
ATOM      3  C   UNL     1       8.809  30.996 -13.123  1.00  0.00     0.000 C 
BRANCH   3   4
ATOM      4  C   UNL     1       7.381  30.440 -13.282  1.00  0.00     0.000 C 
BRANCH   4   5
ATOM      5  C   UNL     1       7.134  29.792 -14.652  1.00  0.00     0.001 C 
BRANCH   5   6
ATOM      6  C   UNL     1       5.851  30.289 -15.352  1.00  0.00     0.009 C 
BRANCH   6   7
ATOM      7  C   UNL     1       5.769  31.799 -15.701  1.00  0.00     0.032 C 
ATOM      8  C   UNL     1       5.863  32.075 -17.210  1.00  0.00     0.014 C 
BRANCH   7   9
ATOM      9  C   UNL     1       4.591  32.487 -15.062  1.00  0.00     0.044 C 
ATOM     10  O   UNL     1       4.138  32.100 -13.952  1.00  0.00    -0.550 OA
ATOM     11  O   UNL     1       4.025  33.595 -15.680  1.00  0.00    -0.550 OA
ENDBRANCH   7   9
ENDBRANCH   6   7
ENDBRANCH   5   6
ENDBRANCH   4   5
ENDBRANCH   3   4
ENDBRANCH   2   3
ENDBRANCH   1   2
BRANCH   1  12
ATOM     12  C   UNL     1      10.755  27.690 -12.979  1.00  0.00     0.000 C 
BRANCH  12  13
ATOM     13  C   UNL     1       9.551  27.141 -13.755  1.00  0.00    -0.000 C 
BRANCH  13  14
ATOM     14  C   UNL     1       8.335  26.966 -12.832  1.00  0.00    -0.000 C 
BRANCH  14  15
ATOM     15  C   UNL     1       7.707  25.568 -12.943  1.00  0.00    -0.000 C 
BRANCH  15  16
ATOM     16  C   UNL     1       8.718  24.442 -12.675  1.00  0.00    -0.000 C 
BRANCH  16  17
ATOM     17  C   UNL     1       9.310  24.495 -11.256  1.00  0.00    -0.000 C 
BRANCH  17  18
ATOM     18  C   UNL     1       8.365  23.937 -10.172  1.00  0.00    -0.003 C 
ATOM     19  C   UNL     1       7.810  22.560 -10.535  1.00  0.00     0.004 C 
ENDBRANCH  17  18
ENDBRANCH  16  17
ENDBRANCH  15  16
ENDBRANCH  14  15
ENDBRANCH  13  14
ENDBRANCH  12  13
ENDBRANCH   1  12
TORSDOF 14
ENDMDL
MODEL 9
REMARK VINA RESULT:    -4.744      8.964     12.161
REMARK INTER + INTRA:          -9.927
REMARK INTER:                  -9.219
REMARK INTRA:                  -0.707
REMARK UNBOUND:                -1.300
REMARK SMILES CCCCCCCCCCCCCC[C@@H](C)C(=O)[O-]
REMARK SMILES IDX 9 1 10 2 11 3 12 4 13 5 14 6 15 7 16 8 17 9 18 10 19 11 8 12
REMARK SMILES IDX 7 13 6 14 5 15 4 16 3 17 2 18 1 19
REMARK H PARENT
REMARK Flexibility Score: inf
ROOT
ATOM      1  C   UNL     1       1.810  19.066 -12.707  1.00  0.00     0.000 C 
ENDROOT
BRANCH   1   2
ATOM      2  C   UNL     1       2.191  20.500 -13.118  1.00  0.00     0.000 C 
BRANCH   2   3
ATOM      3  C   UNL     1       2.507  20.692 -14.616  1.00  0.00     0.000 C 
BRANCH   3   4
ATOM      4  C   UNL     1       2.896  22.123 -15.036  1.00  0.00     0.000 C 
BRANCH   4   5
ATOM      5  C   UNL     1       2.872  22.332 -16.557  1.00  0.00     0.001 C 
BRANCH   5   6
ATOM      6  C   UNL     1       1.878  21.410 -17.296  1.00  0.00     0.009 C 
BRANCH   6   7
ATOM      7  C   UNL     1       1.423  21.844 -18.714  1.00  0.00     0.032 C 
ATOM      8  C   UNL     1       1.610  23.348 -18.975  1.00  0.00     0.014 C 
BRANCH   7   9
ATOM      9  C   UNL     1       2.014  20.993 -19.808  1.00  0.00     0.044 C 
ATOM     10  O   UNL     1       1.566  19.840 -20.045  1.00  0.00    -0.550 OA
ATOM     11  O   UNL     1       3.034  21.505 -20.600  1.00  0.00    -0.550 OA
ENDBRANCH   7   9
ENDBRANCH   6   7
ENDBRANCH   5   6
ENDBRANCH   4   5
ENDBRANCH   3   4
ENDBRANCH   2   3
ENDBRANCH   1   2
BRANCH   1  12
ATOM     12  C   UNL     1       0.953  19.019 -11.434  1.00  0.00     0.000 C 
BRANCH  12  13
ATOM     13  C   UNL     1       1.686  18.283 -10.305  1.00  0.00    -0.000 C 
BRANCH  13  14
ATOM     14  C   UNL     1       1.294  18.852  -8.933  1.00  0.00    -0.000 C 
BRANCH  14  15
ATOM     15  C   UNL     1       2.503  19.387  -8.149  1.00  0.00    -0.000 C 
BRANCH  15  16
ATOM     16  C   UNL     1       2.233  20.757  -7.505  1.00  0.00    -0.000 C 
BRANCH  16  17
ATOM     17  C   UNL     1       0.735  21.027  -7.284  1.00  0.00    -0.000 C 
BRANCH  17  18
ATOM     18  C   UNL     1       0.326  21.062  -5.797  1.00  0.00    -0.003 C 
ATOM     19  C   UNL     1       1.434  20.550  -4.876  1.00  0.00     0.004 C 
ENDBRANCH  17  18
ENDBRANCH  16  17
ENDBRANCH  15  16
ENDBRANCH  14  15
ENDBRANCH  13  14
ENDBRANCH  12  13
ENDBRANCH   1  12
TORSDOF 14
ENDMDL
