MODEL 1
REMARK VINA RESULT:    -4.974      0.000      0.000
REMARK INTER + INTRA:         -10.806
REMARK INTER:                  -9.046
REMARK INTRA:                  -1.761
REMARK UNBOUND:                -1.761
REMARK SMILES CCCCCCCCCCCCCCCC(=O)[O-]
REMARK SMILES IDX 9 1 10 2 11 3 12 4 13 5 14 6 15 7 16 8 17 9 18 10 8 11 7 12
REMARK SMILES IDX 6 13 5 14 4 15 3 16 2 17 1 18
REMARK H PARENT
REMARK Flexibility Score: inf
ROOT
ATOM      1  C   UNL     1      12.744  21.294  28.533  1.00  0.00     0.000 C 
ENDROOT
BRANCH   1   2
ATOM      2  C   UNL     1      14.237  20.941  28.619  1.00  0.00     0.000 C 
BRANCH   2   3
ATOM      3  C   UNL     1      14.902  21.485  29.893  1.00  0.00     0.000 C 
BRANCH   3   4
ATOM      4  C   UNL     1      16.097  22.403  29.594  1.00  0.00     0.000 C 
BRANCH   4   5
ATOM      5  C   UNL     1      15.667  23.596  28.728  1.00  0.00     0.000 C 
BRANCH   5   6
ATOM      6  C   UNL     1      16.603  23.829  27.531  1.00  0.00     0.006 C 
BRANCH   6   7
ATOM      7  C   UNL     1      15.884  23.691  26.184  1.00  0.00     0.053 C 
BRANCH   7   8
ATOM      8  C   UNL     1      16.235  22.390  25.535  1.00  0.00     0.041 C 
ATOM      9  O   UNL     1      15.822  22.128  24.375  1.00  0.00    -0.550 OA
ATOM     10  O   UNL     1      17.058  21.485  26.192  1.00  0.00    -0.550 OA
ENDBRANCH   7   8
ENDBRANCH   6   7
ENDBRANCH   5   6
ENDBRANCH   4   5
ENDBRANCH   3   4
ENDBRANCH   2   3
ENDBRANCH   1   2
BRANCH   1  11
ATOM     11  C   UNL     1      11.933  20.509  29.570  1.00  0.00     0.000 C 
BRANCH  11  12
ATOM     12  C   UNL     1      10.442  20.487  29.199  1.00  0.00    -0.000 C 
BRANCH  12  13
ATOM     13  C   UNL     1       9.529  20.826  30.388  1.00  0.00    -0.000 C 
BRANCH  13  14
ATOM     14  C   UNL     1       9.103  22.304  30.401  1.00  0.00    -0.000 C 
BRANCH  14  15
ATOM     15  C   UNL     1       9.738  23.092  31.557  1.00  0.00    -0.000 C 
BRANCH  15  16
ATOM     16  C   UNL     1      10.369  24.419  31.098  1.00  0.00    -0.000 C 
BRANCH  16  17
ATOM     17  C   UNL     1      11.586  24.206  30.184  1.00  0.00    -0.003 C 
ATOM     18  C   UNL     1      12.909  24.513  30.885  1.00  0.00     0.004 C 
ENDBRANCH  16  17
ENDBRANCH  15  16
ENDBRANCH  14  15
ENDBRANCH  13  14
ENDBRANCH  12  13
ENDBRANCH  11  12
ENDBRANCH   1  11
TORSDOF 14
ENDMDL
MODEL 2
REMARK VINA RESULT:    -4.903      3.446      6.764
REMARK INTER + INTRA:         -10.677
REMARK INTER:                  -8.951
REMARK INTRA:                  -1.726
REMARK UNBOUND:                -1.761
REMARK SMILES CCCCCCCCCCCCCCCC(=O)[O-]
REMARK SMILES IDX 9 1 10 2 11 3 12 4 13 5 14 6 15 7 16 8 17 9 18 10 8 11 7 12
REMARK SMILES IDX 6 13 5 14 4 15 3 16 2 17 1 18
REMARK H PARENT
REMARK Flexibility Score: inf
ROOT
ATOM      1  C   UNL     1      12.904  21.172  28.388  1.00  0.00     0.000 C 
ENDROOT
BRANCH   1   2
ATOM      2  C   UNL     1      13.988  20.170  28.817  1.00  0.00     0.000 C 
BRANCH   2   3
ATOM      3  C   UNL     1      13.404  18.906  29.467  1.00  0.00     0.000 C 
BRANCH   3   4
ATOM      4  C   UNL     1      11.884  18.995  29.677  1.00  0.00     0.000 C 
BRANCH   4   5
ATOM      5  C   UNL     1      11.548  19.185  31.164  1.00  0.00     0.000 C 
BRANCH   5   6
ATOM      6  C   UNL     1      10.458  20.244  31.394  1.00  0.00     0.006 C 
BRANCH   6   7
ATOM      7  C   UNL     1       9.591  20.480  30.151  1.00  0.00     0.053 C 
BRANCH   7   8
ATOM      8  C   UNL     1       8.647  21.618  30.381  1.00  0.00     0.041 C 
ATOM      9  O   UNL     1       7.412  21.467  30.188  1.00  0.00    -0.550 OA
ATOM     10  O   UNL     1       9.125  22.832  30.856  1.00  0.00    -0.550 OA
ENDBRANCH   7   8
ENDBRANCH   6   7
ENDBRANCH   5   6
ENDBRANCH   4   5
ENDBRANCH   3   4
ENDBRANCH   2   3
ENDBRANCH   1   2
BRANCH   1  11
ATOM     11  C   UNL     1      12.869  22.380  29.331  1.00  0.00     0.000 C 
BRANCH  11  12
ATOM     12  C   UNL     1      14.243  22.608  29.983  1.00  0.00    -0.000 C 
BRANCH  12  13
ATOM     13  C   UNL     1      15.050  23.720  29.294  1.00  0.00    -0.000 C 
BRANCH  13  14
ATOM     14  C   UNL     1      16.456  23.256  28.876  1.00  0.00    -0.000 C 
BRANCH  14  15
ATOM     15  C   UNL     1      16.915  23.885  27.551  1.00  0.00    -0.000 C 
BRANCH  15  16
ATOM     16  C   UNL     1      15.872  23.735  26.429  1.00  0.00    -0.000 C 
BRANCH  16  17
ATOM     17  C   UNL     1      15.742  22.285  25.936  1.00  0.00    -0.003 C 
ATOM     18  C   UNL     1      15.959  22.153  24.429  1.00  0.00     0.004 C 
ENDBRANCH  16  17
ENDBRANCH  15  16
ENDBRANCH  14  15
ENDBRANCH  13  14
ENDBRANCH  12  13
ENDBRANCH  11  12
ENDBRANCH   1  11
TORSDOF 14
ENDMDL
MODEL 3
REMARK VINA RESULT:    -4.820      2.804      6.384
REMARK INTER + INTRA:         -10.526
REMARK INTER:                  -8.787
REMARK INTRA:                  -1.738
REMARK UNBOUND:                -1.761
REMARK SMILES CCCCCCCCCCCCCCCC(=O)[O-]
REMARK SMILES IDX 9 1 10 2 11 3 12 4 13 5 14 6 15 7 16 8 17 9 18 10 8 11 7 12
REMARK SMILES IDX 6 13 5 14 4 15 3 16 2 17 1 18
REMARK H PARENT
REMARK Flexibility Score: inf
ROOT
ATOM      1  C   UNL     1      13.693  21.279  29.036  1.00  0.00     0.000 C 
ENDROOT
BRANCH   1   2
ATOM      2  C   UNL     1      13.922  22.282  30.177  1.00  0.00     0.000 C 
BRANCH   2   3
ATOM      3  C   UNL     1      13.447  23.700  29.825  1.00  0.00     0.000 C 
BRANCH   3   4
ATOM      4  C   UNL     1      12.923  24.471  31.047  1.00  0.00     0.000 C 
BRANCH   4   5
ATOM      5  C   UNL     1      11.389  24.541  31.033  1.00  0.00     0.000 C 
BRANCH   5   6
ATOM      6  C   UNL     1      10.732  23.280  31.616  1.00  0.00     0.006 C 
BRANCH   6   7
ATOM      7  C   UNL     1       9.484  22.849  30.836  1.00  0.00     0.053 C 
BRANCH   7   8
ATOM      8  C   UNL     1       9.845  21.850  29.783  1.00  0.00     0.041 C 
ATOM      9  O   UNL     1      10.387  22.227  28.710  1.00  0.00    -0.550 OA
ATOM     10  O   UNL     1       9.629  20.496  30.005  1.00  0.00    -0.550 OA
ENDBRANCH   7   8
ENDBRANCH   6   7
ENDBRANCH   5   6
ENDBRANCH   4   5
ENDBRANCH   3   4
ENDBRANCH   2   3
ENDBRANCH   1   2
BRANCH   1  11
ATOM     11  C   UNL     1      14.791  20.209  29.016  1.00  0.00     0.000 C 
BRANCH  11  12
ATOM     12  C   UNL     1      15.893  20.534  30.037  1.00  0.00    -0.000 C 
BRANCH  12  13
ATOM     13  C   UNL     1      17.215  20.950  29.371  1.00  0.00    -0.000 C 
BRANCH  13  14
ATOM     14  C   UNL     1      17.021  21.418  27.918  1.00  0.00    -0.000 C 
BRANCH  14  15
ATOM     15  C   UNL     1      16.818  22.938  27.810  1.00  0.00    -0.000 C 
BRANCH  15  16
ATOM     16  C   UNL     1      16.134  23.355  26.495  1.00  0.00    -0.000 C 
BRANCH  16  17
ATOM     17  C   UNL     1      15.560  22.156  25.725  1.00  0.00    -0.003 C 
ATOM     18  C   UNL     1      15.952  22.162  24.247  1.00  0.00     0.004 C 
ENDBRANCH  16  17
ENDBRANCH  15  16
ENDBRANCH  14  15
ENDBRANCH  13  14
ENDBRANCH  12  13
ENDBRANCH  11  12
ENDBRANCH   1  11
TORSDOF 14
ENDMDL
MODEL 4
REMARK VINA RESULT:    -4.771      3.437      6.449
REMARK INTER + INTRA:         -10.437
REMARK INTER:                  -7.953
REMARK INTRA:                  -2.483
REMARK UNBOUND:                -1.761
REMARK SMILES CCCCCCCCCCCCCCCC(=O)[O-]
REMARK SMILES IDX 9 1 10 2 11 3 12 4 13 5 14 6 15 7 16 8 17 9 18 10 8 11 7 12
REMARK SMILES IDX 6 13 5 14 4 15 3 16 2 17 1 18
REMARK H PARENT
REMARK Flexibility Score: inf
ROOT
ATOM      1  C   UNL     1      13.493  21.929  28.246  1.00  0.00     0.000 C 
ENDROOT
BRANCH   1   2
ATOM      2  C   UNL     1      13.211  21.104  29.511  1.00  0.00     0.000 C 
BRANCH   2   3
ATOM      3  C   UNL     1      13.124  21.969  30.778  1.00  0.00     0.000 C 
BRANCH   3   4
ATOM      4  C   UNL     1      13.358  23.461  30.494  1.00  0.00     0.000 C 
BRANCH   4   5
ATOM      5  C   UNL     1      12.159  24.301  30.960  1.00  0.00     0.000 C 
BRANCH   5   6
ATOM      6  C   UNL     1      11.081  23.459  31.661  1.00  0.00     0.006 C 
BRANCH   6   7
ATOM      7  C   UNL     1       9.704  23.593  30.999  1.00  0.00     0.053 C 
BRANCH   7   8
ATOM      8  C   UNL     1       9.049  22.253  30.883  1.00  0.00     0.041 C 
ATOM      9  O   UNL     1       8.033  21.981  31.576  1.00  0.00    -0.550 OA
ATOM     10  O   UNL     1       9.530  21.321  29.973  1.00  0.00    -0.550 OA
ENDBRANCH   7   8
ENDBRANCH   6   7
ENDBRANCH   5   6
ENDBRANCH   4   5
ENDBRANCH   3   4
ENDBRANCH   2   3
ENDBRANCH   1   2
BRANCH   1  11
ATOM     11  C   UNL     1      14.385  21.152  27.271  1.00  0.00     0.000 C 
BRANCH  11  12
ATOM     12  C   UNL     1      15.662  21.943  26.946  1.00  0.00    -0.000 C 
BRANCH  12  13
ATOM     13  C   UNL     1      15.552  23.429  27.321  1.00  0.00    -0.000 C 
BRANCH  13  14
ATOM     14  C   UNL     1      16.549  23.835  28.421  1.00  0.00    -0.000 C 
BRANCH  14  15
ATOM     15  C   UNL     1      17.198  22.622  29.106  1.00  0.00    -0.000 C 
BRANCH  15  16
ATOM     16  C   UNL     1      16.798  22.490  30.586  1.00  0.00    -0.000 C 
BRANCH  16  17
ATOM     17  C   UNL     1      16.723  21.026  31.047  1.00  0.00    -0.003 C 
ATOM     18  C   UNL     1      16.875  20.036  29.892  1.00  0.00     0.004 C 
ENDBRANCH  16  17
ENDBRANCH  15  16
ENDBRANCH  14  15
ENDBRANCH  13  14
ENDBRANCH  12  13
ENDBRANCH  11  12
ENDBRANCH   1  11
TORSDOF 14
ENDMDL
MODEL 5
REMARK VINA RESULT:    -4.727      2.553      6.349
REMARK INTER + INTRA:         -10.357
REMARK INTER:                  -8.518
REMARK INTRA:                  -1.839
REMARK UNBOUND:                -1.761
REMARK SMILES CCCCCCCCCCCCCCCC(=O)[O-]
REMARK SMILES IDX 9 1 10 2 11 3 12 4 13 5 14 6 15 7 16 8 17 9 18 10 8 11 7 12
REMARK SMILES IDX 6 13 5 14 4 15 3 16 2 17 1 18
REMARK H PARENT
REMARK Flexibility Score: inf
ROOT
ATOM      1  C   UNL     1      12.384  23.500  30.064  1.00  0.00     0.000 C 
ENDROOT
BRANCH   1   2
ATOM      2  C   UNL     1      11.954  24.368  31.257  1.00  0.00     0.000 C 
BRANCH   2   3
ATOM      3  C   UNL     1      10.429  24.532  31.351  1.00  0.00     0.000 C 
BRANCH   3   4
ATOM      4  C   UNL     1       9.727  23.268  31.871  1.00  0.00     0.000 C 
BRANCH   4   5
ATOM      5  C   UNL     1       8.814  22.666  30.793  1.00  0.00     0.000 C 
BRANCH   5   6
ATOM      6  C   UNL     1       8.883  21.131  30.747  1.00  0.00     0.006 C 
BRANCH   6   7
ATOM      7  C   UNL     1      10.246  20.588  31.193  1.00  0.00     0.053 C 
BRANCH   7   8
ATOM      8  C   UNL     1      10.959  19.955  30.040  1.00  0.00     0.041 C 
ATOM      9  O   UNL     1      11.801  19.040  30.240  1.00  0.00    -0.550 OA
ATOM     10  O   UNL     1      10.659  20.342  28.741  1.00  0.00    -0.550 OA
ENDBRANCH   7   8
ENDBRANCH   6   7
ENDBRANCH   5   6
ENDBRANCH   4   5
ENDBRANCH   3   4
ENDBRANCH   2   3
ENDBRANCH   1   2
BRANCH   1  11
ATOM     11  C   UNL     1      13.892  23.224  30.102  1.00  0.00     0.000 C 
BRANCH  11  12
ATOM     12  C   UNL     1      14.172  21.743  30.402  1.00  0.00    -0.000 C 
BRANCH  12  13
ATOM     13  C   UNL     1      14.893  21.030  29.247  1.00  0.00    -0.000 C 
BRANCH  13  14
ATOM     14  C   UNL     1      14.016  20.910  27.988  1.00  0.00    -0.000 C 
BRANCH  14  15
ATOM     15  C   UNL     1      14.605  21.662  26.784  1.00  0.00    -0.000 C 
BRANCH  15  16
ATOM     16  C   UNL     1      16.126  21.869  26.899  1.00  0.00    -0.000 C 
BRANCH  16  17
ATOM     17  C   UNL     1      16.528  23.348  26.788  1.00  0.00    -0.003 C 
ATOM     18  C   UNL     1      16.999  23.932  28.120  1.00  0.00     0.004 C 
ENDBRANCH  16  17
ENDBRANCH  15  16
ENDBRANCH  14  15
ENDBRANCH  13  14
ENDBRANCH  12  13
ENDBRANCH  11  12
ENDBRANCH   1  11
TORSDOF 14
ENDMDL
MODEL 6
REMARK VINA RESULT:    -4.689      1.214      1.699
REMARK INTER + INTRA:         -10.288
REMARK INTER:                  -7.960
REMARK INTRA:                  -2.329
REMARK UNBOUND:                -1.761
REMARK SMILES CCCCCCCCCCCCCCCC(=O)[O-]
REMARK SMILES IDX 9 1 10 2 11 3 12 4 13 5 14 6 15 7 16 8 17 9 18 10 8 11 7 12
REMARK SMILES IDX 6 13 5 14 4 15 3 16 2 17 1 18
REMARK H PARENT
REMARK Flexibility Score: inf
ROOT
ATOM      1  C   UNL     1      12.992  21.233  28.566  1.00  0.00     0.000 C 
ENDROOT
BRANCH   1   2
ATOM      2  C   UNL     1      13.903  19.998  28.645  1.00  0.00     0.000 C 
BRANCH   2   3
ATOM      3  C   UNL     1      15.164  20.243  29.489  1.00  0.00     0.000 C 
BRANCH   3   4
ATOM      4  C   UNL     1      14.962  21.332  30.554  1.00  0.00     0.000 C 
BRANCH   4   5
ATOM      5  C   UNL     1      16.094  22.369  30.499  1.00  0.00     0.000 C 
BRANCH   5   6
ATOM      6  C   UNL     1      16.643  22.573  29.078  1.00  0.00     0.006 C 
BRANCH   6   7
ATOM      7  C   UNL     1      15.980  23.750  28.352  1.00  0.00     0.053 C 
BRANCH   7   8
ATOM      8  C   UNL     1      15.864  23.462  26.889  1.00  0.00     0.041 C 
ATOM      9  O   UNL     1      15.662  22.285  26.488  1.00  0.00    -0.550 OA
ATOM     10  O   UNL     1      15.929  24.500  25.969  1.00  0.00    -0.550 OA
ENDBRANCH   7   8
ENDBRANCH   6   7
ENDBRANCH   5   6
ENDBRANCH   4   5
ENDBRANCH   3   4
ENDBRANCH   2   3
ENDBRANCH   1   2
BRANCH   1  11
ATOM     11  C   UNL     1      11.545  20.870  28.920  1.00  0.00     0.000 C 
BRANCH  11  12
ATOM     12  C   UNL     1      11.500  19.820  30.041  1.00  0.00    -0.000 C 
BRANCH  12  13
ATOM     13  C   UNL     1      10.692  20.289  31.262  1.00  0.00    -0.000 C 
BRANCH  13  14
ATOM     14  C   UNL     1      11.259  21.576  31.885  1.00  0.00    -0.000 C 
BRANCH  14  15
ATOM     15  C   UNL     1      10.216  22.703  31.965  1.00  0.00    -0.000 C 
BRANCH  15  16
ATOM     16  C   UNL     1      10.827  24.097  31.730  1.00  0.00    -0.000 C 
BRANCH  16  17
ATOM     17  C   UNL     1      11.605  24.182  30.407  1.00  0.00    -0.003 C 
ATOM     18  C   UNL     1      13.086  24.499  30.614  1.00  0.00     0.004 C 
ENDBRANCH  16  17
ENDBRANCH  15  16
ENDBRANCH  14  15
ENDBRANCH  13  14
ENDBRANCH  12  13
ENDBRANCH  11  12
ENDBRANCH   1  11
TORSDOF 14
ENDMDL
MODEL 7
REMARK VINA RESULT:    -4.598      3.208      5.599
REMARK INTER + INTRA:         -10.122
REMARK INTER:                  -7.777
REMARK INTRA:                  -2.344
REMARK UNBOUND:                -1.761
REMARK SMILES CCCCCCCCCCCCCCCC(=O)[O-]
REMARK SMILES IDX 9 1 10 2 11 3 12 4 13 5 14 6 15 7 16 8 17 9 18 10 8 11 7 12
REMARK SMILES IDX 6 13 5 14 4 15 3 16 2 17 1 18
REMARK H PARENT
REMARK Flexibility Score: inf
ROOT
ATOM      1  C   UNL     1      15.749  22.841  26.221  1.00  0.00     0.000 C 
ENDROOT
BRANCH   1   2
ATOM      2  C   UNL     1      16.636  22.848  27.475  1.00  0.00     0.000 C 
BRANCH   2   3
ATOM      3  C   UNL     1      16.325  24.022  28.416  1.00  0.00     0.000 C 
BRANCH   3   4
ATOM      4  C   UNL     1      15.397  23.626  29.574  1.00  0.00     0.000 C 
BRANCH   4   5
ATOM      5  C   UNL     1      14.065  24.386  29.493  1.00  0.00     0.000 C 
BRANCH   5   6
ATOM      6  C   UNL     1      13.108  24.031  30.642  1.00  0.00     0.006 C 
BRANCH   6   7
ATOM      7  C   UNL     1      11.633  24.152  30.241  1.00  0.00     0.053 C 
BRANCH   7   8
ATOM      8  C   UNL     1      10.779  23.307  31.133  1.00  0.00     0.041 C 
ATOM      9  O   UNL     1       9.537  23.506  31.196  1.00  0.00    -0.550 OA
ATOM     10  O   UNL     1      11.346  22.268  31.859  1.00  0.00    -0.550 OA
ENDBRANCH   7   8
ENDBRANCH   6   7
ENDBRANCH   5   6
ENDBRANCH   4   5
ENDBRANCH   3   4
ENDBRANCH   2   3
ENDBRANCH   1   2
BRANCH   1  11
ATOM     11  C   UNL     1      14.912  21.559  26.147  1.00  0.00     0.000 C 
BRANCH  11  12
ATOM     12  C   UNL     1      13.821  21.552  27.230  1.00  0.00    -0.000 C 
BRANCH  12  13
ATOM     13  C   UNL     1      13.830  20.267  28.073  1.00  0.00    -0.000 C 
BRANCH  13  14
ATOM     14  C   UNL     1      13.521  20.534  29.557  1.00  0.00    -0.000 C 
BRANCH  14  15
ATOM     15  C   UNL     1      14.717  20.229  30.473  1.00  0.00    -0.000 C 
BRANCH  15  16
ATOM     16  C   UNL     1      16.006  19.926  29.687  1.00  0.00    -0.000 C 
BRANCH  16  17
ATOM     17  C   UNL     1      17.266  20.432  30.406  1.00  0.00    -0.003 C 
ATOM     18  C   UNL     1      16.946  21.172  31.705  1.00  0.00     0.004 C 
ENDBRANCH  16  17
ENDBRANCH  15  16
ENDBRANCH  14  15
ENDBRANCH  13  14
ENDBRANCH  12  13
ENDBRANCH  11  12
ENDBRANCH   1  11
TORSDOF 14
ENDMDL
MODEL 8
REMARK VINA RESULT:    -4.556     21.869     23.020
REMARK INTER + INTRA:         -10.046
REMARK INTER:                  -8.178
REMARK INTRA:                  -1.867
REMARK UNBOUND:                -1.761
REMARK SMILES CCCCCCCCCCCCCCCC(=O)[O-]
REMARK SMILES IDX 9 1 10 2 11 3 12 4 13 5 14 6 15 7 16 8 17 9 18 10 8 11 7 12
REMARK SMILES IDX 6 13 5 14 4 15 3 16 2 17 1 18
REMARK H PARENT
REMARK Flexibility Score: inf
ROOT
ATOM      1  C   UNL     1       2.062  38.001  13.198  1.00  0.00     0.000 C 
ENDROOT
BRANCH   1   2
ATOM      2  C   UNL     1       2.555  37.467  14.551  1.00  0.00     0.000 C 
BRANCH   2   3
ATOM      3  C   UNL     1       2.727  35.940  14.560  1.00  0.00     0.000 C 
BRANCH   3   4
ATOM      4  C   UNL     1       3.744  35.462  15.608  1.00  0.00     0.000 C 
BRANCH   4   5
ATOM      5  C   UNL     1       5.133  36.055  15.332  1.00  0.00     0.000 C 
BRANCH   5   6
ATOM      6  C   UNL     1       5.677  36.869  16.518  1.00  0.00     0.006 C 
BRANCH   6   7
ATOM      7  C   UNL     1       6.900  37.714  16.143  1.00  0.00     0.053 C 
BRANCH   7   8
ATOM      8  C   UNL     1       6.752  38.261  14.759  1.00  0.00     0.041 C 
ATOM      9  O   UNL     1       5.869  39.123  14.508  1.00  0.00    -0.550 OA
ATOM     10  O   UNL     1       7.621  37.856  13.754  1.00  0.00    -0.550 OA
ENDBRANCH   7   8
ENDBRANCH   6   7
ENDBRANCH   5   6
ENDBRANCH   4   5
ENDBRANCH   3   4
ENDBRANCH   2   3
ENDBRANCH   1   2
BRANCH   1  11
ATOM     11  C   UNL     1       1.660  36.851  12.267  1.00  0.00     0.000 C 
BRANCH  11  12
ATOM     12  C   UNL     1       0.132  36.771  12.119  1.00  0.00    -0.000 C 
BRANCH  12  13
ATOM     13  C   UNL     1      -0.425  35.380  12.459  1.00  0.00    -0.000 C 
BRANCH  13  14
ATOM     14  C   UNL     1      -1.369  35.404  13.674  1.00  0.00    -0.000 C 
BRANCH  14  15
ATOM     15  C   UNL     1      -1.131  36.620  14.583  1.00  0.00    -0.000 C 
BRANCH  15  16
ATOM     16  C   UNL     1      -0.682  36.224  16.001  1.00  0.00    -0.000 C 
BRANCH  16  17
ATOM     17  C   UNL     1      -0.655  34.701  16.206  1.00  0.00    -0.003 C 
ATOM     18  C   UNL     1       0.515  34.244  17.076  1.00  0.00     0.004 C 
ENDBRANCH  16  17
ENDBRANCH  15  16
ENDBRANCH  14  15
ENDBRANCH  13  14
ENDBRANCH  12  13
ENDBRANCH  11  12
ENDBRANCH   1  11
TORSDOF 14
ENDMDL
