MODEL 1
REMARK VINA RESULT:    -6.400      0.000      0.000
REMARK INTER + INTRA:          -7.620
REMARK INTER:                  -7.710
REMARK INTRA:                   0.089
REMARK UNBOUND:                 0.089
REMARK SMILES Oc1cc(O)c2cc(O)c(-c3ccc(O)c(O)c3)[o+]c2c1
REMARK SMILES IDX 10 1 19 2 20 3 21 4 2 5 3 6 4 7 6 8 7 9 8 10 11 11 12 12
REMARK SMILES IDX 13 13 14 14 18 15 16 16 15 17 17 19 9 21 1 23 5 25
REMARK H PARENT 15 18 17 20 9 22 1 24 5 26
REMARK Flexibility Score: inf
ROOT
ATOM      1  C   UNL     1     -38.718  75.450 -25.966  1.00  0.00     0.402 A 
ATOM      2  O   UNL     1     -37.616  75.963 -25.422  1.00  0.00    -0.202 OA
ATOM      3  C   UNL     1     -36.389  75.619 -25.802  1.00  0.00     0.368 A 
ATOM      4  C   UNL     1     -35.282  76.202 -25.177  1.00  0.00     0.162 A 
ATOM      5  C   UNL     1     -33.985  75.845 -25.567  1.00  0.00     0.128 A 
ATOM      6  C   UNL     1     -33.796  74.904 -26.584  1.00  0.00     0.093 A 
ATOM      7  C   UNL     1     -34.897  74.313 -27.222  1.00  0.00     0.136 A 
ATOM      8  C   UNL     1     -36.201  74.671 -26.830  1.00  0.00     0.125 A 
ATOM      9  C   UNL     1     -37.336  74.120 -27.435  1.00  0.00     0.078 A 
ATOM     10  C   UNL     1     -38.609  74.513 -27.013  1.00  0.00     0.223 A 
ENDROOT
BRANCH   1  11
ATOM     11  C   UNL     1     -40.030  75.905 -25.450  1.00  0.00     0.087 A 
ATOM     12  C   UNL     1     -40.229  76.008 -24.064  1.00  0.00     0.022 A 
ATOM     13  C   UNL     1     -41.465  76.417 -23.555  1.00  0.00     0.051 A 
ATOM     14  C   UNL     1     -42.524  76.714 -24.423  1.00  0.00     0.157 A 
ATOM     15  C   UNL     1     -41.102  76.185 -26.318  1.00  0.00     0.068 A 
ATOM     16  C   UNL     1     -42.341  76.592 -25.810  1.00  0.00     0.158 A 
BRANCH  14  17
ATOM     17  O   UNL     1     -43.754  77.124 -23.912  1.00  0.00    -0.504 OA
ATOM     18  H   UNL     1     -44.258  76.568 -23.233  1.00  0.00     0.293 HD
ENDBRANCH  14  17
BRANCH  16  19
ATOM     19  O   UNL     1     -43.379  76.867 -26.700  1.00  0.00    -0.504 OA
ATOM     20  H   UNL     1     -43.251  77.463 -27.509  1.00  0.00     0.293 HD
ENDBRANCH  16  19
ENDBRANCH   1  11
BRANCH  10  21
ATOM     21  O   UNL     1     -39.744  74.006 -27.647  1.00  0.00    -0.500 OA
ATOM     22  H   UNL     1     -39.898  73.010 -27.742  1.00  0.00     0.294 HD
ENDBRANCH  10  21
BRANCH   5  23
ATOM     23  O   UNL     1     -32.876  76.419 -24.949  1.00  0.00    -0.507 OA
ATOM     24  H   UNL     1     -32.122  76.827 -25.487  1.00  0.00     0.293 HD
ENDBRANCH   5  23
BRANCH   7  25
ATOM     25  O   UNL     1     -34.695  73.376 -28.237  1.00  0.00    -0.507 OA
ATOM     26  H   UNL     1     -34.327  73.646 -29.142  1.00  0.00     0.293 HD
ENDBRANCH   7  25
TORSDOF 6
ENDMDL
MODEL 2
REMARK VINA RESULT:    -6.175      1.754      3.002
REMARK INTER + INTRA:          -7.349
REMARK INTER:                  -7.377
REMARK INTRA:                   0.028
REMARK UNBOUND:                 0.089
REMARK SMILES Oc1cc(O)c2cc(O)c(-c3ccc(O)c(O)c3)[o+]c2c1
REMARK SMILES IDX 10 1 19 2 20 3 21 4 2 5 3 6 4 7 6 8 7 9 8 10 11 11 12 12
REMARK SMILES IDX 13 13 14 14 18 15 16 16 15 17 17 19 9 21 1 23 5 25
REMARK H PARENT 15 18 17 20 9 22 1 24 5 26
REMARK Flexibility Score: inf
ROOT
ATOM      1  C   UNL     1     -37.743  75.853 -25.954  1.00  0.00     0.402 A 
ATOM      2  O   UNL     1     -36.929  75.863 -27.008  1.00  0.00    -0.202 OA
ATOM      3  C   UNL     1     -35.613  76.026 -26.910  1.00  0.00     0.368 A 
ATOM      4  C   UNL     1     -34.827  76.029 -28.067  1.00  0.00     0.162 A 
ATOM      5  C   UNL     1     -33.441  76.203 -27.976  1.00  0.00     0.128 A 
ATOM      6  C   UNL     1     -32.839  76.373 -26.725  1.00  0.00     0.093 A 
ATOM      7  C   UNL     1     -33.614  76.371 -25.555  1.00  0.00     0.136 A 
ATOM      8  C   UNL     1     -35.008  76.196 -25.647  1.00  0.00     0.125 A 
ATOM      9  C   UNL     1     -35.830  76.178 -24.514  1.00  0.00     0.078 A 
ATOM     10  C   UNL     1     -37.208  75.996 -24.658  1.00  0.00     0.223 A 
ENDROOT
BRANCH   1  11
ATOM     11  C   UNL     1     -39.193  75.673 -26.192  1.00  0.00     0.087 A 
ATOM     12  C   UNL     1     -40.111  76.495 -25.519  1.00  0.00     0.022 A 
ATOM     13  C   UNL     1     -41.485  76.330 -25.714  1.00  0.00     0.051 A 
ATOM     14  C   UNL     1     -41.962  75.330 -26.572  1.00  0.00     0.157 A 
ATOM     15  C   UNL     1     -39.677  74.657 -27.037  1.00  0.00     0.068 A 
ATOM     16  C   UNL     1     -41.052  74.488 -27.232  1.00  0.00     0.158 A 
BRANCH  14  17
ATOM     17  O   UNL     1     -43.333  75.170 -26.766  1.00  0.00    -0.504 OA
ATOM     18  H   UNL     1     -43.968  75.042 -25.988  1.00  0.00     0.293 HD
ENDBRANCH  14  17
BRANCH  16  19
ATOM     19  O   UNL     1     -41.496  73.475 -28.082  1.00  0.00    -0.504 OA
ATOM     20  H   UNL     1     -42.478  73.251 -28.186  1.00  0.00     0.293 HD
ENDBRANCH  16  19
ENDBRANCH   1  11
BRANCH  10  21
ATOM     21  O   UNL     1     -38.026  75.926 -23.530  1.00  0.00    -0.500 OA
ATOM     22  H   UNL     1     -38.320  75.038 -23.141  1.00  0.00     0.294 HD
ENDBRANCH  10  21
BRANCH   5  23
ATOM     23  O   UNL     1     -32.651  76.208 -29.124  1.00  0.00    -0.507 OA
ATOM     24  H   UNL     1     -31.878  75.563 -29.238  1.00  0.00     0.293 HD
ENDBRANCH   5  23
BRANCH   7  25
ATOM     25  O   UNL     1     -33.002  76.541 -24.313  1.00  0.00    -0.507 OA
ATOM     26  H   UNL     1     -33.159  77.371 -23.753  1.00  0.00     0.293 HD
ENDBRANCH   7  25
TORSDOF 6
ENDMDL
MODEL 3
REMARK VINA RESULT:    -6.022      1.363      6.862
REMARK INTER + INTRA:          -7.165
REMARK INTER:                  -6.868
REMARK INTRA:                  -0.296
REMARK UNBOUND:                 0.089
REMARK SMILES Oc1cc(O)c2cc(O)c(-c3ccc(O)c(O)c3)[o+]c2c1
REMARK SMILES IDX 10 1 19 2 20 3 21 4 2 5 3 6 4 7 6 8 7 9 8 10 11 11 12 12
REMARK SMILES IDX 13 13 14 14 18 15 16 16 15 17 17 19 9 21 1 23 5 25
REMARK H PARENT 15 18 17 20 9 22 1 24 5 26
REMARK Flexibility Score: inf
ROOT
ATOM      1  C   UNL     1     -37.784  75.893 -26.458  1.00  0.00     0.402 A 
ATOM      2  O   UNL     1     -38.313  75.990 -25.239  1.00  0.00    -0.202 OA
ATOM      3  C   UNL     1     -39.623  76.011 -25.014  1.00  0.00     0.368 A 
ATOM      4  C   UNL     1     -40.098  76.120 -23.703  1.00  0.00     0.162 A 
ATOM      5  C   UNL     1     -41.476  76.147 -23.454  1.00  0.00     0.128 A 
ATOM      6  C   UNL     1     -42.380  76.063 -24.518  1.00  0.00     0.093 A 
ATOM      7  C   UNL     1     -41.918  75.951 -25.838  1.00  0.00     0.136 A 
ATOM      8  C   UNL     1     -40.532  75.924 -26.089  1.00  0.00     0.125 A 
ATOM      9  C   UNL     1     -40.014  75.807 -27.384  1.00  0.00     0.078 A 
ATOM     10  C   UNL     1     -38.631  75.780 -27.579  1.00  0.00     0.223 A 
ENDROOT
BRANCH   1  11
ATOM     11  C   UNL     1     -36.308  75.889 -26.582  1.00  0.00     0.087 A 
ATOM     12  C   UNL     1     -35.606  77.102 -26.503  1.00  0.00     0.022 A 
ATOM     13  C   UNL     1     -34.215  77.125 -26.637  1.00  0.00     0.051 A 
ATOM     14  C   UNL     1     -33.507  75.938 -26.868  1.00  0.00     0.157 A 
ATOM     15  C   UNL     1     -35.596  74.702 -26.834  1.00  0.00     0.068 A 
ATOM     16  C   UNL     1     -34.204  74.722 -26.971  1.00  0.00     0.158 A 
BRANCH  14  17
ATOM     17  O   UNL     1     -32.120  75.964 -26.998  1.00  0.00    -0.504 OA
ATOM     18  H   UNL     1     -31.603  75.159 -27.329  1.00  0.00     0.293 HD
ENDBRANCH  14  17
BRANCH  16  19
ATOM     19  O   UNL     1     -33.530  73.525 -27.214  1.00  0.00    -0.504 OA
ATOM     20  H   UNL     1     -34.008  72.697 -27.549  1.00  0.00     0.293 HD
ENDBRANCH  16  19
ENDBRANCH   1  11
BRANCH  10  21
ATOM     21  O   UNL     1     -38.109  75.612 -28.862  1.00  0.00    -0.500 OA
ATOM     22  H   UNL     1     -37.149  75.328 -29.012  1.00  0.00     0.294 HD
ENDBRANCH  10  21
BRANCH   5  23
ATOM     23  O   UNL     1     -41.958  76.257 -22.151  1.00  0.00    -0.507 OA
ATOM     24  H   UNL     1     -42.528  77.042 -21.862  1.00  0.00     0.293 HD
ENDBRANCH   5  23
BRANCH   7  25
ATOM     25  O   UNL     1     -42.829  75.866 -26.891  1.00  0.00    -0.507 OA
ATOM     26  H   UNL     1     -42.540  75.593 -27.823  1.00  0.00     0.293 HD
ENDBRANCH   7  25
TORSDOF 6
ENDMDL
MODEL 4
REMARK VINA RESULT:    -5.242      1.506      7.028
REMARK INTER + INTRA:          -6.225
REMARK INTER:                  -6.319
REMARK INTRA:                   0.094
REMARK UNBOUND:                 0.089
REMARK SMILES Oc1cc(O)c2cc(O)c(-c3ccc(O)c(O)c3)[o+]c2c1
REMARK SMILES IDX 10 1 19 2 20 3 21 4 2 5 3 6 4 7 6 8 7 9 8 10 11 11 12 12
REMARK SMILES IDX 13 13 14 14 18 15 16 16 15 17 17 19 9 21 1 23 5 25
REMARK H PARENT 15 18 17 20 9 22 1 24 5 26
REMARK Flexibility Score: inf
ROOT
ATOM      1  C   UNL     1     -36.652  75.217 -27.333  1.00  0.00     0.402 A 
ATOM      2  O   UNL     1     -37.454  75.935 -26.549  1.00  0.00    -0.202 OA
ATOM      3  C   UNL     1     -38.765  75.730 -26.467  1.00  0.00     0.368 A 
ATOM      4  C   UNL     1     -39.540  76.531 -25.623  1.00  0.00     0.162 A 
ATOM      5  C   UNL     1     -40.922  76.326 -25.530  1.00  0.00     0.128 A 
ATOM      6  C   UNL     1     -41.530  75.316 -26.283  1.00  0.00     0.093 A 
ATOM      7  C   UNL     1     -40.766  74.503 -27.133  1.00  0.00     0.136 A 
ATOM      8  C   UNL     1     -39.375  74.709 -27.226  1.00  0.00     0.125 A 
ATOM      9  C   UNL     1     -38.562  73.924 -28.052  1.00  0.00     0.078 A 
ATOM     10  C   UNL     1     -37.187  74.166 -28.104  1.00  0.00     0.223 A 
ENDROOT
BRANCH   1  11
ATOM     11  C   UNL     1     -35.208  75.548 -27.346  1.00  0.00     0.087 A 
ATOM     12  C   UNL     1     -34.506  75.529 -28.562  1.00  0.00     0.022 A 
ATOM     13  C   UNL     1     -33.140  75.819 -28.596  1.00  0.00     0.051 A 
ATOM     14  C   UNL     1     -32.451  76.116 -27.412  1.00  0.00     0.157 A 
ATOM     15  C   UNL     1     -34.508  75.827 -26.158  1.00  0.00     0.068 A 
ATOM     16  C   UNL     1     -33.140  76.115 -26.188  1.00  0.00     0.158 A 
BRANCH  14  17
ATOM     17  O   UNL     1     -31.089  76.408 -27.450  1.00  0.00    -0.504 OA
ATOM     18  H   UNL     1     -30.475  75.988 -28.137  1.00  0.00     0.293 HD
ENDBRANCH  14  17
BRANCH  16  19
ATOM     19  O   UNL     1     -32.480  76.393 -24.991  1.00  0.00    -0.504 OA
ATOM     20  H   UNL     1     -32.878  76.157 -24.090  1.00  0.00     0.293 HD
ENDBRANCH  16  19
ENDBRANCH   1  11
BRANCH  10  21
ATOM     21  O   UNL     1     -36.364  73.354 -28.885  1.00  0.00    -0.500 OA
ATOM     22  H   UNL     1     -36.731  72.560 -29.396  1.00  0.00     0.294 HD
ENDBRANCH  10  21
BRANCH   5  23
ATOM     23  O   UNL     1     -41.702  77.121 -24.692  1.00  0.00    -0.507 OA
ATOM     24  H   UNL     1     -41.734  78.128 -24.796  1.00  0.00     0.293 HD
ENDBRANCH   5  23
BRANCH   7  25
ATOM     25  O   UNL     1     -41.384  73.498 -27.878  1.00  0.00    -0.507 OA
ATOM     26  H   UNL     1     -40.914  73.049 -28.656  1.00  0.00     0.293 HD
ENDBRANCH   7  25
TORSDOF 6
ENDMDL
MODEL 5
REMARK VINA RESULT:    -5.213      1.348      1.530
REMARK INTER + INTRA:          -6.190
REMARK INTER:                  -6.597
REMARK INTRA:                   0.408
REMARK UNBOUND:                 0.089
REMARK SMILES Oc1cc(O)c2cc(O)c(-c3ccc(O)c(O)c3)[o+]c2c1
REMARK SMILES IDX 10 1 19 2 20 3 21 4 2 5 3 6 4 7 6 8 7 9 8 10 11 11 12 12
REMARK SMILES IDX 13 13 14 14 18 15 16 16 15 17 17 19 9 21 1 23 5 25
REMARK H PARENT 15 18 17 20 9 22 1 24 5 26
REMARK Flexibility Score: inf
ROOT
ATOM      1  C   UNL     1     -39.120  76.005 -25.353  1.00  0.00     0.402 A 
ATOM      2  O   UNL     1     -37.892  76.067 -24.842  1.00  0.00    -0.202 OA
ATOM      3  C   UNL     1     -36.791  75.954 -25.579  1.00  0.00     0.368 A 
ATOM      4  C   UNL     1     -35.536  76.025 -24.966  1.00  0.00     0.162 A 
ATOM      5  C   UNL     1     -34.370  75.904 -25.732  1.00  0.00     0.128 A 
ATOM      6  C   UNL     1     -34.460  75.712 -27.115  1.00  0.00     0.093 A 
ATOM      7  C   UNL     1     -35.712  75.640 -27.745  1.00  0.00     0.136 A 
ATOM      8  C   UNL     1     -36.884  75.762 -26.974  1.00  0.00     0.125 A 
ATOM      9  C   UNL     1     -38.159  75.706 -27.549  1.00  0.00     0.078 A 
ATOM     10  C   UNL     1     -39.292  75.838 -26.742  1.00  0.00     0.223 A 
ENDROOT
BRANCH   1  11
ATOM     11  C   UNL     1     -40.269  76.135 -24.427  1.00  0.00     0.087 A 
ATOM     12  C   UNL     1     -40.034  76.350 -23.060  1.00  0.00     0.022 A 
ATOM     13  C   UNL     1     -41.103  76.457 -22.166  1.00  0.00     0.051 A 
ATOM     14  C   UNL     1     -42.422  76.333 -22.622  1.00  0.00     0.157 A 
ATOM     15  C   UNL     1     -41.595  75.992 -24.879  1.00  0.00     0.068 A 
ATOM     16  C   UNL     1     -42.667  76.096 -23.985  1.00  0.00     0.158 A 
BRANCH  14  17
ATOM     17  O   UNL     1     -43.485  76.443 -21.728  1.00  0.00    -0.504 OA
ATOM     18  H   UNL     1     -44.420  76.674 -22.042  1.00  0.00     0.293 HD
ENDBRANCH  14  17
BRANCH  16  19
ATOM     19  O   UNL     1     -43.967  75.954 -24.469  1.00  0.00    -0.504 OA
ATOM     20  H   UNL     1     -44.160  75.590 -25.394  1.00  0.00     0.293 HD
ENDBRANCH  16  19
ENDBRANCH   1  11
BRANCH  10  21
ATOM     21  O   UNL     1     -40.564  75.833 -27.315  1.00  0.00    -0.500 OA
ATOM     22  H   UNL     1     -40.798  75.217 -28.083  1.00  0.00     0.294 HD
ENDBRANCH  10  21
BRANCH   5  23
ATOM     23  O   UNL     1     -33.116  75.973 -25.129  1.00  0.00    -0.507 OA
ATOM     24  H   UNL     1     -32.367  76.525 -25.526  1.00  0.00     0.293 HD
ENDBRANCH   5  23
BRANCH   7  25
ATOM     25  O   UNL     1     -35.788  75.450 -29.125  1.00  0.00    -0.507 OA
ATOM     26  H   UNL     1     -36.677  75.447 -29.612  1.00  0.00     0.293 HD
ENDBRANCH   7  25
TORSDOF 6
ENDMDL
MODEL 6
REMARK VINA RESULT:    -5.014      7.447     10.091
REMARK INTER + INTRA:          -5.950
REMARK INTER:                  -5.952
REMARK INTRA:                   0.002
REMARK UNBOUND:                 0.089
REMARK SMILES Oc1cc(O)c2cc(O)c(-c3ccc(O)c(O)c3)[o+]c2c1
REMARK SMILES IDX 10 1 19 2 20 3 21 4 2 5 3 6 4 7 6 8 7 9 8 10 11 11 12 12
REMARK SMILES IDX 13 13 14 14 18 15 16 16 15 17 17 19 9 21 1 23 5 25
REMARK H PARENT 15 18 17 20 9 22 1 24 5 26
REMARK Flexibility Score: inf
ROOT
ATOM      1  C   UNL     1     -36.860  72.348 -18.924  1.00  0.00     0.402 A 
ATOM      2  O   UNL     1     -37.900  72.516 -19.739  1.00  0.00    -0.202 OA
ATOM      3  C   UNL     1     -38.556  73.667 -19.854  1.00  0.00     0.368 A 
ATOM      4  C   UNL     1     -39.642  73.760 -20.730  1.00  0.00     0.162 A 
ATOM      5  C   UNL     1     -40.342  74.967 -20.857  1.00  0.00     0.128 A 
ATOM      6  C   UNL     1     -39.953  76.082 -20.107  1.00  0.00     0.093 A 
ATOM      7  C   UNL     1     -38.864  76.004 -19.226  1.00  0.00     0.136 A 
ATOM      8  C   UNL     1     -38.160  74.791 -19.098  1.00  0.00     0.125 A 
ATOM      9  C   UNL     1     -37.062  74.657 -18.240  1.00  0.00     0.078 A 
ATOM     10  C   UNL     1     -36.394  73.432 -18.154  1.00  0.00     0.223 A 
ENDROOT
BRANCH   1  11
ATOM     11  C   UNL     1     -36.218  71.014 -18.875  1.00  0.00     0.087 A 
ATOM     12  C   UNL     1     -37.009  69.874 -18.664  1.00  0.00     0.022 A 
ATOM     13  C   UNL     1     -36.422  68.608 -18.596  1.00  0.00     0.051 A 
ATOM     14  C   UNL     1     -35.034  68.464 -18.721  1.00  0.00     0.157 A 
ATOM     15  C   UNL     1     -34.822  70.868 -18.981  1.00  0.00     0.068 A 
ATOM     16  C   UNL     1     -34.232  69.601 -18.910  1.00  0.00     0.158 A 
BRANCH  14  17
ATOM     17  O   UNL     1     -34.453  67.199 -18.655  1.00  0.00    -0.504 OA
ATOM     18  H   UNL     1     -33.489  67.073 -18.373  1.00  0.00     0.293 HD
ENDBRANCH  14  17
BRANCH  16  19
ATOM     19  O   UNL     1     -32.846  69.493 -19.025  1.00  0.00    -0.504 OA
ATOM     20  H   UNL     1     -32.266  69.173 -18.259  1.00  0.00     0.293 HD
ENDBRANCH  16  19
ENDBRANCH   1  11
BRANCH  10  21
ATOM     21  O   UNL     1     -35.268  73.306 -17.340  1.00  0.00    -0.500 OA
ATOM     22  H   UNL     1     -34.384  73.734 -17.586  1.00  0.00     0.294 HD
ENDBRANCH  10  21
BRANCH   5  23
ATOM     23  O   UNL     1     -41.426  75.068 -21.726  1.00  0.00    -0.507 OA
ATOM     24  H   UNL     1     -42.001  75.901 -21.761  1.00  0.00     0.293 HD
ENDBRANCH   5  23
BRANCH   7  25
ATOM     25  O   UNL     1     -38.485  77.124 -18.485  1.00  0.00    -0.507 OA
ATOM     26  H   UNL     1     -37.621  77.143 -17.956  1.00  0.00     0.293 HD
ENDBRANCH   7  25
TORSDOF 6
ENDMDL
MODEL 7
REMARK VINA RESULT:    -4.626      2.139      2.956
REMARK INTER + INTRA:          -5.483
REMARK INTER:                  -5.921
REMARK INTRA:                   0.438
REMARK UNBOUND:                 0.089
REMARK SMILES Oc1cc(O)c2cc(O)c(-c3ccc(O)c(O)c3)[o+]c2c1
REMARK SMILES IDX 10 1 19 2 20 3 21 4 2 5 3 6 4 7 6 8 7 9 8 10 11 11 12 12
REMARK SMILES IDX 13 13 14 14 18 15 16 16 15 17 17 19 9 21 1 23 5 25
REMARK H PARENT 15 18 17 20 9 22 1 24 5 26
REMARK Flexibility Score: inf
ROOT
ATOM      1  C   UNL     1     -39.090  76.117 -24.592  1.00  0.00     0.402 A 
ATOM      2  O   UNL     1     -37.778  76.055 -24.373  1.00  0.00    -0.202 OA
ATOM      3  C   UNL     1     -36.883  75.911 -25.346  1.00  0.00     0.368 A 
ATOM      4  C   UNL     1     -35.522  75.851 -25.032  1.00  0.00     0.162 A 
ATOM      5  C   UNL     1     -34.571  75.696 -26.048  1.00  0.00     0.128 A 
ATOM      6  C   UNL     1     -34.983  75.602 -27.382  1.00  0.00     0.093 A 
ATOM      7  C   UNL     1     -36.346  75.663 -27.712  1.00  0.00     0.136 A 
ATOM      8  C   UNL     1     -37.302  75.818 -26.690  1.00  0.00     0.125 A 
ATOM      9  C   UNL     1     -38.673  75.893 -26.961  1.00  0.00     0.078 A 
ATOM     10  C   UNL     1     -39.581  76.053 -25.912  1.00  0.00     0.223 A 
ENDROOT
BRANCH   1  11
ATOM     11  C   UNL     1     -39.988  76.269 -23.424  1.00  0.00     0.087 A 
ATOM     12  C   UNL     1     -41.373  76.114 -23.593  1.00  0.00     0.022 A 
ATOM     13  C   UNL     1     -42.241  76.272 -22.509  1.00  0.00     0.051 A 
ATOM     14  C   UNL     1     -41.738  76.603 -21.243  1.00  0.00     0.157 A 
ATOM     15  C   UNL     1     -39.489  76.621 -22.156  1.00  0.00     0.068 A 
ATOM     16  C   UNL     1     -40.355  76.782 -21.069  1.00  0.00     0.158 A 
BRANCH  14  17
ATOM     17  O   UNL     1     -42.605  76.757 -20.164  1.00  0.00    -0.504 OA
ATOM     18  H   UNL     1     -42.957  77.666 -19.891  1.00  0.00     0.293 HD
ENDBRANCH  14  17
BRANCH  16  19
ATOM     19  O   UNL     1     -39.825  77.125 -19.826  1.00  0.00    -0.504 OA
ATOM     20  H   UNL     1     -39.359  78.010 -19.665  1.00  0.00     0.293 HD
ENDBRANCH  16  19
ENDBRANCH   1  11
BRANCH  10  21
ATOM     21  O   UNL     1     -40.944  76.179 -26.180  1.00  0.00    -0.500 OA
ATOM     22  H   UNL     1     -41.318  76.984 -26.667  1.00  0.00     0.294 HD
ENDBRANCH  10  21
BRANCH   5  23
ATOM     23  O   UNL     1     -33.213  75.633 -25.744  1.00  0.00    -0.507 OA
ATOM     24  H   UNL     1     -32.647  74.837 -26.008  1.00  0.00     0.293 HD
ENDBRANCH   5  23
BRANCH   7  25
ATOM     25  O   UNL     1     -36.744  75.570 -29.046  1.00  0.00    -0.507 OA
ATOM     26  H   UNL     1     -36.580  76.324 -29.703  1.00  0.00     0.293 HD
ENDBRANCH   7  25
TORSDOF 6
ENDMDL
MODEL 8
REMARK VINA RESULT:    -3.562     16.328     18.367
REMARK INTER + INTRA:          -4.202
REMARK INTER:                  -4.649
REMARK INTRA:                   0.448
REMARK UNBOUND:                 0.089
REMARK SMILES Oc1cc(O)c2cc(O)c(-c3ccc(O)c(O)c3)[o+]c2c1
REMARK SMILES IDX 10 1 19 2 20 3 21 4 2 5 3 6 4 7 6 8 7 9 8 10 11 11 12 12
REMARK SMILES IDX 13 13 14 14 18 15 16 16 15 17 17 19 9 21 1 23 5 25
REMARK H PARENT 15 18 17 20 9 22 1 24 5 26
REMARK Flexibility Score: inf
ROOT
ATOM      1  C   UNL     1     -41.857  68.714  -9.712  1.00  0.00     0.402 A 
ATOM      2  O   UNL     1     -40.618  69.103 -10.011  1.00  0.00    -0.202 OA
ATOM      3  C   UNL     1     -40.245  70.379 -10.048  1.00  0.00     0.368 A 
ATOM      4  C   UNL     1     -38.925  70.705 -10.375  1.00  0.00     0.162 A 
ATOM      5  C   UNL     1     -38.521  72.045 -10.420  1.00  0.00     0.128 A 
ATOM      6  C   UNL     1     -39.440  73.061 -10.137  1.00  0.00     0.093 A 
ATOM      7  C   UNL     1     -40.768  72.749  -9.805  1.00  0.00     0.136 A 
ATOM      8  C   UNL     1     -41.174  71.401  -9.760  1.00  0.00     0.125 A 
ATOM      9  C   UNL     1     -42.482  71.031  -9.429  1.00  0.00     0.078 A 
ATOM     10  C   UNL     1     -42.833  69.679  -9.392  1.00  0.00     0.223 A 
ENDROOT
BRANCH   1  11
ATOM     11  C   UNL     1     -42.153  67.263  -9.713  1.00  0.00     0.087 A 
ATOM     12  C   UNL     1     -43.485  66.831  -9.617  1.00  0.00     0.022 A 
ATOM     13  C   UNL     1     -43.787  65.466  -9.597  1.00  0.00     0.051 A 
ATOM     14  C   UNL     1     -42.761  64.514  -9.656  1.00  0.00     0.157 A 
ATOM     15  C   UNL     1     -41.124  66.304  -9.752  1.00  0.00     0.068 A 
ATOM     16  C   UNL     1     -41.423  64.937  -9.729  1.00  0.00     0.158 A 
BRANCH  14  17
ATOM     17  O   UNL     1     -43.065  63.155  -9.638  1.00  0.00    -0.504 OA
ATOM     18  H   UNL     1     -42.891  62.583  -8.821  1.00  0.00     0.293 HD
ENDBRANCH  14  17
BRANCH  16  19
ATOM     19  O   UNL     1     -40.378  64.015  -9.776  1.00  0.00    -0.504 OA
ATOM     20  H   UNL     1     -39.772  63.929 -10.583  1.00  0.00     0.293 HD
ENDBRANCH  16  19
ENDBRANCH   1  11
BRANCH  10  21
ATOM     21  O   UNL     1     -44.121  69.301  -9.013  1.00  0.00    -0.500 OA
ATOM     22  H   UNL     1     -44.472  68.367  -9.182  1.00  0.00     0.294 HD
ENDBRANCH  10  21
BRANCH   5  23
ATOM     23  O   UNL     1     -37.208  72.379 -10.746  1.00  0.00    -0.507 OA
ATOM     24  H   UNL     1     -36.472  72.373 -10.051  1.00  0.00     0.293 HD
ENDBRANCH   5  23
BRANCH   7  25
ATOM     25  O   UNL     1     -41.675  73.772  -9.524  1.00  0.00    -0.507 OA
ATOM     26  H   UNL     1     -41.577  74.355  -8.701  1.00  0.00     0.293 HD
ENDBRANCH   7  25
TORSDOF 6
ENDMDL
