MODEL 1
REMARK VINA RESULT:    -5.414      0.000      0.000
REMARK INTER + INTRA:         -11.907
REMARK INTER:                 -10.478
REMARK INTRA:                  -1.429
REMARK UNBOUND:                -1.429
REMARK SMILES CCCCCCCCCCCCCCCCCC(=O)[O-]
REMARK SMILES IDX 10 1 11 2 12 3 13 4 14 5 15 6 16 7 17 8 18 9 19 10 20 11
REMARK SMILES IDX 9 12 8 13 7 14 6 15 5 16 4 17 3 18 2 19 1 20
REMARK H PARENT
REMARK Flexibility Score: inf
ROOT
ATOM      1  C   UNL     1     -10.941  -2.484  -9.667  1.00  0.00     0.000 C 
ENDROOT
BRANCH   1   2
ATOM      2  C   UNL     1      -9.633  -3.097  -9.131  1.00  0.00     0.000 C 
BRANCH   2   3
ATOM      3  C   UNL     1      -9.511  -3.166  -7.596  1.00  0.00     0.000 C 
BRANCH   3   4
ATOM      4  C   UNL     1      -9.963  -4.517  -7.016  1.00  0.00     0.000 C 
BRANCH   4   5
ATOM      5  C   UNL     1      -9.779  -5.686  -8.001  1.00  0.00     0.000 C 
BRANCH   5   6
ATOM      6  C   UNL     1     -10.636  -6.933  -7.712  1.00  0.00     0.000 C 
BRANCH   6   7
ATOM      7  C   UNL     1     -11.543  -7.325  -8.890  1.00  0.00     0.006 C 
BRANCH   7   8
ATOM      8  C   UNL     1     -12.000  -6.105  -9.701  1.00  0.00     0.053 C 
BRANCH   8   9
ATOM      9  C   UNL     1     -13.437  -5.771  -9.440  1.00  0.00     0.041 C 
ATOM     10  O   UNL     1     -14.213  -6.636  -8.957  1.00  0.00    -0.550 OA
ATOM     11  O   UNL     1     -13.911  -4.492  -9.705  1.00  0.00    -0.550 OA
ENDBRANCH   8   9
ENDBRANCH   7   8
ENDBRANCH   6   7
ENDBRANCH   5   6
ENDBRANCH   4   5
ENDBRANCH   3   4
ENDBRANCH   2   3
ENDBRANCH   1   2
BRANCH   1  12
ATOM     12  C   UNL     1     -10.777  -1.024 -10.123  1.00  0.00     0.000 C 
BRANCH  12  13
ATOM     13  C   UNL     1     -12.115  -0.264 -10.198  1.00  0.00    -0.000 C 
BRANCH  13  14
ATOM     14  C   UNL     1     -13.358  -1.135 -10.460  1.00  0.00    -0.000 C 
BRANCH  14  15
ATOM     15  C   UNL     1     -14.644  -0.310 -10.638  1.00  0.00    -0.000 C 
BRANCH  15  16
ATOM     16  C   UNL     1     -14.951   0.575  -9.418  1.00  0.00    -0.000 C 
BRANCH  16  17
ATOM     17  C   UNL     1     -14.828   2.078  -9.725  1.00  0.00    -0.000 C 
BRANCH  17  18
ATOM     18  C   UNL     1     -14.662   2.921  -8.443  1.00  0.00    -0.000 C 
BRANCH  18  19
ATOM     19  C   UNL     1     -13.471   3.893  -8.496  1.00  0.00    -0.003 C 
ATOM     20  C   UNL     1     -12.270   3.328  -9.250  1.00  0.00     0.004 C 
ENDBRANCH  18  19
ENDBRANCH  17  18
ENDBRANCH  16  17
ENDBRANCH  15  16
ENDBRANCH  14  15
ENDBRANCH  13  14
ENDBRANCH  12  13
ENDBRANCH   1  12
TORSDOF 16
ENDMDL
MODEL 2
REMARK VINA RESULT:    -5.296      3.271      7.979
REMARK INTER + INTRA:         -11.679
REMARK INTER:                 -10.520
REMARK INTRA:                  -1.158
REMARK UNBOUND:                -1.429
REMARK SMILES CCCCCCCCCCCCCCCCCC(=O)[O-]
REMARK SMILES IDX 10 1 11 2 12 3 13 4 14 5 15 6 16 7 17 8 18 9 19 10 20 11
REMARK SMILES IDX 9 12 8 13 7 14 6 15 5 16 4 17 3 18 2 19 1 20
REMARK H PARENT
REMARK Flexibility Score: inf
ROOT
ATOM      1  C   UNL     1     -10.933  -2.788  -9.627  1.00  0.00     0.000 C 
ENDROOT
BRANCH   1   2
ATOM      2  C   UNL     1     -10.629  -1.302  -9.894  1.00  0.00     0.000 C 
BRANCH   2   3
ATOM      3  C   UNL     1     -11.824  -0.452 -10.365  1.00  0.00     0.000 C 
BRANCH   3   4
ATOM      4  C   UNL     1     -13.149  -1.234 -10.386  1.00  0.00     0.000 C 
BRANCH   4   5
ATOM      5  C   UNL     1     -14.366  -0.346 -10.702  1.00  0.00     0.000 C 
BRANCH   5   6
ATOM      6  C   UNL     1     -14.970   0.398  -9.496  1.00  0.00     0.000 C 
BRANCH   6   7
ATOM      7  C   UNL     1     -14.817   1.925  -9.592  1.00  0.00     0.006 C 
BRANCH   7   8
ATOM      8  C   UNL     1     -13.347   2.362  -9.561  1.00  0.00     0.053 C 
BRANCH   8   9
ATOM      9  C   UNL     1     -13.146   3.575  -8.705  1.00  0.00     0.041 C 
ATOM     10  O   UNL     1     -14.126   4.297  -8.386  1.00  0.00    -0.550 OA
ATOM     11  O   UNL     1     -11.876   3.891  -8.236  1.00  0.00    -0.550 OA
ENDBRANCH   8   9
ENDBRANCH   7   8
ENDBRANCH   6   7
ENDBRANCH   5   6
ENDBRANCH   4   5
ENDBRANCH   3   4
ENDBRANCH   2   3
ENDBRANCH   1   2
BRANCH   1  12
ATOM     12  C   UNL     1      -9.918  -3.448  -8.679  1.00  0.00     0.000 C 
BRANCH  12  13
ATOM     13  C   UNL     1     -10.559  -4.489  -7.741  1.00  0.00    -0.000 C 
BRANCH  13  14
ATOM     14  C   UNL     1      -9.896  -5.880  -7.744  1.00  0.00    -0.000 C 
BRANCH  14  15
ATOM     15  C   UNL     1     -10.419  -6.796  -6.624  1.00  0.00    -0.000 C 
BRANCH  15  16
ATOM     16  C   UNL     1     -11.051  -6.009  -5.464  1.00  0.00    -0.000 C 
BRANCH  16  17
ATOM     17  C   UNL     1     -12.547  -6.318  -5.279  1.00  0.00    -0.000 C 
BRANCH  17  18
ATOM     18  C   UNL     1     -13.107  -7.188  -6.424  1.00  0.00    -0.000 C 
BRANCH  18  19
ATOM     19  C   UNL     1     -14.267  -6.527  -7.188  1.00  0.00    -0.003 C 
ATOM     20  C   UNL     1     -13.813  -5.797  -8.449  1.00  0.00     0.004 C 
ENDBRANCH  18  19
ENDBRANCH  17  18
ENDBRANCH  16  17
ENDBRANCH  15  16
ENDBRANCH  14  15
ENDBRANCH  13  14
ENDBRANCH  12  13
ENDBRANCH   1  12
TORSDOF 16
ENDMDL
MODEL 3
REMARK VINA RESULT:    -5.290      3.211      7.898
REMARK INTER + INTRA:         -11.668
REMARK INTER:                 -10.451
REMARK INTRA:                  -1.217
REMARK UNBOUND:                -1.429
REMARK SMILES CCCCCCCCCCCCCCCCCC(=O)[O-]
REMARK SMILES IDX 10 1 11 2 12 3 13 4 14 5 15 6 16 7 17 8 18 9 19 10 20 11
REMARK SMILES IDX 9 12 8 13 7 14 6 15 5 16 4 17 3 18 2 19 1 20
REMARK H PARENT
REMARK Flexibility Score: inf
ROOT
ATOM      1  C   UNL     1     -10.874  -2.565  -9.499  1.00  0.00     0.000 C 
ENDROOT
BRANCH   1   2
ATOM      2  C   UNL     1     -10.637  -1.122  -9.983  1.00  0.00     0.000 C 
BRANCH   2   3
ATOM      3  C   UNL     1     -11.902  -0.337 -10.380  1.00  0.00     0.000 C 
BRANCH   3   4
ATOM      4  C   UNL     1     -13.171  -1.206 -10.396  1.00  0.00     0.000 C 
BRANCH   4   5
ATOM      5  C   UNL     1     -14.462  -0.382 -10.552  1.00  0.00     0.000 C 
BRANCH   5   6
ATOM      6  C   UNL     1     -14.878   0.434  -9.314  1.00  0.00     0.000 C 
BRANCH   6   7
ATOM      7  C   UNL     1     -14.811   1.953  -9.544  1.00  0.00     0.006 C 
BRANCH   7   8
ATOM      8  C   UNL     1     -13.367   2.471  -9.575  1.00  0.00     0.053 C 
BRANCH   8   9
ATOM      9  C   UNL     1     -13.186   3.665  -8.688  1.00  0.00     0.041 C 
ATOM     10  O   UNL     1     -14.149   4.445  -8.469  1.00  0.00    -0.550 OA
ATOM     11  O   UNL     1     -11.959   3.899  -8.080  1.00  0.00    -0.550 OA
ENDBRANCH   8   9
ENDBRANCH   7   8
ENDBRANCH   6   7
ENDBRANCH   5   6
ENDBRANCH   4   5
ENDBRANCH   3   4
ENDBRANCH   2   3
ENDBRANCH   1   2
BRANCH   1  12
ATOM     12  C   UNL     1      -9.846  -3.023  -8.451  1.00  0.00     0.000 C 
BRANCH  12  13
ATOM     13  C   UNL     1     -10.252  -4.329  -7.740  1.00  0.00    -0.000 C 
BRANCH  13  14
ATOM     14  C   UNL     1      -9.904  -5.627  -8.492  1.00  0.00    -0.000 C 
BRANCH  14  15
ATOM     15  C   UNL     1     -11.125  -6.536  -8.718  1.00  0.00    -0.000 C 
BRANCH  15  16
ATOM     16  C   UNL     1     -12.451  -5.838  -8.376  1.00  0.00    -0.000 C 
BRANCH  16  17
ATOM     17  C   UNL     1     -13.449  -6.768  -7.664  1.00  0.00    -0.000 C 
BRANCH  17  18
ATOM     18  C   UNL     1     -13.500  -6.510  -6.143  1.00  0.00    -0.000 C 
BRANCH  18  19
ATOM     19  C   UNL     1     -12.313  -7.117  -5.376  1.00  0.00    -0.003 C 
ATOM     20  C   UNL     1     -11.387  -6.062  -4.775  1.00  0.00     0.004 C 
ENDBRANCH  18  19
ENDBRANCH  17  18
ENDBRANCH  16  17
ENDBRANCH  15  16
ENDBRANCH  14  15
ENDBRANCH  13  14
ENDBRANCH  12  13
ENDBRANCH   1  12
TORSDOF 16
ENDMDL
MODEL 4
REMARK VINA RESULT:    -5.237      1.691      2.373
REMARK INTER + INTRA:         -11.565
REMARK INTER:                 -10.157
REMARK INTRA:                  -1.408
REMARK UNBOUND:                -1.429
REMARK SMILES CCCCCCCCCCCCCCCCCC(=O)[O-]
REMARK SMILES IDX 10 1 11 2 12 3 13 4 14 5 15 6 16 7 17 8 18 9 19 10 20 11
REMARK SMILES IDX 9 12 8 13 7 14 6 15 5 16 4 17 3 18 2 19 1 20
REMARK H PARENT
REMARK Flexibility Score: inf
ROOT
ATOM      1  C   UNL     1     -10.770  -0.911  -9.532  1.00  0.00     0.000 C 
ENDROOT
BRANCH   1   2
ATOM      2  C   UNL     1     -10.786  -2.417  -9.853  1.00  0.00     0.000 C 
BRANCH   2   3
ATOM      3  C   UNL     1      -9.772  -3.275  -9.071  1.00  0.00     0.000 C 
BRANCH   3   4
ATOM      4  C   UNL     1     -10.357  -4.615  -8.593  1.00  0.00     0.000 C 
BRANCH   4   5
ATOM      5  C   UNL     1     -11.812  -4.831  -9.048  1.00  0.00     0.000 C 
BRANCH   5   6
ATOM      6  C   UNL     1     -12.106  -6.202  -9.685  1.00  0.00     0.000 C 
BRANCH   6   7
ATOM      7  C   UNL     1     -11.436  -7.368  -8.940  1.00  0.00     0.006 C 
BRANCH   7   8
ATOM      8  C   UNL     1     -12.265  -7.840  -7.738  1.00  0.00     0.053 C 
BRANCH   8   9
ATOM      9  C   UNL     1     -11.635  -7.443  -6.438  1.00  0.00     0.041 C 
ATOM     10  O   UNL     1     -10.386  -7.321  -6.348  1.00  0.00    -0.550 OA
ATOM     11  O   UNL     1     -12.433  -7.180  -5.331  1.00  0.00    -0.550 OA
ENDBRANCH   8   9
ENDBRANCH   7   8
ENDBRANCH   6   7
ENDBRANCH   5   6
ENDBRANCH   4   5
ENDBRANCH   3   4
ENDBRANCH   2   3
ENDBRANCH   1   2
BRANCH   1  12
ATOM     12  C   UNL     1     -11.961  -0.154 -10.144  1.00  0.00     0.000 C 
BRANCH  12  13
ATOM     13  C   UNL     1     -13.130  -1.082 -10.528  1.00  0.00    -0.000 C 
BRANCH  13  14
ATOM     14  C   UNL     1     -14.503  -0.397 -10.661  1.00  0.00    -0.000 C 
BRANCH  14  15
ATOM     15  C   UNL     1     -14.885   0.429  -9.420  1.00  0.00    -0.000 C 
BRANCH  15  16
ATOM     16  C   UNL     1     -14.990   1.933  -9.720  1.00  0.00    -0.000 C 
BRANCH  16  17
ATOM     17  C   UNL     1     -14.753   2.808  -8.478  1.00  0.00    -0.000 C 
BRANCH  17  18
ATOM     18  C   UNL     1     -13.748   3.947  -8.752  1.00  0.00    -0.000 C 
BRANCH  18  19
ATOM     19  C   UNL     1     -12.418   3.464  -9.353  1.00  0.00    -0.003 C 
ATOM     20  C   UNL     1     -11.270   3.464  -8.346  1.00  0.00     0.004 C 
ENDBRANCH  18  19
ENDBRANCH  17  18
ENDBRANCH  16  17
ENDBRANCH  15  16
ENDBRANCH  14  15
ENDBRANCH  13  14
ENDBRANCH  12  13
ENDBRANCH   1  12
TORSDOF 16
ENDMDL
MODEL 5
REMARK VINA RESULT:    -5.193      2.922      7.837
REMARK INTER + INTRA:         -11.479
REMARK INTER:                  -9.762
REMARK INTRA:                  -1.717
REMARK UNBOUND:                -1.429
REMARK SMILES CCCCCCCCCCCCCCCCCC(=O)[O-]
REMARK SMILES IDX 10 1 11 2 12 3 13 4 14 5 15 6 16 7 17 8 18 9 19 10 20 11
REMARK SMILES IDX 9 12 8 13 7 14 6 15 5 16 4 17 3 18 2 19 1 20
REMARK H PARENT
REMARK Flexibility Score: inf
ROOT
ATOM      1  C   UNL     1     -10.166  -3.640  -8.454  1.00  0.00     0.000 C 
ENDROOT
BRANCH   1   2
ATOM      2  C   UNL     1     -10.202  -2.108  -8.619  1.00  0.00     0.000 C 
BRANCH   2   3
ATOM      3  C   UNL     1     -10.597  -1.599 -10.019  1.00  0.00     0.000 C 
BRANCH   3   4
ATOM      4  C   UNL     1     -11.614  -0.447  -9.976  1.00  0.00     0.000 C 
BRANCH   4   5
ATOM      5  C   UNL     1     -12.941  -0.791 -10.677  1.00  0.00     0.000 C 
BRANCH   5   6
ATOM      6  C   UNL     1     -14.215  -0.387  -9.911  1.00  0.00     0.000 C 
BRANCH   6   7
ATOM      7  C   UNL     1     -14.727   1.012 -10.291  1.00  0.00     0.006 C 
BRANCH   7   8
ATOM      8  C   UNL     1     -15.014   1.879  -9.058  1.00  0.00     0.053 C 
BRANCH   8   9
ATOM      9  C   UNL     1     -13.980   2.948  -8.877  1.00  0.00     0.041 C 
ATOM     10  O   UNL     1     -14.217   3.943  -8.144  1.00  0.00    -0.550 OA
ATOM     11  O   UNL     1     -12.743   2.829  -9.498  1.00  0.00    -0.550 OA
ENDBRANCH   8   9
ENDBRANCH   7   8
ENDBRANCH   6   7
ENDBRANCH   5   6
ENDBRANCH   4   5
ENDBRANCH   3   4
ENDBRANCH   2   3
ENDBRANCH   1   2
BRANCH   1  12
ATOM     12  C   UNL     1     -10.870  -4.384  -9.601  1.00  0.00     0.000 C 
BRANCH  12  13
ATOM     13  C   UNL     1     -12.135  -5.135  -9.144  1.00  0.00    -0.000 C 
BRANCH  13  14
ATOM     14  C   UNL     1     -12.409  -6.470  -9.862  1.00  0.00    -0.000 C 
BRANCH  14  15
ATOM     15  C   UNL     1     -12.337  -7.685  -8.921  1.00  0.00    -0.000 C 
BRANCH  15  16
ATOM     16  C   UNL     1     -10.902  -7.986  -8.455  1.00  0.00    -0.000 C 
BRANCH  16  17
ATOM     17  C   UNL     1     -10.743  -7.914  -6.927  1.00  0.00    -0.000 C 
BRANCH  17  18
ATOM     18  C   UNL     1     -12.104  -7.834  -6.204  1.00  0.00    -0.000 C 
BRANCH  18  19
ATOM     19  C   UNL     1     -12.306  -6.530  -5.414  1.00  0.00    -0.003 C 
ATOM     20  C   UNL     1     -11.117  -5.578  -5.516  1.00  0.00     0.004 C 
ENDBRANCH  18  19
ENDBRANCH  17  18
ENDBRANCH  16  17
ENDBRANCH  15  16
ENDBRANCH  14  15
ENDBRANCH  13  14
ENDBRANCH  12  13
ENDBRANCH   1  12
TORSDOF 16
ENDMDL
MODEL 6
REMARK VINA RESULT:    -5.097      2.145      3.140
REMARK INTER + INTRA:         -11.293
REMARK INTER:                 -10.023
REMARK INTRA:                  -1.271
REMARK UNBOUND:                -1.429
REMARK SMILES CCCCCCCCCCCCCCCCCC(=O)[O-]
REMARK SMILES IDX 10 1 11 2 12 3 13 4 14 5 15 6 16 7 17 8 18 9 19 10 20 11
REMARK SMILES IDX 9 12 8 13 7 14 6 15 5 16 4 17 3 18 2 19 1 20
REMARK H PARENT
REMARK Flexibility Score: inf
ROOT
ATOM      1  C   UNL     1     -10.190  -3.726  -8.802  1.00  0.00     0.000 C 
ENDROOT
BRANCH   1   2
ATOM      2  C   UNL     1     -10.827  -5.080  -9.170  1.00  0.00     0.000 C 
BRANCH   2   3
ATOM      3  C   UNL     1     -12.353  -5.063  -9.376  1.00  0.00     0.000 C 
BRANCH   3   4
ATOM      4  C   UNL     1     -12.927  -6.441  -9.747  1.00  0.00     0.000 C 
BRANCH   4   5
ATOM      5  C   UNL     1     -13.640  -7.132  -8.570  1.00  0.00     0.000 C 
BRANCH   5   6
ATOM      6  C   UNL     1     -13.932  -6.231  -7.356  1.00  0.00     0.000 C 
BRANCH   6   7
ATOM      7  C   UNL     1     -13.771  -6.961  -6.012  1.00  0.00     0.006 C 
BRANCH   7   8
ATOM      8  C   UNL     1     -12.501  -7.822  -5.970  1.00  0.00     0.053 C 
BRANCH   8   9
ATOM      9  C   UNL     1     -11.274  -6.992  -5.749  1.00  0.00     0.041 C 
ATOM     10  O   UNL     1     -10.252  -7.167  -6.463  1.00  0.00    -0.550 OA
ATOM     11  O   UNL     1     -11.269  -6.005  -4.771  1.00  0.00    -0.550 OA
ENDBRANCH   8   9
ENDBRANCH   7   8
ENDBRANCH   6   7
ENDBRANCH   5   6
ENDBRANCH   4   5
ENDBRANCH   3   4
ENDBRANCH   2   3
ENDBRANCH   1   2
BRANCH   1  12
ATOM     12  C   UNL     1     -10.273  -2.694  -9.939  1.00  0.00     0.000 C 
BRANCH  12  13
ATOM     13  C   UNL     1     -10.653  -1.285  -9.446  1.00  0.00    -0.000 C 
BRANCH  13  14
ATOM     14  C   UNL     1     -11.633  -0.510 -10.347  1.00  0.00    -0.000 C 
BRANCH  14  15
ATOM     15  C   UNL     1     -13.073  -1.044 -10.267  1.00  0.00    -0.000 C 
BRANCH  15  16
ATOM     16  C   UNL     1     -14.118   0.082 -10.209  1.00  0.00    -0.000 C 
BRANCH  16  17
ATOM     17  C   UNL     1     -13.554   1.391  -9.630  1.00  0.00    -0.000 C 
BRANCH  17  18
ATOM     18  C   UNL     1     -14.669   2.387  -9.247  1.00  0.00    -0.000 C 
BRANCH  18  19
ATOM     19  C   UNL     1     -14.158   3.619  -8.483  1.00  0.00    -0.003 C 
ATOM     20  C   UNL     1     -12.688   3.926  -8.756  1.00  0.00     0.004 C 
ENDBRANCH  18  19
ENDBRANCH  17  18
ENDBRANCH  16  17
ENDBRANCH  15  16
ENDBRANCH  14  15
ENDBRANCH  13  14
ENDBRANCH  12  13
ENDBRANCH   1  12
TORSDOF 16
ENDMDL
MODEL 7
REMARK VINA RESULT:    -4.843      2.557      6.821
REMARK INTER + INTRA:         -10.803
REMARK INTER:                  -8.801
REMARK INTRA:                  -2.001
REMARK UNBOUND:                -1.429
REMARK SMILES CCCCCCCCCCCCCCCCCC(=O)[O-]
REMARK SMILES IDX 10 1 11 2 12 3 13 4 14 5 15 6 16 7 17 8 18 9 19 10 20 11
REMARK SMILES IDX 9 12 8 13 7 14 6 15 5 16 4 17 3 18 2 19 1 20
REMARK H PARENT
REMARK Flexibility Score: inf
ROOT
ATOM      1  C   UNL     1     -10.534  -5.694  -7.745  1.00  0.00     0.000 C 
ENDROOT
BRANCH   1   2
ATOM      2  C   UNL     1     -10.222  -4.412  -6.949  1.00  0.00     0.000 C 
BRANCH   2   3
ATOM      3  C   UNL     1      -9.284  -3.408  -7.646  1.00  0.00     0.000 C 
BRANCH   3   4
ATOM      4  C   UNL     1      -9.131  -3.671  -9.153  1.00  0.00     0.000 C 
BRANCH   4   5
ATOM      5  C   UNL     1     -10.097  -2.833 -10.011  1.00  0.00     0.000 C 
BRANCH   5   6
ATOM      6  C   UNL     1     -10.642  -1.560  -9.335  1.00  0.00     0.000 C 
BRANCH   6   7
ATOM      7  C   UNL     1     -11.268  -0.571 -10.333  1.00  0.00     0.006 C 
BRANCH   7   8
ATOM      8  C   UNL     1     -12.796  -0.702 -10.396  1.00  0.00     0.053 C 
BRANCH   8   9
ATOM      9  C   UNL     1     -13.481   0.497  -9.817  1.00  0.00     0.041 C 
ATOM     10  O   UNL     1     -14.725   0.485  -9.622  1.00  0.00    -0.550 OA
ATOM     11  O   UNL     1     -12.740   1.618  -9.465  1.00  0.00    -0.550 OA
ENDBRANCH   8   9
ENDBRANCH   7   8
ENDBRANCH   6   7
ENDBRANCH   5   6
ENDBRANCH   4   5
ENDBRANCH   3   4
ENDBRANCH   2   3
ENDBRANCH   1   2
BRANCH   1  12
ATOM     12  C   UNL     1     -10.538  -6.958  -6.869  1.00  0.00     0.000 C 
BRANCH  12  13
ATOM     13  C   UNL     1     -11.061  -6.700  -5.443  1.00  0.00    -0.000 C 
BRANCH  13  14
ATOM     14  C   UNL     1     -12.560  -6.363  -5.339  1.00  0.00    -0.000 C 
BRANCH  14  15
ATOM     15  C   UNL     1     -13.470  -7.546  -5.709  1.00  0.00    -0.000 C 
BRANCH  15  16
ATOM     16  C   UNL     1     -14.759  -7.100  -6.420  1.00  0.00    -0.000 C 
BRANCH  16  17
ATOM     17  C   UNL     1     -14.487  -6.212  -7.647  1.00  0.00    -0.000 C 
BRANCH  17  18
ATOM     18  C   UNL     1     -13.933  -7.020  -8.839  1.00  0.00    -0.000 C 
BRANCH  18  19
ATOM     19  C   UNL     1     -13.434  -6.142  -9.998  1.00  0.00    -0.003 C 
ATOM     20  C   UNL     1     -13.435  -4.652  -9.665  1.00  0.00     0.004 C 
ENDBRANCH  18  19
ENDBRANCH  17  18
ENDBRANCH  16  17
ENDBRANCH  15  16
ENDBRANCH  14  15
ENDBRANCH  13  14
ENDBRANCH  12  13
ENDBRANCH   1  12
TORSDOF 16
ENDMDL
MODEL 8
REMARK VINA RESULT:    -4.830     16.546     19.140
REMARK INTER + INTRA:         -10.777
REMARK INTER:                  -8.775
REMARK INTRA:                  -2.003
REMARK UNBOUND:                -1.429
REMARK SMILES CCCCCCCCCCCCCCCCCC(=O)[O-]
REMARK SMILES IDX 10 1 11 2 12 3 13 4 14 5 15 6 16 7 17 8 18 9 19 10 20 11
REMARK SMILES IDX 9 12 8 13 7 14 6 15 5 16 4 17 3 18 2 19 1 20
REMARK H PARENT
REMARK Flexibility Score: inf
ROOT
ATOM      1  C   UNL     1     -11.854   3.592   6.056  1.00  0.00     0.000 C 
ENDROOT
BRANCH   1   2
ATOM      2  C   UNL     1     -11.053   4.572   5.178  1.00  0.00     0.000 C 
BRANCH   2   3
ATOM      3  C   UNL     1      -9.861   5.262   5.869  1.00  0.00     0.000 C 
BRANCH   3   4
ATOM      4  C   UNL     1     -10.065   6.775   6.055  1.00  0.00     0.000 C 
BRANCH   4   5
ATOM      5  C   UNL     1      -8.772   7.512   6.449  1.00  0.00     0.000 C 
BRANCH   5   6
ATOM      6  C   UNL     1      -8.258   8.536   5.420  1.00  0.00     0.000 C 
BRANCH   6   7
ATOM      7  C   UNL     1      -7.942   9.906   6.042  1.00  0.00     0.006 C 
BRANCH   7   8
ATOM      8  C   UNL     1      -6.939  10.706   5.200  1.00  0.00     0.053 C 
BRANCH   8   9
ATOM      9  C   UNL     1      -5.552  10.624   5.761  1.00  0.00     0.041 C 
ATOM     10  O   UNL     1      -5.317   9.911   6.771  1.00  0.00    -0.550 OA
ATOM     11  O   UNL     1      -4.513  11.315   5.150  1.00  0.00    -0.550 OA
ENDBRANCH   8   9
ENDBRANCH   7   8
ENDBRANCH   6   7
ENDBRANCH   5   6
ENDBRANCH   4   5
ENDBRANCH   3   4
ENDBRANCH   2   3
ENDBRANCH   1   2
BRANCH   1  12
ATOM     12  C   UNL     1     -11.087   3.144   7.311  1.00  0.00     0.000 C 
BRANCH  12  13
ATOM     13  C   UNL     1     -11.660   3.739   8.611  1.00  0.00    -0.000 C 
BRANCH  13  14
ATOM     14  C   UNL     1     -12.909   4.624   8.440  1.00  0.00    -0.000 C 
BRANCH  14  15
ATOM     15  C   UNL     1     -12.612   6.123   8.614  1.00  0.00    -0.000 C 
BRANCH  15  16
ATOM     16  C   UNL     1     -13.419   7.001   7.643  1.00  0.00    -0.000 C 
BRANCH  16  17
ATOM     17  C   UNL     1     -14.239   6.178   6.634  1.00  0.00    -0.000 C 
BRANCH  17  18
ATOM     18  C   UNL     1     -14.256   6.825   5.233  1.00  0.00    -0.000 C 
BRANCH  18  19
ATOM     19  C   UNL     1     -14.306   5.804   4.084  1.00  0.00    -0.003 C 
ATOM     20  C   UNL     1     -14.311   6.455   2.704  1.00  0.00     0.004 C 
ENDBRANCH  18  19
ENDBRANCH  17  18
ENDBRANCH  16  17
ENDBRANCH  15  16
ENDBRANCH  14  15
ENDBRANCH  13  14
ENDBRANCH  12  13
ENDBRANCH   1  12
TORSDOF 16
ENDMDL
MODEL 9
REMARK VINA RESULT:    -4.677     16.002     18.364
REMARK INTER + INTRA:         -10.482
REMARK INTER:                  -7.925
REMARK INTRA:                  -2.557
REMARK UNBOUND:                -1.429
REMARK SMILES CCCCCCCCCCCCCCCCCC(=O)[O-]
REMARK SMILES IDX 10 1 11 2 12 3 13 4 14 5 15 6 16 7 17 8 18 9 19 10 20 11
REMARK SMILES IDX 9 12 8 13 7 14 6 15 5 16 4 17 3 18 2 19 1 20
REMARK H PARENT
REMARK Flexibility Score: inf
ROOT
ATOM      1  C   UNL     1      -9.535   5.747   7.000  1.00  0.00     0.000 C 
ENDROOT
BRANCH   1   2
ATOM      2  C   UNL     1     -10.300   5.294   8.258  1.00  0.00     0.000 C 
BRANCH   2   3
ATOM      3  C   UNL     1     -10.761   3.824   8.263  1.00  0.00     0.000 C 
BRANCH   3   4
ATOM      4  C   UNL     1     -12.291   3.672   8.317  1.00  0.00     0.000 C 
BRANCH   4   5
ATOM      5  C   UNL     1     -12.996   4.256   7.079  1.00  0.00     0.000 C 
BRANCH   5   6
ATOM      6  C   UNL     1     -12.411   3.825   5.722  1.00  0.00     0.000 C 
BRANCH   6   7
ATOM      7  C   UNL     1     -12.887   4.705   4.554  1.00  0.00     0.006 C 
BRANCH   7   8
ATOM      8  C   UNL     1     -13.969   5.703   4.985  1.00  0.00     0.053 C 
BRANCH   8   9
ATOM      9  C   UNL     1     -14.263   6.704   3.911  1.00  0.00     0.041 C 
ATOM     10  O   UNL     1     -14.535   7.896   4.209  1.00  0.00    -0.550 OA
ATOM     11  O   UNL     1     -14.208   6.325   2.575  1.00  0.00    -0.550 OA
ENDBRANCH   8   9
ENDBRANCH   7   8
ENDBRANCH   6   7
ENDBRANCH   5   6
ENDBRANCH   4   5
ENDBRANCH   3   4
ENDBRANCH   2   3
ENDBRANCH   1   2
BRANCH   1  12
ATOM     12  C   UNL     1     -10.317   6.768   6.157  1.00  0.00     0.000 C 
BRANCH  12  13
ATOM     13  C   UNL     1     -11.417   7.492   6.955  1.00  0.00    -0.000 C 
BRANCH  13  14
ATOM     14  C   UNL     1     -11.962   8.782   6.314  1.00  0.00    -0.000 C 
BRANCH  14  15
ATOM     15  C   UNL     1     -11.867  10.002   7.246  1.00  0.00    -0.000 C 
BRANCH  15  16
ATOM     16  C   UNL     1     -11.160  11.197   6.584  1.00  0.00    -0.000 C 
BRANCH  16  17
ATOM     17  C   UNL     1      -9.829  10.809   5.916  1.00  0.00    -0.000 C 
BRANCH  17  18
ATOM     18  C   UNL     1      -8.704  10.588   6.949  1.00  0.00    -0.000 C 
BRANCH  18  19
ATOM     19  C   UNL     1      -7.698   9.499   6.539  1.00  0.00    -0.003 C 
ATOM     20  C   UNL     1      -7.885   9.022   5.101  1.00  0.00     0.004 C 
ENDBRANCH  18  19
ENDBRANCH  17  18
ENDBRANCH  16  17
ENDBRANCH  15  16
ENDBRANCH  14  15
ENDBRANCH  13  14
ENDBRANCH  12  13
ENDBRANCH   1  12
TORSDOF 16
ENDMDL
