MODEL 1
REMARK VINA RESULT:    -5.381      0.000      0.000
REMARK INTER + INTRA:          -9.103
REMARK INTER:                  -7.583
REMARK INTRA:                  -1.519
REMARK UNBOUND:                -1.519
REMARK SMILES O=C(C=Cc1ccc(O)cc1)CC(=O)C=Cc1ccc(O)cc1
REMARK SMILES IDX 12 1 2 2 1 3 3 4 4 5 5 6 6 7 7 8 8 9 11 10 10 11 9 12 13 14
REMARK SMILES IDX 14 15 15 16 16 17 17 18 18 19 23 20 19 21 22 22 20 23 21 24
REMARK H PARENT 9 13 21 25
REMARK Flexibility Score: inf
ROOT
ATOM      1  C   UNL     1     152.481 153.306 184.161  1.00  0.00     0.160 C 
ENDROOT
BRANCH   1   2
ATOM      2  C   UNL     1     151.133 152.972 183.601  1.00  0.00     0.163 C 
ATOM      3  O   UNL     1     150.289 153.896 183.446  1.00  0.00    -0.294 OA
BRANCH   2   4
ATOM      4  C   UNL     1     150.772 151.560 183.341  1.00  0.00     0.048 C 
ATOM      5  C   UNL     1     150.761 150.966 182.138  1.00  0.00     0.012 C 
BRANCH   5   6
ATOM      6  C   UNL     1     151.280 151.557 180.887  1.00  0.00    -0.025 A 
ATOM      7  C   UNL     1     150.412 152.281 180.057  1.00  0.00     0.012 A 
ATOM      8  C   UNL     1     150.869 152.810 178.846  1.00  0.00     0.047 A 
ATOM      9  C   UNL     1     152.191 152.601 178.442  1.00  0.00     0.115 A 
ATOM     10  C   UNL     1     152.600 151.323 180.464  1.00  0.00     0.012 A 
ATOM     11  C   UNL     1     153.056 151.852 179.252  1.00  0.00     0.047 A 
BRANCH   9  12
ATOM     12  O   UNL     1     152.634 153.135 177.234  1.00  0.00    -0.508 OA
ATOM     13  H   UNL     1     153.267 153.927 177.205  1.00  0.00     0.293 HD
ENDBRANCH   9  12
ENDBRANCH   5   6
ENDBRANCH   2   4
ENDBRANCH   1   2
BRANCH   1  14
ATOM     14  C   UNL     1     152.892 152.276 185.169  1.00  0.00     0.163 C 
ATOM     15  O   UNL     1     152.468 152.372 186.353  1.00  0.00    -0.294 OA
BRANCH  14  16
ATOM     16  C   UNL     1     153.742 151.139 184.764  1.00  0.00     0.048 C 
ATOM     17  C   UNL     1     154.534 151.189 183.684  1.00  0.00     0.012 C 
BRANCH  17  18
ATOM     18  C   UNL     1     155.401 150.067 183.246  1.00  0.00    -0.025 A 
ATOM     19  C   UNL     1     156.221 149.348 184.140  1.00  0.00     0.012 A 
ATOM     20  C   UNL     1     155.431 149.734 181.881  1.00  0.00     0.012 A 
ATOM     21  C   UNL     1     157.029 148.306 183.675  1.00  0.00     0.047 A 
ATOM     22  C   UNL     1     156.241 148.691 181.421  1.00  0.00     0.047 A 
ATOM     23  C   UNL     1     157.039 147.973 182.315  1.00  0.00     0.115 A 
BRANCH  23  24
ATOM     24  O   UNL     1     157.840 146.936 181.844  1.00  0.00    -0.508 OA
ATOM     25  H   UNL     1     158.090 146.150 182.432  1.00  0.00     0.293 HD
ENDBRANCH  23  24
ENDBRANCH  17  18
ENDBRANCH  14  16
ENDBRANCH   1  14
TORSDOF 8
ENDMDL
MODEL 2
REMARK VINA RESULT:    -5.324     16.357     17.822
REMARK INTER + INTRA:          -9.022
REMARK INTER:                  -6.927
REMARK INTRA:                  -2.095
REMARK UNBOUND:                -1.519
REMARK SMILES O=C(C=Cc1ccc(O)cc1)CC(=O)C=Cc1ccc(O)cc1
REMARK SMILES IDX 12 1 2 2 1 3 3 4 4 5 5 6 6 7 7 8 8 9 11 10 10 11 9 12 13 14
REMARK SMILES IDX 14 15 15 16 16 17 17 18 18 19 23 20 19 21 22 22 20 23 21 24
REMARK H PARENT 9 13 21 25
REMARK Flexibility Score: inf
ROOT
ATOM      1  C   UNL     1     168.996 159.561 179.676  1.00  0.00     0.160 C 
ENDROOT
BRANCH   1   2
ATOM      2  C   UNL     1     167.734 159.732 178.887  1.00  0.00     0.163 C 
ATOM      3  O   UNL     1     166.863 158.822 178.923  1.00  0.00    -0.294 OA
BRANCH   2   4
ATOM      4  C   UNL     1     167.575 160.904 177.996  1.00  0.00     0.048 C 
ATOM      5  C   UNL     1     167.446 162.178 178.400  1.00  0.00     0.012 C 
BRANCH   5   6
ATOM      6  C   UNL     1     167.623 162.659 179.785  1.00  0.00    -0.025 A 
ATOM      7  C   UNL     1     166.507 162.748 180.630  1.00  0.00     0.012 A 
ATOM      8  C   UNL     1     166.643 163.245 181.930  1.00  0.00     0.047 A 
ATOM      9  C   UNL     1     167.889 163.678 182.391  1.00  0.00     0.115 A 
ATOM     10  C   UNL     1     168.869 163.124 180.241  1.00  0.00     0.012 A 
ATOM     11  C   UNL     1     169.003 163.621 181.542  1.00  0.00     0.047 A 
BRANCH   9  12
ATOM     12  O   UNL     1     168.010 164.169 183.688  1.00  0.00    -0.508 OA
ATOM     13  H   UNL     1     168.138 163.548 184.480  1.00  0.00     0.293 HD
ENDBRANCH   9  12
ENDBRANCH   5   6
ENDBRANCH   2   4
ENDBRANCH   1   2
BRANCH   1  14
ATOM     14  C   UNL     1     168.689 158.970 181.020  1.00  0.00     0.163 C 
ATOM     15  O   UNL     1     169.125 157.820 181.300  1.00  0.00    -0.294 OA
BRANCH  14  16
ATOM     16  C   UNL     1     167.925 159.749 182.015  1.00  0.00     0.048 C 
ATOM     17  C   UNL     1     166.701 159.385 182.421  1.00  0.00     0.012 C 
BRANCH  17  18
ATOM     18  C   UNL     1     165.905 160.144 183.418  1.00  0.00    -0.025 A 
ATOM     19  C   UNL     1     166.483 160.729 184.563  1.00  0.00     0.012 A 
ATOM     20  C   UNL     1     164.517 160.249 183.230  1.00  0.00     0.012 A 
ATOM     21  C   UNL     1     165.688 161.424 185.479  1.00  0.00     0.047 A 
ATOM     22  C   UNL     1     163.725 160.946 184.149  1.00  0.00     0.047 A 
ATOM     23  C   UNL     1     164.307 161.536 185.274  1.00  0.00     0.115 A 
BRANCH  23  24
ATOM     24  O   UNL     1     163.507 162.227 186.181  1.00  0.00    -0.508 OA
ATOM     25  H   UNL     1     162.741 161.773 186.664  1.00  0.00     0.293 HD
ENDBRANCH  23  24
ENDBRANCH  17  18
ENDBRANCH  14  16
ENDBRANCH   1  14
TORSDOF 8
ENDMDL
MODEL 3
REMARK VINA RESULT:    -5.300      0.646      1.610
REMARK INTER + INTRA:          -8.988
REMARK INTER:                  -7.408
REMARK INTRA:                  -1.580
REMARK UNBOUND:                -1.519
REMARK SMILES O=C(C=Cc1ccc(O)cc1)CC(=O)C=Cc1ccc(O)cc1
REMARK SMILES IDX 12 1 2 2 1 3 3 4 4 5 5 6 6 7 7 8 8 9 11 10 10 11 9 12 13 14
REMARK SMILES IDX 14 15 15 16 16 17 17 18 18 19 23 20 19 21 22 22 20 23 21 24
REMARK H PARENT 9 13 21 25
REMARK Flexibility Score: inf
ROOT
ATOM      1  C   UNL     1     151.943 153.999 183.242  1.00  0.00     0.160 C 
ENDROOT
BRANCH   1   2
ATOM      2  C   UNL     1     150.636 153.268 183.241  1.00  0.00     0.163 C 
ATOM      3  O   UNL     1     149.568 153.924 183.381  1.00  0.00    -0.294 OA
BRANCH   2   4
ATOM      4  C   UNL     1     150.618 151.789 183.185  1.00  0.00     0.048 C 
ATOM      5  C   UNL     1     150.810 151.048 182.083  1.00  0.00     0.012 C 
BRANCH   5   6
ATOM      6  C   UNL     1     151.252 151.563 180.771  1.00  0.00    -0.025 A 
ATOM      7  C   UNL     1     152.591 151.404 180.385  1.00  0.00     0.012 A 
ATOM      8  C   UNL     1     153.043 151.925 179.169  1.00  0.00     0.047 A 
ATOM      9  C   UNL     1     152.168 152.630 178.337  1.00  0.00     0.115 A 
ATOM     10  C   UNL     1     150.382 152.299 179.946  1.00  0.00     0.012 A 
ATOM     11  C   UNL     1     150.836 152.819 178.730  1.00  0.00     0.047 A 
BRANCH   9  12
ATOM     12  O   UNL     1     152.632 153.142 177.128  1.00  0.00    -0.508 OA
ATOM     13  H   UNL     1     152.215 152.872 176.243  1.00  0.00     0.293 HD
ENDBRANCH   9  12
ENDBRANCH   5   6
ENDBRANCH   2   4
ENDBRANCH   1   2
BRANCH   1  14
ATOM     14  C   UNL     1     152.912 153.322 184.165  1.00  0.00     0.163 C 
ATOM     15  O   UNL     1     152.770 153.455 185.411  1.00  0.00    -0.294 OA
BRANCH  14  16
ATOM     16  C   UNL     1     153.987 152.471 183.616  1.00  0.00     0.048 C 
ATOM     17  C   UNL     1     154.112 151.178 183.945  1.00  0.00     0.012 C 
BRANCH  17  18
ATOM     18  C   UNL     1     155.179 150.293 183.414  1.00  0.00    -0.025 A 
ATOM     19  C   UNL     1     155.300 149.991 182.042  1.00  0.00     0.012 A 
ATOM     20  C   UNL     1     156.079 149.707 184.319  1.00  0.00     0.012 A 
ATOM     21  C   UNL     1     156.317 149.142 181.593  1.00  0.00     0.047 A 
ATOM     22  C   UNL     1     157.094 148.858 183.865  1.00  0.00     0.047 A 
ATOM     23  C   UNL     1     157.217 148.576 182.503  1.00  0.00     0.115 A 
BRANCH  23  24
ATOM     24  O   UNL     1     158.234 147.729 182.065  1.00  0.00    -0.508 OA
ATOM     25  H   UNL     1     158.051 146.762 181.825  1.00  0.00     0.293 HD
ENDBRANCH  23  24
ENDBRANCH  17  18
ENDBRANCH  14  16
ENDBRANCH   1  14
TORSDOF 8
ENDMDL
MODEL 4
REMARK VINA RESULT:    -5.262      2.832      7.844
REMARK INTER + INTRA:          -8.934
REMARK INTER:                  -7.586
REMARK INTRA:                  -1.348
REMARK UNBOUND:                -1.519
REMARK SMILES O=C(C=Cc1ccc(O)cc1)CC(=O)C=Cc1ccc(O)cc1
REMARK SMILES IDX 12 1 2 2 1 3 3 4 4 5 5 6 6 7 7 8 8 9 11 10 10 11 9 12 13 14
REMARK SMILES IDX 14 15 15 16 16 17 17 18 18 19 23 20 19 21 22 22 20 23 21 24
REMARK H PARENT 9 13 21 25
REMARK Flexibility Score: inf
ROOT
ATOM      1  C   UNL     1     158.450 151.204 182.744  1.00  0.00     0.160 C 
ENDROOT
BRANCH   1   2
ATOM      2  C   UNL     1     158.877 149.770 182.835  1.00  0.00     0.163 C 
ATOM      3  O   UNL     1     160.036 149.504 183.253  1.00  0.00    -0.294 OA
BRANCH   2   4
ATOM      4  C   UNL     1     157.982 148.701 182.337  1.00  0.00     0.048 C 
ATOM      5  C   UNL     1     157.442 147.725 183.084  1.00  0.00     0.012 C 
BRANCH   5   6
ATOM      6  C   UNL     1     157.493 147.649 184.559  1.00  0.00    -0.025 A 
ATOM      7  C   UNL     1     156.451 148.209 185.313  1.00  0.00     0.012 A 
ATOM      8  C   UNL     1     156.501 148.190 186.710  1.00  0.00     0.047 A 
ATOM      9  C   UNL     1     157.601 147.631 187.367  1.00  0.00     0.115 A 
ATOM     10  C   UNL     1     158.612 147.115 185.223  1.00  0.00     0.012 A 
ATOM     11  C   UNL     1     158.660 147.097 186.620  1.00  0.00     0.047 A 
BRANCH   9  12
ATOM     12  O   UNL     1     157.636 147.617 188.759  1.00  0.00    -0.508 OA
ATOM     13  H   UNL     1     157.608 148.475 189.299  1.00  0.00     0.293 HD
ENDBRANCH   9  12
ENDBRANCH   5   6
ENDBRANCH   2   4
ENDBRANCH   1   2
BRANCH   1  14
ATOM     14  C   UNL     1     157.212 151.427 183.561  1.00  0.00     0.163 C 
ATOM     15  O   UNL     1     157.288 151.376 184.818  1.00  0.00    -0.294 OA
BRANCH  14  16
ATOM     16  C   UNL     1     155.933 151.749 182.896  1.00  0.00     0.048 C 
ATOM     17  C   UNL     1     154.911 150.883 182.856  1.00  0.00     0.012 C 
BRANCH  17  18
ATOM     18  C   UNL     1     153.613 151.172 182.198  1.00  0.00    -0.025 A 
ATOM     19  C   UNL     1     152.421 151.370 182.924  1.00  0.00     0.012 A 
ATOM     20  C   UNL     1     153.566 151.213 180.794  1.00  0.00     0.012 A 
ATOM     21  C   UNL     1     151.221 151.629 182.256  1.00  0.00     0.047 A 
ATOM     22  C   UNL     1     152.363 151.471 180.129  1.00  0.00     0.047 A 
ATOM     23  C   UNL     1     151.189 151.682 180.857  1.00  0.00     0.115 A 
BRANCH  23  24
ATOM     24  O   UNL     1     149.998 151.940 180.182  1.00  0.00    -0.508 OA
ATOM     25  H   UNL     1     149.669 152.886 180.029  1.00  0.00     0.293 HD
ENDBRANCH  23  24
ENDBRANCH  17  18
ENDBRANCH  14  16
ENDBRANCH   1  14
TORSDOF 8
ENDMDL
MODEL 5
REMARK VINA RESULT:    -5.238      2.469      6.564
REMARK INTER + INTRA:          -8.900
REMARK INTER:                  -7.083
REMARK INTRA:                  -1.817
REMARK UNBOUND:                -1.519
REMARK SMILES O=C(C=Cc1ccc(O)cc1)CC(=O)C=Cc1ccc(O)cc1
REMARK SMILES IDX 12 1 2 2 1 3 3 4 4 5 5 6 6 7 7 8 8 9 11 10 10 11 9 12 13 14
REMARK SMILES IDX 14 15 15 16 16 17 17 18 18 19 23 20 19 21 22 22 20 23 21 24
REMARK H PARENT 9 13 21 25
REMARK Flexibility Score: inf
ROOT
ATOM      1  C   UNL     1     156.630 149.427 187.299  1.00  0.00     0.160 C 
ENDROOT
BRANCH   1   2
ATOM      2  C   UNL     1     156.668 148.029 186.761  1.00  0.00     0.163 C 
ATOM      3  O   UNL     1     155.592 147.377 186.677  1.00  0.00    -0.294 OA
BRANCH   2   4
ATOM      4  C   UNL     1     157.968 147.398 186.440  1.00  0.00     0.048 C 
ATOM      5  C   UNL     1     158.506 147.302 185.214  1.00  0.00     0.012 C 
BRANCH   5   6
ATOM      6  C   UNL     1     157.991 147.966 183.998  1.00  0.00    -0.025 A 
ATOM      7  C   UNL     1     158.578 149.164 183.568  1.00  0.00     0.012 A 
ATOM      8  C   UNL     1     158.077 149.834 182.447  1.00  0.00     0.047 A 
ATOM      9  C   UNL     1     156.971 149.325 181.760  1.00  0.00     0.115 A 
ATOM     10  C   UNL     1     156.860 147.473 183.323  1.00  0.00     0.012 A 
ATOM     11  C   UNL     1     156.360 148.144 182.203  1.00  0.00     0.047 A 
BRANCH   9  12
ATOM     12  O   UNL     1     156.484 150.002 180.645  1.00  0.00    -0.508 OA
ATOM     13  H   UNL     1     156.968 150.805 180.258  1.00  0.00     0.293 HD
ENDBRANCH   9  12
ENDBRANCH   5   6
ENDBRANCH   2   4
ENDBRANCH   1   2
BRANCH   1  14
ATOM     14  C   UNL     1     156.459 150.407 186.178  1.00  0.00     0.163 C 
ATOM     15  O   UNL     1     157.400 151.202 185.908  1.00  0.00    -0.294 OA
BRANCH  14  16
ATOM     16  C   UNL     1     155.221 150.404 185.372  1.00  0.00     0.048 C 
ATOM     17  C   UNL     1     154.977 151.330 184.435  1.00  0.00     0.012 C 
BRANCH  17  18
ATOM     18  C   UNL     1     153.746 151.359 183.607  1.00  0.00    -0.025 A 
ATOM     19  C   UNL     1     152.456 151.457 184.170  1.00  0.00     0.012 A 
ATOM     20  C   UNL     1     153.870 151.247 182.212  1.00  0.00     0.012 A 
ATOM     21  C   UNL     1     151.326 151.468 183.347  1.00  0.00     0.047 A 
ATOM     22  C   UNL     1     152.736 151.258 181.393  1.00  0.00     0.047 A 
ATOM     23  C   UNL     1     151.463 151.371 181.957  1.00  0.00     0.115 A 
BRANCH  23  24
ATOM     24  O   UNL     1     150.343 151.382 181.129  1.00  0.00    -0.508 OA
ATOM     25  H   UNL     1     149.471 150.949 181.412  1.00  0.00     0.293 HD
ENDBRANCH  23  24
ENDBRANCH  17  18
ENDBRANCH  14  16
ENDBRANCH   1  14
TORSDOF 8
ENDMDL
MODEL 6
REMARK VINA RESULT:    -5.232      2.895      8.011
REMARK INTER + INTRA:          -8.892
REMARK INTER:                  -7.565
REMARK INTRA:                  -1.327
REMARK UNBOUND:                -1.519
REMARK SMILES O=C(C=Cc1ccc(O)cc1)CC(=O)C=Cc1ccc(O)cc1
REMARK SMILES IDX 12 1 2 2 1 3 3 4 4 5 5 6 6 7 7 8 8 9 11 10 10 11 9 12 13 14
REMARK SMILES IDX 14 15 15 16 16 17 17 18 18 19 23 20 19 21 22 22 20 23 21 24
REMARK H PARENT 9 13 21 25
REMARK Flexibility Score: inf
ROOT
ATOM      1  C   UNL     1     158.550 151.165 182.722  1.00  0.00     0.160 C 
ENDROOT
BRANCH   1   2
ATOM      2  C   UNL     1     159.016 149.751 182.891  1.00  0.00     0.163 C 
ATOM      3  O   UNL     1     160.172 149.539 183.346  1.00  0.00    -0.294 OA
BRANCH   2   4
ATOM      4  C   UNL     1     158.164 148.633 182.425  1.00  0.00     0.048 C 
ATOM      5  C   UNL     1     157.598 147.704 183.211  1.00  0.00     0.012 C 
BRANCH   5   6
ATOM      6  C   UNL     1     157.572 147.733 184.688  1.00  0.00    -0.025 A 
ATOM      7  C   UNL     1     158.640 147.176 185.407  1.00  0.00     0.012 A 
ATOM      8  C   UNL     1     158.614 147.150 186.805  1.00  0.00     0.047 A 
ATOM      9  C   UNL     1     157.512 147.660 187.497  1.00  0.00     0.115 A 
ATOM     10  C   UNL     1     156.451 148.217 185.388  1.00  0.00     0.012 A 
ATOM     11  C   UNL     1     156.428 148.190 186.786  1.00  0.00     0.047 A 
BRANCH   9  12
ATOM     12  O   UNL     1     157.501 147.630 188.890  1.00  0.00    -0.508 OA
ATOM     13  H   UNL     1     157.837 148.413 189.440  1.00  0.00     0.293 HD
ENDBRANCH   9  12
ENDBRANCH   5   6
ENDBRANCH   2   4
ENDBRANCH   1   2
BRANCH   1  14
ATOM     14  C   UNL     1     157.263 151.376 183.463  1.00  0.00     0.163 C 
ATOM     15  O   UNL     1     157.266 151.341 184.723  1.00  0.00    -0.294 OA
BRANCH  14  16
ATOM     16  C   UNL     1     156.021 151.671 182.720  1.00  0.00     0.048 C 
ATOM     17  C   UNL     1     154.926 150.905 182.829  1.00  0.00     0.012 C 
BRANCH  17  18
ATOM     18  C   UNL     1     153.661 151.170 182.098  1.00  0.00    -0.025 A 
ATOM     19  C   UNL     1     153.582 151.159 180.691  1.00  0.00     0.012 A 
ATOM     20  C   UNL     1     152.509 151.480 182.840  1.00  0.00     0.012 A 
ATOM     21  C   UNL     1     152.368 151.426 180.050  1.00  0.00     0.047 A 
ATOM     22  C   UNL     1     151.297 151.747 182.194  1.00  0.00     0.047 A 
ATOM     23  C   UNL     1     151.223 151.719 180.800  1.00  0.00     0.115 A 
BRANCH  23  24
ATOM     24  O   UNL     1     150.009 151.986 180.170  1.00  0.00    -0.508 OA
ATOM     25  H   UNL     1     149.124 151.785 180.619  1.00  0.00     0.293 HD
ENDBRANCH  23  24
ENDBRANCH  17  18
ENDBRANCH  14  16
ENDBRANCH   1  14
TORSDOF 8
ENDMDL
MODEL 7
REMARK VINA RESULT:    -5.139      2.159      6.122
REMARK INTER + INTRA:          -8.761
REMARK INTER:                  -7.538
REMARK INTRA:                  -1.223
REMARK UNBOUND:                -1.519
REMARK SMILES O=C(C=Cc1ccc(O)cc1)CC(=O)C=Cc1ccc(O)cc1
REMARK SMILES IDX 12 1 2 2 1 3 3 4 4 5 5 6 6 7 7 8 8 9 11 10 10 11 9 12 13 14
REMARK SMILES IDX 14 15 15 16 16 17 17 18 18 19 23 20 19 21 22 22 20 23 21 24
REMARK H PARENT 9 13 21 25
REMARK Flexibility Score: inf
ROOT
ATOM      1  C   UNL     1     156.044 150.042 185.962  1.00  0.00     0.160 C 
ENDROOT
BRANCH   1   2
ATOM      2  C   UNL     1     156.126 148.570 186.231  1.00  0.00     0.163 C 
ATOM      3  O   UNL     1     155.189 148.011 186.862  1.00  0.00    -0.294 OA
BRANCH   2   4
ATOM      4  C   UNL     1     157.344 147.818 185.852  1.00  0.00     0.048 C 
ATOM      5  C   UNL     1     157.857 147.737 184.614  1.00  0.00     0.012 C 
BRANCH   5   6
ATOM      6  C   UNL     1     157.409 148.527 183.449  1.00  0.00    -0.025 A 
ATOM      7  C   UNL     1     156.425 148.001 182.599  1.00  0.00     0.012 A 
ATOM      8  C   UNL     1     156.019 148.710 181.463  1.00  0.00     0.047 A 
ATOM      9  C   UNL     1     156.608 149.940 181.155  1.00  0.00     0.115 A 
ATOM     10  C   UNL     1     158.020 149.750 183.118  1.00  0.00     0.012 A 
ATOM     11  C   UNL     1     157.613 150.457 181.983  1.00  0.00     0.047 A 
BRANCH   9  12
ATOM     12  O   UNL     1     156.193 150.635 180.022  1.00  0.00    -0.508 OA
ATOM     13  H   UNL     1     156.686 150.554 179.139  1.00  0.00     0.293 HD
ENDBRANCH   9  12
ENDBRANCH   5   6
ENDBRANCH   2   4
ENDBRANCH   1   2
BRANCH   1  14
ATOM     14  C   UNL     1     154.696 150.565 186.358  1.00  0.00     0.163 C 
ATOM     15  O   UNL     1     154.472 150.832 187.570  1.00  0.00    -0.294 OA
BRANCH  14  16
ATOM     16  C   UNL     1     153.664 150.808 185.330  1.00  0.00     0.048 C 
ATOM     17  C   UNL     1     153.974 151.023 184.044  1.00  0.00     0.012 C 
BRANCH  17  18
ATOM     18  C   UNL     1     152.965 151.271 182.985  1.00  0.00    -0.025 A 
ATOM     19  C   UNL     1     153.305 151.364 181.619  1.00  0.00     0.012 A 
ATOM     20  C   UNL     1     151.625 151.456 183.363  1.00  0.00     0.012 A 
ATOM     21  C   UNL     1     152.318 151.611 180.660  1.00  0.00     0.047 A 
ATOM     22  C   UNL     1     150.640 151.702 182.400  1.00  0.00     0.047 A 
ATOM     23  C   UNL     1     150.983 151.778 181.048  1.00  0.00     0.115 A 
BRANCH  23  24
ATOM     24  O   UNL     1     149.993 152.023 180.099  1.00  0.00    -0.508 OA
ATOM     25  H   UNL     1     149.798 151.364 179.355  1.00  0.00     0.293 HD
ENDBRANCH  23  24
ENDBRANCH  17  18
ENDBRANCH  14  16
ENDBRANCH   1  14
TORSDOF 8
ENDMDL
MODEL 8
REMARK VINA RESULT:    -5.014     16.309     17.827
REMARK INTER + INTRA:          -8.584
REMARK INTER:                  -7.354
REMARK INTRA:                  -1.230
REMARK UNBOUND:                -1.519
REMARK SMILES O=C(C=Cc1ccc(O)cc1)CC(=O)C=Cc1ccc(O)cc1
REMARK SMILES IDX 12 1 2 2 1 3 3 4 4 5 5 6 6 7 7 8 8 9 11 10 10 11 9 12 13 14
REMARK SMILES IDX 14 15 15 16 16 17 17 18 18 19 23 20 19 21 22 22 20 23 21 24
REMARK H PARENT 9 13 21 25
REMARK Flexibility Score: inf
ROOT
ATOM      1  C   UNL     1     165.514 160.300 181.498  1.00  0.00     0.160 C 
ENDROOT
BRANCH   1   2
ATOM      2  C   UNL     1     166.687 160.314 180.566  1.00  0.00     0.163 C 
ATOM      3  O   UNL     1     166.517 160.686 179.374  1.00  0.00    -0.294 OA
BRANCH   2   4
ATOM      4  C   UNL     1     167.996 159.793 181.021  1.00  0.00     0.048 C 
ATOM      5  C   UNL     1     169.035 160.540 181.428  1.00  0.00     0.012 C 
BRANCH   5   6
ATOM      6  C   UNL     1     168.998 161.997 181.668  1.00  0.00    -0.025 A 
ATOM      7  C   UNL     1     168.773 162.475 182.968  1.00  0.00     0.012 A 
ATOM      8  C   UNL     1     168.688 163.849 183.211  1.00  0.00     0.047 A 
ATOM      9  C   UNL     1     168.804 164.758 182.156  1.00  0.00     0.115 A 
ATOM     10  C   UNL     1     169.083 162.914 180.604  1.00  0.00     0.012 A 
ATOM     11  C   UNL     1     168.998 164.288 180.850  1.00  0.00     0.047 A 
BRANCH   9  12
ATOM     12  O   UNL     1     168.719 166.125 182.413  1.00  0.00    -0.508 OA
ATOM     13  H   UNL     1     168.738 166.488 183.360  1.00  0.00     0.293 HD
ENDBRANCH   9  12
ENDBRANCH   5   6
ENDBRANCH   2   4
ENDBRANCH   1   2
BRANCH   1  14
ATOM     14  C   UNL     1     165.435 161.596 182.248  1.00  0.00     0.163 C 
ATOM     15  O   UNL     1     165.599 162.679 181.623  1.00  0.00    -0.294 OA
BRANCH  14  16
ATOM     16  C   UNL     1     165.121 161.599 183.691  1.00  0.00     0.048 C 
ATOM     17  C   UNL     1     163.910 161.264 184.159  1.00  0.00     0.012 C 
BRANCH  17  18
ATOM     18  C   UNL     1     163.558 161.256 185.600  1.00  0.00    -0.025 A 
ATOM     19  C   UNL     1     162.300 160.830 186.072  1.00  0.00     0.012 A 
ATOM     20  C   UNL     1     164.505 161.728 186.526  1.00  0.00     0.012 A 
ATOM     21  C   UNL     1     162.013 160.853 187.440  1.00  0.00     0.047 A 
ATOM     22  C   UNL     1     164.213 161.749 187.894  1.00  0.00     0.047 A 
ATOM     23  C   UNL     1     162.970 161.310 188.355  1.00  0.00     0.115 A 
BRANCH  23  24
ATOM     24  O   UNL     1     162.693 161.336 189.720  1.00  0.00    -0.508 OA
ATOM     25  H   UNL     1     163.302 160.884 190.392  1.00  0.00     0.293 HD
ENDBRANCH  23  24
ENDBRANCH  17  18
ENDBRANCH  14  16
ENDBRANCH   1  14
TORSDOF 8
ENDMDL
MODEL 9
REMARK VINA RESULT:    -4.894      2.986      4.777
REMARK INTER + INTRA:          -8.416
REMARK INTER:                  -7.121
REMARK INTRA:                  -1.295
REMARK UNBOUND:                -1.519
REMARK SMILES O=C(C=Cc1ccc(O)cc1)CC(=O)C=Cc1ccc(O)cc1
REMARK SMILES IDX 12 1 2 2 1 3 3 4 4 5 5 6 6 7 7 8 8 9 11 10 10 11 9 12 13 14
REMARK SMILES IDX 14 15 15 16 16 17 17 18 18 19 23 20 19 21 22 22 20 23 21 24
REMARK H PARENT 9 13 21 25
REMARK Flexibility Score: inf
ROOT
ATOM      1  C   UNL     1     151.858 153.800 183.309  1.00  0.00     0.160 C 
ENDROOT
BRANCH   1   2
ATOM      2  C   UNL     1     151.457 153.736 181.866  1.00  0.00     0.163 C 
ATOM      3  O   UNL     1     151.715 154.716 181.116  1.00  0.00    -0.294 OA
BRANCH   2   4
ATOM      4  C   UNL     1     150.675 152.582 181.369  1.00  0.00     0.048 C 
ATOM      5  C   UNL     1     151.104 151.674 180.479  1.00  0.00     0.012 C 
BRANCH   5   6
ATOM      6  C   UNL     1     152.489 151.556 179.977  1.00  0.00    -0.025 A 
ATOM      7  C   UNL     1     152.861 152.251 178.817  1.00  0.00     0.012 A 
ATOM      8  C   UNL     1     154.153 152.117 178.297  1.00  0.00     0.047 A 
ATOM      9  C   UNL     1     155.076 151.271 178.918  1.00  0.00     0.115 A 
ATOM     10  C   UNL     1     153.411 150.682 180.581  1.00  0.00     0.012 A 
ATOM     11  C   UNL     1     154.701 150.549 180.060  1.00  0.00     0.047 A 
BRANCH   9  12
ATOM     12  O   UNL     1     156.360 151.148 178.391  1.00  0.00    -0.508 OA
ATOM     13  H   UNL     1     157.045 151.890 178.486  1.00  0.00     0.293 HD
ENDBRANCH   9  12
ENDBRANCH   5   6
ENDBRANCH   2   4
ENDBRANCH   1   2
BRANCH   1  14
ATOM     14  C   UNL     1     152.829 152.701 183.624  1.00  0.00     0.163 C 
ATOM     15  O   UNL     1     154.038 152.836 183.293  1.00  0.00    -0.294 OA
BRANCH  14  16
ATOM     16  C   UNL     1     152.377 151.501 184.356  1.00  0.00     0.048 C 
ATOM     17  C   UNL     1     151.402 151.550 185.274  1.00  0.00     0.012 C 
BRANCH  17  18
ATOM     18  C   UNL     1     150.923 150.366 186.030  1.00  0.00    -0.025 A 
ATOM     19  C   UNL     1     151.768 149.607 186.866  1.00  0.00     0.012 A 
ATOM     20  C   UNL     1     149.585 149.965 185.874  1.00  0.00     0.012 A 
ATOM     21  C   UNL     1     151.270 148.492 187.548  1.00  0.00     0.047 A 
ATOM     22  C   UNL     1     149.093 148.849 186.559  1.00  0.00     0.047 A 
ATOM     23  C   UNL     1     149.931 148.112 187.398  1.00  0.00     0.115 A 
BRANCH  23  24
ATOM     24  O   UNL     1     149.427 147.003 188.073  1.00  0.00    -0.508 OA
ATOM     25  H   UNL     1     148.431 146.864 188.194  1.00  0.00     0.293 HD
ENDBRANCH  23  24
ENDBRANCH  17  18
ENDBRANCH  14  16
ENDBRANCH   1  14
TORSDOF 8
ENDMDL
