MODEL 1
REMARK VINA RESULT:    -4.900      0.000      0.000
REMARK INTER + INTRA:          -5.490
REMARK INTER:                  -5.186
REMARK INTRA:                  -0.304
REMARK UNBOUND:                -0.304
REMARK SMILES C=C1CC[C@@]2(C(C)C)C[C@@H]12
REMARK SMILES IDX 5 1 4 2 3 3 2 4 1 5 10 6 9 7 6 8 7 9 8 10
REMARK H PARENT
REMARK Flexibility Score: inf
ROOT
ATOM      1  C   UNL     1     110.019 111.534 114.018  1.00  0.00    -0.020 C 
ATOM      2  C   UNL     1     111.390 111.044 113.522  1.00  0.00     0.012 C 
ATOM      3  C   UNL     1     111.156 110.261 112.229  1.00  0.00     0.031 C 
ATOM      4  C   UNL     1     109.692 110.366 111.971  1.00  0.00    -0.074 C 
ATOM      5  C   UNL     1     109.098 109.845 110.894  1.00  0.00     0.008 C 
ATOM      6  C   UNL     1     108.952 111.123 113.014  1.00  0.00     0.021 C 
ATOM      7  C   UNL     1     109.336 112.593 113.151  1.00  0.00     0.016 C 
ENDROOT
BRANCH   1   8
ATOM      8  C   UNL     1     109.739 111.562 115.551  1.00  0.00    -0.011 C 
ATOM      9  C   UNL     1     109.115 110.232 115.989  1.00  0.00     0.008 C 
ATOM     10  C   UNL     1     110.943 111.906 116.446  1.00  0.00     0.008 C 
ENDBRANCH   1   8
TORSDOF 1
ENDMDL
MODEL 2
REMARK VINA RESULT:    -4.885      4.144      5.903
REMARK INTER + INTRA:          -5.475
REMARK INTER:                  -5.171
REMARK INTRA:                  -0.304
REMARK UNBOUND:                -0.304
REMARK SMILES C=C1CC[C@@]2(C(C)C)C[C@@H]12
REMARK SMILES IDX 5 1 4 2 3 3 2 4 1 5 10 6 9 7 6 8 7 9 8 10
REMARK H PARENT
REMARK Flexibility Score: inf
ROOT
ATOM      1  C   UNL     1     112.257 110.731 109.160  1.00  0.00    -0.020 C 
ATOM      2  C   UNL     1     110.853 111.143 108.686  1.00  0.00     0.012 C 
ATOM      3  C   UNL     1     111.023 111.950 107.397  1.00  0.00     0.031 C 
ATOM      4  C   UNL     1     112.488 111.934 107.120  1.00  0.00    -0.074 C 
ATOM      5  C   UNL     1     113.036 112.499 106.041  1.00  0.00     0.008 C 
ATOM      6  C   UNL     1     113.285 111.213 108.146  1.00  0.00     0.021 C 
ATOM      7  C   UNL     1     112.990 109.722 108.274  1.00  0.00     0.016 C 
ENDROOT
BRANCH   1   8
ATOM      8  C   UNL     1     112.557 110.706 110.689  1.00  0.00    -0.011 C 
ATOM      9  C   UNL     1     113.100 112.070 111.134  1.00  0.00     0.008 C 
ATOM     10  C   UNL     1     111.390 110.276 111.595  1.00  0.00     0.008 C 
ENDBRANCH   1   8
TORSDOF 1
ENDMDL
MODEL 3
REMARK VINA RESULT:    -4.856      1.662      3.690
REMARK INTER + INTRA:          -5.444
REMARK INTER:                  -5.161
REMARK INTRA:                  -0.283
REMARK UNBOUND:                -0.304
REMARK SMILES C=C1CC[C@@]2(C(C)C)C[C@@H]12
REMARK SMILES IDX 5 1 4 2 3 3 2 4 1 5 10 6 9 7 6 8 7 9 8 10
REMARK H PARENT
REMARK Flexibility Score: inf
ROOT
ATOM      1  C   UNL     1     111.547 111.832 113.958  1.00  0.00    -0.020 C 
ATOM      2  C   UNL     1     110.257 112.091 113.162  1.00  0.00     0.012 C 
ATOM      3  C   UNL     1     109.117 111.379 113.894  1.00  0.00     0.031 C 
ATOM      4  C   UNL     1     109.745 110.788 115.110  1.00  0.00    -0.074 C 
ATOM      5  C   UNL     1     109.057 110.120 116.039  1.00  0.00     0.008 C 
ATOM      6  C   UNL     1     111.208 111.029 115.206  1.00  0.00     0.021 C 
ATOM      7  C   UNL     1     111.624 112.491 115.337  1.00  0.00     0.016 C 
ENDROOT
BRANCH   1   8
ATOM      8  C   UNL     1     112.881 111.621 113.181  1.00  0.00    -0.011 C 
ATOM      9  C   UNL     1     113.228 110.128 113.141  1.00  0.00     0.008 C 
ATOM     10  C   UNL     1     112.932 112.218 111.763  1.00  0.00     0.008 C 
ENDBRANCH   1   8
TORSDOF 1
ENDMDL
MODEL 4
REMARK VINA RESULT:    -4.856      3.205      4.862
REMARK INTER + INTRA:          -5.444
REMARK INTER:                  -5.140
REMARK INTRA:                  -0.303
REMARK UNBOUND:                -0.304
REMARK SMILES C=C1CC[C@@]2(C(C)C)C[C@@H]12
REMARK SMILES IDX 5 1 4 2 3 3 2 4 1 5 10 6 9 7 6 8 7 9 8 10
REMARK H PARENT
REMARK Flexibility Score: inf
ROOT
ATOM      1  C   UNL     1     110.032 111.464 109.173  1.00  0.00    -0.020 C 
ATOM      2  C   UNL     1     111.404 110.982 108.669  1.00  0.00     0.012 C 
ATOM      3  C   UNL     1     111.173 110.241 107.350  1.00  0.00     0.031 C 
ATOM      4  C   UNL     1     109.711 110.361 107.088  1.00  0.00    -0.074 C 
ATOM      5  C   UNL     1     109.121 109.877 105.992  1.00  0.00     0.008 C 
ATOM      6  C   UNL     1     108.969 111.090 108.150  1.00  0.00     0.021 C 
ATOM      7  C   UNL     1     109.360 112.553 108.335  1.00  0.00     0.016 C 
ENDROOT
BRANCH   1   8
ATOM      8  C   UNL     1     109.744 111.445 110.704  1.00  0.00    -0.011 C 
ATOM      9  C   UNL     1     109.088 110.115 111.093  1.00  0.00     0.008 C 
ATOM     10  C   UNL     1     110.951 111.731 111.617  1.00  0.00     0.008 C 
ENDBRANCH   1   8
TORSDOF 1
ENDMDL
MODEL 5
REMARK VINA RESULT:    -4.854      2.005      3.359
REMARK INTER + INTRA:          -5.442
REMARK INTER:                  -5.138
REMARK INTRA:                  -0.304
REMARK UNBOUND:                -0.304
REMARK SMILES C=C1CC[C@@]2(C(C)C)C[C@@H]12
REMARK SMILES IDX 5 1 4 2 3 3 2 4 1 5 10 6 9 7 6 8 7 9 8 10
REMARK H PARENT
REMARK Flexibility Score: inf
ROOT
ATOM      1  C   UNL     1     112.218 110.833 113.926  1.00  0.00    -0.020 C 
ATOM      2  C   UNL     1     110.846 111.316 113.426  1.00  0.00     0.012 C 
ATOM      3  C   UNL     1     111.079 112.088 112.125  1.00  0.00     0.031 C 
ATOM      4  C   UNL     1     112.544 111.983 111.869  1.00  0.00    -0.074 C 
ATOM      5  C   UNL     1     113.137 112.495 110.787  1.00  0.00     0.008 C 
ATOM      6  C   UNL     1     113.285 111.236 112.919  1.00  0.00     0.021 C 
ATOM      7  C   UNL     1     112.903 109.767 113.069  1.00  0.00     0.016 C 
ENDROOT
BRANCH   1   8
ATOM      8  C   UNL     1     112.496 110.819 115.459  1.00  0.00    -0.011 C 
ATOM      9  C   UNL     1     113.140 112.145 115.882  1.00  0.00     0.008 C 
ATOM     10  C   UNL     1     111.287 110.503 116.358  1.00  0.00     0.008 C 
ENDBRANCH   1   8
TORSDOF 1
ENDMDL
MODEL 6
REMARK VINA RESULT:    -4.829      3.469      5.785
REMARK INTER + INTRA:          -5.415
REMARK INTER:                  -5.131
REMARK INTRA:                  -0.284
REMARK UNBOUND:                -0.304
REMARK SMILES C=C1CC[C@@]2(C(C)C)C[C@@H]12
REMARK SMILES IDX 5 1 4 2 3 3 2 4 1 5 10 6 9 7 6 8 7 9 8 10
REMARK H PARENT
REMARK Flexibility Score: inf
ROOT
ATOM      1  C   UNL     1     111.554 111.774 109.089  1.00  0.00    -0.020 C 
ATOM      2  C   UNL     1     110.246 112.003 108.313  1.00  0.00     0.012 C 
ATOM      3  C   UNL     1     109.134 111.266 109.062  1.00  0.00     0.031 C 
ATOM      4  C   UNL     1     109.794 110.689 110.268  1.00  0.00    -0.074 C 
ATOM      5  C   UNL     1     109.136 110.004 111.207  1.00  0.00     0.008 C 
ATOM      6  C   UNL     1     111.253 110.962 110.341  1.00  0.00     0.021 C 
ATOM      7  C   UNL     1     111.637 112.433 110.466  1.00  0.00     0.016 C 
ENDROOT
BRANCH   1   8
ATOM      8  C   UNL     1     112.880 111.593 108.291  1.00  0.00    -0.011 C 
ATOM      9  C   UNL     1     113.252 110.107 108.230  1.00  0.00     0.008 C 
ATOM     10  C   UNL     1     112.901 112.205 106.878  1.00  0.00     0.008 C 
ENDBRANCH   1   8
TORSDOF 1
ENDMDL
MODEL 7
REMARK VINA RESULT:    -4.818      1.406      3.834
REMARK INTER + INTRA:          -5.404
REMARK INTER:                  -5.110
REMARK INTRA:                  -0.294
REMARK UNBOUND:                -0.304
REMARK SMILES C=C1CC[C@@]2(C(C)C)C[C@@H]12
REMARK SMILES IDX 5 1 4 2 3 3 2 4 1 5 10 6 9 7 6 8 7 9 8 10
REMARK H PARENT
REMARK Flexibility Score: inf
ROOT
ATOM      1  C   UNL     1     110.680 110.590 113.847  1.00  0.00    -0.020 C 
ATOM      2  C   UNL     1     111.962 110.299 113.048  1.00  0.00     0.012 C 
ATOM      3  C   UNL     1     113.127 110.947 113.800  1.00  0.00     0.031 C 
ATOM      4  C   UNL     1     112.519 111.533 115.028  1.00  0.00    -0.074 C 
ATOM      5  C   UNL     1     113.230 112.151 115.975  1.00  0.00     0.008 C 
ATOM      6  C   UNL     1     111.047 111.349 115.115  1.00  0.00     0.021 C 
ATOM      7  C   UNL     1     110.573 109.902 115.209  1.00  0.00     0.016 C 
ENDROOT
BRANCH   1   8
ATOM      8  C   UNL     1     109.359 110.873 113.072  1.00  0.00    -0.011 C 
ATOM      9  C   UNL     1     109.125 112.385 112.978  1.00  0.00     0.008 C 
ATOM     10  C   UNL     1     109.248 110.229 111.678  1.00  0.00     0.008 C 
ENDBRANCH   1   8
TORSDOF 1
ENDMDL
MODEL 8
REMARK VINA RESULT:    -4.807      2.420      4.217
REMARK INTER + INTRA:          -5.392
REMARK INTER:                  -5.119
REMARK INTRA:                  -0.273
REMARK UNBOUND:                -0.304
REMARK SMILES C=C1CC[C@@]2(C(C)C)C[C@@H]12
REMARK SMILES IDX 5 1 4 2 3 3 2 4 1 5 10 6 9 7 6 8 7 9 8 10
REMARK H PARENT
REMARK Flexibility Score: inf
ROOT
ATOM      1  C   UNL     1     110.840 111.464 115.270  1.00  0.00    -0.020 C 
ATOM      2  C   UNL     1     110.330 110.041 115.555  1.00  0.00     0.012 C 
ATOM      3  C   UNL     1     109.488 110.104 116.832  1.00  0.00     0.031 C 
ATOM      4  C   UNL     1     109.474 111.544 117.216  1.00  0.00    -0.074 C 
ATOM      5  C   UNL     1     108.794 112.016 118.265  1.00  0.00     0.008 C 
ATOM      6  C   UNL     1     110.270 112.415 116.312  1.00  0.00     0.021 C 
ATOM      7  C   UNL     1     109.775 112.487 114.871  1.00  0.00     0.016 C 
ENDROOT
BRANCH   1   8
ATOM      8  C   UNL     1     112.274 111.646 114.687  1.00  0.00    -0.011 C 
ATOM      9  C   UNL     1     113.218 112.161 115.781  1.00  0.00     0.008 C 
ATOM     10  C   UNL     1     112.880 110.409 113.999  1.00  0.00     0.008 C 
ENDBRANCH   1   8
TORSDOF 1
ENDMDL
MODEL 9
REMARK VINA RESULT:    -4.793      4.130      6.097
REMARK INTER + INTRA:          -5.377
REMARK INTER:                  -5.081
REMARK INTRA:                  -0.296
REMARK UNBOUND:                -0.304
REMARK SMILES C=C1CC[C@@]2(C(C)C)C[C@@H]12
REMARK SMILES IDX 5 1 4 2 3 3 2 4 1 5 10 6 9 7 6 8 7 9 8 10
REMARK H PARENT
REMARK Flexibility Score: inf
ROOT
ATOM      1  C   UNL     1     110.687 110.656 108.817  1.00  0.00    -0.020 C 
ATOM      2  C   UNL     1     111.955 110.342 108.007  1.00  0.00     0.012 C 
ATOM      3  C   UNL     1     113.131 111.017 108.716  1.00  0.00     0.031 C 
ATOM      4  C   UNL     1     112.542 111.643 109.934  1.00  0.00    -0.074 C 
ATOM      5  C   UNL     1     113.268 112.294 110.847  1.00  0.00     0.008 C 
ATOM      6  C   UNL     1     111.072 111.458 110.052  1.00  0.00     0.021 C 
ATOM      7  C   UNL     1     110.604 110.014 110.203  1.00  0.00     0.016 C 
ENDROOT
BRANCH   1   8
ATOM      8  C   UNL     1     109.351 110.910 108.056  1.00  0.00    -0.011 C 
ATOM      9  C   UNL     1     109.115 112.418 107.909  1.00  0.00     0.008 C 
ATOM     10  C   UNL     1     109.216 110.214 106.689  1.00  0.00     0.008 C 
ENDBRANCH   1   8
TORSDOF 1
ENDMDL
