MODEL 1
REMARK VINA RESULT:    -1.462      0.000      0.000
REMARK INTER + INTRA:          -2.980
REMARK INTER:                  -2.275
REMARK INTRA:                  -0.705
REMARK UNBOUND:                -0.705
REMARK SMILES COc1cc(CNC(=O)CCCCC=CC(C)C)ccc1O
REMARK SMILES IDX 11 1 12 2 13 3 14 4 15 5 16 6 17 7 18 8 10 9 8 10 9 11 7 12
REMARK SMILES IDX 6 14 5 15 4 16 19 17 3 18 20 19 21 20 2 21 1 22 22 23
REMARK H PARENT 7 13 22 24
REMARK Flexibility Score: inf
ROOT
ATOM      1  C   UNL     1     167.480 163.981 152.872  1.00  0.00     0.010 C 
ENDROOT
BRANCH   1   2
ATOM      2  C   UNL     1     166.764 162.966 153.776  1.00  0.00     0.005 C 
BRANCH   2   3
ATOM      3  C   UNL     1     167.145 163.123 155.256  1.00  0.00     0.027 C 
BRANCH   3   4
ATOM      4  C   UNL     1     166.996 161.823 155.996  1.00  0.00    -0.031 C 
ATOM      5  C   UNL     1     167.329 161.710 157.292  1.00  0.00    -0.028 C 
BRANCH   5   6
ATOM      6  C   UNL     1     167.189 160.417 158.065  1.00  0.00     0.005 C 
ATOM      7  C   UNL     1     166.011 160.478 159.046  1.00  0.00     0.012 C 
ATOM      8  C   UNL     1     167.068 159.214 157.123  1.00  0.00     0.012 C 
ENDBRANCH   5   6
ENDBRANCH   3   4
ENDBRANCH   2   3
ENDBRANCH   1   2
BRANCH   1   9
ATOM      9  C   UNL     1     168.652 163.357 152.100  1.00  0.00     0.100 C 
BRANCH   9  10
ATOM     10  C   UNL     1     168.314 163.251 150.643  1.00  0.00     0.220 C 
ATOM     11  O   UNL     1     169.170 163.594 149.782  1.00  0.00    -0.275 OA
ATOM     12  N   UNL     1     167.009 162.815 150.237  1.00  0.00    -0.352 N 
ATOM     13  H   UNL     1     166.306 162.571 150.970  1.00  0.00     0.163 HD
BRANCH  12  14
ATOM     14  C   UNL     1     166.607 162.744 148.835  1.00  0.00     0.151 C 
BRANCH  14  15
ATOM     15  C   UNL     1     166.132 164.090 148.357  1.00  0.00    -0.025 A 
ATOM     16  C   UNL     1     165.125 164.780 149.052  1.00  0.00     0.056 A 
ATOM     17  C   UNL     1     166.718 164.678 147.227  1.00  0.00     0.009 A 
ATOM     18  C   UNL     1     164.699 166.051 148.617  1.00  0.00     0.160 A 
ATOM     19  C   UNL     1     166.299 165.937 146.792  1.00  0.00     0.050 A 
ATOM     20  C   UNL     1     165.292 166.624 147.483  1.00  0.00     0.157 A 
BRANCH  18  21
ATOM     21  O   UNL     1     163.697 166.773 149.285  1.00  0.00    -0.493 OA
ATOM     22  C   UNL     1     162.445 166.229 149.688  1.00  0.00     0.278 C 
ENDBRANCH  18  21
BRANCH  20  23
ATOM     23  O   UNL     1     164.875 167.882 147.049  1.00  0.00    -0.504 OA
ATOM     24  H   UNL     1     164.314 168.488 147.638  1.00  0.00     0.293 HD
ENDBRANCH  20  23
ENDBRANCH  14  15
ENDBRANCH  12  14
ENDBRANCH   9  10
ENDBRANCH   1   9
TORSDOF 10
ENDMDL
MODEL 2
REMARK VINA RESULT:    -1.266      3.100      8.853
REMARK INTER + INTRA:          -2.674
REMARK INTER:                  -2.193
REMARK INTRA:                  -0.480
REMARK UNBOUND:                -0.705
REMARK SMILES COc1cc(CNC(=O)CCCCC=CC(C)C)ccc1O
REMARK SMILES IDX 11 1 12 2 13 3 14 4 15 5 16 6 17 7 18 8 10 9 8 10 9 11 7 12
REMARK SMILES IDX 6 14 5 15 4 16 19 17 3 18 20 19 21 20 2 21 1 22 22 23
REMARK H PARENT 7 13 22 24
REMARK Flexibility Score: inf
ROOT
ATOM      1  C   UNL     1     168.530 162.693 149.404  1.00  0.00     0.010 C 
ENDROOT
BRANCH   1   2
ATOM      2  C   UNL     1     168.230 163.627 148.221  1.00  0.00     0.005 C 
BRANCH   2   3
ATOM      3  C   UNL     1     166.742 163.632 147.838  1.00  0.00     0.027 C 
BRANCH   3   4
ATOM      4  C   UNL     1     166.020 164.783 148.481  1.00  0.00    -0.031 C 
ATOM      5  C   UNL     1     165.716 165.896 147.792  1.00  0.00    -0.028 C 
BRANCH   5   6
ATOM      6  C   UNL     1     164.988 167.069 148.409  1.00  0.00     0.005 C 
ATOM      7  C   UNL     1     165.027 168.296 147.489  1.00  0.00     0.012 C 
ATOM      8  C   UNL     1     163.548 166.699 148.783  1.00  0.00     0.012 C 
ENDBRANCH   5   6
ENDBRANCH   3   4
ENDBRANCH   2   3
ENDBRANCH   1   2
BRANCH   1   9
ATOM      9  C   UNL     1     169.141 163.436 150.601  1.00  0.00     0.100 C 
BRANCH   9  10
ATOM     10  C   UNL     1     168.058 163.919 151.518  1.00  0.00     0.220 C 
ATOM     11  O   UNL     1     167.438 164.982 151.241  1.00  0.00    -0.275 OA
ATOM     12  N   UNL     1     167.769 163.204 152.728  1.00  0.00    -0.352 N 
ATOM     13  H   UNL     1     168.321 162.346 152.954  1.00  0.00     0.163 HD
BRANCH  12  14
ATOM     14  C   UNL     1     166.764 163.658 153.686  1.00  0.00     0.151 C 
BRANCH  14  15
ATOM     15  C   UNL     1     166.642 162.678 154.822  1.00  0.00    -0.025 A 
ATOM     16  C   UNL     1     167.343 162.886 156.022  1.00  0.00     0.056 A 
ATOM     17  C   UNL     1     165.801 161.563 154.699  1.00  0.00     0.009 A 
ATOM     18  C   UNL     1     167.208 161.981 157.094  1.00  0.00     0.160 A 
ATOM     19  C   UNL     1     165.665 160.662 155.757  1.00  0.00     0.050 A 
ATOM     20  C   UNL     1     166.367 160.868 156.953  1.00  0.00     0.157 A 
BRANCH  18  21
ATOM     21  O   UNL     1     167.889 162.154 158.310  1.00  0.00    -0.493 OA
ATOM     22  C   UNL     1     167.799 163.317 159.125  1.00  0.00     0.278 C 
ENDBRANCH  18  21
BRANCH  20  23
ATOM     23  O   UNL     1     166.229 159.970 158.011  1.00  0.00    -0.504 OA
ATOM     24  H   UNL     1     165.699 160.207 158.842  1.00  0.00     0.293 HD
ENDBRANCH  20  23
ENDBRANCH  14  15
ENDBRANCH  12  14
ENDBRANCH   9  10
ENDBRANCH   1   9
TORSDOF 10
ENDMDL
MODEL 3
REMARK VINA RESULT:    -1.248      2.918      3.929
REMARK INTER + INTRA:          -2.646
REMARK INTER:                  -2.344
REMARK INTRA:                  -0.302
REMARK UNBOUND:                -0.705
REMARK SMILES COc1cc(CNC(=O)CCCCC=CC(C)C)ccc1O
REMARK SMILES IDX 11 1 12 2 13 3 14 4 15 5 16 6 17 7 18 8 10 9 8 10 9 11 7 12
REMARK SMILES IDX 6 14 5 15 4 16 19 17 3 18 20 19 21 20 2 21 1 22 22 23
REMARK H PARENT 7 13 22 24
REMARK Flexibility Score: inf
ROOT
ATOM      1  C   UNL     1     169.231 163.267 151.848  1.00  0.00     0.010 C 
ENDROOT
BRANCH   1   2
ATOM      2  C   UNL     1     167.829 163.890 151.757  1.00  0.00     0.005 C 
BRANCH   2   3
ATOM      3  C   UNL     1     167.135 163.981 153.124  1.00  0.00     0.027 C 
BRANCH   3   4
ATOM      4  C   UNL     1     167.482 165.265 153.825  1.00  0.00    -0.031 C 
ATOM      5  C   UNL     1     166.785 165.697 154.889  1.00  0.00    -0.028 C 
BRANCH   5   6
ATOM      6  C   UNL     1     167.110 166.982 155.616  1.00  0.00     0.005 C 
ATOM      7  C   UNL     1     167.440 168.112 154.633  1.00  0.00     0.012 C 
ATOM      8  C   UNL     1     165.979 167.386 156.570  1.00  0.00     0.012 C 
ENDBRANCH   5   6
ENDBRANCH   3   4
ENDBRANCH   2   3
ENDBRANCH   1   2
BRANCH   1   9
ATOM      9  C   UNL     1     169.607 162.478 150.586  1.00  0.00     0.100 C 
BRANCH   9  10
ATOM     10  C   UNL     1     168.543 162.631 149.542  1.00  0.00     0.220 C 
ATOM     11  O   UNL     1     167.671 161.729 149.408  1.00  0.00    -0.275 OA
ATOM     12  N   UNL     1     168.552 163.768 148.667  1.00  0.00    -0.352 N 
ATOM     13  H   UNL     1     169.306 164.483 148.775  1.00  0.00     0.163 HD
BRANCH  12  14
ATOM     14  C   UNL     1     167.573 163.942 147.598  1.00  0.00     0.151 C 
BRANCH  14  15
ATOM     15  C   UNL     1     166.373 164.697 148.103  1.00  0.00    -0.025 A 
ATOM     16  C   UNL     1     165.977 165.900 147.494  1.00  0.00     0.056 A 
ATOM     17  C   UNL     1     165.622 164.185 149.170  1.00  0.00     0.009 A 
ATOM     18  C   UNL     1     164.838 166.592 147.952  1.00  0.00     0.160 A 
ATOM     19  C   UNL     1     164.494 164.867 149.629  1.00  0.00     0.050 A 
ATOM     20  C   UNL     1     164.100 166.068 149.023  1.00  0.00     0.157 A 
BRANCH  18  21
ATOM     21  O   UNL     1     164.408 167.794 147.369  1.00  0.00    -0.493 OA
ATOM     22  C   UNL     1     165.261 168.710 146.691  1.00  0.00     0.278 C 
ENDBRANCH  18  21
BRANCH  20  23
ATOM     23  O   UNL     1     162.972 166.748 149.480  1.00  0.00    -0.504 OA
ATOM     24  H   UNL     1     162.299 167.152 148.838  1.00  0.00     0.293 HD
ENDBRANCH  20  23
ENDBRANCH  14  15
ENDBRANCH  12  14
ENDBRANCH   9  10
ENDBRANCH   1   9
TORSDOF 10
ENDMDL
MODEL 4
REMARK VINA RESULT:    -1.052      2.486      3.771
REMARK INTER + INTRA:          -2.341
REMARK INTER:                  -1.483
REMARK INTRA:                  -0.858
REMARK UNBOUND:                -0.705
REMARK SMILES COc1cc(CNC(=O)CCCCC=CC(C)C)ccc1O
REMARK SMILES IDX 11 1 12 2 13 3 14 4 15 5 16 6 17 7 18 8 10 9 8 10 9 11 7 12
REMARK SMILES IDX 6 14 5 15 4 16 19 17 3 18 20 19 21 20 2 21 1 22 22 23
REMARK H PARENT 7 13 22 24
REMARK Flexibility Score: inf
ROOT
ATOM      1  C   UNL     1     167.527 163.179 152.893  1.00  0.00     0.010 C 
ENDROOT
BRANCH   1   2
ATOM      2  C   UNL     1     166.870 164.515 153.275  1.00  0.00     0.005 C 
BRANCH   2   3
ATOM      3  C   UNL     1     167.065 164.865 154.758  1.00  0.00     0.027 C 
BRANCH   3   4
ATOM      4  C   UNL     1     167.212 166.349 154.950  1.00  0.00    -0.031 C 
ATOM      5  C   UNL     1     166.302 167.063 155.633  1.00  0.00    -0.028 C 
BRANCH   5   6
ATOM      6  C   UNL     1     166.422 168.556 155.846  1.00  0.00     0.005 C 
ATOM      7  C   UNL     1     166.969 168.878 157.242  1.00  0.00     0.012 C 
ATOM      8  C   UNL     1     167.272 169.209 154.749  1.00  0.00     0.012 C 
ENDBRANCH   5   6
ENDBRANCH   3   4
ENDBRANCH   2   3
ENDBRANCH   1   2
BRANCH   1   9
ATOM      9  C   UNL     1     168.769 163.365 152.010  1.00  0.00     0.100 C 
BRANCH   9  10
ATOM     10  C   UNL     1     168.396 163.254 150.562  1.00  0.00     0.220 C 
ATOM     11  O   UNL     1     169.238 163.574 149.679  1.00  0.00    -0.275 OA
ATOM     12  N   UNL     1     167.074 162.840 150.190  1.00  0.00    -0.352 N 
ATOM     13  H   UNL     1     166.383 162.615 150.941  1.00  0.00     0.163 HD
BRANCH  12  14
ATOM     14  C   UNL     1     166.639 162.766 148.797  1.00  0.00     0.151 C 
BRANCH  14  15
ATOM     15  C   UNL     1     166.145 164.110 148.331  1.00  0.00    -0.025 A 
ATOM     16  C   UNL     1     165.142 164.789 149.043  1.00  0.00     0.056 A 
ATOM     17  C   UNL     1     166.708 164.706 147.194  1.00  0.00     0.009 A 
ATOM     18  C   UNL     1     164.699 166.058 148.619  1.00  0.00     0.160 A 
ATOM     19  C   UNL     1     166.272 165.962 146.768  1.00  0.00     0.050 A 
ATOM     20  C   UNL     1     165.269 166.639 147.478  1.00  0.00     0.157 A 
BRANCH  18  21
ATOM     21  O   UNL     1     163.702 166.769 149.304  1.00  0.00    -0.493 OA
ATOM     22  C   UNL     1     162.413 166.251 149.616  1.00  0.00     0.278 C 
ENDBRANCH  18  21
BRANCH  20  23
ATOM     23  O   UNL     1     164.835 167.894 147.054  1.00  0.00    -0.504 OA
ATOM     24  H   UNL     1     165.173 168.746 147.487  1.00  0.00     0.293 HD
ENDBRANCH  20  23
ENDBRANCH  14  15
ENDBRANCH  12  14
ENDBRANCH   9  10
ENDBRANCH   1   9
TORSDOF 10
ENDMDL
MODEL 5
REMARK VINA RESULT:    -0.303     10.548     14.437
REMARK INTER + INTRA:          -1.177
REMARK INTER:                  -0.425
REMARK INTRA:                  -0.752
REMARK UNBOUND:                -0.705
REMARK SMILES COc1cc(CNC(=O)CCCCC=CC(C)C)ccc1O
REMARK SMILES IDX 11 1 12 2 13 3 14 4 15 5 16 6 17 7 18 8 10 9 8 10 9 11 7 12
REMARK SMILES IDX 6 14 5 15 4 16 19 17 3 18 20 19 21 20 2 21 1 22 22 23
REMARK H PARENT 7 13 22 24
REMARK Flexibility Score: inf
ROOT
ATOM      1  C   UNL     1     156.023 167.427 154.684  1.00  0.00     0.010 C 
ENDROOT
BRANCH   1   2
ATOM      2  C   UNL     1     155.549 168.638 153.866  1.00  0.00     0.005 C 
BRANCH   2   3
ATOM      3  C   UNL     1     154.587 168.245 152.735  1.00  0.00     0.027 C 
BRANCH   3   4
ATOM      4  C   UNL     1     155.056 168.783 151.411  1.00  0.00    -0.031 C 
ATOM      5  C   UNL     1     156.315 169.217 151.236  1.00  0.00    -0.028 C 
BRANCH   5   6
ATOM      6  C   UNL     1     156.819 169.761 149.918  1.00  0.00     0.005 C 
ATOM      7  C   UNL     1     155.886 170.848 149.370  1.00  0.00     0.012 C 
ATOM      8  C   UNL     1     158.260 170.272 150.038  1.00  0.00     0.012 C 
ENDBRANCH   5   6
ENDBRANCH   3   4
ENDBRANCH   2   3
ENDBRANCH   1   2
BRANCH   1   9
ATOM      9  C   UNL     1     155.526 166.094 154.106  1.00  0.00     0.100 C 
BRANCH   9  10
ATOM     10  C   UNL     1     156.267 164.950 154.728  1.00  0.00     0.220 C 
ATOM     11  O   UNL     1     157.192 164.385 154.083  1.00  0.00    -0.275 OA
ATOM     12  N   UNL     1     155.889 164.468 156.026  1.00  0.00    -0.352 N 
ATOM     13  H   UNL     1     155.096 164.930 156.526  1.00  0.00     0.163 HD
BRANCH  12  14
ATOM     14  C   UNL     1     156.539 163.324 156.658  1.00  0.00     0.151 C 
BRANCH  14  15
ATOM     15  C   UNL     1     155.557 162.197 156.840  1.00  0.00    -0.025 A 
ATOM     16  C   UNL     1     154.891 161.645 155.733  1.00  0.00     0.056 A 
ATOM     17  C   UNL     1     155.325 161.670 158.117  1.00  0.00     0.009 A 
ATOM     18  C   UNL     1     153.991 160.574 155.901  1.00  0.00     0.160 A 
ATOM     19  C   UNL     1     154.433 160.610 158.291  1.00  0.00     0.050 A 
ATOM     20  C   UNL     1     153.766 160.061 157.186  1.00  0.00     0.157 A 
BRANCH  18  21
ATOM     21  O   UNL     1     153.307 159.994 154.821  1.00  0.00    -0.493 OA
ATOM     22  C   UNL     1     153.775 159.997 153.477  1.00  0.00     0.278 C 
ENDBRANCH  18  21
BRANCH  20  23
ATOM     23  O   UNL     1     152.877 159.001 157.359  1.00  0.00    -0.504 OA
ATOM     24  H   UNL     1     151.924 159.152 157.671  1.00  0.00     0.293 HD
ENDBRANCH  20  23
ENDBRANCH  14  15
ENDBRANCH  12  14
ENDBRANCH   9  10
ENDBRANCH   1   9
TORSDOF 10
ENDMDL
MODEL 6
REMARK VINA RESULT:    -0.241      2.829      5.385
REMARK INTER + INTRA:          -1.080
REMARK INTER:                  -0.214
REMARK INTRA:                  -0.866
REMARK UNBOUND:                -0.705
REMARK SMILES COc1cc(CNC(=O)CCCCC=CC(C)C)ccc1O
REMARK SMILES IDX 11 1 12 2 13 3 14 4 15 5 16 6 17 7 18 8 10 9 8 10 9 11 7 12
REMARK SMILES IDX 6 14 5 15 4 16 19 17 3 18 20 19 21 20 2 21 1 22 22 23
REMARK H PARENT 7 13 22 24
REMARK Flexibility Score: inf
ROOT
ATOM      1  C   UNL     1     166.892 161.695 157.813  1.00  0.00     0.010 C 
ENDROOT
BRANCH   1   2
ATOM      2  C   UNL     1     167.760 162.714 158.569  1.00  0.00     0.005 C 
BRANCH   2   3
ATOM      3  C   UNL     1     167.103 164.100 158.653  1.00  0.00     0.027 C 
BRANCH   3   4
ATOM      4  C   UNL     1     167.670 165.033 157.620  1.00  0.00    -0.031 C 
ATOM      5  C   UNL     1     166.989 166.110 157.196  1.00  0.00    -0.028 C 
BRANCH   5   6
ATOM      6  C   UNL     1     167.532 167.069 156.160  1.00  0.00     0.005 C 
ATOM      7  C   UNL     1     167.166 166.623 154.739  1.00  0.00     0.012 C 
ATOM      8  C   UNL     1     167.067 168.505 156.430  1.00  0.00     0.012 C 
ENDBRANCH   5   6
ENDBRANCH   3   4
ENDBRANCH   2   3
ENDBRANCH   1   2
BRANCH   1   9
ATOM      9  C   UNL     1     167.469 161.337 156.436  1.00  0.00     0.100 C 
BRANCH   9  10
ATOM     10  C   UNL     1     166.628 161.938 155.350  1.00  0.00     0.220 C 
ATOM     11  O   UNL     1     165.514 161.418 155.068  1.00  0.00    -0.275 OA
ATOM     12  N   UNL     1     167.114 163.062 154.604  1.00  0.00    -0.352 N 
ATOM     13  H   UNL     1     168.056 163.453 154.832  1.00  0.00     0.163 HD
BRANCH  12  14
ATOM     14  C   UNL     1     166.363 163.655 153.500  1.00  0.00     0.151 C 
BRANCH  14  15
ATOM     15  C   UNL     1     167.150 163.560 152.220  1.00  0.00    -0.025 A 
ATOM     16  C   UNL     1     166.506 163.674 150.976  1.00  0.00     0.056 A 
ATOM     17  C   UNL     1     168.540 163.386 152.264  1.00  0.00     0.009 A 
ATOM     18  C   UNL     1     167.248 163.611 149.779  1.00  0.00     0.160 A 
ATOM     19  C   UNL     1     169.280 163.320 151.081  1.00  0.00     0.050 A 
ATOM     20  C   UNL     1     168.637 163.432 149.840  1.00  0.00     0.157 A 
BRANCH  18  21
ATOM     21  O   UNL     1     166.643 163.723 148.518  1.00  0.00    -0.493 OA
ATOM     22  C   UNL     1     166.004 164.898 148.032  1.00  0.00     0.278 C 
ENDBRANCH  18  21
BRANCH  20  23
ATOM     23  O   UNL     1     169.376 163.369 148.659  1.00  0.00    -0.504 OA
ATOM     24  H   UNL     1     169.331 164.107 147.965  1.00  0.00     0.293 HD
ENDBRANCH  20  23
ENDBRANCH  14  15
ENDBRANCH  12  14
ENDBRANCH   9  10
ENDBRANCH   1   9
TORSDOF 10
ENDMDL
MODEL 7
REMARK VINA RESULT:     0.020      2.065      3.258
REMARK INTER + INTRA:          -0.674
REMARK INTER:                  -0.420
REMARK INTRA:                  -0.254
REMARK UNBOUND:                -0.705
REMARK SMILES COc1cc(CNC(=O)CCCCC=CC(C)C)ccc1O
REMARK SMILES IDX 11 1 12 2 13 3 14 4 15 5 16 6 17 7 18 8 10 9 8 10 9 11 7 12
REMARK SMILES IDX 6 14 5 15 4 16 19 17 3 18 20 19 21 20 2 21 1 22 22 23
REMARK H PARENT 7 13 22 24
REMARK Flexibility Score: inf
ROOT
ATOM      1  C   UNL     1     166.811 161.870 155.461  1.00  0.00     0.010 C 
ENDROOT
BRANCH   1   2
ATOM      2  C   UNL     1     166.384 160.423 155.755  1.00  0.00     0.005 C 
BRANCH   2   3
ATOM      3  C   UNL     1     166.397 160.098 157.256  1.00  0.00     0.027 C 
BRANCH   3   4
ATOM      4  C   UNL     1     166.431 161.353 158.083  1.00  0.00    -0.031 C 
ATOM      5  C   UNL     1     167.576 162.021 158.300  1.00  0.00    -0.028 C 
BRANCH   5   6
ATOM      6  C   UNL     1     167.642 163.287 159.125  1.00  0.00     0.005 C 
ATOM      7  C   UNL     1     168.996 163.990 158.961  1.00  0.00     0.012 C 
ATOM      8  C   UNL     1     166.480 164.231 158.793  1.00  0.00     0.012 C 
ENDBRANCH   5   6
ENDBRANCH   3   4
ENDBRANCH   2   3
ENDBRANCH   1   2
BRANCH   1   9
ATOM      9  C   UNL     1     165.993 162.506 154.328  1.00  0.00     0.100 C 
BRANCH   9  10
ATOM     10  C   UNL     1     166.847 163.455 153.542  1.00  0.00     0.220 C 
ATOM     11  O   UNL     1     166.898 164.669 153.881  1.00  0.00    -0.275 OA
ATOM     12  N   UNL     1     167.555 162.994 152.383  1.00  0.00    -0.352 N 
ATOM     13  H   UNL     1     167.468 161.991 152.101  1.00  0.00     0.163 HD
BRANCH  12  14
ATOM     14  C   UNL     1     168.358 163.884 151.548  1.00  0.00     0.151 C 
BRANCH  14  15
ATOM     15  C   UNL     1     167.779 163.966 150.161  1.00  0.00    -0.025 A 
ATOM     16  C   UNL     1     166.687 164.808 149.892  1.00  0.00     0.056 A 
ATOM     17  C   UNL     1     168.349 163.221 149.120  1.00  0.00     0.009 A 
ATOM     18  C   UNL     1     166.163 164.903 148.587  1.00  0.00     0.160 A 
ATOM     19  C   UNL     1     167.833 163.310 147.825  1.00  0.00     0.050 A 
ATOM     20  C   UNL     1     166.741 164.148 147.557  1.00  0.00     0.157 A 
BRANCH  18  21
ATOM     21  O   UNL     1     165.075 165.734 148.276  1.00  0.00    -0.493 OA
ATOM     22  C   UNL     1     165.126 167.156 148.259  1.00  0.00     0.278 C 
ENDBRANCH  18  21
BRANCH  20  23
ATOM     23  O   UNL     1     166.227 164.238 146.264  1.00  0.00    -0.504 OA
ATOM     24  H   UNL     1     165.348 164.707 146.074  1.00  0.00     0.293 HD
ENDBRANCH  20  23
ENDBRANCH  14  15
ENDBRANCH  12  14
ENDBRANCH   9  10
ENDBRANCH   1   9
TORSDOF 10
ENDMDL
MODEL 8
REMARK VINA RESULT:     0.131     11.027     14.710
REMARK INTER + INTRA:          -0.501
REMARK INTER:                  -0.059
REMARK INTRA:                  -0.442
REMARK UNBOUND:                -0.705
REMARK SMILES COc1cc(CNC(=O)CCCCC=CC(C)C)ccc1O
REMARK SMILES IDX 11 1 12 2 13 3 14 4 15 5 16 6 17 7 18 8 10 9 8 10 9 11 7 12
REMARK SMILES IDX 6 14 5 15 4 16 19 17 3 18 20 19 21 20 2 21 1 22 22 23
REMARK H PARENT 7 13 22 24
REMARK Flexibility Score: inf
ROOT
ATOM      1  C   UNL     1     155.494 165.517 154.888  1.00  0.00     0.010 C 
ENDROOT
BRANCH   1   2
ATOM      2  C   UNL     1     156.139 166.831 154.420  1.00  0.00     0.005 C 
BRANCH   2   3
ATOM      3  C   UNL     1     155.159 167.727 153.647  1.00  0.00     0.027 C 
BRANCH   3   4
ATOM      4  C   UNL     1     155.888 168.793 152.879  1.00  0.00    -0.031 C 
ATOM      5  C   UNL     1     155.830 168.858 151.538  1.00  0.00    -0.028 C 
BRANCH   5   6
ATOM      6  C   UNL     1     156.550 169.919 150.737  1.00  0.00     0.005 C 
ATOM      7  C   UNL     1     157.848 169.374 150.128  1.00  0.00     0.012 C 
ATOM      8  C   UNL     1     155.638 170.520 149.659  1.00  0.00     0.012 C 
ENDBRANCH   5   6
ENDBRANCH   3   4
ENDBRANCH   2   3
ENDBRANCH   1   2
BRANCH   1   9
ATOM      9  C   UNL     1     156.533 164.460 155.287  1.00  0.00     0.100 C 
BRANCH   9  10
ATOM     10  C   UNL     1     155.972 163.552 156.339  1.00  0.00     0.220 C 
ATOM     11  O   UNL     1     156.755 162.850 157.036  1.00  0.00    -0.275 OA
ATOM     12  N   UNL     1     154.551 163.444 156.512  1.00  0.00    -0.352 N 
ATOM     13  H   UNL     1     153.922 164.009 155.898  1.00  0.00     0.163 HD
BRANCH  12  14
ATOM     14  C   UNL     1     153.946 162.536 157.482  1.00  0.00     0.151 C 
BRANCH  14  15
ATOM     15  C   UNL     1     153.678 161.196 156.851  1.00  0.00    -0.025 A 
ATOM     16  C   UNL     1     154.026 160.956 155.511  1.00  0.00     0.056 A 
ATOM     17  C   UNL     1     153.105 160.167 157.610  1.00  0.00     0.009 A 
ATOM     18  C   UNL     1     153.798 159.693 154.929  1.00  0.00     0.160 A 
ATOM     19  C   UNL     1     152.875 158.914 157.038  1.00  0.00     0.050 A 
ATOM     20  C   UNL     1     153.219 158.675 155.700  1.00  0.00     0.157 A 
BRANCH  18  21
ATOM     21  O   UNL     1     154.132 159.413 153.595  1.00  0.00    -0.493 OA
ATOM     22  C   UNL     1     153.720 160.195 152.479  1.00  0.00     0.278 C 
ENDBRANCH  18  21
BRANCH  20  23
ATOM     23  O   UNL     1     152.992 157.423 155.130  1.00  0.00    -0.504 OA
ATOM     24  H   UNL     1     153.708 156.946 154.594  1.00  0.00     0.293 HD
ENDBRANCH  20  23
ENDBRANCH  14  15
ENDBRANCH  12  14
ENDBRANCH   9  10
ENDBRANCH   1   9
TORSDOF 10
ENDMDL
