MODEL 1
REMARK VINA RESULT:    16.238      0.000      0.000
REMARK INTER + INTRA:          19.949
REMARK INTER:                  19.560
REMARK INTRA:                   0.389
REMARK UNBOUND:                 0.389
REMARK SMILES O=c1c(O)c(-c2ccc(O)cc2O)oc2cc(O)cc(O)c12
REMARK SMILES IDX 5 1 3 2 2 3 1 4 22 5 20 6 19 7 17 8 16 9 15 10 14 11 6 12
REMARK SMILES IDX 8 13 7 14 9 15 11 16 12 17 10 18 13 20 4 22 21 24 18 26
REMARK H PARENT 10 19 13 21 4 23 21 25 18 27
REMARK Flexibility Score: inf
ROOT
ATOM      1  C   UNL     1      13.584   7.486 128.492  1.00  0.00     0.184 A 
ATOM      2  C   UNL     1      13.160   6.499 129.394  1.00  0.00     0.208 A 
ATOM      3  C   UNL     1      13.600   6.560 130.726  1.00  0.00     0.238 A 
ATOM      4  O   UNL     1      13.174   5.703 131.544  1.00  0.00    -0.285 OA
ATOM      5  C   UNL     1      14.470   7.601 131.133  1.00  0.00     0.111 A 
ATOM      6  C   UNL     1      15.010   7.739 132.447  1.00  0.00     0.134 A 
ATOM      7  C   UNL     1      15.757   8.879 132.770  1.00  0.00     0.093 A 
ATOM      8  C   UNL     1      16.037   9.853 131.808  1.00  0.00     0.123 A 
ATOM      9  C   UNL     1      15.564   9.699 130.508  1.00  0.00     0.094 A 
ATOM     10  C   UNL     1      14.787   8.590 130.164  1.00  0.00     0.146 A 
ATOM     11  O   UNL     1      14.347   8.487 128.915  1.00  0.00    -0.451 OA
ENDROOT
BRANCH   1  12
ATOM     12  C   UNL     1      13.173   7.470 127.073  1.00  0.00     0.063 A 
ATOM     13  C   UNL     1      12.296   6.225 125.177  1.00  0.00     0.047 A 
ATOM     14  C   UNL     1      12.697   6.273 126.514  1.00  0.00     0.020 A 
ATOM     15  C   UNL     1      12.351   7.373 124.385  1.00  0.00     0.119 A 
ATOM     16  C   UNL     1      12.802   8.579 124.938  1.00  0.00     0.093 A 
ATOM     17  C   UNL     1      13.202   8.637 126.281  1.00  0.00     0.130 A 
BRANCH  15  18
ATOM     18  O   UNL     1      11.951   7.309 123.051  1.00  0.00    -0.508 OA
ATOM     19  H   UNL     1      10.997   7.084 122.795  1.00  0.00     0.293 HD
ENDBRANCH  15  18
BRANCH  17  20
ATOM     20  O   UNL     1      13.602   9.853 126.834  1.00  0.00    -0.507 OA
ATOM     21  H   UNL     1      14.260   9.897 127.604  1.00  0.00     0.293 HD
ENDBRANCH  17  20
ENDBRANCH   1  12
BRANCH   2  22
ATOM     22  O   UNL     1      12.287   5.493 128.971  1.00  0.00    -0.502 OA
ATOM     23  H   UNL     1      11.600   5.076 129.587  1.00  0.00     0.293 HD
ENDBRANCH   2  22
BRANCH   6  24
ATOM     24  O   UNL     1      14.867   6.780 133.454  1.00  0.00    -0.507 OA
ATOM     25  H   UNL     1      15.055   5.796 133.341  1.00  0.00     0.293 HD
ENDBRANCH   6  24
BRANCH   8  26
ATOM     26  O   UNL     1      16.793  10.977 132.136  1.00  0.00    -0.508 OA
ATOM     27  H   UNL     1      16.930  11.735 131.476  1.00  0.00     0.293 HD
ENDBRANCH   8  26
TORSDOF 6
ENDMDL
MODEL 2
REMARK VINA RESULT:    16.411      3.145      4.971
REMARK INTER + INTRA:          20.158
REMARK INTER:                  20.434
REMARK INTRA:                  -0.276
REMARK UNBOUND:                 0.389
REMARK SMILES O=c1c(O)c(-c2ccc(O)cc2O)oc2cc(O)cc(O)c12
REMARK SMILES IDX 5 1 3 2 2 3 1 4 22 5 20 6 19 7 17 8 16 9 15 10 14 11 6 12
REMARK SMILES IDX 8 13 7 14 9 15 11 16 12 17 10 18 13 20 4 22 21 24 18 26
REMARK H PARENT 10 19 13 21 4 23 21 25 18 27
REMARK Flexibility Score: inf
ROOT
ATOM      1  C   UNL     1      15.160   6.841 131.493  1.00  0.00     0.184 A 
ATOM      2  C   UNL     1      14.921   8.175 131.857  1.00  0.00     0.208 A 
ATOM      3  C   UNL     1      16.009   8.992 132.203  1.00  0.00     0.238 A 
ATOM      4  O   UNL     1      15.795  10.201 132.477  1.00  0.00    -0.285 OA
ATOM      5  C   UNL     1      17.321   8.457 132.194  1.00  0.00     0.111 A 
ATOM      6  C   UNL     1      18.493   9.182 132.565  1.00  0.00     0.134 A 
ATOM      7  C   UNL     1      19.752   8.592 132.395  1.00  0.00     0.093 A 
ATOM      8  C   UNL     1      19.876   7.280 131.928  1.00  0.00     0.123 A 
ATOM      9  C   UNL     1      18.735   6.545 131.620  1.00  0.00     0.094 A 
ATOM     10  C   UNL     1      17.466   7.118 131.746  1.00  0.00     0.146 A 
ATOM     11  O   UNL     1      16.405   6.385 131.431  1.00  0.00    -0.451 OA
ENDROOT
BRANCH   1  12
ATOM     12  C   UNL     1      14.058   5.924 131.135  1.00  0.00     0.063 A 
ATOM     13  C   UNL     1      12.725   3.965 131.681  1.00  0.00     0.047 A 
ATOM     14  C   UNL     1      13.763   4.848 131.988  1.00  0.00     0.020 A 
ATOM     15  C   UNL     1      11.961   4.152 130.528  1.00  0.00     0.119 A 
ATOM     16  C   UNL     1      12.231   5.235 129.682  1.00  0.00     0.093 A 
ATOM     17  C   UNL     1      13.268   6.130 129.985  1.00  0.00     0.130 A 
BRANCH  15  18
ATOM     18  O   UNL     1      10.931   3.260 130.233  1.00  0.00    -0.508 OA
ATOM     19  H   UNL     1      10.570   3.160 129.292  1.00  0.00     0.293 HD
ENDBRANCH  15  18
BRANCH  17  20
ATOM     20  O   UNL     1      13.496   7.233 129.162  1.00  0.00    -0.507 OA
ATOM     21  H   UNL     1      12.740   7.838 128.862  1.00  0.00     0.293 HD
ENDBRANCH  17  20
ENDBRANCH   1  12
BRANCH   2  22
ATOM     22  O   UNL     1      13.619   8.682 131.839  1.00  0.00    -0.502 OA
ATOM     23  H   UNL     1      13.390   9.577 131.425  1.00  0.00     0.293 HD
ENDBRANCH   2  22
BRANCH   6  24
ATOM     24  O   UNL     1      18.475  10.462 133.126  1.00  0.00    -0.507 OA
ATOM     25  H   UNL     1      18.136  11.289 132.658  1.00  0.00     0.293 HD
ENDBRANCH   6  24
BRANCH   8  26
ATOM     26  O   UNL     1      21.132   6.696 131.776  1.00  0.00    -0.508 OA
ATOM     27  H   UNL     1      21.846   6.781 132.490  1.00  0.00     0.293 HD
ENDBRANCH   8  26
TORSDOF 6
ENDMDL
MODEL 3
REMARK VINA RESULT:    16.847      1.501      7.382
REMARK INTER + INTRA:          20.683
REMARK INTER:                  20.102
REMARK INTRA:                   0.581
REMARK UNBOUND:                 0.389
REMARK SMILES O=c1c(O)c(-c2ccc(O)cc2O)oc2cc(O)cc(O)c12
REMARK SMILES IDX 5 1 3 2 2 3 1 4 22 5 20 6 19 7 17 8 16 9 15 10 14 11 6 12
REMARK SMILES IDX 8 13 7 14 9 15 11 16 12 17 10 18 13 20 4 22 21 24 18 26
REMARK H PARENT 10 19 13 21 4 23 21 25 18 27
REMARK Flexibility Score: inf
ROOT
ATOM      1  C   UNL     1      13.345   7.599 127.509  1.00  0.00     0.184 A 
ATOM      2  C   UNL     1      13.676   8.730 126.748  1.00  0.00     0.208 A 
ATOM      3  C   UNL     1      13.359   8.748 125.381  1.00  0.00     0.238 A 
ATOM      4  O   UNL     1      13.609   9.786 124.715  1.00  0.00    -0.285 OA
ATOM      5  C   UNL     1      12.728   7.626 124.791  1.00  0.00     0.111 A 
ATOM      6  C   UNL     1      12.397   7.517 123.406  1.00  0.00     0.134 A 
ATOM      7  C   UNL     1      11.659   6.415 122.957  1.00  0.00     0.093 A 
ATOM      8  C   UNL     1      11.296   5.387 123.831  1.00  0.00     0.123 A 
ATOM      9  C   UNL     1      11.666   5.454 125.171  1.00  0.00     0.094 A 
ATOM     10  C   UNL     1      12.372   6.558 125.657  1.00  0.00     0.146 A 
ATOM     11  O   UNL     1      12.696   6.588 126.944  1.00  0.00    -0.451 OA
ENDROOT
BRANCH   1  12
ATOM     12  C   UNL     1      13.666   7.509 128.949  1.00  0.00     0.063 A 
ATOM     13  C   UNL     1      14.748   8.474 130.901  1.00  0.00     0.047 A 
ATOM     14  C   UNL     1      14.431   8.526 129.541  1.00  0.00     0.020 A 
ATOM     15  C   UNL     1      14.296   7.413 131.688  1.00  0.00     0.119 A 
ATOM     16  C   UNL     1      13.512   6.404 131.112  1.00  0.00     0.093 A 
ATOM     17  C   UNL     1      13.184   6.452 129.749  1.00  0.00     0.130 A 
BRANCH  15  18
ATOM     18  O   UNL     1      14.624   7.372 133.042  1.00  0.00    -0.508 OA
ATOM     19  H   UNL     1      14.001   6.958 133.726  1.00  0.00     0.293 HD
ENDBRANCH  15  18
BRANCH  17  20
ATOM     20  O   UNL     1      12.363   5.469 129.198  1.00  0.00    -0.507 OA
ATOM     21  H   UNL     1      12.117   5.471 128.214  1.00  0.00     0.293 HD
ENDBRANCH  17  20
ENDBRANCH   1  12
BRANCH   2  22
ATOM     22  O   UNL     1      14.281   9.831 127.360  1.00  0.00    -0.502 OA
ATOM     23  H   UNL     1      14.492   9.855 128.350  1.00  0.00     0.293 HD
ENDBRANCH   2  22
BRANCH   6  24
ATOM     24  O   UNL     1      12.789   8.443 122.435  1.00  0.00    -0.507 OA
ATOM     25  H   UNL     1      13.588   8.336 121.829  1.00  0.00     0.293 HD
ENDBRANCH   6  24
BRANCH   8  26
ATOM     26  O   UNL     1      10.574   4.287 123.372  1.00  0.00    -0.508 OA
ATOM     27  H   UNL     1       9.991   3.738 123.994  1.00  0.00     0.293 HD
ENDBRANCH   8  26
TORSDOF 6
ENDMDL
MODEL 4
REMARK VINA RESULT:    17.143      5.298     10.246
REMARK INTER + INTRA:          21.040
REMARK INTER:                  20.744
REMARK INTRA:                   0.296
REMARK UNBOUND:                 0.389
REMARK SMILES O=c1c(O)c(-c2ccc(O)cc2O)oc2cc(O)cc(O)c12
REMARK SMILES IDX 5 1 3 2 2 3 1 4 22 5 20 6 19 7 17 8 16 9 15 10 14 11 6 12
REMARK SMILES IDX 8 13 7 14 9 15 11 16 12 17 10 18 13 20 4 22 21 24 18 26
REMARK H PARENT 10 19 13 21 4 23 21 25 18 27
REMARK Flexibility Score: inf
ROOT
ATOM      1  C   UNL     1      19.351   7.861 135.282  1.00  0.00     0.184 A 
ATOM      2  C   UNL     1      20.139   7.530 134.169  1.00  0.00     0.208 A 
ATOM      3  C   UNL     1      19.637   7.776 132.882  1.00  0.00     0.238 A 
ATOM      4  O   UNL     1      20.368   7.526 131.889  1.00  0.00    -0.285 OA
ATOM      5  C   UNL     1      18.346   8.338 132.726  1.00  0.00     0.111 A 
ATOM      6  C   UNL     1      17.719   8.592 131.469  1.00  0.00     0.134 A 
ATOM      7  C   UNL     1      16.494   9.269 131.433  1.00  0.00     0.093 A 
ATOM      8  C   UNL     1      15.842   9.642 132.611  1.00  0.00     0.123 A 
ATOM      9  C   UNL     1      16.416   9.344 133.844  1.00  0.00     0.094 A 
ATOM     10  C   UNL     1      17.655   8.702 133.912  1.00  0.00     0.146 A 
ATOM     11  O   UNL     1      18.172   8.446 135.108  1.00  0.00    -0.451 OA
ENDROOT
BRANCH   1  12
ATOM     12  C   UNL     1      19.813   7.612 136.664  1.00  0.00     0.063 A 
ATOM     13  C   UNL     1      21.236   6.357 138.185  1.00  0.00     0.047 A 
ATOM     14  C   UNL     1      20.774   6.615 136.892  1.00  0.00     0.020 A 
ATOM     15  C   UNL     1      20.753   7.100 139.264  1.00  0.00     0.119 A 
ATOM     16  C   UNL     1      19.811   8.114 139.045  1.00  0.00     0.093 A 
ATOM     17  C   UNL     1      19.347   8.383 137.749  1.00  0.00     0.130 A 
BRANCH  15  18
ATOM     18  O   UNL     1      21.220   6.829 140.549  1.00  0.00    -0.508 OA
ATOM     19  H   UNL     1      21.822   6.037 140.738  1.00  0.00     0.293 HD
ENDBRANCH  15  18
BRANCH  17  20
ATOM     20  O   UNL     1      18.446   9.426 137.537  1.00  0.00    -0.507 OA
ATOM     21  H   UNL     1      18.122  10.012 138.299  1.00  0.00     0.293 HD
ENDBRANCH  17  20
ENDBRANCH   1  12
BRANCH   2  22
ATOM     22  O   UNL     1      21.417   6.994 134.352  1.00  0.00    -0.502 OA
ATOM     23  H   UNL     1      22.217   7.300 133.812  1.00  0.00     0.293 HD
ENDBRANCH   2  22
BRANCH   6  24
ATOM     24  O   UNL     1      18.242   8.182 130.239  1.00  0.00    -0.507 OA
ATOM     25  H   UNL     1      18.864   7.398 130.113  1.00  0.00     0.293 HD
ENDBRANCH   6  24
BRANCH   8  26
ATOM     26  O   UNL     1      14.615  10.302 132.565  1.00  0.00    -0.508 OA
ATOM     27  H   UNL     1      14.199  10.588 131.686  1.00  0.00     0.293 HD
ENDBRANCH   8  26
TORSDOF 6
ENDMDL
MODEL 5
REMARK VINA RESULT:    17.648      4.010      7.773
REMARK INTER + INTRA:          21.648
REMARK INTER:                  21.967
REMARK INTRA:                  -0.320
REMARK UNBOUND:                 0.389
REMARK SMILES O=c1c(O)c(-c2ccc(O)cc2O)oc2cc(O)cc(O)c12
REMARK SMILES IDX 5 1 3 2 2 3 1 4 22 5 20 6 19 7 17 8 16 9 15 10 14 11 6 12
REMARK SMILES IDX 8 13 7 14 9 15 11 16 12 17 10 18 13 20 4 22 21 24 18 26
REMARK H PARENT 10 19 13 21 4 23 21 25 18 27
REMARK Flexibility Score: inf
ROOT
ATOM      1  C   UNL     1      18.173   7.469 132.000  1.00  0.00     0.184 A 
ATOM      2  C   UNL     1      17.740   8.803 132.036  1.00  0.00     0.208 A 
ATOM      3  C   UNL     1      16.375   9.081 131.863  1.00  0.00     0.238 A 
ATOM      4  O   UNL     1      15.985  10.274 131.949  1.00  0.00    -0.285 OA
ATOM      5  C   UNL     1      15.464   8.019 131.641  1.00  0.00     0.111 A 
ATOM      6  C   UNL     1      14.065   8.187 131.412  1.00  0.00     0.134 A 
ATOM      7  C   UNL     1      13.239   7.059 131.333  1.00  0.00     0.093 A 
ATOM      8  C   UNL     1      13.771   5.769 131.410  1.00  0.00     0.123 A 
ATOM      9  C   UNL     1      15.142   5.595 131.573  1.00  0.00     0.094 A 
ATOM     10  C   UNL     1      15.988   6.700 131.690  1.00  0.00     0.146 A 
ATOM     11  O   UNL     1      17.289   6.489 131.856  1.00  0.00    -0.451 OA
ENDROOT
BRANCH   1  12
ATOM     12  C   UNL     1      19.598   7.110 132.158  1.00  0.00     0.063 A 
ATOM     13  C   UNL     1      21.604   7.120 133.533  1.00  0.00     0.047 A 
ATOM     14  C   UNL     1      20.259   7.450 133.350  1.00  0.00     0.020 A 
ATOM     15  C   UNL     1      22.302   6.436 132.536  1.00  0.00     0.119 A 
ATOM     16  C   UNL     1      21.646   6.070 131.353  1.00  0.00     0.093 A 
ATOM     17  C   UNL     1      20.294   6.393 131.163  1.00  0.00     0.130 A 
BRANCH  15  18
ATOM     18  O   UNL     1      23.645   6.118 132.732  1.00  0.00    -0.508 OA
ATOM     19  H   UNL     1      23.950   5.576 133.532  1.00  0.00     0.293 HD
ENDBRANCH  15  18
BRANCH  17  20
ATOM     20  O   UNL     1      19.639   5.981 130.003  1.00  0.00    -0.507 OA
ATOM     21  H   UNL     1      19.498   6.610 129.220  1.00  0.00     0.293 HD
ENDBRANCH  17  20
ENDBRANCH   1  12
BRANCH   2  22
ATOM     22  O   UNL     1      18.658   9.830 132.275  1.00  0.00    -0.502 OA
ATOM     23  H   UNL     1      18.378  10.739 132.621  1.00  0.00     0.293 HD
ENDBRANCH   2  22
BRANCH   6  24
ATOM     24  O   UNL     1      13.447   9.427 131.231  1.00  0.00    -0.507 OA
ATOM     25  H   UNL     1      13.021   9.736 130.370  1.00  0.00     0.293 HD
ENDBRANCH   6  24
BRANCH   8  26
ATOM     26  O   UNL     1      12.943   4.652 131.315  1.00  0.00    -0.508 OA
ATOM     27  H   UNL     1      12.823   4.013 132.093  1.00  0.00     0.293 HD
ENDBRANCH   8  26
TORSDOF 6
ENDMDL
MODEL 6
REMARK VINA RESULT:    18.092      6.949     10.231
REMARK INTER + INTRA:          22.182
REMARK INTER:                  21.601
REMARK INTRA:                   0.581
REMARK UNBOUND:                 0.389
REMARK SMILES O=c1c(O)c(-c2ccc(O)cc2O)oc2cc(O)cc(O)c12
REMARK SMILES IDX 5 1 3 2 2 3 1 4 22 5 20 6 19 7 17 8 16 9 15 10 14 11 6 12
REMARK SMILES IDX 8 13 7 14 9 15 11 16 12 17 10 18 13 20 4 22 21 24 18 26
REMARK H PARENT 10 19 13 21 4 23 21 25 18 27
REMARK Flexibility Score: inf
ROOT
ATOM      1  C   UNL     1      19.625   7.751 136.299  1.00  0.00     0.184 A 
ATOM      2  C   UNL     1      18.871   8.319 137.338  1.00  0.00     0.208 A 
ATOM      3  C   UNL     1      19.247   8.069 138.667  1.00  0.00     0.238 A 
ATOM      4  O   UNL     1      18.601   8.624 139.593  1.00  0.00    -0.285 OA
ATOM      5  C   UNL     1      20.363   7.240 138.939  1.00  0.00     0.111 A 
ATOM      6  C   UNL     1      20.810   6.885 140.247  1.00  0.00     0.134 A 
ATOM      7  C   UNL     1      22.001   6.165 140.398  1.00  0.00     0.093 A 
ATOM      8  C   UNL     1      22.727   5.731 139.286  1.00  0.00     0.123 A 
ATOM      9  C   UNL     1      22.267   6.021 138.004  1.00  0.00     0.094 A 
ATOM     10  C   UNL     1      21.101   6.768 137.821  1.00  0.00     0.146 A 
ATOM     11  O   UNL     1      20.704   7.031 136.581  1.00  0.00    -0.451 OA
ENDROOT
BRANCH   1  12
ATOM     12  C   UNL     1      19.273   7.960 134.879  1.00  0.00     0.063 A 
ATOM     13  C   UNL     1      17.719   8.846 133.232  1.00  0.00     0.047 A 
ATOM     14  C   UNL     1      18.079   8.627 134.564  1.00  0.00     0.020 A 
ATOM     15  C   UNL     1      18.553   8.414 132.199  1.00  0.00     0.119 A 
ATOM     16  C   UNL     1      19.760   7.768 132.502  1.00  0.00     0.093 A 
ATOM     17  C   UNL     1      20.130   7.550 133.837  1.00  0.00     0.130 A 
BRANCH  15  18
ATOM     18  O   UNL     1      18.180   8.635 130.875  1.00  0.00    -0.508 OA
ATOM     19  H   UNL     1      17.266   9.001 130.636  1.00  0.00     0.293 HD
ENDBRANCH  15  18
BRANCH  17  20
ATOM     20  O   UNL     1      21.356   6.950 134.128  1.00  0.00    -0.507 OA
ATOM     21  H   UNL     1      21.485   6.375 134.953  1.00  0.00     0.293 HD
ENDBRANCH  17  20
ENDBRANCH   1  12
BRANCH   2  22
ATOM     22  O   UNL     1      17.786   9.148 137.041  1.00  0.00    -0.502 OA
ATOM     23  H   UNL     1      17.621   9.515 136.112  1.00  0.00     0.293 HD
ENDBRANCH   2  22
BRANCH   6  24
ATOM     24  O   UNL     1      20.112   7.190 141.419  1.00  0.00    -0.507 OA
ATOM     25  H   UNL     1      20.321   7.968 142.027  1.00  0.00     0.293 HD
ENDBRANCH   6  24
BRANCH   8  26
ATOM     26  O   UNL     1      23.903   5.002 139.446  1.00  0.00    -0.508 OA
ATOM     27  H   UNL     1      23.960   4.222 140.090  1.00  0.00     0.293 HD
ENDBRANCH   8  26
TORSDOF 6
ENDMDL
MODEL 7
REMARK VINA RESULT:    19.131      1.585      3.085
REMARK INTER + INTRA:          23.434
REMARK INTER:                  21.000
REMARK INTRA:                   2.434
REMARK UNBOUND:                 0.389
REMARK SMILES O=c1c(O)c(-c2ccc(O)cc2O)oc2cc(O)cc(O)c12
REMARK SMILES IDX 5 1 3 2 2 3 1 4 22 5 20 6 19 7 17 8 16 9 15 10 14 11 6 12
REMARK SMILES IDX 8 13 7 14 9 15 11 16 12 17 10 18 13 20 4 22 21 24 18 26
REMARK H PARENT 10 19 13 21 4 23 21 25 18 27
REMARK Flexibility Score: inf
ROOT
ATOM      1  C   UNL     1      13.282   7.254 127.655  1.00  0.00     0.184 A 
ATOM      2  C   UNL     1      13.702   8.481 128.190  1.00  0.00     0.208 A 
ATOM      3  C   UNL     1      14.066   8.545 129.544  1.00  0.00     0.238 A 
ATOM      4  O   UNL     1      14.493   9.635 130.005  1.00  0.00    -0.285 OA
ATOM      5  C   UNL     1      13.991   7.381 130.348  1.00  0.00     0.111 A 
ATOM      6  C   UNL     1      14.297   7.338 131.741  1.00  0.00     0.134 A 
ATOM      7  C   UNL     1      14.312   6.106 132.407  1.00  0.00     0.093 A 
ATOM      8  C   UNL     1      13.969   4.924 131.744  1.00  0.00     0.123 A 
ATOM      9  C   UNL     1      13.611   4.964 130.400  1.00  0.00     0.094 A 
ATOM     10  C   UNL     1      13.621   6.173 129.699  1.00  0.00     0.146 A 
ATOM     11  O   UNL     1      13.283   6.165 128.415  1.00  0.00    -0.451 OA
ENDROOT
BRANCH   1  12
ATOM     12  C   UNL     1      12.868   7.122 126.242  1.00  0.00     0.063 A 
ATOM     13  C   UNL     1      11.574   5.938 124.558  1.00  0.00     0.047 A 
ATOM     14  C   UNL     1      11.989   6.088 125.884  1.00  0.00     0.020 A 
ATOM     15  C   UNL     1      12.021   6.825 123.577  1.00  0.00     0.119 A 
ATOM     16  C   UNL     1      12.880   7.875 123.928  1.00  0.00     0.093 A 
ATOM     17  C   UNL     1      13.297   8.036 125.258  1.00  0.00     0.130 A 
BRANCH  15  18
ATOM     18  O   UNL     1      11.601   6.661 122.258  1.00  0.00    -0.508 OA
ATOM     19  H   UNL     1      11.205   7.428 121.729  1.00  0.00     0.293 HD
ENDBRANCH  15  18
BRANCH  17  20
ATOM     20  O   UNL     1      14.112   9.113 125.603  1.00  0.00    -0.507 OA
ATOM     21  H   UNL     1      13.760  10.064 125.619  1.00  0.00     0.293 HD
ENDBRANCH  17  20
ENDBRANCH   1  12
BRANCH   2  22
ATOM     22  O   UNL     1      13.784   9.609 127.369  1.00  0.00    -0.502 OA
ATOM     23  H   UNL     1      14.091  10.510 127.714  1.00  0.00     0.293 HD
ENDBRANCH   2  22
BRANCH   6  24
ATOM     24  O   UNL     1      14.564   8.469 132.517  1.00  0.00    -0.507 OA
ATOM     25  H   UNL     1      14.305   8.576 133.486  1.00  0.00     0.293 HD
ENDBRANCH   6  24
BRANCH   8  26
ATOM     26  O   UNL     1      13.972   3.705 132.419  1.00  0.00    -0.508 OA
ATOM     27  H   UNL     1      13.429   2.915 132.090  1.00  0.00     0.293 HD
ENDBRANCH   8  26
TORSDOF 6
ENDMDL
