MODEL 1
REMARK VINA RESULT:    -3.121      0.000      0.000
REMARK INTER + INTRA:          -5.172
REMARK INTER:                  -4.581
REMARK INTRA:                  -0.591
REMARK UNBOUND:                -0.591
REMARK SMILES O=C([O-])CCCCCCCC(=O)[O-]
REMARK SMILES IDX 7 1 6 2 5 3 4 4 2 5 1 6 3 7 8 8 9 9 10 10 11 11 12 12 13 13
REMARK H PARENT
REMARK Flexibility Score: inf
ROOT
ATOM      1  C   UNL     1      38.372  34.959  19.682  1.00  0.00     0.000 C 
ENDROOT
BRANCH   1   2
ATOM      2  C   UNL     1      37.585  35.054  18.366  1.00  0.00     0.000 C 
BRANCH   2   3
ATOM      3  C   UNL     1      38.494  35.261  17.140  1.00  0.00     0.006 C 
BRANCH   3   4
ATOM      4  C   UNL     1      39.857  35.894  17.462  1.00  0.00     0.053 C 
BRANCH   4   5
ATOM      5  C   UNL     1      39.881  37.360  17.155  1.00  0.00     0.041 C 
ATOM      6  O   UNL     1      39.762  37.761  15.968  1.00  0.00    -0.550 OA
ATOM      7  O   UNL     1      40.068  38.281  18.177  1.00  0.00    -0.550 OA
ENDBRANCH   4   5
ENDBRANCH   3   4
ENDBRANCH   2   3
ENDBRANCH   1   2
BRANCH   1   8
ATOM      8  C   UNL     1      37.559  35.538  20.849  1.00  0.00     0.000 C 
BRANCH   8   9
ATOM      9  C   UNL     1      36.782  36.811  20.461  1.00  0.00     0.006 C 
BRANCH   9  10
ATOM     10  C   UNL     1      37.568  38.118  20.666  1.00  0.00     0.053 C 
BRANCH  10  11
ATOM     11  C   UNL     1      36.878  39.291  20.041  1.00  0.00     0.041 C 
ATOM     12  O   UNL     1      35.659  39.506  20.271  1.00  0.00    -0.550 OA
ATOM     13  O   UNL     1      37.591  40.166  19.230  1.00  0.00    -0.550 OA
ENDBRANCH  10  11
ENDBRANCH   9  10
ENDBRANCH   8   9
ENDBRANCH   1   8
TORSDOF 8
ENDMDL
MODEL 2
REMARK VINA RESULT:    -3.038      2.185      3.718
REMARK INTER + INTRA:          -5.050
REMARK INTER:                  -4.392
REMARK INTRA:                  -0.658
REMARK UNBOUND:                -0.591
REMARK SMILES O=C([O-])CCCCCCCC(=O)[O-]
REMARK SMILES IDX 7 1 6 2 5 3 4 4 2 5 1 6 3 7 8 8 9 9 10 10 11 11 12 12 13 13
REMARK H PARENT
REMARK Flexibility Score: inf
ROOT
ATOM      1  C   UNL     1      37.406  38.733  20.611  1.00  0.00     0.000 C 
ENDROOT
BRANCH   1   2
ATOM      2  C   UNL     1      37.492  39.607  19.350  1.00  0.00     0.000 C 
BRANCH   2   3
ATOM      3  C   UNL     1      38.939  39.826  18.872  1.00  0.00     0.006 C 
BRANCH   3   4
ATOM      4  C   UNL     1      39.628  38.560  18.339  1.00  0.00     0.053 C 
BRANCH   4   5
ATOM      5  C   UNL     1      39.622  38.507  16.842  1.00  0.00     0.041 C 
ATOM      6  O   UNL     1      39.684  37.399  16.247  1.00  0.00    -0.550 OA
ATOM      7  O   UNL     1      39.580  39.683  16.105  1.00  0.00    -0.550 OA
ENDBRANCH   4   5
ENDBRANCH   3   4
ENDBRANCH   2   3
ENDBRANCH   1   2
BRANCH   1   8
ATOM      8  C   UNL     1      36.727  37.391  20.301  1.00  0.00     0.000 C 
BRANCH   8   9
ATOM      9  C   UNL     1      37.482  36.188  20.898  1.00  0.00     0.006 C 
BRANCH   9  10
ATOM     10  C   UNL     1      37.438  34.919  20.029  1.00  0.00     0.053 C 
BRANCH  10  11
ATOM     11  C   UNL     1      38.248  35.068  18.778  1.00  0.00     0.041 C 
ATOM     12  O   UNL     1      39.505  35.106  18.837  1.00  0.00    -0.550 OA
ATOM     13  O   UNL     1      37.614  35.130  17.543  1.00  0.00    -0.550 OA
ENDBRANCH  10  11
ENDBRANCH   9  10
ENDBRANCH   8   9
ENDBRANCH   1   8
TORSDOF 8
ENDMDL
MODEL 3
REMARK VINA RESULT:    -2.513     13.095     14.999
REMARK INTER + INTRA:          -4.279
REMARK INTER:                  -4.011
REMARK INTRA:                  -0.268
REMARK UNBOUND:                -0.591
REMARK SMILES O=C([O-])CCCCCCCC(=O)[O-]
REMARK SMILES IDX 7 1 6 2 5 3 4 4 2 5 1 6 3 7 8 8 9 9 10 10 11 11 12 12 13 13
REMARK H PARENT
REMARK Flexibility Score: inf
ROOT
ATOM      1  C   UNL     1      24.547  34.889  17.302  1.00  0.00     0.000 C 
ENDROOT
BRANCH   1   2
ATOM      2  C   UNL     1      23.311  35.460  18.014  1.00  0.00     0.000 C 
BRANCH   2   3
ATOM      3  C   UNL     1      22.037  35.386  17.153  1.00  0.00     0.006 C 
BRANCH   3   4
ATOM      4  C   UNL     1      20.771  34.993  17.928  1.00  0.00     0.053 C 
BRANCH   4   5
ATOM      5  C   UNL     1      20.668  35.713  19.237  1.00  0.00     0.041 C 
ATOM      6  O   UNL     1      20.533  36.965  19.263  1.00  0.00    -0.550 OA
ATOM      7  O   UNL     1      20.754  35.005  20.428  1.00  0.00    -0.550 OA
ENDBRANCH   4   5
ENDBRANCH   3   4
ENDBRANCH   2   3
ENDBRANCH   1   2
BRANCH   1   8
ATOM      8  C   UNL     1      25.837  35.319  18.016  1.00  0.00     0.000 C 
BRANCH   8   9
ATOM      9  C   UNL     1      25.767  35.126  19.542  1.00  0.00     0.006 C 
BRANCH   9  10
ATOM     10  C   UNL     1      27.130  34.875  20.211  1.00  0.00     0.053 C 
BRANCH  10  11
ATOM     11  C   UNL     1      27.106  35.200  21.672  1.00  0.00     0.041 C 
ATOM     12  O   UNL     1      26.091  35.739  22.186  1.00  0.00    -0.550 OA
ATOM     13  O   UNL     1      28.193  34.876  22.475  1.00  0.00    -0.550 OA
ENDBRANCH  10  11
ENDBRANCH   9  10
ENDBRANCH   8   9
ENDBRANCH   1   8
TORSDOF 8
ENDMDL
MODEL 4
REMARK VINA RESULT:    -2.290     13.252     14.869
REMARK INTER + INTRA:          -3.951
REMARK INTER:                  -3.875
REMARK INTRA:                  -0.076
REMARK UNBOUND:                -0.591
REMARK SMILES O=C([O-])CCCCCCCC(=O)[O-]
REMARK SMILES IDX 7 1 6 2 5 3 4 4 2 5 1 6 3 7 8 8 9 9 10 10 11 11 12 12 13 13
REMARK H PARENT
REMARK Flexibility Score: inf
ROOT
ATOM      1  C   UNL     1      23.731  35.996  18.070  1.00  0.00     0.000 C 
ENDROOT
BRANCH   1   2
ATOM      2  C   UNL     1      25.063  35.235  18.150  1.00  0.00     0.000 C 
BRANCH   2   3
ATOM      3  C   UNL     1      25.460  34.875  19.594  1.00  0.00     0.006 C 
BRANCH   3   4
ATOM      4  C   UNL     1      26.931  35.157  19.935  1.00  0.00     0.053 C 
BRANCH   4   5
ATOM      5  C   UNL     1      27.159  35.237  21.413  1.00  0.00     0.041 C 
ATOM      6  O   UNL     1      26.240  35.636  22.175  1.00  0.00    -0.550 OA
ATOM      7  O   UNL     1      28.397  34.902  21.944  1.00  0.00    -0.550 OA
ENDBRANCH   4   5
ENDBRANCH   3   4
ENDBRANCH   2   3
ENDBRANCH   1   2
BRANCH   1   8
ATOM      8  C   UNL     1      23.004  35.690  16.752  1.00  0.00     0.000 C 
BRANCH   8   9
ATOM      9  C   UNL     1      21.531  35.292  16.961  1.00  0.00     0.006 C 
BRANCH   9  10
ATOM     10  C   UNL     1      21.144  35.045  18.429  1.00  0.00     0.053 C 
BRANCH  10  11
ATOM     11  C   UNL     1      20.637  36.289  19.091  1.00  0.00     0.041 C 
ATOM     12  O   UNL     1      20.245  36.255  20.288  1.00  0.00    -0.550 OA
ATOM     13  O   UNL     1      20.627  37.493  18.398  1.00  0.00    -0.550 OA
ENDBRANCH  10  11
ENDBRANCH   9  10
ENDBRANCH   8   9
ENDBRANCH   1   8
TORSDOF 8
ENDMDL
MODEL 5
REMARK VINA RESULT:    -1.791     13.704     15.186
REMARK INTER + INTRA:          -3.220
REMARK INTER:                  -3.622
REMARK INTRA:                   0.402
REMARK UNBOUND:                -0.591
REMARK SMILES O=C([O-])CCCCCCCC(=O)[O-]
REMARK SMILES IDX 7 1 6 2 5 3 4 4 2 5 1 6 3 7 8 8 9 9 10 10 11 11 12 12 13 13
REMARK H PARENT
REMARK Flexibility Score: inf
ROOT
ATOM      1  C   UNL     1      23.192  36.042  18.103  1.00  0.00     0.000 C 
ENDROOT
BRANCH   1   2
ATOM      2  C   UNL     1      24.332  35.415  17.286  1.00  0.00     0.000 C 
BRANCH   2   3
ATOM      3  C   UNL     1      25.473  34.875  18.168  1.00  0.00     0.006 C 
BRANCH   3   4
ATOM      4  C   UNL     1      25.529  35.488  19.575  1.00  0.00     0.053 C 
BRANCH   4   5
ATOM      5  C   UNL     1      26.894  35.381  20.180  1.00  0.00     0.041 C 
ATOM      6  O   UNL     1      27.068  35.632  21.402  1.00  0.00    -0.550 OA
ATOM      7  O   UNL     1      27.980  35.034  19.388  1.00  0.00    -0.550 OA
ENDBRANCH   4   5
ENDBRANCH   3   4
ENDBRANCH   2   3
ENDBRANCH   1   2
BRANCH   1   8
ATOM      8  C   UNL     1      22.249  34.958  18.646  1.00  0.00     0.000 C 
BRANCH   8   9
ATOM      9  C   UNL     1      20.849  35.502  18.987  1.00  0.00     0.006 C 
BRANCH   9  10
ATOM     10  C   UNL     1      20.354  36.612  18.044  1.00  0.00     0.053 C 
BRANCH  10  11
ATOM     11  C   UNL     1      20.540  36.248  16.604  1.00  0.00     0.041 C 
ATOM     12  O   UNL     1      21.319  36.918  15.876  1.00  0.00    -0.550 OA
ATOM     13  O   UNL     1      19.877  35.149  16.072  1.00  0.00    -0.550 OA
ENDBRANCH  10  11
ENDBRANCH   9  10
ENDBRANCH   8   9
ENDBRANCH   1   8
TORSDOF 8
ENDMDL
MODEL 6
REMARK VINA RESULT:    -0.576     23.164     25.856
REMARK INTER + INTRA:          -1.436
REMARK INTER:                  -1.119
REMARK INTRA:                  -0.317
REMARK UNBOUND:                -0.591
REMARK SMILES O=C([O-])CCCCCCCC(=O)[O-]
REMARK SMILES IDX 7 1 6 2 5 3 4 4 2 5 1 6 3 7 8 8 9 9 10 10 11 11 12 12 13 13
REMARK H PARENT
REMARK Flexibility Score: inf
ROOT
ATOM      1  C   UNL     1      24.700  54.990  31.599  1.00  0.00     0.000 C 
ENDROOT
BRANCH   1   2
ATOM      2  C   UNL     1      24.845  53.723  30.743  1.00  0.00     0.000 C 
BRANCH   2   3
ATOM      3  C   UNL     1      23.499  53.214  30.195  1.00  0.00     0.006 C 
BRANCH   3   4
ATOM      4  C   UNL     1      23.621  52.064  29.184  1.00  0.00     0.053 C 
BRANCH   4   5
ATOM      5  C   UNL     1      22.725  52.261  28.000  1.00  0.00     0.041 C 
ATOM      6  O   UNL     1      21.474  52.233  28.141  1.00  0.00    -0.550 OA
ATOM      7  O   UNL     1      23.272  52.443  26.737  1.00  0.00    -0.550 OA
ENDBRANCH   4   5
ENDBRANCH   3   4
ENDBRANCH   2   3
ENDBRANCH   1   2
BRANCH   1   8
ATOM      8  C   UNL     1      23.428  54.927  32.458  1.00  0.00     0.000 C 
BRANCH   8   9
ATOM      9  C   UNL     1      23.655  54.227  33.811  1.00  0.00     0.006 C 
BRANCH   9  10
ATOM     10  C   UNL     1      22.628  54.597  34.894  1.00  0.00     0.053 C 
BRANCH  10  11
ATOM     11  C   UNL     1      21.553  53.562  35.026  1.00  0.00     0.041 C 
ATOM     12  O   UNL     1      21.409  52.932  36.107  1.00  0.00    -0.550 OA
ATOM     13  O   UNL     1      20.690  53.316  33.965  1.00  0.00    -0.550 OA
ENDBRANCH  10  11
ENDBRANCH   9  10
ENDBRANCH   8   9
ENDBRANCH   1   8
TORSDOF 8
ENDMDL
MODEL 7
REMARK VINA RESULT:    -0.456     23.707     26.589
REMARK INTER + INTRA:          -1.260
REMARK INTER:                  -0.925
REMARK INTRA:                  -0.335
REMARK UNBOUND:                -0.591
REMARK SMILES O=C([O-])CCCCCCCC(=O)[O-]
REMARK SMILES IDX 7 1 6 2 5 3 4 4 2 5 1 6 3 7 8 8 9 9 10 10 11 11 12 12 13 13
REMARK H PARENT
REMARK Flexibility Score: inf
ROOT
ATOM      1  C   UNL     1      20.416  54.279  32.631  1.00  0.00     0.000 C 
ENDROOT
BRANCH   1   2
ATOM      2  C   UNL     1      21.662  54.317  31.732  1.00  0.00     0.000 C 
BRANCH   2   3
ATOM      3  C   UNL     1      21.395  53.766  30.319  1.00  0.00     0.006 C 
BRANCH   3   4
ATOM      4  C   UNL     1      22.497  52.839  29.782  1.00  0.00     0.053 C 
BRANCH   4   5
ATOM      5  C   UNL     1      22.203  52.366  28.392  1.00  0.00     0.041 C 
ATOM      6  O   UNL     1      21.117  52.672  27.834  1.00  0.00    -0.550 OA
ATOM      7  O   UNL     1      23.116  51.560  27.725  1.00  0.00    -0.550 OA
ENDBRANCH   4   5
ENDBRANCH   3   4
ENDBRANCH   2   3
ENDBRANCH   1   2
BRANCH   1   8
ATOM      8  C   UNL     1      20.772  53.772  34.036  1.00  0.00     0.000 C 
BRANCH   8   9
ATOM      9  C   UNL     1      21.707  54.729  34.799  1.00  0.00     0.006 C 
BRANCH   9  10
ATOM     10  C   UNL     1      22.904  54.039  35.475  1.00  0.00     0.053 C 
BRANCH  10  11
ATOM     11  C   UNL     1      24.211  54.613  35.024  1.00  0.00     0.041 C 
ATOM     12  O   UNL     1      24.390  54.907  33.813  1.00  0.00    -0.550 OA
ATOM     13  O   UNL     1      25.220  54.855  35.947  1.00  0.00    -0.550 OA
ENDBRANCH  10  11
ENDBRANCH   9  10
ENDBRANCH   8   9
ENDBRANCH   1   8
TORSDOF 8
ENDMDL
MODEL 8
REMARK VINA RESULT:    -0.306     23.187     26.461
REMARK INTER + INTRA:          -1.040
REMARK INTER:                  -0.605
REMARK INTRA:                  -0.435
REMARK UNBOUND:                -0.591
REMARK SMILES O=C([O-])CCCCCCCC(=O)[O-]
REMARK SMILES IDX 7 1 6 2 5 3 4 4 2 5 1 6 3 7 8 8 9 9 10 10 11 11 12 12 13 13
REMARK H PARENT
REMARK Flexibility Score: inf
ROOT
ATOM      1  C   UNL     1      23.849  55.085  32.084  1.00  0.00     0.000 C 
ENDROOT
BRANCH   1   2
ATOM      2  C   UNL     1      24.293  54.806  33.528  1.00  0.00     0.000 C 
BRANCH   2   3
ATOM      3  C   UNL     1      23.127  54.862  34.532  1.00  0.00     0.006 C 
BRANCH   3   4
ATOM      4  C   UNL     1      22.134  53.696  34.414  1.00  0.00     0.053 C 
BRANCH   4   5
ATOM      5  C   UNL     1      20.808  54.141  33.878  1.00  0.00     0.041 C 
ATOM      6  O   UNL     1      20.546  54.017  32.652  1.00  0.00    -0.550 OA
ATOM      7  O   UNL     1      19.875  54.722  34.725  1.00  0.00    -0.550 OA
ENDBRANCH   4   5
ENDBRANCH   3   4
ENDBRANCH   2   3
ENDBRANCH   1   2
BRANCH   1   8
ATOM      8  C   UNL     1      24.379  54.004  31.130  1.00  0.00     0.000 C 
BRANCH   8   9
ATOM      9  C   UNL     1      23.254  53.259  30.387  1.00  0.00     0.006 C 
BRANCH   9  10
ATOM     10  C   UNL     1      23.749  52.219  29.368  1.00  0.00     0.053 C 
BRANCH  10  11
ATOM     11  C   UNL     1      22.854  52.136  28.171  1.00  0.00     0.041 C 
ATOM     12  O   UNL     1      23.261  51.590  27.112  1.00  0.00    -0.550 OA
ATOM     13  O   UNL     1      21.558  52.632  28.235  1.00  0.00    -0.550 OA
ENDBRANCH  10  11
ENDBRANCH   9  10
ENDBRANCH   8   9
ENDBRANCH   1   8
TORSDOF 8
ENDMDL
