MODEL 1
REMARK VINA RESULT:    -3.778      0.000      0.000
REMARK INTER + INTRA:          -5.939
REMARK INTER:                  -5.324
REMARK INTRA:                  -0.615
REMARK UNBOUND:                -0.615
REMARK SMILES C=CCCCCCCC(=O)[O-]
REMARK SMILES IDX 6 1 7 2 8 3 9 4 10 5 11 6 5 7 4 8 3 9 2 10 1 11
REMARK H PARENT
REMARK Flexibility Score: inf
ROOT
ATOM      1  C   UNL     1      -7.473   4.556   0.071  1.00  0.00     0.000 C 
ENDROOT
BRANCH   1   2
ATOM      2  C   UNL     1      -8.671   3.838  -0.573  1.00  0.00     0.006 C 
BRANCH   2   3
ATOM      3  C   UNL     1      -9.406   4.730  -1.583  1.00  0.00     0.053 C 
BRANCH   3   4
ATOM      4  C   UNL     1      -9.587   4.044  -2.902  1.00  0.00     0.041 C 
ATOM      5  O   UNL     1      -9.767   4.719  -3.949  1.00  0.00    -0.550 OA
ATOM      6  O   UNL     1      -9.529   2.658  -2.978  1.00  0.00    -0.550 OA
ENDBRANCH   3   4
ENDBRANCH   2   3
ENDBRANCH   1   2
BRANCH   1   7
ATOM      7  C   UNL     1      -7.069   3.936   1.419  1.00  0.00     0.000 C 
BRANCH   7   8
ATOM      8  C   UNL     1      -8.182   3.067   2.030  1.00  0.00     0.004 C 
BRANCH   8   9
ATOM      9  C   UNL     1      -8.613   3.570   3.413  1.00  0.00     0.027 C 
BRANCH   9  10
ATOM     10  C   UNL     1      -9.497   4.784   3.308  1.00  0.00    -0.035 C 
ATOM     11  C   UNL     1     -10.556   4.817   2.495  1.00  0.00     0.004 C 
ENDBRANCH   9  10
ENDBRANCH   8   9
ENDBRANCH   7   8
ENDBRANCH   1   7
TORSDOF 7
ENDMDL
MODEL 2
REMARK VINA RESULT:    -3.521      1.823      3.029
REMARK INTER + INTRA:          -5.577
REMARK INTER:                  -5.034
REMARK INTRA:                  -0.543
REMARK UNBOUND:                -0.615
REMARK SMILES C=CCCCCCCC(=O)[O-]
REMARK SMILES IDX 6 1 7 2 8 3 9 4 10 5 11 6 5 7 4 8 3 9 2 10 1 11
REMARK H PARENT
REMARK Flexibility Score: inf
ROOT
ATOM      1  C   UNL     1     -11.416   4.191  -0.316  1.00  0.00     0.000 C 
ENDROOT
BRANCH   1   2
ATOM      2  C   UNL     1     -10.986   2.721  -0.455  1.00  0.00     0.006 C 
BRANCH   2   3
ATOM      3  C   UNL     1     -11.382   2.127  -1.814  1.00  0.00     0.053 C 
BRANCH   3   4
ATOM      4  C   UNL     1     -10.194   1.949  -2.709  1.00  0.00     0.041 C 
ATOM      5  O   UNL     1      -9.504   2.945  -3.054  1.00  0.00    -0.550 OA
ATOM      6  O   UNL     1      -9.832   0.679  -3.141  1.00  0.00    -0.550 OA
ENDBRANCH   3   4
ENDBRANCH   2   3
ENDBRANCH   1   2
BRANCH   1   7
ATOM      7  C   UNL     1     -10.309   5.076   0.278  1.00  0.00     0.000 C 
BRANCH   7   8
ATOM      8  C   UNL     1      -9.067   5.162  -0.627  1.00  0.00     0.004 C 
BRANCH   8   9
ATOM      9  C   UNL     1      -7.825   4.558   0.040  1.00  0.00     0.027 C 
BRANCH   9  10
ATOM     10  C   UNL     1      -8.120   4.097   1.442  1.00  0.00    -0.035 C 
ATOM     11  C   UNL     1      -8.062   2.808   1.788  1.00  0.00     0.004 C 
ENDBRANCH   9  10
ENDBRANCH   8   9
ENDBRANCH   7   8
ENDBRANCH   1   7
TORSDOF 7
ENDMDL
MODEL 3
REMARK VINA RESULT:    -3.505      1.765      3.044
REMARK INTER + INTRA:          -5.554
REMARK INTER:                  -4.997
REMARK INTRA:                  -0.556
REMARK UNBOUND:                -0.615
REMARK SMILES C=CCCCCCCC(=O)[O-]
REMARK SMILES IDX 6 1 7 2 8 3 9 4 10 5 11 6 5 7 4 8 3 9 2 10 1 11
REMARK H PARENT
REMARK Flexibility Score: inf
ROOT
ATOM      1  C   UNL     1     -11.282   2.188  -0.537  1.00  0.00     0.000 C 
ENDROOT
BRANCH   1   2
ATOM      2  C   UNL     1     -10.507   1.875  -1.827  1.00  0.00     0.006 C 
BRANCH   2   3
ATOM      3  C   UNL     1     -10.956   2.756  -3.002  1.00  0.00     0.053 C 
BRANCH   3   4
ATOM      4  C   UNL     1      -9.897   3.740  -3.395  1.00  0.00     0.041 C 
ATOM      5  O   UNL     1     -10.163   4.671  -4.200  1.00  0.00    -0.550 OA
ATOM      6  O   UNL     1      -8.623   3.644  -2.849  1.00  0.00    -0.550 OA
ENDBRANCH   3   4
ENDBRANCH   2   3
ENDBRANCH   1   2
BRANCH   1   7
ATOM      7  C   UNL     1     -10.397   2.834   0.541  1.00  0.00     0.000 C 
BRANCH   7   8
ATOM      8  C   UNL     1     -10.293   4.362   0.386  1.00  0.00     0.004 C 
BRANCH   8   9
ATOM      9  C   UNL     1      -8.846   4.820   0.159  1.00  0.00     0.027 C 
BRANCH   9  10
ATOM     10  C   UNL     1      -7.861   3.868   0.783  1.00  0.00    -0.035 C 
ATOM     11  C   UNL     1      -6.614   4.241   1.083  1.00  0.00     0.004 C 
ENDBRANCH   9  10
ENDBRANCH   8   9
ENDBRANCH   7   8
ENDBRANCH   1   7
TORSDOF 7
ENDMDL
MODEL 4
REMARK VINA RESULT:    -3.485      1.790      2.153
REMARK INTER + INTRA:          -5.526
REMARK INTER:                  -4.787
REMARK INTRA:                  -0.739
REMARK UNBOUND:                -0.615
REMARK SMILES C=CCCCCCCC(=O)[O-]
REMARK SMILES IDX 6 1 7 2 8 3 9 4 10 5 11 6 5 7 4 8 3 9 2 10 1 11
REMARK H PARENT
REMARK Flexibility Score: inf
ROOT
ATOM      1  C   UNL     1      -7.895   4.487  -0.096  1.00  0.00     0.000 C 
ENDROOT
BRANCH   1   2
ATOM      2  C   UNL     1      -9.110   5.043  -0.858  1.00  0.00     0.006 C 
BRANCH   2   3
ATOM      3  C   UNL     1      -9.163   4.542  -2.308  1.00  0.00     0.053 C 
BRANCH   3   4
ATOM      4  C   UNL     1     -10.136   3.414  -2.470  1.00  0.00     0.041 C 
ATOM      5  O   UNL     1      -9.758   2.222  -2.318  1.00  0.00    -0.550 OA
ATOM      6  O   UNL     1     -11.467   3.681  -2.763  1.00  0.00    -0.550 OA
ENDBRANCH   3   4
ENDBRANCH   2   3
ENDBRANCH   1   2
BRANCH   1   7
ATOM      7  C   UNL     1      -8.247   3.264   0.765  1.00  0.00     0.000 C 
BRANCH   7   8
ATOM      8  C   UNL     1      -9.040   3.636   2.030  1.00  0.00     0.004 C 
BRANCH   8   9
ATOM      9  C   UNL     1     -10.276   2.748   2.217  1.00  0.00     0.027 C 
BRANCH   9  10
ATOM     10  C   UNL     1     -11.264   2.932   1.096  1.00  0.00    -0.035 C 
ATOM     11  C   UNL     1     -11.902   1.898   0.541  1.00  0.00     0.004 C 
ENDBRANCH   9  10
ENDBRANCH   8   9
ENDBRANCH   7   8
ENDBRANCH   1   7
TORSDOF 7
ENDMDL
MODEL 5
REMARK VINA RESULT:    -3.368     17.032     18.026
REMARK INTER + INTRA:          -5.361
REMARK INTER:                  -4.930
REMARK INTRA:                  -0.431
REMARK UNBOUND:                -0.615
REMARK SMILES C=CCCCCCCC(=O)[O-]
REMARK SMILES IDX 6 1 7 2 8 3 9 4 10 5 11 6 5 7 4 8 3 9 2 10 1 11
REMARK H PARENT
REMARK Flexibility Score: inf
ROOT
ATOM      1  C   UNL     1       6.072  -7.204  -2.809  1.00  0.00     0.000 C 
ENDROOT
BRANCH   1   2
ATOM      2  C   UNL     1       7.162  -6.320  -2.182  1.00  0.00     0.006 C 
BRANCH   2   3
ATOM      3  C   UNL     1       7.619  -5.203  -3.130  1.00  0.00     0.053 C 
BRANCH   3   4
ATOM      4  C   UNL     1       6.874  -3.926  -2.885  1.00  0.00     0.041 C 
ATOM      5  O   UNL     1       7.045  -2.935  -3.643  1.00  0.00    -0.550 OA
ATOM      6  O   UNL     1       5.970  -3.840  -1.834  1.00  0.00    -0.550 OA
ENDBRANCH   3   4
ENDBRANCH   2   3
ENDBRANCH   1   2
BRANCH   1   7
ATOM      7  C   UNL     1       5.079  -7.746  -1.768  1.00  0.00     0.000 C 
BRANCH   7   8
ATOM      8  C   UNL     1       5.195  -7.031  -0.410  1.00  0.00     0.004 C 
BRANCH   8   9
ATOM      9  C   UNL     1       3.836  -6.904   0.291  1.00  0.00     0.027 C 
BRANCH   9  10
ATOM     10  C   UNL     1       2.862  -7.940  -0.200  1.00  0.00    -0.035 C 
ATOM     11  C   UNL     1       2.298  -8.826   0.626  1.00  0.00     0.004 C 
ENDBRANCH   9  10
ENDBRANCH   8   9
ENDBRANCH   7   8
ENDBRANCH   1   7
TORSDOF 7
ENDMDL
MODEL 6
REMARK VINA RESULT:    -3.323     13.297     15.478
REMARK INTER + INTRA:          -5.297
REMARK INTER:                  -4.834
REMARK INTRA:                  -0.463
REMARK UNBOUND:                -0.615
REMARK SMILES C=CCCCCCCC(=O)[O-]
REMARK SMILES IDX 6 1 7 2 8 3 9 4 10 5 11 6 5 7 4 8 3 9 2 10 1 11
REMARK H PARENT
REMARK Flexibility Score: inf
ROOT
ATOM      1  C   UNL     1      -9.760  -4.383 -10.197  1.00  0.00     0.000 C 
ENDROOT
BRANCH   1   2
ATOM      2  C   UNL     1     -10.746  -4.650  -9.047  1.00  0.00     0.006 C 
BRANCH   2   3
ATOM      3  C   UNL     1     -11.340  -6.064  -9.109  1.00  0.00     0.053 C 
BRANCH   3   4
ATOM      4  C   UNL     1     -10.391  -7.089  -8.567  1.00  0.00     0.041 C 
ATOM      5  O   UNL     1     -10.405  -7.381  -7.342  1.00  0.00    -0.550 OA
ATOM      6  O   UNL     1      -9.510  -7.741  -9.420  1.00  0.00    -0.550 OA
ENDBRANCH   3   4
ENDBRANCH   2   3
ENDBRANCH   1   2
BRANCH   1   7
ATOM      7  C   UNL     1     -10.424  -4.486 -11.580  1.00  0.00     0.000 C 
BRANCH   7   8
ATOM      8  C   UNL     1      -9.558  -5.245 -12.599  1.00  0.00     0.004 C 
BRANCH   8   9
ATOM      9  C   UNL     1      -8.280  -5.808 -11.964  1.00  0.00     0.027 C 
BRANCH   9  10
ATOM     10  C   UNL     1      -7.123  -5.772 -12.925  1.00  0.00    -0.035 C 
ATOM     11  C   UNL     1      -7.015  -6.643 -13.933  1.00  0.00     0.004 C 
ENDBRANCH   9  10
ENDBRANCH   8   9
ENDBRANCH   7   8
ENDBRANCH   1   7
TORSDOF 7
ENDMDL
MODEL 7
REMARK VINA RESULT:    -3.306      2.915      5.093
REMARK INTER + INTRA:          -5.273
REMARK INTER:                  -4.550
REMARK INTRA:                  -0.723
REMARK UNBOUND:                -0.615
REMARK SMILES C=CCCCCCCC(=O)[O-]
REMARK SMILES IDX 6 1 7 2 8 3 9 4 10 5 11 6 5 7 4 8 3 9 2 10 1 11
REMARK H PARENT
REMARK Flexibility Score: inf
ROOT
ATOM      1  C   UNL     1     -10.966   4.118  -0.054  1.00  0.00     0.000 C 
ENDROOT
BRANCH   1   2
ATOM      2  C   UNL     1      -9.786   4.856   0.599  1.00  0.00     0.006 C 
BRANCH   2   3
ATOM      3  C   UNL     1      -8.430   4.346   0.091  1.00  0.00     0.053 C 
BRANCH   3   4
ATOM      4  C   UNL     1      -7.566   3.854   1.211  1.00  0.00     0.041 C 
ATOM      5  O   UNL     1      -8.037   3.075   2.081  1.00  0.00    -0.550 OA
ATOM      6  O   UNL     1      -6.232   4.234   1.279  1.00  0.00    -0.550 OA
ENDBRANCH   3   4
ENDBRANCH   2   3
ENDBRANCH   1   2
BRANCH   1   7
ATOM      7  C   UNL     1     -10.733   2.602  -0.149  1.00  0.00     0.000 C 
BRANCH   7   8
ATOM      8  C   UNL     1     -10.986   2.050  -1.563  1.00  0.00     0.004 C 
BRANCH   8   9
ATOM      9  C   UNL     1     -11.454   3.143  -2.533  1.00  0.00     0.027 C 
BRANCH   9  10
ATOM     10  C   UNL     1     -10.438   3.395  -3.614  1.00  0.00    -0.035 C 
ATOM     11  C   UNL     1      -9.446   4.276  -3.459  1.00  0.00     0.004 C 
ENDBRANCH   9  10
ENDBRANCH   8   9
ENDBRANCH   7   8
ENDBRANCH   1   7
TORSDOF 7
ENDMDL
MODEL 8
REMARK VINA RESULT:    -3.265     17.045     18.253
REMARK INTER + INTRA:          -5.216
REMARK INTER:                  -4.531
REMARK INTRA:                  -0.685
REMARK UNBOUND:                -0.615
REMARK SMILES C=CCCCCCCC(=O)[O-]
REMARK SMILES IDX 6 1 7 2 8 3 9 4 10 5 11 6 5 7 4 8 3 9 2 10 1 11
REMARK H PARENT
REMARK Flexibility Score: inf
ROOT
ATOM      1  C   UNL     1       5.153  -7.766  -2.134  1.00  0.00     0.000 C 
ENDROOT
BRANCH   1   2
ATOM      2  C   UNL     1       6.627  -7.433  -1.848  1.00  0.00     0.006 C 
BRANCH   2   3
ATOM      3  C   UNL     1       6.784  -6.116  -1.075  1.00  0.00     0.053 C 
BRANCH   3   4
ATOM      4  C   UNL     1       6.690  -4.926  -1.981  1.00  0.00     0.041 C 
ATOM      5  O   UNL     1       5.914  -3.975  -1.702  1.00  0.00    -0.550 OA
ATOM      6  O   UNL     1       7.482  -4.855  -3.120  1.00  0.00    -0.550 OA
ENDBRANCH   3   4
ENDBRANCH   2   3
ENDBRANCH   1   2
BRANCH   1   7
ATOM      7  C   UNL     1       4.764  -9.175  -1.660  1.00  0.00     0.000 C 
BRANCH   7   8
ATOM      8  C   UNL     1       3.820  -9.153  -0.445  1.00  0.00     0.004 C 
BRANCH   8   9
ATOM      9  C   UNL     1       3.279  -7.745  -0.162  1.00  0.00     0.027 C 
BRANCH   9  10
ATOM     10  C   UNL     1       3.423  -7.380   1.291  1.00  0.00    -0.035 C 
ATOM     11  C   UNL     1       4.556  -6.868   1.780  1.00  0.00     0.004 C 
ENDBRANCH   9  10
ENDBRANCH   8   9
ENDBRANCH   7   8
ENDBRANCH   1   7
TORSDOF 7
ENDMDL
MODEL 9
REMARK VINA RESULT:    -3.251     13.417     14.893
REMARK INTER + INTRA:          -5.196
REMARK INTER:                  -4.385
REMARK INTRA:                  -0.812
REMARK UNBOUND:                -0.615
REMARK SMILES C=CCCCCCCC(=O)[O-]
REMARK SMILES IDX 6 1 7 2 8 3 9 4 10 5 11 6 5 7 4 8 3 9 2 10 1 11
REMARK H PARENT
REMARK Flexibility Score: inf
ROOT
ATOM      1  C   UNL     1     -10.268  -4.378  -9.330  1.00  0.00     0.000 C 
ENDROOT
BRANCH   1   2
ATOM      2  C   UNL     1      -9.504  -4.026 -10.617  1.00  0.00     0.006 C 
BRANCH   2   3
ATOM      3  C   UNL     1      -9.835  -4.986 -11.769  1.00  0.00     0.053 C 
BRANCH   3   4
ATOM      4  C   UNL     1      -8.675  -5.874 -12.102  1.00  0.00     0.041 C 
ATOM      5  O   UNL     1      -8.867  -6.991 -12.650  1.00  0.00    -0.550 OA
ATOM      6  O   UNL     1      -7.378  -5.455 -11.831  1.00  0.00    -0.550 OA
ENDBRANCH   3   4
ENDBRANCH   2   3
ENDBRANCH   1   2
BRANCH   1   7
ATOM      7  C   UNL     1     -11.585  -5.120  -9.610  1.00  0.00     0.000 C 
BRANCH   7   8
ATOM      8  C   UNL     1     -11.689  -6.452  -8.848  1.00  0.00     0.004 C 
BRANCH   8   9
ATOM      9  C   UNL     1     -10.328  -6.921  -8.318  1.00  0.00     0.027 C 
BRANCH   9  10
ATOM     10  C   UNL     1      -9.759  -8.030  -9.162  1.00  0.00    -0.035 C 
ATOM     11  C   UNL     1     -10.510  -8.710 -10.032  1.00  0.00     0.004 C 
ENDBRANCH   9  10
ENDBRANCH   8   9
ENDBRANCH   7   8
ENDBRANCH   1   7
TORSDOF 7
ENDMDL
