MODEL 1
REMARK VINA RESULT:    -3.189      0.000      0.000
REMARK INTER + INTRA:          -9.818
REMARK INTER:                  -6.917
REMARK INTRA:                  -2.901
REMARK UNBOUND:                -2.901
REMARK SMILES CCCCCCCCCCCCCCCCCCCCCC(=O)[O-]
REMARK SMILES IDX 12 1 11 2 10 3 9 4 8 5 7 6 6 7 5 8 4 9 3 10 2 11 1 12 13 13
REMARK SMILES IDX 14 14 15 15 16 16 17 17 18 18 19 19 20 20 21 21 22 22 23 23
REMARK SMILES IDX 24 24
REMARK H PARENT
REMARK Flexibility Score: inf
ROOT
ATOM      1  C   UNL     1       3.136   2.867  15.375  1.00  0.00     0.000 C 
ENDROOT
BRANCH   1   2
ATOM      2  C   UNL     1       4.106   3.830  14.668  1.00  0.00     0.000 C 
BRANCH   2   3
ATOM      3  C   UNL     1       4.269   3.526  13.170  1.00  0.00     0.000 C 
BRANCH   3   4
ATOM      4  C   UNL     1       4.527   2.035  12.896  1.00  0.00    -0.000 C 
BRANCH   4   5
ATOM      5  C   UNL     1       6.004   1.645  13.084  1.00  0.00    -0.000 C 
BRANCH   5   6
ATOM      6  C   UNL     1       6.209   0.114  13.071  1.00  0.00    -0.000 C 
BRANCH   6   7
ATOM      7  C   UNL     1       4.905  -0.685  12.877  1.00  0.00    -0.000 C 
BRANCH   7   8
ATOM      8  C   UNL     1       4.773  -1.929  13.772  1.00  0.00    -0.000 C 
BRANCH   8   9
ATOM      9  C   UNL     1       3.413  -2.007  14.487  1.00  0.00    -0.000 C 
BRANCH   9  10
ATOM     10  C   UNL     1       2.502  -0.810  14.136  1.00  0.00    -0.000 C 
BRANCH  10  11
ATOM     11  C   UNL     1       1.638  -0.328  15.313  1.00  0.00    -0.003 C 
ATOM     12  C   UNL     1       0.170  -0.134  14.939  1.00  0.00     0.004 C 
ENDBRANCH  10  11
ENDBRANCH   9  10
ENDBRANCH   8   9
ENDBRANCH   7   8
ENDBRANCH   6   7
ENDBRANCH   5   6
ENDBRANCH   4   5
ENDBRANCH   3   4
ENDBRANCH   2   3
ENDBRANCH   1   2
BRANCH   1  13
ATOM     13  C   UNL     1       3.781   1.934  16.418  1.00  0.00     0.000 C 
BRANCH  13  14
ATOM     14  C   UNL     1       5.306   2.089  16.501  1.00  0.00     0.000 C 
BRANCH  14  15
ATOM     15  C   UNL     1       5.996   0.717  16.544  1.00  0.00     0.000 C 
BRANCH  15  16
ATOM     16  C   UNL     1       5.021  -0.438  16.839  1.00  0.00     0.000 C 
BRANCH  16  17
ATOM     17  C   UNL     1       5.474  -1.409  17.945  1.00  0.00     0.000 C 
BRANCH  17  18
ATOM     18  C   UNL     1       6.280  -0.713  19.056  1.00  0.00     0.000 C 
BRANCH  18  19
ATOM     19  C   UNL     1       5.395   0.072  20.039  1.00  0.00     0.000 C 
BRANCH  19  20
ATOM     20  C   UNL     1       3.914   0.213  19.631  1.00  0.00     0.006 C 
BRANCH  20  21
ATOM     21  C   UNL     1       3.320   1.611  19.887  1.00  0.00     0.053 C 
BRANCH  21  22
ATOM     22  C   UNL     1       1.828   1.642  19.735  1.00  0.00     0.041 C 
ATOM     23  O   UNL     1       1.085   1.346  20.708  1.00  0.00    -0.550 OA
ATOM     24  O   UNL     1       1.258   2.040  18.531  1.00  0.00    -0.550 OA
ENDBRANCH  21  22
ENDBRANCH  20  21
ENDBRANCH  19  20
ENDBRANCH  18  19
ENDBRANCH  17  18
ENDBRANCH  16  17
ENDBRANCH  15  16
ENDBRANCH  14  15
ENDBRANCH  13  14
ENDBRANCH   1  13
TORSDOF 20
ENDMDL
MODEL 2
REMARK VINA RESULT:    -2.453      1.169      2.795
REMARK INTER + INTRA:          -8.222
REMARK INTER:                  -6.056
REMARK INTRA:                  -2.166
REMARK UNBOUND:                -2.901
REMARK SMILES CCCCCCCCCCCCCCCCCCCCCC(=O)[O-]
REMARK SMILES IDX 12 1 11 2 10 3 9 4 8 5 7 6 6 7 5 8 4 9 3 10 2 11 1 12 13 13
REMARK SMILES IDX 14 14 15 15 16 16 17 17 18 18 19 19 20 20 21 21 22 22 23 23
REMARK SMILES IDX 24 24
REMARK H PARENT
REMARK Flexibility Score: inf
ROOT
ATOM      1  C   UNL     1       5.565   0.849  14.117  1.00  0.00     0.000 C 
ENDROOT
BRANCH   1   2
ATOM      2  C   UNL     1       5.846   1.929  13.057  1.00  0.00     0.000 C 
BRANCH   2   3
ATOM      3  C   UNL     1       4.715   2.964  12.940  1.00  0.00     0.000 C 
BRANCH   3   4
ATOM      4  C   UNL     1       4.776   4.030  14.046  1.00  0.00    -0.000 C 
BRANCH   4   5
ATOM      5  C   UNL     1       3.619   3.905  15.054  1.00  0.00    -0.000 C 
BRANCH   5   6
ATOM      6  C   UNL     1       2.716   2.688  14.757  1.00  0.00    -0.000 C 
BRANCH   6   7
ATOM      7  C   UNL     1       2.871   1.538  15.771  1.00  0.00    -0.000 C 
BRANCH   7   8
ATOM      8  C   UNL     1       1.607   0.687  15.980  1.00  0.00    -0.000 C 
BRANCH   8   9
ATOM      9  C   UNL     1       1.054   0.109  14.665  1.00  0.00    -0.000 C 
BRANCH   9  10
ATOM     10  C   UNL     1       0.963  -1.433  14.701  1.00  0.00    -0.000 C 
BRANCH  10  11
ATOM     11  C   UNL     1       2.325  -2.125  14.878  1.00  0.00    -0.003 C 
ATOM     12  C   UNL     1       3.226  -1.995  13.651  1.00  0.00     0.004 C 
ENDBRANCH  10  11
ENDBRANCH   9  10
ENDBRANCH   8   9
ENDBRANCH   7   8
ENDBRANCH   6   7
ENDBRANCH   5   6
ENDBRANCH   4   5
ENDBRANCH   3   4
ENDBRANCH   2   3
ENDBRANCH   1   2
BRANCH   1  13
ATOM     13  C   UNL     1       6.233  -0.514  13.856  1.00  0.00     0.000 C 
BRANCH  13  14
ATOM     14  C   UNL     1       7.004  -1.049  15.071  1.00  0.00     0.000 C 
BRANCH  14  15
ATOM     15  C   UNL     1       6.185  -2.112  15.818  1.00  0.00     0.000 C 
BRANCH  15  16
ATOM     16  C   UNL     1       5.257  -1.514  16.891  1.00  0.00     0.000 C 
BRANCH  16  17
ATOM     17  C   UNL     1       5.868  -1.412  18.300  1.00  0.00     0.000 C 
BRANCH  17  18
ATOM     18  C   UNL     1       5.177  -0.350  19.174  1.00  0.00     0.000 C 
BRANCH  18  19
ATOM     19  C   UNL     1       4.796   0.918  18.389  1.00  0.00     0.000 C 
BRANCH  19  20
ATOM     20  C   UNL     1       3.942   1.944  19.160  1.00  0.00     0.006 C 
BRANCH  20  21
ATOM     21  C   UNL     1       2.907   1.315  20.112  1.00  0.00     0.053 C 
BRANCH  21  22
ATOM     22  C   UNL     1       1.548   1.936  19.980  1.00  0.00     0.041 C 
ATOM     23  O   UNL     1       0.976   2.432  20.986  1.00  0.00    -0.550 OA
ATOM     24  O   UNL     1       0.931   2.004  18.736  1.00  0.00    -0.550 OA
ENDBRANCH  21  22
ENDBRANCH  20  21
ENDBRANCH  19  20
ENDBRANCH  18  19
ENDBRANCH  17  18
ENDBRANCH  16  17
ENDBRANCH  15  16
ENDBRANCH  14  15
ENDBRANCH  13  14
ENDBRANCH   1  13
TORSDOF 20
ENDMDL
MODEL 3
REMARK VINA RESULT:    -1.842      1.823      4.554
REMARK INTER + INTRA:          -6.896
REMARK INTER:                  -4.368
REMARK INTRA:                  -2.527
REMARK UNBOUND:                -2.901
REMARK SMILES CCCCCCCCCCCCCCCCCCCCCC(=O)[O-]
REMARK SMILES IDX 12 1 11 2 10 3 9 4 8 5 7 6 6 7 5 8 4 9 3 10 2 11 1 12 13 13
REMARK SMILES IDX 14 14 15 15 16 16 17 17 18 18 19 19 20 20 21 21 22 22 23 23
REMARK SMILES IDX 24 24
REMARK H PARENT
REMARK Flexibility Score: inf
ROOT
ATOM      1  C   UNL     1       6.249  -0.754  16.480  1.00  0.00     0.000 C 
ENDROOT
BRANCH   1   2
ATOM      2  C   UNL     1       5.804  -2.125  15.942  1.00  0.00     0.000 C 
BRANCH   2   3
ATOM      3  C   UNL     1       4.444  -2.077  15.227  1.00  0.00     0.000 C 
BRANCH   3   4
ATOM      4  C   UNL     1       4.584  -1.861  13.710  1.00  0.00    -0.000 C 
BRANCH   4   5
ATOM      5  C   UNL     1       6.042  -1.966  13.228  1.00  0.00    -0.000 C 
BRANCH   5   6
ATOM      6  C   UNL     1       6.641  -0.587  12.876  1.00  0.00    -0.000 C 
BRANCH   6   7
ATOM      7  C   UNL     1       5.614   0.562  12.910  1.00  0.00    -0.000 C 
BRANCH   7   8
ATOM      8  C   UNL     1       6.177   1.917  13.372  1.00  0.00    -0.000 C 
BRANCH   8   9
ATOM      9  C   UNL     1       5.228   3.091  13.073  1.00  0.00    -0.000 C 
BRANCH   9  10
ATOM     10  C   UNL     1       4.573   3.650  14.355  1.00  0.00    -0.000 C 
BRANCH  10  11
ATOM     11  C   UNL     1       3.037   3.704  14.288  1.00  0.00    -0.003 C 
ATOM     12  C   UNL     1       2.518   4.722  13.275  1.00  0.00     0.004 C 
ENDBRANCH  10  11
ENDBRANCH   9  10
ENDBRANCH   8   9
ENDBRANCH   7   8
ENDBRANCH   6   7
ENDBRANCH   5   6
ENDBRANCH   4   5
ENDBRANCH   3   4
ENDBRANCH   2   3
ENDBRANCH   1   2
BRANCH   1  13
ATOM     13  C   UNL     1       6.644  -0.730  17.969  1.00  0.00     0.000 C 
BRANCH  13  14
ATOM     14  C   UNL     1       5.662  -1.499  18.865  1.00  0.00     0.000 C 
BRANCH  14  15
ATOM     15  C   UNL     1       4.459  -0.621  19.241  1.00  0.00     0.000 C 
BRANCH  15  16
ATOM     16  C   UNL     1       4.868   0.750  19.810  1.00  0.00     0.000 C 
BRANCH  16  17
ATOM     17  C   UNL     1       4.023   1.940  19.319  1.00  0.00     0.000 C 
BRANCH  17  18
ATOM     18  C   UNL     1       4.069   2.114  17.791  1.00  0.00     0.000 C 
BRANCH  18  19
ATOM     19  C   UNL     1       2.819   1.561  17.086  1.00  0.00     0.000 C 
BRANCH  19  20
ATOM     20  C   UNL     1       3.082   0.472  16.026  1.00  0.00     0.006 C 
BRANCH  20  21
ATOM     21  C   UNL     1       2.235   0.619  14.748  1.00  0.00     0.053 C 
BRANCH  21  22
ATOM     22  C   UNL     1       1.045  -0.293  14.734  1.00  0.00     0.041 C 
ATOM     23  O   UNL     1       1.126  -1.435  14.210  1.00  0.00    -0.550 OA
ATOM     24  O   UNL     1      -0.143   0.102  15.340  1.00  0.00    -0.550 OA
ENDBRANCH  21  22
ENDBRANCH  20  21
ENDBRANCH  19  20
ENDBRANCH  18  19
ENDBRANCH  17  18
ENDBRANCH  16  17
ENDBRANCH  15  16
ENDBRANCH  14  15
ENDBRANCH  13  14
ENDBRANCH   1  13
TORSDOF 20
ENDMDL
MODEL 4
REMARK VINA RESULT:    -1.710      1.619      5.163
REMARK INTER + INTRA:          -6.610
REMARK INTER:                  -5.690
REMARK INTRA:                  -0.920
REMARK UNBOUND:                -2.901
REMARK SMILES CCCCCCCCCCCCCCCCCCCCCC(=O)[O-]
REMARK SMILES IDX 12 1 11 2 10 3 9 4 8 5 7 6 6 7 5 8 4 9 3 10 2 11 1 12 13 13
REMARK SMILES IDX 14 14 15 15 16 16 17 17 18 18 19 19 20 20 21 21 22 22 23 23
REMARK SMILES IDX 24 24
REMARK H PARENT
REMARK Flexibility Score: inf
ROOT
ATOM      1  C   UNL     1       3.203   2.361  15.718  1.00  0.00     0.000 C 
ENDROOT
BRANCH   1   2
ATOM      2  C   UNL     1       4.207   2.210  16.874  1.00  0.00     0.000 C 
BRANCH   2   3
ATOM      3  C   UNL     1       5.644   1.955  16.392  1.00  0.00     0.000 C 
BRANCH   3   4
ATOM      4  C   UNL     1       6.108   0.513  16.659  1.00  0.00    -0.000 C 
BRANCH   4   5
ATOM      5  C   UNL     1       4.936  -0.442  16.949  1.00  0.00    -0.000 C 
BRANCH   5   6
ATOM      6  C   UNL     1       5.357  -1.625  17.847  1.00  0.00    -0.000 C 
BRANCH   6   7
ATOM      7  C   UNL     1       6.409  -1.253  18.911  1.00  0.00    -0.000 C 
BRANCH   7   8
ATOM      8  C   UNL     1       5.980  -0.141  19.882  1.00  0.00    -0.000 C 
BRANCH   8   9
ATOM      9  C   UNL     1       4.452   0.032  19.952  1.00  0.00    -0.000 C 
BRANCH   9  10
ATOM     10  C   UNL     1       4.029   1.513  19.838  1.00  0.00    -0.000 C 
BRANCH  10  11
ATOM     11  C   UNL     1       2.557   1.703  19.434  1.00  0.00    -0.003 C 
ATOM     12  C   UNL     1       1.591   1.571  20.609  1.00  0.00     0.004 C 
ENDBRANCH  10  11
ENDBRANCH   9  10
ENDBRANCH   8   9
ENDBRANCH   7   8
ENDBRANCH   6   7
ENDBRANCH   5   6
ENDBRANCH   4   5
ENDBRANCH   3   4
ENDBRANCH   2   3
ENDBRANCH   1   2
BRANCH   1  13
ATOM     13  C   UNL     1       3.356   3.644  14.880  1.00  0.00     0.000 C 
BRANCH  13  14
ATOM     14  C   UNL     1       4.745   3.786  14.243  1.00  0.00     0.000 C 
BRANCH  14  15
ATOM     15  C   UNL     1       4.798   3.087  12.877  1.00  0.00     0.000 C 
BRANCH  15  16
ATOM     16  C   UNL     1       4.800   1.551  12.986  1.00  0.00     0.000 C 
BRANCH  16  17
ATOM     17  C   UNL     1       6.187   0.890  12.884  1.00  0.00     0.000 C 
BRANCH  17  18
ATOM     18  C   UNL     1       6.203  -0.547  13.432  1.00  0.00     0.000 C 
BRANCH  18  19
ATOM     19  C   UNL     1       5.063  -1.416  12.875  1.00  0.00     0.000 C 
BRANCH  19  20
ATOM     20  C   UNL     1       3.973  -1.812  13.891  1.00  0.00     0.006 C 
BRANCH  20  21
ATOM     21  C   UNL     1       2.591  -1.193  13.607  1.00  0.00     0.053 C 
BRANCH  21  22
ATOM     22  C   UNL     1       1.797  -0.953  14.856  1.00  0.00     0.041 C 
ATOM     23  O   UNL     1       2.150  -1.479  15.945  1.00  0.00    -0.550 OA
ATOM     24  O   UNL     1       0.689  -0.114  14.828  1.00  0.00    -0.550 OA
ENDBRANCH  21  22
ENDBRANCH  20  21
ENDBRANCH  19  20
ENDBRANCH  18  19
ENDBRANCH  17  18
ENDBRANCH  16  17
ENDBRANCH  15  16
ENDBRANCH  14  15
ENDBRANCH  13  14
ENDBRANCH   1  13
TORSDOF 20
ENDMDL
MODEL 5
REMARK VINA RESULT:    -1.625      1.490      3.380
REMARK INTER + INTRA:          -6.427
REMARK INTER:                  -4.452
REMARK INTRA:                  -1.975
REMARK UNBOUND:                -2.901
REMARK SMILES CCCCCCCCCCCCCCCCCCCCCC(=O)[O-]
REMARK SMILES IDX 12 1 11 2 10 3 9 4 8 5 7 6 6 7 5 8 4 9 3 10 2 11 1 12 13 13
REMARK SMILES IDX 14 14 15 15 16 16 17 17 18 18 19 19 20 20 21 21 22 22 23 23
REMARK SMILES IDX 24 24
REMARK H PARENT
REMARK Flexibility Score: inf
ROOT
ATOM      1  C   UNL     1       5.910   1.430  14.403  1.00  0.00     0.000 C 
ENDROOT
BRANCH   1   2
ATOM      2  C   UNL     1       5.505   2.912  14.309  1.00  0.00     0.000 C 
BRANCH   2   3
ATOM      3  C   UNL     1       4.791   3.257  12.993  1.00  0.00     0.000 C 
BRANCH   3   4
ATOM      4  C   UNL     1       3.683   4.306  13.181  1.00  0.00    -0.000 C 
BRANCH   4   5
ATOM      5  C   UNL     1       3.045   4.251  14.581  1.00  0.00    -0.000 C 
BRANCH   5   6
ATOM      6  C   UNL     1       2.296   2.923  14.828  1.00  0.00    -0.000 C 
BRANCH   6   7
ATOM      7  C   UNL     1       2.866   2.097  15.997  1.00  0.00    -0.000 C 
BRANCH   7   8
ATOM      8  C   UNL     1       1.985   0.917  16.443  1.00  0.00    -0.000 C 
BRANCH   8   9
ATOM      9  C   UNL     1       1.237   0.256  15.272  1.00  0.00    -0.000 C 
BRANCH   9  10
ATOM     10  C   UNL     1       1.642  -1.223  15.085  1.00  0.00    -0.000 C 
BRANCH  10  11
ATOM     11  C   UNL     1       2.418  -1.489  13.784  1.00  0.00    -0.003 C 
ATOM     12  C   UNL     1       2.914  -0.211  13.112  1.00  0.00     0.004 C 
ENDBRANCH  10  11
ENDBRANCH   9  10
ENDBRANCH   8   9
ENDBRANCH   7   8
ENDBRANCH   6   7
ENDBRANCH   5   6
ENDBRANCH   4   5
ENDBRANCH   3   4
ENDBRANCH   2   3
ENDBRANCH   1   2
BRANCH   1  13
ATOM     13  C   UNL     1       6.116   0.720  13.051  1.00  0.00     0.000 C 
BRANCH  13  14
ATOM     14  C   UNL     1       7.250  -0.314  13.080  1.00  0.00     0.000 C 
BRANCH  14  15
ATOM     15  C   UNL     1       6.703  -1.735  12.884  1.00  0.00     0.000 C 
BRANCH  15  16
ATOM     16  C   UNL     1       5.647  -2.125  13.935  1.00  0.00     0.000 C 
BRANCH  16  17
ATOM     17  C   UNL     1       6.136  -2.098  15.394  1.00  0.00     0.000 C 
BRANCH  17  18
ATOM     18  C   UNL     1       5.052  -1.623  16.378  1.00  0.00     0.000 C 
BRANCH  18  19
ATOM     19  C   UNL     1       5.549  -0.527  17.336  1.00  0.00     0.000 C 
BRANCH  19  20
ATOM     20  C   UNL     1       6.172  -1.030  18.654  1.00  0.00     0.006 C 
BRANCH  20  21
ATOM     21  C   UNL     1       5.781  -0.202  19.892  1.00  0.00     0.053 C 
BRANCH  21  22
ATOM     22  C   UNL     1       4.460   0.489  19.733  1.00  0.00     0.041 C 
ATOM     23  O   UNL     1       3.451   0.086  20.370  1.00  0.00    -0.550 OA
ATOM     24  O   UNL     1       4.352   1.606  18.912  1.00  0.00    -0.550 OA
ENDBRANCH  21  22
ENDBRANCH  20  21
ENDBRANCH  19  20
ENDBRANCH  18  19
ENDBRANCH  17  18
ENDBRANCH  16  17
ENDBRANCH  15  16
ENDBRANCH  14  15
ENDBRANCH  13  14
ENDBRANCH   1  13
TORSDOF 20
ENDMDL
