MODEL 1
REMARK VINA RESULT:    -3.602      0.000      0.000
REMARK INTER + INTRA:          -5.494
REMARK INTER:                  -4.866
REMARK INTRA:                  -0.628
REMARK UNBOUND:                -0.628
REMARK SMILES CCCCCCCC(=O)[O-]
REMARK SMILES IDX 5 1 6 2 7 3 8 4 9 5 10 6 4 7 3 8 2 9 1 10
REMARK H PARENT
REMARK Flexibility Score: inf
ROOT
ATOM      1  C   UNL     1      -9.561 -11.826  15.141  1.00  0.00     0.000 C 
ENDROOT
BRANCH   1   2
ATOM      2  C   UNL     1      -8.678 -11.827  16.393  1.00  0.00     0.006 C 
BRANCH   2   3
ATOM      3  C   UNL     1      -9.454 -12.330  17.614  1.00  0.00     0.053 C 
BRANCH   3   4
ATOM      4  C   UNL     1     -10.510 -11.347  18.007  1.00  0.00     0.041 C 
ATOM      5  O   UNL     1     -11.696 -11.729  18.189  1.00  0.00    -0.550 OA
ATOM      6  O   UNL     1     -10.196  -9.999  18.122  1.00  0.00    -0.550 OA
ENDBRANCH   3   4
ENDBRANCH   2   3
ENDBRANCH   1   2
BRANCH   1   7
ATOM      7  C   UNL     1      -9.525 -13.188  14.438  1.00  0.00     0.000 C 
BRANCH   7   8
ATOM      8  C   UNL     1     -10.929 -13.608  13.978  1.00  0.00    -0.000 C 
BRANCH   8   9
ATOM      9  C   UNL     1     -11.990 -13.419  15.073  1.00  0.00    -0.003 C 
ATOM     10  C   UNL     1     -12.020 -14.574  16.074  1.00  0.00     0.004 C 
ENDBRANCH   8   9
ENDBRANCH   7   8
ENDBRANCH   1   7
TORSDOF 6
ENDMDL
MODEL 2
REMARK VINA RESULT:    -3.601      2.488      4.203
REMARK INTER + INTRA:          -5.493
REMARK INTER:                  -4.931
REMARK INTRA:                  -0.561
REMARK UNBOUND:                -0.628
REMARK SMILES CCCCCCCC(=O)[O-]
REMARK SMILES IDX 5 1 6 2 7 3 8 4 9 5 10 6 4 7 3 8 2 9 1 10
REMARK H PARENT
REMARK Flexibility Score: inf
ROOT
ATOM      1  C   UNL     1     -11.681 -14.172  16.327  1.00  0.00     0.000 C 
ENDROOT
BRANCH   1   2
ATOM      2  C   UNL     1     -12.180 -13.615  14.989  1.00  0.00     0.006 C 
BRANCH   2   3
ATOM      3  C   UNL     1     -11.171 -13.884  13.869  1.00  0.00     0.053 C 
BRANCH   3   4
ATOM      4  C   UNL     1      -9.891 -13.157  14.131  1.00  0.00     0.041 C 
ATOM      5  O   UNL     1      -8.786 -13.741  13.970  1.00  0.00    -0.550 OA
ATOM      6  O   UNL     1      -9.916 -11.851  14.602  1.00  0.00    -0.550 OA
ENDBRANCH   3   4
ENDBRANCH   2   3
ENDBRANCH   1   2
BRANCH   1   7
ATOM      7  C   UNL     1     -11.543 -13.058  17.371  1.00  0.00     0.000 C 
BRANCH   7   8
ATOM      8  C   UNL     1     -10.163 -13.101  18.042  1.00  0.00    -0.000 C 
BRANCH   8   9
ATOM      9  C   UNL     1      -9.344 -14.334  17.632  1.00  0.00    -0.003 C 
ATOM     10  C   UNL     1      -7.879 -14.005  17.348  1.00  0.00     0.004 C 
ENDBRANCH   8   9
ENDBRANCH   7   8
ENDBRANCH   1   7
TORSDOF 6
ENDMDL
MODEL 3
REMARK VINA RESULT:    -3.582      1.746      2.762
REMARK INTER + INTRA:          -5.466
REMARK INTER:                  -4.868
REMARK INTRA:                  -0.598
REMARK UNBOUND:                -0.628
REMARK SMILES CCCCCCCC(=O)[O-]
REMARK SMILES IDX 5 1 6 2 7 3 8 4 9 5 10 6 4 7 3 8 2 9 1 10
REMARK H PARENT
REMARK Flexibility Score: inf
ROOT
ATOM      1  C   UNL     1     -11.678 -12.668  17.648  1.00  0.00     0.000 C 
ENDROOT
BRANCH   1   2
ATOM      2  C   UNL     1     -10.549 -11.637  17.762  1.00  0.00     0.006 C 
BRANCH   2   3
ATOM      3  C   UNL     1      -9.261 -12.159  17.119  1.00  0.00     0.053 C 
BRANCH   3   4
ATOM      4  C   UNL     1      -8.888 -11.321  15.937  1.00  0.00     0.041 C 
ATOM      5  O   UNL     1      -9.763 -10.638  15.342  1.00  0.00    -0.550 OA
ATOM      6  O   UNL     1      -7.584 -11.332  15.461  1.00  0.00    -0.550 OA
ENDBRANCH   3   4
ENDBRANCH   2   3
ENDBRANCH   1   2
BRANCH   1   7
ATOM      7  C   UNL     1     -11.162 -13.990  17.069  1.00  0.00     0.000 C 
BRANCH   7   8
ATOM      8  C   UNL     1     -12.093 -14.508  15.963  1.00  0.00    -0.000 C 
BRANCH   8   9
ATOM      9  C   UNL     1     -12.160 -13.560  14.755  1.00  0.00    -0.003 C 
ATOM     10  C   UNL     1     -10.966 -13.715  13.814  1.00  0.00     0.004 C 
ENDBRANCH   8   9
ENDBRANCH   7   8
ENDBRANCH   1   7
TORSDOF 6
ENDMDL
MODEL 4
REMARK VINA RESULT:    -3.532      1.844      2.313
REMARK INTER + INTRA:          -5.399
REMARK INTER:                  -4.801
REMARK INTRA:                  -0.598
REMARK UNBOUND:                -0.628
REMARK SMILES CCCCCCCC(=O)[O-]
REMARK SMILES IDX 5 1 6 2 7 3 8 4 9 5 10 6 4 7 3 8 2 9 1 10
REMARK H PARENT
REMARK Flexibility Score: inf
ROOT
ATOM      1  C   UNL     1      -9.036 -11.375  15.748  1.00  0.00     0.000 C 
ENDROOT
BRANCH   1   2
ATOM      2  C   UNL     1      -9.486 -11.092  17.186  1.00  0.00     0.006 C 
BRANCH   2   3
ATOM      3  C   UNL     1     -10.305 -12.259  17.746  1.00  0.00     0.053 C 
BRANCH   3   4
ATOM      4  C   UNL     1      -9.429 -13.448  17.985  1.00  0.00     0.041 C 
ATOM      5  O   UNL     1      -8.459 -13.370  18.785  1.00  0.00    -0.550 OA
ATOM      6  O   UNL     1      -9.651 -14.627  17.286  1.00  0.00    -0.550 OA
ENDBRANCH   3   4
ENDBRANCH   2   3
ENDBRANCH   1   2
BRANCH   1   7
ATOM      7  C   UNL     1     -10.227 -11.764  14.864  1.00  0.00     0.000 C 
BRANCH   7   8
ATOM      8  C   UNL     1      -9.933 -13.051  14.080  1.00  0.00    -0.000 C 
BRANCH   8   9
ATOM      9  C   UNL     1     -11.190 -13.907  13.857  1.00  0.00    -0.003 C 
ATOM     10  C   UNL     1     -12.257 -13.683  14.928  1.00  0.00     0.004 C 
ENDBRANCH   8   9
ENDBRANCH   7   8
ENDBRANCH   1   7
TORSDOF 6
ENDMDL
MODEL 5
REMARK VINA RESULT:    -3.503      2.233      3.808
REMARK INTER + INTRA:          -5.360
REMARK INTER:                  -4.755
REMARK INTRA:                  -0.605
REMARK UNBOUND:                -0.628
REMARK SMILES CCCCCCCC(=O)[O-]
REMARK SMILES IDX 5 1 6 2 7 3 8 4 9 5 10 6 4 7 3 8 2 9 1 10
REMARK H PARENT
REMARK Flexibility Score: inf
ROOT
ATOM      1  C   UNL     1     -10.068 -11.855  14.974  1.00  0.00     0.000 C 
ENDROOT
BRANCH   1   2
ATOM      2  C   UNL     1     -10.521 -13.139  14.269  1.00  0.00     0.006 C 
BRANCH   2   3
ATOM      3  C   UNL     1     -11.921 -13.555  14.731  1.00  0.00     0.053 C 
BRANCH   3   4
ATOM      4  C   UNL     1     -11.835 -14.663  15.732  1.00  0.00     0.041 C 
ATOM      5  O   UNL     1     -10.712 -15.100  16.100  1.00  0.00    -0.550 OA
ATOM      6  O   UNL     1     -12.995 -15.248  16.223  1.00  0.00    -0.550 OA
ENDBRANCH   3   4
ENDBRANCH   2   3
ENDBRANCH   1   2
BRANCH   1   7
ATOM      7  C   UNL     1      -8.865 -12.121  15.886  1.00  0.00     0.000 C 
BRANCH   7   8
ATOM      8  C   UNL     1      -9.281 -12.103  17.364  1.00  0.00    -0.000 C 
BRANCH   8   9
ATOM      9  C   UNL     1     -10.472 -11.171  17.632  1.00  0.00    -0.003 C 
ATOM     10  C   UNL     1     -11.697 -11.913  18.166  1.00  0.00     0.004 C 
ENDBRANCH   8   9
ENDBRANCH   7   8
ENDBRANCH   1   7
TORSDOF 6
ENDMDL
MODEL 6
REMARK VINA RESULT:    -3.471      1.231      1.898
REMARK INTER + INTRA:          -5.316
REMARK INTER:                  -4.706
REMARK INTRA:                  -0.610
REMARK UNBOUND:                -0.628
REMARK SMILES CCCCCCCC(=O)[O-]
REMARK SMILES IDX 5 1 6 2 7 3 8 4 9 5 10 6 4 7 3 8 2 9 1 10
REMARK H PARENT
REMARK Flexibility Score: inf
ROOT
ATOM      1  C   UNL     1     -10.090 -12.450  14.869  1.00  0.00     0.000 C 
ENDROOT
BRANCH   1   2
ATOM      2  C   UNL     1     -10.044 -11.019  15.417  1.00  0.00     0.006 C 
BRANCH   2   3
ATOM      3  C   UNL     1      -9.275 -10.961  16.740  1.00  0.00     0.053 C 
BRANCH   3   4
ATOM      4  C   UNL     1     -10.187 -10.575  17.861  1.00  0.00     0.041 C 
ATOM      5  O   UNL     1     -11.175 -11.301  18.154  1.00  0.00    -0.550 OA
ATOM      6  O   UNL     1      -9.978  -9.388  18.551  1.00  0.00    -0.550 OA
ENDBRANCH   3   4
ENDBRANCH   2   3
ENDBRANCH   1   2
BRANCH   1   7
ATOM      7  C   UNL     1     -11.453 -13.100  15.134  1.00  0.00     0.000 C 
BRANCH   7   8
ATOM      8  C   UNL     1     -11.340 -14.197  16.203  1.00  0.00    -0.000 C 
BRANCH   8   9
ATOM      9  C   UNL     1      -9.915 -14.757  16.327  1.00  0.00    -0.003 C 
ATOM     10  C   UNL     1      -9.309 -14.534  17.712  1.00  0.00     0.004 C 
ENDBRANCH   8   9
ENDBRANCH   7   8
ENDBRANCH   1   7
TORSDOF 6
ENDMDL
MODEL 7
REMARK VINA RESULT:    -3.470      1.388      2.339
REMARK INTER + INTRA:          -5.316
REMARK INTER:                  -4.801
REMARK INTRA:                  -0.515
REMARK UNBOUND:                -0.628
REMARK SMILES CCCCCCCC(=O)[O-]
REMARK SMILES IDX 5 1 6 2 7 3 8 4 9 5 10 6 4 7 3 8 2 9 1 10
REMARK H PARENT
REMARK Flexibility Score: inf
ROOT
ATOM      1  C   UNL     1      -9.403 -14.586  17.458  1.00  0.00     0.000 C 
ENDROOT
BRANCH   1   2
ATOM      2  C   UNL     1      -9.651 -13.113  17.802  1.00  0.00     0.006 C 
BRANCH   2   3
ATOM      3  C   UNL     1      -8.888 -12.189  16.849  1.00  0.00     0.053 C 
BRANCH   3   4
ATOM      4  C   UNL     1      -9.632 -10.906  16.654  1.00  0.00     0.041 C 
ATOM      5  O   UNL     1      -9.761 -10.417  15.500  1.00  0.00    -0.550 OA
ATOM      6  O   UNL     1     -10.141 -10.223  17.751  1.00  0.00    -0.550 OA
ENDBRANCH   3   4
ENDBRANCH   2   3
ENDBRANCH   1   2
BRANCH   1   7
ATOM      7  C   UNL     1     -10.243 -15.019  16.251  1.00  0.00     0.000 C 
BRANCH   7   8
ATOM      8  C   UNL     1     -11.624 -14.349  16.272  1.00  0.00    -0.000 C 
BRANCH   8   9
ATOM      9  C   UNL     1     -12.039 -13.806  14.896  1.00  0.00    -0.003 C 
ATOM     10  C   UNL     1     -10.843 -13.499  13.995  1.00  0.00     0.004 C 
ENDBRANCH   8   9
ENDBRANCH   7   8
ENDBRANCH   1   7
TORSDOF 6
ENDMDL
MODEL 8
REMARK VINA RESULT:    -3.444      1.299      2.834
REMARK INTER + INTRA:          -5.280
REMARK INTER:                  -4.726
REMARK INTRA:                  -0.554
REMARK UNBOUND:                -0.628
REMARK SMILES CCCCCCCC(=O)[O-]
REMARK SMILES IDX 5 1 6 2 7 3 8 4 9 5 10 6 4 7 3 8 2 9 1 10
REMARK H PARENT
REMARK Flexibility Score: inf
ROOT
ATOM      1  C   UNL     1     -11.216 -13.864  14.501  1.00  0.00     0.000 C 
ENDROOT
BRANCH   1   2
ATOM      2  C   UNL     1     -12.010 -13.141  15.596  1.00  0.00     0.006 C 
BRANCH   2   3
ATOM      3  C   UNL     1     -11.416 -13.418  16.980  1.00  0.00     0.053 C 
BRANCH   3   4
ATOM      4  C   UNL     1     -11.278 -12.146  17.755  1.00  0.00     0.041 C 
ATOM      5  O   UNL     1     -10.192 -11.508  17.737  1.00  0.00    -0.550 OA
ATOM      6  O   UNL     1     -12.330 -11.691  18.538  1.00  0.00    -0.550 OA
ENDBRANCH   3   4
ENDBRANCH   2   3
ENDBRANCH   1   2
BRANCH   1   7
ATOM      7  C   UNL     1      -9.982 -13.054  14.088  1.00  0.00     0.000 C 
BRANCH   7   8
ATOM      8  C   UNL     1      -8.689 -13.774  14.496  1.00  0.00    -0.000 C 
BRANCH   8   9
ATOM      9  C   UNL     1      -7.907 -13.015  15.579  1.00  0.00    -0.003 C 
ATOM     10  C   UNL     1      -7.682 -13.848  16.841  1.00  0.00     0.004 C 
ENDBRANCH   8   9
ENDBRANCH   7   8
ENDBRANCH   1   7
TORSDOF 6
ENDMDL
MODEL 9
REMARK VINA RESULT:    -3.440      2.425      4.274
REMARK INTER + INTRA:          -5.274
REMARK INTER:                  -4.713
REMARK INTRA:                  -0.562
REMARK UNBOUND:                -0.628
REMARK SMILES CCCCCCCC(=O)[O-]
REMARK SMILES IDX 5 1 6 2 7 3 8 4 9 5 10 6 4 7 3 8 2 9 1 10
REMARK H PARENT
REMARK Flexibility Score: inf
ROOT
ATOM      1  C   UNL     1     -10.093 -12.924  17.772  1.00  0.00     0.000 C 
ENDROOT
BRANCH   1   2
ATOM      2  C   UNL     1     -10.951 -13.964  17.043  1.00  0.00     0.006 C 
BRANCH   2   3
ATOM      3  C   UNL     1     -10.311 -14.371  15.712  1.00  0.00     0.053 C 
BRANCH   3   4
ATOM      4  C   UNL     1     -10.981 -13.672  14.573  1.00  0.00     0.041 C 
ATOM      5  O   UNL     1     -10.293 -13.169  13.645  1.00  0.00    -0.550 OA
ATOM      6  O   UNL     1     -12.363 -13.530  14.559  1.00  0.00    -0.550 OA
ENDBRANCH   3   4
ENDBRANCH   2   3
ENDBRANCH   1   2
BRANCH   1   7
ATOM      7  C   UNL     1     -10.784 -11.556  17.793  1.00  0.00     0.000 C 
BRANCH   7   8
ATOM      8  C   UNL     1      -9.818 -10.444  17.357  1.00  0.00    -0.000 C 
BRANCH   8   9
ATOM      9  C   UNL     1      -9.547 -10.457  15.845  1.00  0.00    -0.003 C 
ATOM     10  C   UNL     1      -8.093 -10.780  15.506  1.00  0.00     0.004 C 
ENDBRANCH   8   9
ENDBRANCH   7   8
ENDBRANCH   1   7
TORSDOF 6
ENDMDL
