MODEL 1
REMARK VINA RESULT:    -6.957      0.000      0.000
REMARK INTER + INTRA:          -8.223
REMARK INTER:                  -8.380
REMARK INTRA:                   0.157
REMARK UNBOUND:                 0.157
REMARK SMILES O=c1c(O)c(-c2ccc(O)c(O)c2)oc2cc(O)cc(O)c12
REMARK SMILES IDX 5 1 3 2 2 3 1 4 22 5 20 6 19 7 17 8 16 9 15 10 14 11 6 12
REMARK SMILES IDX 7 13 8 14 9 15 13 16 11 17 10 18 12 20 4 22 21 24 18 26
REMARK H PARENT 10 19 12 21 4 23 21 25 18 27
REMARK Flexibility Score: inf
ROOT
ATOM      1  C   UNL     1      20.768  49.577  45.744  1.00  0.00     0.180 A 
ATOM      2  C   UNL     1      19.739  50.003  44.886  1.00  0.00     0.208 A 
ATOM      3  C   UNL     1      19.277  49.129  43.890  1.00  0.00     0.238 A 
ATOM      4  O   UNL     1      18.318  49.496  43.161  1.00  0.00    -0.285 OA
ATOM      5  C   UNL     1      19.859  47.846  43.753  1.00  0.00     0.111 A 
ATOM      6  C   UNL     1      19.496  46.893  42.753  1.00  0.00     0.134 A 
ATOM      7  C   UNL     1      20.047  45.607  42.793  1.00  0.00     0.093 A 
ATOM      8  C   UNL     1      20.995  45.259  43.755  1.00  0.00     0.123 A 
ATOM      9  C   UNL     1      21.401  46.200  44.700  1.00  0.00     0.094 A 
ATOM     10  C   UNL     1      20.843  47.481  44.709  1.00  0.00     0.146 A 
ATOM     11  O   UNL     1      21.248  48.345  45.632  1.00  0.00    -0.452 OA
ENDROOT
BRANCH   1  12
ATOM     12  C   UNL     1      21.325  50.452  46.801  1.00  0.00     0.025 A 
ATOM     13  C   UNL     1      22.705  50.492  47.066  1.00  0.00     0.016 A 
ATOM     14  C   UNL     1      23.204  51.307  48.086  1.00  0.00     0.051 A 
ATOM     15  C   UNL     1      22.333  52.082  48.862  1.00  0.00     0.157 A 
ATOM     16  C   UNL     1      20.454  51.215  47.596  1.00  0.00     0.062 A 
ATOM     17  C   UNL     1      20.954  52.033  48.619  1.00  0.00     0.158 A 
BRANCH  15  18
ATOM     18  O   UNL     1      22.828  52.897  49.878  1.00  0.00    -0.504 OA
ATOM     19  H   UNL     1      22.983  52.542  50.815  1.00  0.00     0.293 HD
ENDBRANCH  15  18
BRANCH  17  20
ATOM     20  O   UNL     1      20.089  52.800  49.398  1.00  0.00    -0.504 OA
ATOM     21  H   UNL     1      19.123  52.527  49.540  1.00  0.00     0.293 HD
ENDBRANCH  17  20
ENDBRANCH   1  12
BRANCH   2  22
ATOM     22  O   UNL     1      19.163  51.266  45.054  1.00  0.00    -0.502 OA
ATOM     23  H   UNL     1      19.432  52.066  44.493  1.00  0.00     0.293 HD
ENDBRANCH   2  22
BRANCH   6  24
ATOM     24  O   UNL     1      18.628  47.168  41.693  1.00  0.00    -0.507 OA
ATOM     25  H   UNL     1      17.810  46.622  41.463  1.00  0.00     0.293 HD
ENDBRANCH   6  24
BRANCH   8  26
ATOM     26  O   UNL     1      21.533  43.974  43.755  1.00  0.00    -0.508 OA
ATOM     27  H   UNL     1      20.959  43.159  43.568  1.00  0.00     0.293 HD
ENDBRANCH   8  26
TORSDOF 6
ENDMDL
MODEL 2
REMARK VINA RESULT:    -6.938      2.455      4.275
REMARK INTER + INTRA:          -8.201
REMARK INTER:                  -8.021
REMARK INTRA:                  -0.180
REMARK UNBOUND:                 0.157
REMARK SMILES O=c1c(O)c(-c2ccc(O)c(O)c2)oc2cc(O)cc(O)c12
REMARK SMILES IDX 5 1 3 2 2 3 1 4 22 5 20 6 19 7 17 8 16 9 15 10 14 11 6 12
REMARK SMILES IDX 7 13 8 14 9 15 13 16 11 17 10 18 12 20 4 22 21 24 18 26
REMARK H PARENT 10 19 12 21 4 23 21 25 18 27
REMARK Flexibility Score: inf
ROOT
ATOM      1  C   UNL     1      19.858  48.373  43.739  1.00  0.00     0.180 A 
ATOM      2  C   UNL     1      20.028  47.069  43.245  1.00  0.00     0.208 A 
ATOM      3  C   UNL     1      19.021  46.507  42.444  1.00  0.00     0.238 A 
ATOM      4  O   UNL     1      19.204  45.360  41.958  1.00  0.00    -0.285 OA
ATOM      5  C   UNL     1      17.850  47.250  42.160  1.00  0.00     0.111 A 
ATOM      6  C   UNL     1      16.748  46.765  41.393  1.00  0.00     0.134 A 
ATOM      7  C   UNL     1      15.699  47.632  41.067  1.00  0.00     0.093 A 
ATOM      8  C   UNL     1      15.679  48.947  41.534  1.00  0.00     0.123 A 
ATOM      9  C   UNL     1      16.721  49.413  42.334  1.00  0.00     0.094 A 
ATOM     10  C   UNL     1      17.801  48.583  42.647  1.00  0.00     0.146 A 
ATOM     11  O   UNL     1      18.778  49.068  43.402  1.00  0.00    -0.452 OA
ENDROOT
BRANCH   1  12
ATOM     12  C   UNL     1      20.864  49.023  44.611  1.00  0.00     0.025 A 
ATOM     13  C   UNL     1      22.141  49.359  44.129  1.00  0.00     0.016 A 
ATOM     14  C   UNL     1      23.083  49.948  44.978  1.00  0.00     0.051 A 
ATOM     15  C   UNL     1      22.767  50.198  46.319  1.00  0.00     0.157 A 
ATOM     16  C   UNL     1      20.560  49.257  45.962  1.00  0.00     0.062 A 
ATOM     17  C   UNL     1      21.503  49.849  46.813  1.00  0.00     0.158 A 
BRANCH  15  18
ATOM     18  O   UNL     1      23.702  50.788  47.167  1.00  0.00    -0.504 OA
ATOM     19  H   UNL     1      24.470  51.343  46.806  1.00  0.00     0.293 HD
ENDBRANCH  15  18
BRANCH  17  20
ATOM     20  O   UNL     1      21.194  50.092  48.151  1.00  0.00    -0.504 OA
ATOM     21  H   UNL     1      20.398  49.653  48.598  1.00  0.00     0.293 HD
ENDBRANCH  17  20
ENDBRANCH   1  12
BRANCH   2  22
ATOM     22  O   UNL     1      21.202  46.361  43.518  1.00  0.00    -0.502 OA
ATOM     23  H   UNL     1      22.085  46.577  43.068  1.00  0.00     0.293 HD
ENDBRANCH   2  22
BRANCH   6  24
ATOM     24  O   UNL     1      16.624  45.444  40.955  1.00  0.00    -0.507 OA
ATOM     25  H   UNL     1      17.253  44.694  41.202  1.00  0.00     0.293 HD
ENDBRANCH   6  24
BRANCH   8  26
ATOM     26  O   UNL     1      14.611  49.777  41.202  1.00  0.00    -0.508 OA
ATOM     27  H   UNL     1      14.512  50.166  40.271  1.00  0.00     0.293 HD
ENDBRANCH   8  26
TORSDOF 6
ENDMDL
MODEL 3
REMARK VINA RESULT:    -6.740      4.854     10.045
REMARK INTER + INTRA:          -7.962
REMARK INTER:                  -7.766
REMARK INTRA:                  -0.196
REMARK UNBOUND:                 0.157
REMARK SMILES O=c1c(O)c(-c2ccc(O)c(O)c2)oc2cc(O)cc(O)c12
REMARK SMILES IDX 5 1 3 2 2 3 1 4 22 5 20 6 19 7 17 8 16 9 15 10 14 11 6 12
REMARK SMILES IDX 7 13 8 14 9 15 13 16 11 17 10 18 12 20 4 22 21 24 18 26
REMARK H PARENT 10 19 12 21 4 23 21 25 18 27
REMARK Flexibility Score: inf
ROOT
ATOM      1  C   UNL     1      17.550  45.945  39.648  1.00  0.00     0.180 A 
ATOM      2  C   UNL     1      18.461  45.261  40.472  1.00  0.00     0.208 A 
ATOM      3  C   UNL     1      18.678  45.725  41.779  1.00  0.00     0.238 A 
ATOM      4  O   UNL     1      19.453  45.076  42.530  1.00  0.00    -0.285 OA
ATOM      5  C   UNL     1      17.994  46.875  42.241  1.00  0.00     0.111 A 
ATOM      6  C   UNL     1      18.168  47.456  43.534  1.00  0.00     0.134 A 
ATOM      7  C   UNL     1      17.344  48.517  43.930  1.00  0.00     0.093 A 
ATOM      8  C   UNL     1      16.398  49.059  43.059  1.00  0.00     0.123 A 
ATOM      9  C   UNL     1      16.262  48.537  41.772  1.00  0.00     0.094 A 
ATOM     10  C   UNL     1      17.045  47.455  41.360  1.00  0.00     0.146 A 
ATOM     11  O   UNL     1      16.877  46.981  40.132  1.00  0.00    -0.452 OA
ENDROOT
BRANCH   1  12
ATOM     12  C   UNL     1      17.288  45.531  38.250  1.00  0.00     0.025 A 
ATOM     13  C   UNL     1      16.059  44.962  37.874  1.00  0.00     0.016 A 
ATOM     14  C   UNL     1      15.845  44.556  36.554  1.00  0.00     0.051 A 
ATOM     15  C   UNL     1      16.856  44.700  35.596  1.00  0.00     0.157 A 
ATOM     16  C   UNL     1      18.307  45.654  37.290  1.00  0.00     0.062 A 
ATOM     17  C   UNL     1      18.092  45.248  35.966  1.00  0.00     0.158 A 
BRANCH  15  18
ATOM     18  O   UNL     1      16.644  44.298  34.279  1.00  0.00    -0.504 OA
ATOM     19  H   UNL     1      16.246  44.927  33.590  1.00  0.00     0.293 HD
ENDBRANCH  15  18
BRANCH  17  20
ATOM     20  O   UNL     1      19.099  45.384  35.013  1.00  0.00    -0.504 OA
ATOM     21  H   UNL     1      19.347  46.289  34.630  1.00  0.00     0.293 HD
ENDBRANCH  17  20
ENDBRANCH   1  12
BRANCH   2  22
ATOM     22  O   UNL     1      19.108  44.114  40.003  1.00  0.00    -0.502 OA
ATOM     23  H   UNL     1      20.056  43.875  40.272  1.00  0.00     0.293 HD
ENDBRANCH   2  22
BRANCH   6  24
ATOM     24  O   UNL     1      19.145  47.051  44.446  1.00  0.00    -0.507 OA
ATOM     25  H   UNL     1      19.908  47.630  44.767  1.00  0.00     0.293 HD
ENDBRANCH   6  24
BRANCH   8  26
ATOM     26  O   UNL     1      15.606  50.124  43.482  1.00  0.00    -0.508 OA
ATOM     27  H   UNL     1      14.597  50.045  43.533  1.00  0.00     0.293 HD
ENDBRANCH   8  26
TORSDOF 6
ENDMDL
MODEL 4
REMARK VINA RESULT:    -6.658      2.576      3.899
REMARK INTER + INTRA:          -7.863
REMARK INTER:                  -7.635
REMARK INTRA:                  -0.228
REMARK UNBOUND:                 0.157
REMARK SMILES O=c1c(O)c(-c2ccc(O)c(O)c2)oc2cc(O)cc(O)c12
REMARK SMILES IDX 5 1 3 2 2 3 1 4 22 5 20 6 19 7 17 8 16 9 15 10 14 11 6 12
REMARK SMILES IDX 7 13 8 14 9 15 13 16 11 17 10 18 12 20 4 22 21 24 18 26
REMARK H PARENT 10 19 12 21 4 23 21 25 18 27
REMARK Flexibility Score: inf
ROOT
ATOM      1  C   UNL     1      19.202  48.354  43.448  1.00  0.00     0.180 A 
ATOM      2  C   UNL     1      18.015  49.078  43.244  1.00  0.00     0.208 A 
ATOM      3  C   UNL     1      17.021  48.537  42.413  1.00  0.00     0.238 A 
ATOM      4  O   UNL     1      15.938  49.165  42.278  1.00  0.00    -0.285 OA
ATOM      5  C   UNL     1      17.233  47.287  41.784  1.00  0.00     0.111 A 
ATOM      6  C   UNL     1      16.310  46.664  40.890  1.00  0.00     0.134 A 
ATOM      7  C   UNL     1      16.566  45.367  40.428  1.00  0.00     0.093 A 
ATOM      8  C   UNL     1      17.740  44.697  40.775  1.00  0.00     0.123 A 
ATOM      9  C   UNL     1      18.676  45.321  41.600  1.00  0.00     0.094 A 
ATOM     10  C   UNL     1      18.432  46.600  42.106  1.00  0.00     0.146 A 
ATOM     11  O   UNL     1      19.342  47.155  42.896  1.00  0.00    -0.452 OA
ENDROOT
BRANCH   1  12
ATOM     12  C   UNL     1      20.305  48.871  44.290  1.00  0.00     0.025 A 
ATOM     13  C   UNL     1      20.185  48.945  45.689  1.00  0.00     0.016 A 
ATOM     14  C   UNL     1      21.230  49.461  46.460  1.00  0.00     0.051 A 
ATOM     15  C   UNL     1      22.403  49.919  45.846  1.00  0.00     0.157 A 
ATOM     16  C   UNL     1      21.475  49.351  43.678  1.00  0.00     0.062 A 
ATOM     17  C   UNL     1      22.524  49.867  44.451  1.00  0.00     0.158 A 
BRANCH  15  18
ATOM     18  O   UNL     1      23.448  50.431  46.613  1.00  0.00    -0.504 OA
ATOM     19  H   UNL     1      23.890  49.882  47.341  1.00  0.00     0.293 HD
ENDBRANCH  15  18
BRANCH  17  20
ATOM     20  O   UNL     1      23.689  50.331  43.842  1.00  0.00    -0.504 OA
ATOM     21  H   UNL     1      24.368  50.885  44.352  1.00  0.00     0.293 HD
ENDBRANCH  17  20
ENDBRANCH   1  12
BRANCH   2  22
ATOM     22  O   UNL     1      17.817  50.301  43.893  1.00  0.00    -0.502 OA
ATOM     23  H   UNL     1      18.509  50.706  44.513  1.00  0.00     0.293 HD
ENDBRANCH   2  22
BRANCH   6  24
ATOM     24  O   UNL     1      15.153  47.280  40.407  1.00  0.00    -0.507 OA
ATOM     25  H   UNL     1      14.239  46.852  40.386  1.00  0.00     0.293 HD
ENDBRANCH   6  24
BRANCH   8  26
ATOM     26  O   UNL     1      17.969  43.414  40.284  1.00  0.00    -0.508 OA
ATOM     27  H   UNL     1      18.434  43.261  39.397  1.00  0.00     0.293 HD
ENDBRANCH   8  26
TORSDOF 6
ENDMDL
MODEL 5
REMARK VINA RESULT:    -6.655      3.506      6.302
REMARK INTER + INTRA:          -7.859
REMARK INTER:                  -7.545
REMARK INTRA:                  -0.314
REMARK UNBOUND:                 0.157
REMARK SMILES O=c1c(O)c(-c2ccc(O)c(O)c2)oc2cc(O)cc(O)c12
REMARK SMILES IDX 5 1 3 2 2 3 1 4 22 5 20 6 19 7 17 8 16 9 15 10 14 11 6 12
REMARK SMILES IDX 7 13 8 14 9 15 13 16 11 17 10 18 12 20 4 22 21 24 18 26
REMARK H PARENT 10 19 12 21 4 23 21 25 18 27
REMARK Flexibility Score: inf
ROOT
ATOM      1  C   UNL     1      17.173  48.814  44.746  1.00  0.00     0.180 A 
ATOM      2  C   UNL     1      17.893  49.915  45.241  1.00  0.00     0.208 A 
ATOM      3  C   UNL     1      19.291  49.829  45.333  1.00  0.00     0.238 A 
ATOM      4  O   UNL     1      19.934  50.838  45.725  1.00  0.00    -0.285 OA
ATOM      5  C   UNL     1      19.950  48.639  44.944  1.00  0.00     0.111 A 
ATOM      6  C   UNL     1      21.360  48.427  45.032  1.00  0.00     0.134 A 
ATOM      7  C   UNL     1      21.917  47.259  44.497  1.00  0.00     0.093 A 
ATOM      8  C   UNL     1      21.112  46.267  43.937  1.00  0.00     0.123 A 
ATOM      9  C   UNL     1      19.728  46.437  43.900  1.00  0.00     0.094 A 
ATOM     10  C   UNL     1      19.145  47.608  44.392  1.00  0.00     0.146 A 
ATOM     11  O   UNL     1      17.826  47.736  44.328  1.00  0.00    -0.452 OA
ENDROOT
BRANCH   1  12
ATOM     12  C   UNL     1      15.695  48.820  44.644  1.00  0.00     0.025 A 
ATOM     13  C   UNL     1      14.890  48.253  45.646  1.00  0.00     0.016 A 
ATOM     14  C   UNL     1      13.498  48.249  45.516  1.00  0.00     0.051 A 
ATOM     15  C   UNL     1      12.894  48.799  44.379  1.00  0.00     0.157 A 
ATOM     16  C   UNL     1      15.084  49.353  43.496  1.00  0.00     0.062 A 
ATOM     17  C   UNL     1      13.689  49.350  43.365  1.00  0.00     0.158 A 
BRANCH  15  18
ATOM     18  O   UNL     1      11.506  48.799  44.246  1.00  0.00    -0.504 OA
ATOM     19  H   UNL     1      11.021  48.056  43.757  1.00  0.00     0.293 HD
ENDBRANCH  15  18
BRANCH  17  20
ATOM     20  O   UNL     1      13.085  49.890  42.231  1.00  0.00    -0.504 OA
ATOM     21  H   UNL     1      13.533  50.620  41.689  1.00  0.00     0.293 HD
ENDBRANCH  17  20
ENDBRANCH   1  12
BRANCH   2  22
ATOM     22  O   UNL     1      17.224  51.089  45.598  1.00  0.00    -0.502 OA
ATOM     23  H   UNL     1      16.640  51.153  46.424  1.00  0.00     0.293 HD
ENDBRANCH   2  22
BRANCH   6  24
ATOM     24  O   UNL     1      22.244  49.311  45.654  1.00  0.00    -0.507 OA
ATOM     25  H   UNL     1      22.096  50.306  45.743  1.00  0.00     0.293 HD
ENDBRANCH   6  24
BRANCH   8  26
ATOM     26  O   UNL     1      21.700  45.111  43.428  1.00  0.00    -0.508 OA
ATOM     27  H   UNL     1      21.285  44.602  42.656  1.00  0.00     0.293 HD
ENDBRANCH   8  26
TORSDOF 6
ENDMDL
MODEL 6
REMARK VINA RESULT:    -6.629      2.988      6.799
REMARK INTER + INTRA:          -7.829
REMARK INTER:                  -7.913
REMARK INTRA:                   0.084
REMARK UNBOUND:                 0.157
REMARK SMILES O=c1c(O)c(-c2ccc(O)c(O)c2)oc2cc(O)cc(O)c12
REMARK SMILES IDX 5 1 3 2 2 3 1 4 22 5 20 6 19 7 17 8 16 9 15 10 14 11 6 12
REMARK SMILES IDX 7 13 8 14 9 15 13 16 11 17 10 18 12 20 4 22 21 24 18 26
REMARK H PARENT 10 19 12 21 4 23 21 25 18 27
REMARK Flexibility Score: inf
ROOT
ATOM      1  C   UNL     1      17.983  49.263  44.677  1.00  0.00     0.180 A 
ATOM      2  C   UNL     1      18.970  48.780  43.799  1.00  0.00     0.208 A 
ATOM      3  C   UNL     1      20.322  48.929  44.146  1.00  0.00     0.238 A 
ATOM      4  O   UNL     1      21.199  48.446  43.383  1.00  0.00    -0.285 OA
ATOM      5  C   UNL     1      20.672  49.571  45.358  1.00  0.00     0.111 A 
ATOM      6  C   UNL     1      22.011  49.812  45.791  1.00  0.00     0.134 A 
ATOM      7  C   UNL     1      22.240  50.340  47.067  1.00  0.00     0.093 A 
ATOM      8  C   UNL     1      21.179  50.695  47.901  1.00  0.00     0.123 A 
ATOM      9  C   UNL     1      19.866  50.520  47.464  1.00  0.00     0.094 A 
ATOM     10  C   UNL     1      19.606  49.962  46.210  1.00  0.00     0.146 A 
ATOM     11  O   UNL     1      18.342  49.802  45.836  1.00  0.00    -0.452 OA
ENDROOT
BRANCH   1  12
ATOM     12  C   UNL     1      16.538  49.165  44.368  1.00  0.00     0.025 A 
ATOM     13  C   UNL     1      15.619  48.676  45.312  1.00  0.00     0.016 A 
ATOM     14  C   UNL     1      14.264  48.569  44.989  1.00  0.00     0.051 A 
ATOM     15  C   UNL     1      13.810  48.937  43.716  1.00  0.00     0.157 A 
ATOM     16  C   UNL     1      16.081  49.513  43.086  1.00  0.00     0.062 A 
ATOM     17  C   UNL     1      14.721  49.407  42.761  1.00  0.00     0.158 A 
BRANCH  15  18
ATOM     18  O   UNL     1      12.459  48.834  43.391  1.00  0.00    -0.504 OA
ATOM     19  H   UNL     1      12.100  49.168  42.503  1.00  0.00     0.293 HD
ENDBRANCH  15  18
BRANCH  17  20
ATOM     20  O   UNL     1      14.268  49.766  41.493  1.00  0.00    -0.504 OA
ATOM     21  H   UNL     1      14.601  50.603  41.029  1.00  0.00     0.293 HD
ENDBRANCH  17  20
ENDBRANCH   1  12
BRANCH   2  22
ATOM     22  O   UNL     1      18.602  48.128  42.619  1.00  0.00    -0.502 OA
ATOM     23  H   UNL     1      17.708  47.663  42.510  1.00  0.00     0.293 HD
ENDBRANCH   2  22
BRANCH   6  24
ATOM     24  O   UNL     1      23.140  49.579  45.001  1.00  0.00    -0.507 OA
ATOM     25  H   UNL     1      23.193  48.893  44.262  1.00  0.00     0.293 HD
ENDBRANCH   6  24
BRANCH   8  26
ATOM     26  O   UNL     1      21.445  51.232  49.159  1.00  0.00    -0.508 OA
ATOM     27  H   UNL     1      21.439  50.655  49.992  1.00  0.00     0.293 HD
ENDBRANCH   8  26
TORSDOF 6
ENDMDL
MODEL 7
REMARK VINA RESULT:    -6.526      2.159      2.599
REMARK INTER + INTRA:          -7.703
REMARK INTER:                  -7.387
REMARK INTRA:                  -0.317
REMARK UNBOUND:                 0.157
REMARK SMILES O=c1c(O)c(-c2ccc(O)c(O)c2)oc2cc(O)cc(O)c12
REMARK SMILES IDX 5 1 3 2 2 3 1 4 22 5 20 6 19 7 17 8 16 9 15 10 14 11 6 12
REMARK SMILES IDX 7 13 8 14 9 15 13 16 11 17 10 18 12 20 4 22 21 24 18 26
REMARK H PARENT 10 19 12 21 4 23 21 25 18 27
REMARK Flexibility Score: inf
ROOT
ATOM      1  C   UNL     1      19.048  49.013  45.290  1.00  0.00     0.180 A 
ATOM      2  C   UNL     1      17.896  49.725  44.911  1.00  0.00     0.208 A 
ATOM      3  C   UNL     1      17.199  49.328  43.759  1.00  0.00     0.238 A 
ATOM      4  O   UNL     1      16.138  49.934  43.456  1.00  0.00    -0.285 OA
ATOM      5  C   UNL     1      17.670  48.236  42.992  1.00  0.00     0.111 A 
ATOM      6  C   UNL     1      17.065  47.773  41.784  1.00  0.00     0.134 A 
ATOM      7  C   UNL     1      17.540  46.603  41.178  1.00  0.00     0.093 A 
ATOM      8  C   UNL     1      18.637  45.917  41.698  1.00  0.00     0.123 A 
ATOM      9  C   UNL     1      19.273  46.394  42.844  1.00  0.00     0.094 A 
ATOM     10  C   UNL     1      18.800  47.538  43.492  1.00  0.00     0.146 A 
ATOM     11  O   UNL     1      19.427  47.954  44.586  1.00  0.00    -0.452 OA
ENDROOT
BRANCH   1  12
ATOM     12  C   UNL     1      19.850  49.388  46.477  1.00  0.00     0.025 A 
ATOM     13  C   UNL     1      20.991  50.200  46.363  1.00  0.00     0.016 A 
ATOM     14  C   UNL     1      21.747  50.520  47.495  1.00  0.00     0.051 A 
ATOM     15  C   UNL     1      21.380  50.023  48.752  1.00  0.00     0.157 A 
ATOM     16  C   UNL     1      19.499  48.876  47.737  1.00  0.00     0.062 A 
ATOM     17  C   UNL     1      20.256  49.196  48.873  1.00  0.00     0.158 A 
BRANCH  15  18
ATOM     18  O   UNL     1      22.130  50.342  49.883  1.00  0.00    -0.504 OA
ATOM     19  H   UNL     1      21.689  50.659  50.739  1.00  0.00     0.293 HD
ENDBRANCH  15  18
BRANCH  17  20
ATOM     20  O   UNL     1      19.898  48.697  50.125  1.00  0.00    -0.504 OA
ATOM     21  H   UNL     1      19.057  49.008  50.598  1.00  0.00     0.293 HD
ENDBRANCH  17  20
ENDBRANCH   1  12
BRANCH   2  22
ATOM     22  O   UNL     1      17.436  50.786  45.696  1.00  0.00    -0.502 OA
ATOM     23  H   UNL     1      16.588  51.297  45.477  1.00  0.00     0.293 HD
ENDBRANCH   2  22
BRANCH   6  24
ATOM     24  O   UNL     1      16.023  48.434  41.130  1.00  0.00    -0.507 OA
ATOM     25  H   UNL     1      15.974  49.433  40.989  1.00  0.00     0.293 HD
ENDBRANCH   6  24
BRANCH   8  26
ATOM     26  O   UNL     1      19.092  44.765  41.060  1.00  0.00    -0.508 OA
ATOM     27  H   UNL     1      18.492  43.958  40.934  1.00  0.00     0.293 HD
ENDBRANCH   8  26
TORSDOF 6
ENDMDL
MODEL 8
REMARK VINA RESULT:    -6.523      3.020      8.449
REMARK INTER + INTRA:          -7.701
REMARK INTER:                  -7.379
REMARK INTRA:                  -0.321
REMARK UNBOUND:                 0.157
REMARK SMILES O=c1c(O)c(-c2ccc(O)c(O)c2)oc2cc(O)cc(O)c12
REMARK SMILES IDX 5 1 3 2 2 3 1 4 22 5 20 6 19 7 17 8 16 9 15 10 14 11 6 12
REMARK SMILES IDX 7 13 8 14 9 15 13 16 11 17 10 18 12 20 4 22 21 24 18 26
REMARK H PARENT 10 19 12 21 4 23 21 25 18 27
REMARK Flexibility Score: inf
ROOT
ATOM      1  C   UNL     1      18.150  46.883  42.110  1.00  0.00     0.180 A 
ATOM      2  C   UNL     1      19.277  46.165  42.547  1.00  0.00     0.208 A 
ATOM      3  C   UNL     1      20.165  46.773  43.447  1.00  0.00     0.238 A 
ATOM      4  O   UNL     1      21.142  46.106  43.877  1.00  0.00    -0.285 OA
ATOM      5  C   UNL     1      19.925  48.097  43.887  1.00  0.00     0.111 A 
ATOM      6  C   UNL     1      20.781  48.826  44.768  1.00  0.00     0.134 A 
ATOM      7  C   UNL     1      20.378  50.082  45.239  1.00  0.00     0.093 A 
ATOM      8  C   UNL     1      19.184  50.662  44.812  1.00  0.00     0.123 A 
ATOM      9  C   UNL     1      18.369  49.984  43.906  1.00  0.00     0.094 A 
ATOM     10  C   UNL     1      18.726  48.714  43.445  1.00  0.00     0.146 A 
ATOM     11  O   UNL     1      17.918  48.097  42.592  1.00  0.00    -0.452 OA
ENDROOT
BRANCH   1  12
ATOM     12  C   UNL     1      17.182  46.317  41.142  1.00  0.00     0.025 A 
ATOM     13  C   UNL     1      16.046  45.609  41.572  1.00  0.00     0.016 A 
ATOM     14  C   UNL     1      15.161  45.062  40.639  1.00  0.00     0.051 A 
ATOM     15  C   UNL     1      15.403  45.204  39.267  1.00  0.00     0.157 A 
ATOM     16  C   UNL     1      17.431  46.438  39.765  1.00  0.00     0.062 A 
ATOM     17  C   UNL     1      16.542  45.891  38.829  1.00  0.00     0.158 A 
BRANCH  15  18
ATOM     18  O   UNL     1      14.520  44.662  38.334  1.00  0.00    -0.504 OA
ATOM     19  H   UNL     1      14.153  43.723  38.435  1.00  0.00     0.293 HD
ENDBRANCH  15  18
BRANCH  17  20
ATOM     20  O   UNL     1      16.785  46.025  37.462  1.00  0.00    -0.504 OA
ATOM     21  H   UNL     1      16.311  46.727  36.907  1.00  0.00     0.293 HD
ENDBRANCH  17  20
ENDBRANCH   1  12
BRANCH   2  22
ATOM     22  O   UNL     1      19.482  44.850  42.117  1.00  0.00    -0.502 OA
ATOM     23  H   UNL     1      20.200  44.254  42.513  1.00  0.00     0.293 HD
ENDBRANCH   2  22
BRANCH   6  24
ATOM     24  O   UNL     1      22.038  48.378  45.182  1.00  0.00    -0.507 OA
ATOM     25  H   UNL     1      22.888  48.920  45.131  1.00  0.00     0.293 HD
ENDBRANCH   6  24
BRANCH   8  26
ATOM     26  O   UNL     1      18.822  51.920  45.290  1.00  0.00    -0.508 OA
ATOM     27  H   UNL     1      17.864  52.135  45.541  1.00  0.00     0.293 HD
ENDBRANCH   8  26
TORSDOF 6
ENDMDL
MODEL 9
REMARK VINA RESULT:    -6.450      4.148      9.108
REMARK INTER + INTRA:          -7.613
REMARK INTER:                  -7.437
REMARK INTRA:                  -0.176
REMARK UNBOUND:                 0.157
REMARK SMILES O=c1c(O)c(-c2ccc(O)c(O)c2)oc2cc(O)cc(O)c12
REMARK SMILES IDX 5 1 3 2 2 3 1 4 22 5 20 6 19 7 17 8 16 9 15 10 14 11 6 12
REMARK SMILES IDX 7 13 8 14 9 15 13 16 11 17 10 18 12 20 4 22 21 24 18 26
REMARK H PARENT 10 19 12 21 4 23 21 25 18 27
REMARK Flexibility Score: inf
ROOT
ATOM      1  C   UNL     1      17.431  46.218  40.437  1.00  0.00     0.180 A 
ATOM      2  C   UNL     1      16.509  47.090  41.043  1.00  0.00     0.208 A 
ATOM      3  C   UNL     1      16.778  47.578  42.331  1.00  0.00     0.238 A 
ATOM      4  O   UNL     1      15.976  48.401  42.845  1.00  0.00    -0.285 OA
ATOM      5  C   UNL     1      17.957  47.178  43.004  1.00  0.00     0.111 A 
ATOM      6  C   UNL     1      18.311  47.580  44.328  1.00  0.00     0.134 A 
ATOM      7  C   UNL     1      19.564  47.227  44.845  1.00  0.00     0.093 A 
ATOM      8  C   UNL     1      20.448  46.434  44.113  1.00  0.00     0.123 A 
ATOM      9  C   UNL     1      20.088  45.986  42.842  1.00  0.00     0.094 A 
ATOM     10  C   UNL     1      18.859  46.351  42.285  1.00  0.00     0.146 A 
ATOM     11  O   UNL     1      18.558  45.914  41.068  1.00  0.00    -0.452 OA
ENDROOT
BRANCH   1  12
ATOM     12  C   UNL     1      17.204  45.642  39.092  1.00  0.00     0.025 A 
ATOM     13  C   UNL     1      16.117  44.789  38.835  1.00  0.00     0.016 A 
ATOM     14  C   UNL     1      15.938  44.238  37.563  1.00  0.00     0.051 A 
ATOM     15  C   UNL     1      16.847  44.520  36.536  1.00  0.00     0.157 A 
ATOM     16  C   UNL     1      18.124  45.905  38.063  1.00  0.00     0.062 A 
ATOM     17  C   UNL     1      17.945  45.353  36.788  1.00  0.00     0.158 A 
BRANCH  15  18
ATOM     18  O   UNL     1      16.670  43.974  35.266  1.00  0.00    -0.504 OA
ATOM     19  H   UNL     1      16.579  42.974  35.127  1.00  0.00     0.293 HD
ENDBRANCH  15  18
BRANCH  17  20
ATOM     20  O   UNL     1      18.852  45.626  35.765  1.00  0.00    -0.504 OA
ATOM     21  H   UNL     1      19.266  44.884  35.212  1.00  0.00     0.293 HD
ENDBRANCH  17  20
ENDBRANCH   1  12
BRANCH   2  22
ATOM     22  O   UNL     1      15.362  47.490  40.351  1.00  0.00    -0.502 OA
ATOM     23  H   UNL     1      15.354  48.288  39.726  1.00  0.00     0.293 HD
ENDBRANCH   2  22
BRANCH   6  24
ATOM     24  O   UNL     1      17.464  48.295  45.179  1.00  0.00    -0.507 OA
ATOM     25  H   UNL     1      17.158  47.977  46.087  1.00  0.00     0.293 HD
ENDBRANCH   6  24
BRANCH   8  26
ATOM     26  O   UNL     1      21.680  46.090  44.665  1.00  0.00    -0.508 OA
ATOM     27  H   UNL     1      22.535  46.143  44.124  1.00  0.00     0.293 HD
ENDBRANCH   8  26
TORSDOF 6
ENDMDL
