MODEL 1
REMARK VINA RESULT:    -3.475      0.000      0.000
REMARK INTER + INTRA:          -5.355
REMARK INTER:                  -5.101
REMARK INTRA:                  -0.255
REMARK UNBOUND:                -0.255
REMARK SMILES O=C([O-])CCCCCCCC(=O)[O-]
REMARK SMILES IDX 7 1 6 2 5 3 4 4 2 5 1 6 3 7 8 8 9 9 10 10 11 11 12 12 13 13
REMARK H PARENT
REMARK Flexibility Score: inf
ROOT
ATOM      1  C   UNL     1      -4.034  -3.146   9.928  1.00  0.00     0.000 C 
ENDROOT
BRANCH   1   2
ATOM      2  C   UNL     1      -4.129  -1.624  10.125  1.00  0.00     0.000 C 
BRANCH   2   3
ATOM      3  C   UNL     1      -2.751  -0.942  10.111  1.00  0.00     0.006 C 
BRANCH   3   4
ATOM      4  C   UNL     1      -1.601  -1.958  10.064  1.00  0.00     0.053 C 
BRANCH   4   5
ATOM      5  C   UNL     1      -0.272  -1.288   9.888  1.00  0.00     0.041 C 
ATOM      6  O   UNL     1       0.754  -1.973   9.638  1.00  0.00    -0.550 OA
ATOM      7  O   UNL     1      -0.162   0.090  10.032  1.00  0.00    -0.550 OA
ENDBRANCH   4   5
ENDBRANCH   3   4
ENDBRANCH   2   3
ENDBRANCH   1   2
BRANCH   1   8
ATOM      8  C   UNL     1      -5.406  -3.799   9.691  1.00  0.00     0.000 C 
BRANCH   8   9
ATOM      9  C   UNL     1      -5.436  -5.292  10.068  1.00  0.00     0.006 C 
BRANCH   9  10
ATOM     10  C   UNL     1      -5.673  -6.232   8.874  1.00  0.00     0.053 C 
BRANCH  10  11
ATOM     11  C   UNL     1      -7.095  -6.221   8.401  1.00  0.00     0.041 C 
ATOM     12  O   UNL     1      -8.038  -6.087   9.226  1.00  0.00    -0.550 OA
ATOM     13  O   UNL     1      -7.379  -6.326   7.045  1.00  0.00    -0.550 OA
ENDBRANCH  10  11
ENDBRANCH   9  10
ENDBRANCH   8   9
ENDBRANCH   1   8
TORSDOF 8
ENDMDL
MODEL 2
REMARK VINA RESULT:    -3.472     20.354     21.128
REMARK INTER + INTRA:          -5.351
REMARK INTER:                  -5.223
REMARK INTRA:                  -0.128
REMARK UNBOUND:                -0.255
REMARK SMILES O=C([O-])CCCCCCCC(=O)[O-]
REMARK SMILES IDX 7 1 6 2 5 3 4 4 2 5 1 6 3 7 8 8 9 9 10 10 11 11 12 12 13 13
REMARK H PARENT
REMARK Flexibility Score: inf
ROOT
ATOM      1  C   UNL     1       2.376  -2.636 -10.111  1.00  0.00     0.000 C 
ENDROOT
BRANCH   1   2
ATOM      2  C   UNL     1       2.089  -1.133  -9.965  1.00  0.00     0.000 C 
BRANCH   2   3
ATOM      3  C   UNL     1       0.596  -0.800 -10.125  1.00  0.00     0.006 C 
BRANCH   3   4
ATOM      4  C   UNL     1       0.328   0.709 -10.045  1.00  0.00     0.053 C 
BRANCH   4   5
ATOM      5  C   UNL     1      -1.138   1.013 -10.006  1.00  0.00     0.041 C 
ATOM      6  O   UNL     1      -1.536   2.196  -9.839  1.00  0.00    -0.550 OA
ATOM      7  O   UNL     1      -2.066  -0.015 -10.124  1.00  0.00    -0.550 OA
ENDBRANCH   4   5
ENDBRANCH   3   4
ENDBRANCH   2   3
ENDBRANCH   1   2
BRANCH   1   8
ATOM      8  C   UNL     1       3.877  -2.962 -10.049  1.00  0.00     0.000 C 
BRANCH   8   9
ATOM      9  C   UNL     1       4.161  -4.460  -9.833  1.00  0.00     0.006 C 
BRANCH   9  10
ATOM     10  C   UNL     1       5.646  -4.839  -9.966  1.00  0.00     0.053 C 
BRANCH  10  11
ATOM     11  C   UNL     1       6.127  -5.700  -8.838  1.00  0.00     0.041 C 
ATOM     12  O   UNL     1       5.330  -6.475  -8.245  1.00  0.00    -0.550 OA
ATOM     13  O   UNL     1       7.464  -5.670  -8.461  1.00  0.00    -0.550 OA
ENDBRANCH  10  11
ENDBRANCH   9  10
ENDBRANCH   8   9
ENDBRANCH   1   8
TORSDOF 8
ENDMDL
MODEL 3
REMARK VINA RESULT:    -3.312      2.017      3.268
REMARK INTER + INTRA:          -5.116
REMARK INTER:                  -4.701
REMARK INTRA:                  -0.415
REMARK UNBOUND:                -0.255
REMARK SMILES O=C([O-])CCCCCCCC(=O)[O-]
REMARK SMILES IDX 7 1 6 2 5 3 4 4 2 5 1 6 3 7 8 8 9 9 10 10 11 11 12 12 13 13
REMARK H PARENT
REMARK Flexibility Score: inf
ROOT
ATOM      1  C   UNL     1      -5.150  -5.854   8.914  1.00  0.00     0.000 C 
ENDROOT
BRANCH   1   2
ATOM      2  C   UNL     1      -6.118  -4.862   9.581  1.00  0.00     0.000 C 
BRANCH   2   3
ATOM      3  C   UNL     1      -5.401  -3.615  10.125  1.00  0.00     0.006 C 
BRANCH   3   4
ATOM      4  C   UNL     1      -3.876  -3.712   9.976  1.00  0.00     0.053 C 
BRANCH   4   5
ATOM      5  C   UNL     1      -3.234  -2.359   9.930  1.00  0.00     0.041 C 
ATOM      6  O   UNL     1      -3.942  -1.319   9.980  1.00  0.00    -0.550 OA
ATOM      7  O   UNL     1      -1.855  -2.247   9.800  1.00  0.00    -0.550 OA
ENDBRANCH   4   5
ENDBRANCH   3   4
ENDBRANCH   2   3
ENDBRANCH   1   2
BRANCH   1   8
ATOM      8  C   UNL     1      -4.937  -7.127   9.749  1.00  0.00     0.000 C 
BRANCH   8   9
ATOM      9  C   UNL     1      -5.827  -8.300   9.298  1.00  0.00     0.006 C 
BRANCH   9  10
ATOM     10  C   UNL     1      -7.223  -8.308   9.942  1.00  0.00     0.053 C 
BRANCH  10  11
ATOM     11  C   UNL     1      -8.306  -7.916   8.985  1.00  0.00     0.041 C 
ATOM     12  O   UNL     1      -8.022  -7.604   7.797  1.00  0.00    -0.550 OA
ATOM     13  O   UNL     1      -9.634  -7.926   9.393  1.00  0.00    -0.550 OA
ENDBRANCH  10  11
ENDBRANCH   9  10
ENDBRANCH   8   9
ENDBRANCH   1   8
TORSDOF 8
ENDMDL
MODEL 4
REMARK VINA RESULT:    -3.299     20.326     21.274
REMARK INTER + INTRA:          -5.096
REMARK INTER:                  -4.896
REMARK INTRA:                  -0.200
REMARK UNBOUND:                -0.255
REMARK SMILES O=C([O-])CCCCCCCC(=O)[O-]
REMARK SMILES IDX 7 1 6 2 5 3 4 4 2 5 1 6 3 7 8 8 9 9 10 10 11 11 12 12 13 13
REMARK H PARENT
REMARK Flexibility Score: inf
ROOT
ATOM      1  C   UNL     1       4.106  -2.867  -9.772  1.00  0.00     0.000 C 
ENDROOT
BRANCH   1   2
ATOM      2  C   UNL     1       5.487  -3.474 -10.070  1.00  0.00     0.000 C 
BRANCH   2   3
ATOM      3  C   UNL     1       5.693  -4.835  -9.383  1.00  0.00     0.006 C 
BRANCH   3   4
ATOM      4  C   UNL     1       7.016  -4.897  -8.608  1.00  0.00     0.053 C 
BRANCH   4   5
ATOM      5  C   UNL     1       8.191  -5.061  -9.522  1.00  0.00     0.041 C 
ATOM      6  O   UNL     1       8.618  -6.211  -9.805  1.00  0.00    -0.550 OA
ATOM      7  O   UNL     1       8.833  -3.941 -10.038  1.00  0.00    -0.550 OA
ENDBRANCH   4   5
ENDBRANCH   3   4
ENDBRANCH   2   3
ENDBRANCH   1   2
BRANCH   1   8
ATOM      8  C   UNL     1       4.029  -1.371 -10.121  1.00  0.00     0.000 C 
BRANCH   8   9
ATOM      9  C   UNL     1       2.588  -0.827 -10.125  1.00  0.00     0.006 C 
BRANCH   9  10
ATOM     10  C   UNL     1       1.522  -1.880  -9.780  1.00  0.00     0.053 C 
BRANCH  10  11
ATOM     11  C   UNL     1       0.134  -1.316  -9.765  1.00  0.00     0.041 C 
ATOM     12  O   UNL     1      -0.045  -0.069  -9.778  1.00  0.00    -0.550 OA
ATOM     13  O   UNL     1      -0.964  -2.167  -9.770  1.00  0.00    -0.550 OA
ENDBRANCH  10  11
ENDBRANCH   9  10
ENDBRANCH   8   9
ENDBRANCH   1   8
TORSDOF 8
ENDMDL
MODEL 5
REMARK VINA RESULT:    -3.223     21.549     22.548
REMARK INTER + INTRA:          -4.984
REMARK INTER:                  -4.538
REMARK INTRA:                  -0.446
REMARK UNBOUND:                -0.255
REMARK SMILES O=C([O-])CCCCCCCC(=O)[O-]
REMARK SMILES IDX 7 1 6 2 5 3 4 4 2 5 1 6 3 7 8 8 9 9 10 10 11 11 12 12 13 13
REMARK H PARENT
REMARK Flexibility Score: inf
ROOT
ATOM      1  C   UNL     1      -7.113   4.770  -8.962  1.00  0.00     0.000 C 
ENDROOT
BRANCH   1   2
ATOM      2  C   UNL     1      -8.259   4.544  -9.961  1.00  0.00     0.000 C 
BRANCH   2   3
ATOM      3  C   UNL     1      -9.311   5.666  -9.916  1.00  0.00     0.006 C 
BRANCH   3   4
ATOM      4  C   UNL     1      -8.670   7.060  -9.922  1.00  0.00     0.053 C 
BRANCH   4   5
ATOM      5  C   UNL     1      -8.990   7.826  -8.675  1.00  0.00     0.041 C 
ATOM      6  O   UNL     1      -8.250   7.726  -7.662  1.00  0.00    -0.550 OA
ATOM      7  O   UNL     1     -10.125   8.627  -8.622  1.00  0.00    -0.550 OA
ENDBRANCH   4   5
ENDBRANCH   3   4
ENDBRANCH   2   3
ENDBRANCH   1   2
BRANCH   1   8
ATOM      8  C   UNL     1      -5.802   5.187  -9.648  1.00  0.00     0.000 C 
BRANCH   8   9
ATOM      9  C   UNL     1      -5.198   6.476  -9.062  1.00  0.00     0.006 C 
BRANCH   9  10
ATOM     10  C   UNL     1      -4.744   7.492 -10.124  1.00  0.00     0.053 C 
BRANCH  10  11
ATOM     11  C   UNL     1      -4.908   8.912  -9.675  1.00  0.00     0.041 C 
ATOM     12  O   UNL     1      -6.045   9.349  -9.352  1.00  0.00    -0.550 OA
ATOM     13  O   UNL     1      -3.800   9.745  -9.581  1.00  0.00    -0.550 OA
ENDBRANCH  10  11
ENDBRANCH   9  10
ENDBRANCH   8   9
ENDBRANCH   1   8
TORSDOF 8
ENDMDL
MODEL 6
REMARK VINA RESULT:    -3.192     20.684     21.295
REMARK INTER + INTRA:          -4.939
REMARK INTER:                  -4.727
REMARK INTRA:                  -0.213
REMARK UNBOUND:                -0.255
REMARK SMILES O=C([O-])CCCCCCCC(=O)[O-]
REMARK SMILES IDX 7 1 6 2 5 3 4 4 2 5 1 6 3 7 8 8 9 9 10 10 11 11 12 12 13 13
REMARK H PARENT
REMARK Flexibility Score: inf
ROOT
ATOM      1  C   UNL     1      -4.496   3.943  -9.722  1.00  0.00     0.000 C 
ENDROOT
BRANCH   1   2
ATOM      2  C   UNL     1      -5.633   4.933 -10.026  1.00  0.00     0.000 C 
BRANCH   2   3
ATOM      3  C   UNL     1      -5.469   6.266  -9.278  1.00  0.00     0.006 C 
BRANCH   3   4
ATOM      4  C   UNL     1      -6.755   6.685  -8.552  1.00  0.00     0.053 C 
BRANCH   4   5
ATOM      5  C   UNL     1      -7.122   8.108  -8.844  1.00  0.00     0.041 C 
ATOM      6  O   UNL     1      -8.310   8.498  -8.700  1.00  0.00    -0.550 OA
ATOM      7  O   UNL     1      -6.157   8.995  -9.306  1.00  0.00    -0.550 OA
ENDBRANCH   4   5
ENDBRANCH   3   4
ENDBRANCH   2   3
ENDBRANCH   1   2
BRANCH   1   8
ATOM      8  C   UNL     1      -4.862   2.493 -10.080  1.00  0.00     0.000 C 
BRANCH   8   9
ATOM      9  C   UNL     1      -3.640   1.556 -10.121  1.00  0.00     0.006 C 
BRANCH   9  10
ATOM     10  C   UNL     1      -2.297   2.271  -9.897  1.00  0.00     0.053 C 
BRANCH  10  11
ATOM     11  C   UNL     1      -1.125   1.344  -9.990  1.00  0.00     0.041 C 
ATOM     12  O   UNL     1       0.050   1.794  -9.917  1.00  0.00    -0.550 OA
ATOM     13  O   UNL     1      -1.328  -0.025 -10.125  1.00  0.00    -0.550 OA
ENDBRANCH  10  11
ENDBRANCH   9  10
ENDBRANCH   8   9
ENDBRANCH   1   8
TORSDOF 8
ENDMDL
MODEL 7
REMARK VINA RESULT:    -3.185     21.106     22.537
REMARK INTER + INTRA:          -4.929
REMARK INTER:                  -4.227
REMARK INTRA:                  -0.703
REMARK UNBOUND:                -0.255
REMARK SMILES O=C([O-])CCCCCCCC(=O)[O-]
REMARK SMILES IDX 7 1 6 2 5 3 4 4 2 5 1 6 3 7 8 8 9 9 10 10 11 11 12 12 13 13
REMARK H PARENT
REMARK Flexibility Score: inf
ROOT
ATOM      1  C   UNL     1       5.685  -4.459  -9.387  1.00  0.00     0.000 C 
ENDROOT
BRANCH   1   2
ATOM      2  C   UNL     1       4.554  -5.472  -9.631  1.00  0.00     0.000 C 
BRANCH   2   3
ATOM      3  C   UNL     1       4.864  -6.856  -9.034  1.00  0.00     0.006 C 
BRANCH   3   4
ATOM      4  C   UNL     1       5.040  -7.928 -10.119  1.00  0.00     0.053 C 
BRANCH   4   5
ATOM      5  C   UNL     1       4.928  -9.312  -9.557  1.00  0.00     0.041 C 
ATOM      6  O   UNL     1       3.806  -9.876  -9.479  1.00  0.00    -0.550 OA
ATOM      7  O   UNL     1       6.062  -9.967  -9.089  1.00  0.00    -0.550 OA
ENDBRANCH   4   5
ENDBRANCH   3   4
ENDBRANCH   2   3
ENDBRANCH   1   2
BRANCH   1   8
ATOM      8  C   UNL     1       6.982  -4.830 -10.125  1.00  0.00     0.000 C 
BRANCH   8   9
ATOM      9  C   UNL     1       8.136  -5.189  -9.171  1.00  0.00     0.006 C 
BRANCH   9  10
ATOM     10  C   UNL     1       8.956  -6.413  -9.616  1.00  0.00     0.053 C 
BRANCH  10  11
ATOM     11  C   UNL     1       8.713  -7.616  -8.758  1.00  0.00     0.041 C 
ATOM     12  O   UNL     1       8.040  -7.515  -7.698  1.00  0.00    -0.550 OA
ATOM     13  O   UNL     1       9.202  -8.858  -9.145  1.00  0.00    -0.550 OA
ENDBRANCH  10  11
ENDBRANCH   9  10
ENDBRANCH   8   9
ENDBRANCH   1   8
TORSDOF 8
ENDMDL
MODEL 8
REMARK VINA RESULT:    -3.175      9.460     14.777
REMARK INTER + INTRA:          -4.914
REMARK INTER:                  -4.587
REMARK INTRA:                  -0.327
REMARK UNBOUND:                -0.255
REMARK SMILES O=C([O-])CCCCCCCC(=O)[O-]
REMARK SMILES IDX 7 1 6 2 5 3 4 4 2 5 1 6 3 7 8 8 9 9 10 10 11 11 12 12 13 13
REMARK H PARENT
REMARK Flexibility Score: inf
ROOT
ATOM      1  C   UNL     1       4.787   5.959   9.197  1.00  0.00     0.000 C 
ENDROOT
BRANCH   1   2
ATOM      2  C   UNL     1       5.718   5.049  10.014  1.00  0.00     0.000 C 
BRANCH   2   3
ATOM      3  C   UNL     1       5.186   3.610  10.125  1.00  0.00     0.006 C 
BRANCH   3   4
ATOM      4  C   UNL     1       3.655   3.549  10.035  1.00  0.00     0.053 C 
BRANCH   4   5
ATOM      5  C   UNL     1       3.155   2.137   9.991  1.00  0.00     0.041 C 
ATOM      6  O   UNL     1       3.960   1.186   9.811  1.00  0.00    -0.550 OA
ATOM      7  O   UNL     1       1.797   1.875  10.120  1.00  0.00    -0.550 OA
ENDBRANCH   4   5
ENDBRANCH   3   4
ENDBRANCH   2   3
ENDBRANCH   1   2
BRANCH   1   8
ATOM      8  C   UNL     1       5.341   7.384   9.039  1.00  0.00     0.000 C 
BRANCH   8   9
ATOM      9  C   UNL     1       6.523   7.680   9.980  1.00  0.00     0.006 C 
BRANCH   9  10
ATOM     10  C   UNL     1       7.553   8.663   9.400  1.00  0.00     0.053 C 
BRANCH  10  11
ATOM     11  C   UNL     1       8.591   7.985   8.559  1.00  0.00     0.041 C 
ATOM     12  O   UNL     1       9.747   7.781   9.017  1.00  0.00    -0.550 OA
ATOM     13  O   UNL     1       8.273   7.548   7.278  1.00  0.00    -0.550 OA
ENDBRANCH  10  11
ENDBRANCH   9  10
ENDBRANCH   8   9
ENDBRANCH   1   8
TORSDOF 8
ENDMDL
MODEL 9
REMARK VINA RESULT:    -0.564     20.454     21.043
REMARK INTER + INTRA:          -1.082
REMARK INTER:                  -0.916
REMARK INTRA:                  -0.166
REMARK UNBOUND:                -0.255
REMARK SMILES O=C([O-])CCCCCCCC(=O)[O-]
REMARK SMILES IDX 7 1 6 2 5 3 4 4 2 5 1 6 3 7 8 8 9 9 10 10 11 11 12 12 13 13
REMARK H PARENT
REMARK Flexibility Score: inf
ROOT
ATOM      1  C   UNL     1      -4.086   3.586  -9.709  1.00  0.00     0.000 C 
ENDROOT
BRANCH   1   2
ATOM      2  C   UNL     1      -2.647   3.236 -10.124  1.00  0.00     0.000 C 
BRANCH   2   3
ATOM      3  C   UNL     1      -2.316   1.750  -9.908  1.00  0.00     0.006 C 
BRANCH   3   4
ATOM      4  C   UNL     1      -0.804   1.493  -9.871  1.00  0.00     0.053 C 
BRANCH   4   5
ATOM      5  C   UNL     1      -0.481   0.041 -10.046  1.00  0.00     0.041 C 
ATOM      6  O   UNL     1      -1.406  -0.809 -10.125  1.00  0.00    -0.550 OA
ATOM      7  O   UNL     1       0.844  -0.378 -10.092  1.00  0.00    -0.550 OA
ENDBRANCH   4   5
ENDBRANCH   3   4
ENDBRANCH   2   3
ENDBRANCH   1   2
BRANCH   1   8
ATOM      8  C   UNL     1      -4.349   5.101  -9.703  1.00  0.00     0.000 C 
BRANCH   8   9
ATOM      9  C   UNL     1      -5.797   5.463 -10.082  1.00  0.00     0.006 C 
BRANCH   9  10
ATOM     10  C   UNL     1      -6.709   5.733  -8.874  1.00  0.00     0.053 C 
BRANCH  10  11
ATOM     11  C   UNL     1      -7.023   7.187  -8.698  1.00  0.00     0.041 C 
ATOM     12  O   UNL     1      -8.036   7.544  -8.040  1.00  0.00    -0.550 OA
ATOM     13  O   UNL     1      -6.178   8.152  -9.233  1.00  0.00    -0.550 OA
ENDBRANCH  10  11
ENDBRANCH   9  10
ENDBRANCH   8   9
ENDBRANCH   1   8
TORSDOF 8
ENDMDL
