MODEL 1
REMARK VINA RESULT:    -4.969      0.000      0.000
REMARK INTER + INTRA:         -10.717
REMARK INTER:                  -9.036
REMARK INTRA:                  -1.680
REMARK UNBOUND:                -1.680
REMARK SMILES CCCCCCCCCCCCCCCC(=O)[O-]
REMARK SMILES IDX 9 1 10 2 11 3 12 4 13 5 14 6 15 7 16 8 17 9 18 10 8 11 7 12
REMARK SMILES IDX 6 13 5 14 4 15 3 16 2 17 1 18
REMARK H PARENT
REMARK Flexibility Score: inf
ROOT
ATOM      1  C   UNL     1      10.100  17.565  31.070  1.00  0.00     0.000 C 
ENDROOT
BRANCH   1   2
ATOM      2  C   UNL     1      10.085  18.423  32.348  1.00  0.00     0.000 C 
BRANCH   2   3
ATOM      3  C   UNL     1       9.409  17.709  33.529  1.00  0.00     0.000 C 
BRANCH   3   4
ATOM      4  C   UNL     1       8.149  18.441  34.019  1.00  0.00     0.000 C 
BRANCH   4   5
ATOM      5  C   UNL     1       7.951  18.240  35.528  1.00  0.00     0.000 C 
BRANCH   5   6
ATOM      6  C   UNL     1       8.318  19.488  36.351  1.00  0.00     0.006 C 
BRANCH   6   7
ATOM      7  C   UNL     1       9.351  19.234  37.461  1.00  0.00     0.053 C 
BRANCH   7   8
ATOM      8  C   UNL     1      10.505  18.412  36.977  1.00  0.00     0.041 C 
ATOM      9  O   UNL     1      11.377  18.925  36.227  1.00  0.00    -0.550 OA
ATOM     10  O   UNL     1      10.636  17.089  37.381  1.00  0.00    -0.550 OA
ENDBRANCH   7   8
ENDBRANCH   6   7
ENDBRANCH   5   6
ENDBRANCH   4   5
ENDBRANCH   3   4
ENDBRANCH   2   3
ENDBRANCH   1   2
BRANCH   1  11
ATOM     11  C   UNL     1       9.438  18.271  29.875  1.00  0.00     0.000 C 
BRANCH  11  12
ATOM     12  C   UNL     1       8.700  19.558  30.286  1.00  0.00    -0.000 C 
BRANCH  12  13
ATOM     13  C   UNL     1       8.154  20.336  29.077  1.00  0.00    -0.000 C 
BRANCH  13  14
ATOM     14  C   UNL     1       7.875  21.813  29.403  1.00  0.00    -0.000 C 
BRANCH  14  15
ATOM     15  C   UNL     1       8.027  22.126  30.900  1.00  0.00    -0.000 C 
BRANCH  15  16
ATOM     16  C   UNL     1       9.307  22.915  31.215  1.00  0.00    -0.000 C 
BRANCH  16  17
ATOM     17  C   UNL     1      10.058  22.292  32.398  1.00  0.00    -0.003 C 
ATOM     18  C   UNL     1       9.106  21.965  33.545  1.00  0.00     0.004 C 
ENDBRANCH  16  17
ENDBRANCH  15  16
ENDBRANCH  14  15
ENDBRANCH  13  14
ENDBRANCH  12  13
ENDBRANCH  11  12
ENDBRANCH   1  11
TORSDOF 14
ENDMDL
MODEL 2
REMARK VINA RESULT:    -4.961      1.606      1.934
REMARK INTER + INTRA:         -10.702
REMARK INTER:                  -8.827
REMARK INTRA:                  -1.875
REMARK UNBOUND:                -1.680
REMARK SMILES CCCCCCCCCCCCCCCC(=O)[O-]
REMARK SMILES IDX 9 1 10 2 11 3 12 4 13 5 14 6 15 7 16 8 17 9 18 10 8 11 7 12
REMARK SMILES IDX 6 13 5 14 4 15 3 16 2 17 1 18
REMARK H PARENT
REMARK Flexibility Score: inf
ROOT
ATOM      1  C   UNL     1      10.125  18.893  31.967  1.00  0.00     0.000 C 
ENDROOT
BRANCH   1   2
ATOM      2  C   UNL     1       9.734  18.048  33.192  1.00  0.00     0.000 C 
BRANCH   2   3
ATOM      3  C   UNL     1       8.244  18.171  33.543  1.00  0.00     0.000 C 
BRANCH   3   4
ATOM      4  C   UNL     1       7.991  19.117  34.727  1.00  0.00     0.000 C 
BRANCH   4   5
ATOM      5  C   UNL     1       9.225  19.197  35.637  1.00  0.00     0.000 C 
BRANCH   5   6
ATOM      6  C   UNL     1       8.974  18.611  37.039  1.00  0.00     0.006 C 
BRANCH   6   7
ATOM      7  C   UNL     1       8.341  19.597  38.033  1.00  0.00     0.053 C 
BRANCH   7   8
ATOM      8  C   UNL     1       9.088  19.644  39.331  1.00  0.00     0.041 C 
ATOM      9  O   UNL     1       9.466  20.748  39.805  1.00  0.00    -0.550 OA
ATOM     10  O   UNL     1       9.338  18.472  40.033  1.00  0.00    -0.550 OA
ENDBRANCH   7   8
ENDBRANCH   6   7
ENDBRANCH   5   6
ENDBRANCH   4   5
ENDBRANCH   3   4
ENDBRANCH   2   3
ENDBRANCH   1   2
BRANCH   1  11
ATOM     11  C   UNL     1       9.622  18.291  30.646  1.00  0.00     0.000 C 
BRANCH  11  12
ATOM     12  C   UNL     1       8.710  19.257  29.867  1.00  0.00    -0.000 C 
BRANCH  12  13
ATOM     13  C   UNL     1       8.140  20.376  30.755  1.00  0.00    -0.000 C 
BRANCH  13  14
ATOM     14  C   UNL     1       8.417  21.778  30.187  1.00  0.00    -0.000 C 
BRANCH  14  15
ATOM     15  C   UNL     1       9.128  22.694  31.197  1.00  0.00    -0.000 C 
BRANCH  15  16
ATOM     16  C   UNL     1       8.809  22.331  32.655  1.00  0.00    -0.000 C 
BRANCH  16  17
ATOM     17  C   UNL     1      10.095  22.200  33.480  1.00  0.00    -0.003 C 
ATOM     18  C   UNL     1      11.331  22.239  32.586  1.00  0.00     0.004 C 
ENDBRANCH  16  17
ENDBRANCH  15  16
ENDBRANCH  14  15
ENDBRANCH  13  14
ENDBRANCH  12  13
ENDBRANCH  11  12
ENDBRANCH   1  11
TORSDOF 14
ENDMDL
MODEL 3
REMARK VINA RESULT:    -4.961      2.909      5.542
REMARK INTER + INTRA:         -10.701
REMARK INTER:                  -8.652
REMARK INTRA:                  -2.049
REMARK UNBOUND:                -1.680
REMARK SMILES CCCCCCCCCCCCCCCC(=O)[O-]
REMARK SMILES IDX 9 1 10 2 11 3 12 4 13 5 14 6 15 7 16 8 17 9 18 10 8 11 7 12
REMARK SMILES IDX 6 13 5 14 4 15 3 16 2 17 1 18
REMARK H PARENT
REMARK Flexibility Score: inf
ROOT
ATOM      1  C   UNL     1       8.421  19.615  30.628  1.00  0.00     0.000 C 
ENDROOT
BRANCH   1   2
ATOM      2  C   UNL     1       8.169  20.387  29.321  1.00  0.00     0.000 C 
BRANCH   2   3
ATOM      3  C   UNL     1       7.902  21.881  29.560  1.00  0.00     0.000 C 
BRANCH   3   4
ATOM      4  C   UNL     1       7.996  22.268  31.044  1.00  0.00     0.000 C 
BRANCH   4   5
ATOM      5  C   UNL     1       9.271  23.078  31.320  1.00  0.00     0.000 C 
BRANCH   5   6
ATOM      6  C   UNL     1       9.140  24.002  32.545  1.00  0.00     0.006 C 
BRANCH   6   7
ATOM      7  C   UNL     1      10.451  24.686  32.965  1.00  0.00     0.053 C 
BRANCH   7   8
ATOM      8  C   UNL     1      11.454  24.709  31.854  1.00  0.00     0.041 C 
ATOM      9  O   UNL     1      11.284  25.466  30.863  1.00  0.00    -0.550 OA
ATOM     10  O   UNL     1      12.595  23.920  31.930  1.00  0.00    -0.550 OA
ENDBRANCH   7   8
ENDBRANCH   6   7
ENDBRANCH   5   6
ENDBRANCH   4   5
ENDBRANCH   3   4
ENDBRANCH   2   3
ENDBRANCH   1   2
BRANCH   1  11
ATOM     11  C   UNL     1       9.449  18.485  30.461  1.00  0.00     0.000 C 
BRANCH  11  12
ATOM     12  C   UNL     1       9.684  17.703  31.767  1.00  0.00    -0.000 C 
BRANCH  12  13
ATOM     13  C   UNL     1       8.715  18.120  32.886  1.00  0.00    -0.000 C 
BRANCH  13  14
ATOM     14  C   UNL     1       9.331  17.965  34.287  1.00  0.00    -0.000 C 
BRANCH  14  15
ATOM     15  C   UNL     1       9.353  19.287  35.071  1.00  0.00    -0.000 C 
BRANCH  15  16
ATOM     16  C   UNL     1       9.418  20.519  34.156  1.00  0.00    -0.000 C 
BRANCH  16  17
ATOM     17  C   UNL     1      10.848  21.066  34.075  1.00  0.00    -0.003 C 
ATOM     18  C   UNL     1      11.484  20.750  32.724  1.00  0.00     0.004 C 
ENDBRANCH  16  17
ENDBRANCH  15  16
ENDBRANCH  14  15
ENDBRANCH  13  14
ENDBRANCH  12  13
ENDBRANCH  11  12
ENDBRANCH   1  11
TORSDOF 14
ENDMDL
MODEL 4
REMARK VINA RESULT:    -4.939      1.261      2.047
REMARK INTER + INTRA:         -10.662
REMARK INTER:                  -9.185
REMARK INTRA:                  -1.478
REMARK UNBOUND:                -1.680
REMARK SMILES CCCCCCCCCCCCCCCC(=O)[O-]
REMARK SMILES IDX 9 1 10 2 11 3 12 4 13 5 14 6 15 7 16 8 17 9 18 10 8 11 7 12
REMARK SMILES IDX 6 13 5 14 4 15 3 16 2 17 1 18
REMARK H PARENT
REMARK Flexibility Score: inf
ROOT
ATOM      1  C   UNL     1       9.360  18.581  30.324  1.00  0.00     0.000 C 
ENDROOT
BRANCH   1   2
ATOM      2  C   UNL     1       9.851  18.183  31.728  1.00  0.00     0.000 C 
BRANCH   2   3
ATOM      3  C   UNL     1      10.211  19.399  32.594  1.00  0.00     0.000 C 
BRANCH   3   4
ATOM      4  C   UNL     1       9.187  19.653  33.712  1.00  0.00     0.000 C 
BRANCH   4   5
ATOM      5  C   UNL     1       8.165  18.510  33.789  1.00  0.00     0.000 C 
BRANCH   5   6
ATOM      6  C   UNL     1       8.178  17.788  35.149  1.00  0.00     0.006 C 
BRANCH   6   7
ATOM      7  C   UNL     1       9.438  16.948  35.408  1.00  0.00     0.053 C 
BRANCH   7   8
ATOM      8  C   UNL     1      10.346  17.592  36.410  1.00  0.00     0.041 C 
ATOM      9  O   UNL     1       9.989  17.694  37.614  1.00  0.00    -0.550 OA
ATOM     10  O   UNL     1      11.600  18.047  36.023  1.00  0.00    -0.550 OA
ENDBRANCH   7   8
ENDBRANCH   6   7
ENDBRANCH   5   6
ENDBRANCH   4   5
ENDBRANCH   3   4
ENDBRANCH   2   3
ENDBRANCH   1   2
BRANCH   1  11
ATOM     11  C   UNL     1       8.211  19.601  30.365  1.00  0.00     0.000 C 
BRANCH  11  12
ATOM     12  C   UNL     1       8.124  20.443  29.079  1.00  0.00    -0.000 C 
BRANCH  12  13
ATOM     13  C   UNL     1       7.914  21.939  29.366  1.00  0.00    -0.000 C 
BRANCH  13  14
ATOM     14  C   UNL     1       7.932  22.258  30.871  1.00  0.00    -0.000 C 
BRANCH  14  15
ATOM     15  C   UNL     1       9.245  22.922  31.317  1.00  0.00    -0.000 C 
BRANCH  15  16
ATOM     16  C   UNL     1       9.204  23.396  32.778  1.00  0.00    -0.000 C 
BRANCH  16  17
ATOM     17  C   UNL     1       9.633  24.864  32.890  1.00  0.00    -0.003 C 
ATOM     18  C   UNL     1      10.826  25.161  31.984  1.00  0.00     0.004 C 
ENDBRANCH  16  17
ENDBRANCH  15  16
ENDBRANCH  14  15
ENDBRANCH  13  14
ENDBRANCH  12  13
ENDBRANCH  11  12
ENDBRANCH   1  11
TORSDOF 14
ENDMDL
MODEL 5
REMARK VINA RESULT:    -4.925      1.460      3.346
REMARK INTER + INTRA:         -10.635
REMARK INTER:                  -9.008
REMARK INTRA:                  -1.627
REMARK UNBOUND:                -1.680
REMARK SMILES CCCCCCCCCCCCCCCC(=O)[O-]
REMARK SMILES IDX 9 1 10 2 11 3 12 4 13 5 14 6 15 7 16 8 17 9 18 10 8 11 7 12
REMARK SMILES IDX 6 13 5 14 4 15 3 16 2 17 1 18
REMARK H PARENT
REMARK Flexibility Score: inf
ROOT
ATOM      1  C   UNL     1       8.109  20.677  29.187  1.00  0.00     0.000 C 
ENDROOT
BRANCH   1   2
ATOM      2  C   UNL     1       8.242  19.697  30.367  1.00  0.00     0.000 C 
BRANCH   2   3
ATOM      3  C   UNL     1       9.318  18.626  30.125  1.00  0.00     0.000 C 
BRANCH   3   4
ATOM      4  C   UNL     1       9.766  17.936  31.423  1.00  0.00     0.000 C 
BRANCH   4   5
ATOM      5  C   UNL     1       9.500  18.832  32.641  1.00  0.00     0.000 C 
BRANCH   5   6
ATOM      6  C   UNL     1       8.378  18.292  33.547  1.00  0.00     0.006 C 
BRANCH   6   7
ATOM      7  C   UNL     1       8.195  19.070  34.860  1.00  0.00     0.053 C 
BRANCH   7   8
ATOM      8  C   UNL     1       8.682  18.295  36.045  1.00  0.00     0.041 C 
ATOM      9  O   UNL     1       8.466  18.720  37.211  1.00  0.00    -0.550 OA
ATOM     10  O   UNL     1       9.343  17.087  35.864  1.00  0.00    -0.550 OA
ENDBRANCH   7   8
ENDBRANCH   6   7
ENDBRANCH   5   6
ENDBRANCH   4   5
ENDBRANCH   3   4
ENDBRANCH   2   3
ENDBRANCH   1   2
BRANCH   1  11
ATOM     11  C   UNL     1       7.875  22.126  29.645  1.00  0.00     0.000 C 
BRANCH  11  12
ATOM     12  C   UNL     1       7.889  22.270  31.178  1.00  0.00    -0.000 C 
BRANCH  12  13
ATOM     13  C   UNL     1       9.116  23.046  31.686  1.00  0.00    -0.000 C 
BRANCH  13  14
ATOM     14  C   UNL     1       9.157  23.144  33.220  1.00  0.00    -0.000 C 
BRANCH  14  15
ATOM     15  C   UNL     1      10.237  22.242  33.840  1.00  0.00    -0.000 C 
BRANCH  15  16
ATOM     16  C   UNL     1      11.391  21.945  32.872  1.00  0.00    -0.000 C 
BRANCH  16  17
ATOM     17  C   UNL     1      12.629  22.779  33.222  1.00  0.00    -0.003 C 
ATOM     18  C   UNL     1      12.728  24.017  32.335  1.00  0.00     0.004 C 
ENDBRANCH  16  17
ENDBRANCH  15  16
ENDBRANCH  14  15
ENDBRANCH  13  14
ENDBRANCH  12  13
ENDBRANCH  11  12
ENDBRANCH   1  11
TORSDOF 14
ENDMDL
MODEL 6
REMARK VINA RESULT:    -4.896      2.941      5.649
REMARK INTER + INTRA:         -10.584
REMARK INTER:                  -9.009
REMARK INTRA:                  -1.575
REMARK UNBOUND:                -1.680
REMARK SMILES CCCCCCCCCCCCCCCC(=O)[O-]
REMARK SMILES IDX 9 1 10 2 11 3 12 4 13 5 14 6 15 7 16 8 17 9 18 10 8 11 7 12
REMARK SMILES IDX 6 13 5 14 4 15 3 16 2 17 1 18
REMARK H PARENT
REMARK Flexibility Score: inf
ROOT
ATOM      1  C   UNL     1       9.779  18.081  30.509  1.00  0.00     0.000 C 
ENDROOT
BRANCH   1   2
ATOM      2  C   UNL     1       8.847  18.987  29.683  1.00  0.00     0.000 C 
BRANCH   2   3
ATOM      3  C   UNL     1       8.159  20.062  30.538  1.00  0.00     0.000 C 
BRANCH   3   4
ATOM      4  C   UNL     1       8.069  21.419  29.822  1.00  0.00     0.000 C 
BRANCH   4   5
ATOM      5  C   UNL     1       8.004  22.570  30.836  1.00  0.00     0.000 C 
BRANCH   5   6
ATOM      6  C   UNL     1       8.788  22.274  32.127  1.00  0.00     0.006 C 
BRANCH   6   7
ATOM      7  C   UNL     1      10.246  22.761  32.108  1.00  0.00     0.053 C 
BRANCH   7   8
ATOM      8  C   UNL     1      10.340  24.248  31.953  1.00  0.00     0.041 C 
ATOM      9  O   UNL     1      11.092  24.746  31.074  1.00  0.00    -0.550 OA
ATOM     10  O   UNL     1       9.572  25.082  32.755  1.00  0.00    -0.550 OA
ENDBRANCH   7   8
ENDBRANCH   6   7
ENDBRANCH   5   6
ENDBRANCH   4   5
ENDBRANCH   3   4
ENDBRANCH   2   3
ENDBRANCH   1   2
BRANCH   1  11
ATOM     11  C   UNL     1      10.153  18.696  31.867  1.00  0.00     0.000 C 
BRANCH  11  12
ATOM     12  C   UNL     1       9.661  17.848  33.054  1.00  0.00    -0.000 C 
BRANCH  12  13
ATOM     13  C   UNL     1       8.206  18.162  33.440  1.00  0.00    -0.000 C 
BRANCH  13  14
ATOM     14  C   UNL     1       8.103  19.285  34.486  1.00  0.00    -0.000 C 
BRANCH  14  15
ATOM     15  C   UNL     1       9.286  19.286  35.469  1.00  0.00    -0.000 C 
BRANCH  15  16
ATOM     16  C   UNL     1       8.901  18.765  36.861  1.00  0.00    -0.000 C 
BRANCH  16  17
ATOM     17  C   UNL     1       8.056  19.797  37.618  1.00  0.00    -0.003 C 
ATOM     18  C   UNL     1       8.771  21.142  37.701  1.00  0.00     0.004 C 
ENDBRANCH  16  17
ENDBRANCH  15  16
ENDBRANCH  14  15
ENDBRANCH  13  14
ENDBRANCH  12  13
ENDBRANCH  11  12
ENDBRANCH   1  11
TORSDOF 14
ENDMDL
MODEL 7
REMARK VINA RESULT:    -4.896      1.759      2.707
REMARK INTER + INTRA:         -10.584
REMARK INTER:                  -8.470
REMARK INTRA:                  -2.114
REMARK UNBOUND:                -1.680
REMARK SMILES CCCCCCCCCCCCCCCC(=O)[O-]
REMARK SMILES IDX 9 1 10 2 11 3 12 4 13 5 14 6 15 7 16 8 17 9 18 10 8 11 7 12
REMARK SMILES IDX 6 13 5 14 4 15 3 16 2 17 1 18
REMARK H PARENT
REMARK Flexibility Score: inf
ROOT
ATOM      1  C   UNL     1       8.279  19.420  30.540  1.00  0.00     0.000 C 
ENDROOT
BRANCH   1   2
ATOM      2  C   UNL     1       9.480  18.462  30.436  1.00  0.00     0.000 C 
BRANCH   2   3
ATOM      3  C   UNL     1       9.853  17.835  31.788  1.00  0.00     0.000 C 
BRANCH   3   4
ATOM      4  C   UNL     1       8.794  18.092  32.872  1.00  0.00     0.000 C 
BRANCH   4   5
ATOM      5  C   UNL     1       9.273  17.582  34.238  1.00  0.00     0.000 C 
BRANCH   5   6
ATOM      6  C   UNL     1      10.787  17.308  34.276  1.00  0.00     0.006 C 
BRANCH   6   7
ATOM      7  C   UNL     1      11.352  17.063  35.685  1.00  0.00     0.053 C 
BRANCH   7   8
ATOM      8  C   UNL     1      12.829  16.820  35.664  1.00  0.00     0.041 C 
ATOM      9  O   UNL     1      13.596  17.635  35.085  1.00  0.00    -0.550 OA
ATOM     10  O   UNL     1      13.363  15.714  36.312  1.00  0.00    -0.550 OA
ENDBRANCH   7   8
ENDBRANCH   6   7
ENDBRANCH   5   6
ENDBRANCH   4   5
ENDBRANCH   3   4
ENDBRANCH   2   3
ENDBRANCH   1   2
BRANCH   1  11
ATOM     11  C   UNL     1       8.223  20.428  29.381  1.00  0.00     0.000 C 
BRANCH  11  12
ATOM     12  C   UNL     1       8.023  21.875  29.868  1.00  0.00    -0.000 C 
BRANCH  12  13
ATOM     13  C   UNL     1       7.928  21.974  31.400  1.00  0.00    -0.000 C 
BRANCH  13  14
ATOM     14  C   UNL     1       8.498  23.296  31.942  1.00  0.00    -0.000 C 
BRANCH  14  15
ATOM     15  C   UNL     1       9.314  23.103  33.230  1.00  0.00    -0.000 C 
BRANCH  15  16
ATOM     16  C   UNL     1       9.215  21.675  33.788  1.00  0.00    -0.000 C 
BRANCH  16  17
ATOM     17  C   UNL     1      10.608  21.062  33.975  1.00  0.00    -0.003 C 
ATOM     18  C   UNL     1      11.388  21.054  32.663  1.00  0.00     0.004 C 
ENDBRANCH  16  17
ENDBRANCH  15  16
ENDBRANCH  14  15
ENDBRANCH  13  14
ENDBRANCH  12  13
ENDBRANCH  11  12
ENDBRANCH   1  11
TORSDOF 14
ENDMDL
MODEL 8
REMARK VINA RESULT:    -4.878      2.309      5.736
REMARK INTER + INTRA:         -10.550
REMARK INTER:                  -9.122
REMARK INTRA:                  -1.428
REMARK UNBOUND:                -1.680
REMARK SMILES CCCCCCCCCCCCCCCC(=O)[O-]
REMARK SMILES IDX 9 1 10 2 11 3 12 4 13 5 14 6 15 7 16 8 17 9 18 10 8 11 7 12
REMARK SMILES IDX 6 13 5 14 4 15 3 16 2 17 1 18
REMARK H PARENT
REMARK Flexibility Score: inf
ROOT
ATOM      1  C   UNL     1      10.073  18.472  32.064  1.00  0.00     0.000 C 
ENDROOT
BRANCH   1   2
ATOM      2  C   UNL     1       9.808  17.722  30.745  1.00  0.00     0.000 C 
BRANCH   2   3
ATOM      3  C   UNL     1       9.054  18.581  29.719  1.00  0.00     0.000 C 
BRANCH   3   4
ATOM      4  C   UNL     1       8.299  19.752  30.369  1.00  0.00     0.000 C 
BRANCH   4   5
ATOM      5  C   UNL     1       8.086  20.892  29.363  1.00  0.00     0.000 C 
BRANCH   5   6
ATOM      6  C   UNL     1       7.991  22.274  30.036  1.00  0.00     0.006 C 
BRANCH   6   7
ATOM      7  C   UNL     1       7.949  22.228  31.571  1.00  0.00     0.053 C 
BRANCH   7   8
ATOM      8  C   UNL     1       9.180  22.819  32.185  1.00  0.00     0.041 C 
ATOM      9  O   UNL     1       9.096  23.844  32.913  1.00  0.00    -0.550 OA
ATOM     10  O   UNL     1      10.416  22.219  31.982  1.00  0.00    -0.550 OA
ENDBRANCH   7   8
ENDBRANCH   6   7
ENDBRANCH   5   6
ENDBRANCH   4   5
ENDBRANCH   3   4
ENDBRANCH   2   3
ENDBRANCH   1   2
BRANCH   1  11
ATOM     11  C   UNL     1       9.475  17.754  33.284  1.00  0.00     0.000 C 
BRANCH  11  12
ATOM     12  C   UNL     1       8.191  18.433  33.796  1.00  0.00    -0.000 C 
BRANCH  12  13
ATOM     13  C   UNL     1       7.878  18.075  35.259  1.00  0.00    -0.000 C 
BRANCH  13  14
ATOM     14  C   UNL     1       9.140  17.718  36.062  1.00  0.00    -0.000 C 
BRANCH  14  15
ATOM     15  C   UNL     1       9.298  18.579  37.326  1.00  0.00    -0.000 C 
BRANCH  15  16
ATOM     16  C   UNL     1       8.116  19.535  37.545  1.00  0.00    -0.000 C 
BRANCH  16  17
ATOM     17  C   UNL     1       8.585  20.995  37.544  1.00  0.00    -0.003 C 
ATOM     18  C   UNL     1       9.326  21.335  36.254  1.00  0.00     0.004 C 
ENDBRANCH  16  17
ENDBRANCH  15  16
ENDBRANCH  14  15
ENDBRANCH  13  14
ENDBRANCH  12  13
ENDBRANCH  11  12
ENDBRANCH   1  11
TORSDOF 14
ENDMDL
MODEL 9
REMARK VINA RESULT:    -4.865      1.766      2.424
REMARK INTER + INTRA:         -10.526
REMARK INTER:                  -8.487
REMARK INTRA:                  -2.039
REMARK UNBOUND:                -1.680
REMARK SMILES CCCCCCCCCCCCCCCC(=O)[O-]
REMARK SMILES IDX 9 1 10 2 11 3 12 4 13 5 14 6 15 7 16 8 17 9 18 10 8 11 7 12
REMARK SMILES IDX 6 13 5 14 4 15 3 16 2 17 1 18
REMARK H PARENT
REMARK Flexibility Score: inf
ROOT
ATOM      1  C   UNL     1       9.378  18.475  30.490  1.00  0.00     0.000 C 
ENDROOT
BRANCH   1   2
ATOM      2  C   UNL     1       8.932  18.242  31.944  1.00  0.00     0.000 C 
BRANCH   2   3
ATOM      3  C   UNL     1      10.052  17.660  32.820  1.00  0.00     0.000 C 
BRANCH   3   4
ATOM      4  C   UNL     1       9.590  17.368  34.256  1.00  0.00     0.000 C 
BRANCH   4   5
ATOM      5  C   UNL     1       8.140  17.827  34.469  1.00  0.00     0.000 C 
BRANCH   5   6
ATOM      6  C   UNL     1       7.892  18.388  35.881  1.00  0.00     0.006 C 
BRANCH   6   7
ATOM      7  C   UNL     1       8.985  19.345  36.383  1.00  0.00     0.053 C 
BRANCH   7   8
ATOM      8  C   UNL     1       8.546  20.115  37.591  1.00  0.00     0.041 C 
ATOM      9  O   UNL     1       8.141  19.507  38.616  1.00  0.00    -0.550 OA
ATOM     10  O   UNL     1       8.617  21.502  37.596  1.00  0.00    -0.550 OA
ENDBRANCH   7   8
ENDBRANCH   6   7
ENDBRANCH   5   6
ENDBRANCH   4   5
ENDBRANCH   3   4
ENDBRANCH   2   3
ENDBRANCH   1   2
BRANCH   1  11
ATOM     11  C   UNL     1       8.630  19.638  29.819  1.00  0.00     0.000 C 
BRANCH  11  12
ATOM     12  C   UNL     1       8.055  20.636  30.842  1.00  0.00    -0.000 C 
BRANCH  12  13
ATOM     13  C   UNL     1       8.425  22.093  30.516  1.00  0.00    -0.000 C 
BRANCH  13  14
ATOM     14  C   UNL     1       9.422  22.687  31.526  1.00  0.00    -0.000 C 
BRANCH  14  15
ATOM     15  C   UNL     1       9.707  21.739  32.702  1.00  0.00    -0.000 C 
BRANCH  15  16
ATOM     16  C   UNL     1      11.167  21.263  32.739  1.00  0.00    -0.000 C 
BRANCH  16  17
ATOM     17  C   UNL     1      11.578  20.870  34.164  1.00  0.00    -0.003 C 
ATOM     18  C   UNL     1      11.302  22.001  35.150  1.00  0.00     0.004 C 
ENDBRANCH  16  17
ENDBRANCH  15  16
ENDBRANCH  14  15
ENDBRANCH  13  14
ENDBRANCH  12  13
ENDBRANCH  11  12
ENDBRANCH   1  11
TORSDOF 14
ENDMDL
