MODEL 1
REMARK VINA RESULT:    -4.158      0.000      0.000
REMARK INTER + INTRA:          -5.563
REMARK INTER:                  -5.374
REMARK INTRA:                  -0.190
REMARK UNBOUND:                -0.190
REMARK SMILES CCCCCCC(=O)[O-]
REMARK SMILES IDX 5 1 6 2 7 3 8 4 9 5 4 6 3 7 2 8 1 9
REMARK H PARENT
REMARK Flexibility Score: inf
ROOT
ATOM      1  C   UNL     1      -8.901 -19.398  -5.658  1.00  0.00     0.006 C 
ENDROOT
BRANCH   1   2
ATOM      2  C   UNL     1      -9.752 -18.752  -6.758  1.00  0.00     0.053 C 
BRANCH   2   3
ATOM      3  C   UNL     1     -10.503 -19.797  -7.521  1.00  0.00     0.041 C 
ATOM      4  O   UNL     1     -11.124 -20.705  -6.907  1.00  0.00    -0.550 OA
ATOM      5  O   UNL     1     -10.560 -19.740  -8.907  1.00  0.00    -0.550 OA
ENDBRANCH   2   3
ENDBRANCH   1   2
BRANCH   1   6
ATOM      6  C   UNL     1      -7.567 -19.961  -6.183  1.00  0.00     0.000 C 
BRANCH   6   7
ATOM      7  C   UNL     1      -6.532 -20.297  -5.093  1.00  0.00    -0.000 C 
BRANCH   7   8
ATOM      8  C   UNL     1      -7.097 -20.172  -3.672  1.00  0.00    -0.003 C 
ATOM      9  C   UNL     1      -6.331 -21.062  -2.696  1.00  0.00     0.004 C 
ENDBRANCH   7   8
ENDBRANCH   6   7
ENDBRANCH   1   6
TORSDOF 5
ENDMDL
MODEL 2
REMARK VINA RESULT:    -4.131     13.438     14.536
REMARK INTER + INTRA:          -5.528
REMARK INTER:                  -5.376
REMARK INTRA:                  -0.153
REMARK UNBOUND:                -0.190
REMARK SMILES CCCCCCC(=O)[O-]
REMARK SMILES IDX 5 1 6 2 7 3 8 4 9 5 4 6 3 7 2 8 1 9
REMARK H PARENT
REMARK Flexibility Score: inf
ROOT
ATOM      1  C   UNL     1       2.646 -20.624 -13.873  1.00  0.00     0.006 C 
ENDROOT
BRANCH   1   2
ATOM      2  C   UNL     1       3.061 -20.381 -12.417  1.00  0.00     0.053 C 
BRANCH   2   3
ATOM      3  C   UNL     1       4.104 -21.369 -11.998  1.00  0.00     0.041 C 
ATOM      4  O   UNL     1       5.298 -21.223 -12.370  1.00  0.00    -0.550 OA
ATOM      5  O   UNL     1       3.767 -22.421 -11.157  1.00  0.00    -0.550 OA
ENDBRANCH   2   3
ENDBRANCH   1   2
BRANCH   1   6
ATOM      6  C   UNL     1       1.284 -19.998 -14.223  1.00  0.00     0.000 C 
BRANCH   6   7
ATOM      7  C   UNL     1       0.299 -20.944 -14.935  1.00  0.00    -0.000 C 
BRANCH   7   8
ATOM      8  C   UNL     1       0.989 -22.162 -15.565  1.00  0.00    -0.003 C 
ATOM      9  C   UNL     1       0.380 -22.498 -16.924  1.00  0.00     0.004 C 
ENDBRANCH   7   8
ENDBRANCH   6   7
ENDBRANCH   1   6
TORSDOF 5
ENDMDL
MODEL 3
REMARK VINA RESULT:    -3.894      9.970     11.135
REMARK INTER + INTRA:          -5.222
REMARK INTER:                  -5.017
REMARK INTRA:                  -0.206
REMARK UNBOUND:                -0.190
REMARK SMILES CCCCCCC(=O)[O-]
REMARK SMILES IDX 5 1 6 2 7 3 8 4 9 5 4 6 3 7 2 8 1 9
REMARK H PARENT
REMARK Flexibility Score: inf
ROOT
ATOM      1  C   UNL     1      -0.097 -16.331  -4.981  1.00  0.00     0.006 C 
ENDROOT
BRANCH   1   2
ATOM      2  C   UNL     1       0.284 -15.168  -4.056  1.00  0.00     0.053 C 
BRANCH   2   3
ATOM      3  C   UNL     1       0.630 -15.676  -2.692  1.00  0.00     0.041 C 
ATOM      4  O   UNL     1       1.331 -14.975  -1.915  1.00  0.00    -0.550 OA
ATOM      5  O   UNL     1       0.137 -16.900  -2.260  1.00  0.00    -0.550 OA
ENDBRANCH   2   3
ENDBRANCH   1   2
BRANCH   1   6
ATOM      6  C   UNL     1      -0.658 -15.863  -6.335  1.00  0.00     0.000 C 
BRANCH   6   7
ATOM      7  C   UNL     1      -0.141 -14.493  -6.813  1.00  0.00    -0.000 C 
BRANCH   7   8
ATOM      8  C   UNL     1       0.512 -14.551  -8.201  1.00  0.00    -0.003 C 
ATOM      9  C   UNL     1       0.824 -15.991  -8.602  1.00  0.00     0.004 C 
ENDBRANCH   7   8
ENDBRANCH   6   7
ENDBRANCH   1   6
TORSDOF 5
ENDMDL
MODEL 4
REMARK VINA RESULT:    -3.705      8.642      9.912
REMARK INTER + INTRA:          -4.978
REMARK INTER:                  -4.842
REMARK INTRA:                  -0.136
REMARK UNBOUND:                -0.190
REMARK SMILES CCCCCCC(=O)[O-]
REMARK SMILES IDX 5 1 6 2 7 3 8 4 9 5 4 6 3 7 2 8 1 9
REMARK H PARENT
REMARK Flexibility Score: inf
ROOT
ATOM      1  C   UNL     1      -6.175 -16.493 -14.897  1.00  0.00     0.006 C 
ENDROOT
BRANCH   1   2
ATOM      2  C   UNL     1      -6.413 -15.709 -16.194  1.00  0.00     0.053 C 
BRANCH   2   3
ATOM      3  C   UNL     1      -7.617 -16.235 -16.910  1.00  0.00     0.041 C 
ATOM      4  O   UNL     1      -7.780 -17.476 -17.047  1.00  0.00    -0.550 OA
ATOM      5  O   UNL     1      -8.584 -15.357 -17.381  1.00  0.00    -0.550 OA
ENDBRANCH   2   3
ENDBRANCH   1   2
BRANCH   1   6
ATOM      6  C   UNL     1      -6.495 -15.675 -13.633  1.00  0.00     0.000 C 
BRANCH   6   7
ATOM      7  C   UNL     1      -6.711 -16.511 -12.357  1.00  0.00    -0.000 C 
BRANCH   7   8
ATOM      8  C   UNL     1      -7.436 -15.734 -11.249  1.00  0.00    -0.003 C 
ATOM      9  C   UNL     1      -7.408 -14.232 -11.522  1.00  0.00     0.004 C 
ENDBRANCH   7   8
ENDBRANCH   6   7
ENDBRANCH   1   6
TORSDOF 5
ENDMDL
MODEL 5
REMARK VINA RESULT:    -3.624      9.553     10.783
REMARK INTER + INTRA:          -4.873
REMARK INTER:                  -4.704
REMARK INTRA:                  -0.169
REMARK UNBOUND:                -0.190
REMARK SMILES CCCCCCC(=O)[O-]
REMARK SMILES IDX 5 1 6 2 7 3 8 4 9 5 4 6 3 7 2 8 1 9
REMARK H PARENT
REMARK Flexibility Score: inf
ROOT
ATOM      1  C   UNL     1      -6.737 -18.110 -16.156  1.00  0.00     0.006 C 
ENDROOT
BRANCH   1   2
ATOM      2  C   UNL     1      -6.926 -16.589 -16.227  1.00  0.00     0.053 C 
BRANCH   2   3
ATOM      3  C   UNL     1      -7.776 -16.221 -17.401  1.00  0.00     0.041 C 
ATOM      4  O   UNL     1      -8.665 -15.336 -17.287  1.00  0.00    -0.550 OA
ATOM      5  O   UNL     1      -7.554 -16.820 -18.635  1.00  0.00    -0.550 OA
ENDBRANCH   2   3
ENDBRANCH   1   2
BRANCH   1   6
ATOM      6  C   UNL     1      -6.337 -18.602 -14.753  1.00  0.00     0.000 C 
BRANCH   6   7
ATOM      7  C   UNL     1      -7.229 -19.719 -14.179  1.00  0.00    -0.000 C 
BRANCH   7   8
ATOM      8  C   UNL     1      -8.231 -20.270 -15.203  1.00  0.00    -0.003 C 
ATOM      9  C   UNL     1      -8.236 -21.797 -15.200  1.00  0.00     0.004 C 
ENDBRANCH   7   8
ENDBRANCH   6   7
ENDBRANCH   1   6
TORSDOF 5
ENDMDL
MODEL 6
REMARK VINA RESULT:    -3.595      9.100     10.381
REMARK INTER + INTRA:          -4.835
REMARK INTER:                  -4.644
REMARK INTRA:                  -0.191
REMARK UNBOUND:                -0.190
REMARK SMILES CCCCCCC(=O)[O-]
REMARK SMILES IDX 5 1 6 2 7 3 8 4 9 5 4 6 3 7 2 8 1 9
REMARK H PARENT
REMARK Flexibility Score: inf
ROOT
ATOM      1  C   UNL     1      -6.960 -14.989 -15.768  1.00  0.00     0.006 C 
ENDROOT
BRANCH   1   2
ATOM      2  C   UNL     1      -6.337 -16.283 -16.308  1.00  0.00     0.053 C 
BRANCH   2   3
ATOM      3  C   UNL     1      -7.330 -17.037 -17.134  1.00  0.00     0.041 C 
ATOM      4  O   UNL     1      -8.051 -17.924 -16.606  1.00  0.00    -0.550 OA
ATOM      5  O   UNL     1      -7.496 -16.725 -18.478  1.00  0.00    -0.550 OA
ENDBRANCH   2   3
ENDBRANCH   1   2
BRANCH   1   6
ATOM      6  C   UNL     1      -6.492 -14.645 -14.343  1.00  0.00     0.000 C 
BRANCH   6   7
ATOM      7  C   UNL     1      -6.295 -15.858 -13.414  1.00  0.00    -0.000 C 
BRANCH   7   8
ATOM      8  C   UNL     1      -7.002 -15.698 -12.062  1.00  0.00    -0.003 C 
ATOM      9  C   UNL     1      -7.179 -14.224 -11.705  1.00  0.00     0.004 C 
ENDBRANCH   7   8
ENDBRANCH   6   7
ENDBRANCH   1   6
TORSDOF 5
ENDMDL
MODEL 7
REMARK VINA RESULT:    -3.552      4.039      5.763
REMARK INTER + INTRA:          -4.779
REMARK INTER:                  -4.643
REMARK INTRA:                  -0.136
REMARK UNBOUND:                -0.190
REMARK SMILES CCCCCCC(=O)[O-]
REMARK SMILES IDX 5 1 6 2 7 3 8 4 9 5 4 6 3 7 2 8 1 9
REMARK H PARENT
REMARK Flexibility Score: inf
ROOT
ATOM      1  C   UNL     1      -8.254 -18.774  -9.566  1.00  0.00     0.006 C 
ENDROOT
BRANCH   1   2
ATOM      2  C   UNL     1      -9.129 -18.645  -8.313  1.00  0.00     0.053 C 
BRANCH   2   3
ATOM      3  C   UNL     1     -10.217 -19.671  -8.325  1.00  0.00     0.041 C 
ATOM      4  O   UNL     1     -10.442 -20.342  -9.367  1.00  0.00    -0.550 OA
ATOM      5  O   UNL     1     -10.950 -19.921  -7.172  1.00  0.00    -0.550 OA
ENDBRANCH   2   3
ENDBRANCH   1   2
BRANCH   1   6
ATOM      6  C   UNL     1      -7.812 -17.414 -10.134  1.00  0.00     0.000 C 
BRANCH   6   7
ATOM      7  C   UNL     1      -7.054 -17.485 -11.473  1.00  0.00    -0.000 C 
BRANCH   7   8
ATOM      8  C   UNL     1      -6.840 -16.107 -12.114  1.00  0.00    -0.003 C 
ATOM      9  C   UNL     1      -7.377 -14.994 -11.217  1.00  0.00     0.004 C 
ENDBRANCH   7   8
ENDBRANCH   6   7
ENDBRANCH   1   6
TORSDOF 5
ENDMDL
MODEL 8
REMARK VINA RESULT:    -3.348      9.380     10.393
REMARK INTER + INTRA:          -4.517
REMARK INTER:                  -4.370
REMARK INTRA:                  -0.146
REMARK UNBOUND:                -0.190
REMARK SMILES CCCCCCC(=O)[O-]
REMARK SMILES IDX 5 1 6 2 7 3 8 4 9 5 4 6 3 7 2 8 1 9
REMARK H PARENT
REMARK Flexibility Score: inf
ROOT
ATOM      1  C   UNL     1       0.721 -19.257  -3.845  1.00  0.00     0.006 C 
ENDROOT
BRANCH   1   2
ATOM      2  C   UNL     1       0.264 -17.913  -4.426  1.00  0.00     0.053 C 
BRANCH   2   3
ATOM      3  C   UNL     1      -0.365 -17.070  -3.362  1.00  0.00     0.041 C 
ATOM      4  O   UNL     1       0.021 -17.166  -2.168  1.00  0.00    -0.550 OA
ATOM      5  O   UNL     1      -1.344 -16.143  -3.698  1.00  0.00    -0.550 OA
ENDBRANCH   2   3
ENDBRANCH   1   2
BRANCH   1   6
ATOM      6  C   UNL     1       2.161 -19.627  -4.245  1.00  0.00     0.000 C 
BRANCH   6   7
ATOM      7  C   UNL     1       2.416 -21.135  -4.427  1.00  0.00    -0.000 C 
BRANCH   7   8
ATOM      8  C   UNL     1       1.973 -21.967  -3.216  1.00  0.00    -0.003 C 
ATOM      9  C   UNL     1       3.175 -22.576  -2.498  1.00  0.00     0.004 C 
ENDBRANCH   7   8
ENDBRANCH   6   7
ENDBRANCH   1   6
TORSDOF 5
ENDMDL
MODEL 9
REMARK VINA RESULT:    -3.326     12.460     13.660
REMARK INTER + INTRA:          -4.488
REMARK INTER:                  -4.175
REMARK INTRA:                  -0.313
REMARK UNBOUND:                -0.190
REMARK SMILES CCCCCCC(=O)[O-]
REMARK SMILES IDX 5 1 6 2 7 3 8 4 9 5 4 6 3 7 2 8 1 9
REMARK H PARENT
REMARK Flexibility Score: inf
ROOT
ATOM      1  C   UNL     1       3.666 -19.983 -13.191  1.00  0.00     0.006 C 
ENDROOT
BRANCH   1   2
ATOM      2  C   UNL     1       4.290 -20.932 -12.160  1.00  0.00     0.053 C 
BRANCH   2   3
ATOM      3  C   UNL     1       3.954 -20.490 -10.771  1.00  0.00     0.041 C 
ATOM      4  O   UNL     1       3.993 -21.312  -9.819  1.00  0.00    -0.550 OA
ATOM      5  O   UNL     1       3.647 -19.159 -10.520  1.00  0.00    -0.550 OA
ENDBRANCH   2   3
ENDBRANCH   1   2
BRANCH   1   6
ATOM      6  C   UNL     1       2.541 -20.641 -14.011  1.00  0.00     0.000 C 
BRANCH   6   7
ATOM      7  C   UNL     1       1.209 -19.868 -14.021  1.00  0.00    -0.000 C 
BRANCH   7   8
ATOM      8  C   UNL     1       0.226 -20.356 -12.947  1.00  0.00    -0.003 C 
ATOM      9  C   UNL     1       0.307 -19.488 -11.694  1.00  0.00     0.004 C 
ENDBRANCH   7   8
ENDBRANCH   6   7
ENDBRANCH   1   6
TORSDOF 5
ENDMDL
