MODEL 1
REMARK VINA RESULT:    -2.232      0.000      0.000
REMARK INTER + INTRA:          -2.427
REMARK INTER:                  -2.427
REMARK INTRA:                   0.000
REMARK UNBOUND:                 0.000
REMARK SMILES [NH3+]CC(=O)[O-]
REMARK SMILES IDX 2 1 1 2 3 6 4 7 5 8
REMARK H PARENT 1 3 1 4 1 5
REMARK Flexibility Score: inf
ROOT
ATOM      1  C   UNL     1     126.477 113.221 121.518  1.00  0.00     0.312 C 
ENDROOT
BRANCH   1   2
ATOM      2  N   UNL     1     125.988 111.946 120.998  1.00  0.00    -0.353 N 
ATOM      3  H   UNL     1     125.275 111.542 121.649  1.00  0.00     0.344 HD
ATOM      4  H   UNL     1     126.784 111.276 120.887  1.00  0.00     0.344 HD
ATOM      5  H   UNL     1     125.545 112.103 120.064  1.00  0.00     0.344 HD
ENDBRANCH   1   2
BRANCH   1   6
ATOM      6  C   UNL     1     127.974 113.241 121.551  1.00  0.00     0.096 C 
ATOM      7  O   UNL     1     128.602 114.270 121.190  1.00  0.00    -0.544 OA
ATOM      8  O   UNL     1     128.672 112.140 122.031  1.00  0.00    -0.544 OA
ENDBRANCH   1   6
TORSDOF 2
ENDMDL
MODEL 2
REMARK VINA RESULT:    -2.142     20.519     20.824
REMARK INTER + INTRA:          -2.330
REMARK INTER:                  -2.330
REMARK INTRA:                   0.000
REMARK UNBOUND:                 0.000
REMARK SMILES [NH3+]CC(=O)[O-]
REMARK SMILES IDX 2 1 1 2 3 6 4 7 5 8
REMARK H PARENT 1 3 1 4 1 5
REMARK Flexibility Score: inf
ROOT
ATOM      1  C   UNL     1     109.875 123.684 122.016  1.00  0.00     0.312 C 
ENDROOT
BRANCH   1   2
ATOM      2  N   UNL     1     110.424 122.887 123.112  1.00  0.00    -0.353 N 
ATOM      3  H   UNL     1     109.726 122.814 123.888  1.00  0.00     0.344 HD
ATOM      4  H   UNL     1     111.304 123.328 123.469  1.00  0.00     0.344 HD
ATOM      5  H   UNL     1     110.645 121.928 122.761  1.00  0.00     0.344 HD
ENDBRANCH   1   2
BRANCH   1   6
ATOM      6  C   UNL     1     110.377 125.093 122.082  1.00  0.00     0.096 C 
ATOM      7  O   UNL     1     110.013 125.936 121.221  1.00  0.00    -0.544 OA
ATOM      8  O   UNL     1     111.206 125.486 123.125  1.00  0.00    -0.544 OA
ENDBRANCH   1   6
TORSDOF 2
ENDMDL
MODEL 3
REMARK VINA RESULT:    -2.105     19.901     20.283
REMARK INTER + INTRA:          -2.289
REMARK INTER:                  -2.289
REMARK INTRA:                   0.000
REMARK UNBOUND:                 0.000
REMARK SMILES [NH3+]CC(=O)[O-]
REMARK SMILES IDX 2 1 1 2 3 6 4 7 5 8
REMARK H PARENT 1 3 1 4 1 5
REMARK Flexibility Score: inf
ROOT
ATOM      1  C   UNL     1     122.452 127.085 106.976  1.00  0.00     0.312 C 
ENDROOT
BRANCH   1   2
ATOM      2  N   UNL     1     121.705 126.188 106.097  1.00  0.00    -0.353 N 
ATOM      3  H   UNL     1     121.321 126.721 105.283  1.00  0.00     0.344 HD
ATOM      4  H   UNL     1     120.920 125.740 106.626  1.00  0.00     0.344 HD
ATOM      5  H   UNL     1     122.345 125.441 105.744  1.00  0.00     0.344 HD
ENDBRANCH   1   2
BRANCH   1   6
ATOM      6  C   UNL     1     123.856 126.598 107.159  1.00  0.00     0.096 C 
ATOM      7  O   UNL     1     124.808 127.419 107.227  1.00  0.00    -0.544 OA
ATOM      8  O   UNL     1     124.107 125.240 107.306  1.00  0.00    -0.544 OA
ENDBRANCH   1   6
TORSDOF 2
ENDMDL
MODEL 4
REMARK VINA RESULT:    -2.064     15.221     15.296
REMARK INTER + INTRA:          -2.245
REMARK INTER:                  -2.245
REMARK INTRA:                   0.000
REMARK UNBOUND:                 0.000
REMARK SMILES [NH3+]CC(=O)[O-]
REMARK SMILES IDX 2 1 1 2 3 6 4 7 5 8
REMARK H PARENT 1 3 1 4 1 5
REMARK Flexibility Score: inf
ROOT
ATOM      1  C   UNL     1     124.737 113.912 106.849  1.00  0.00     0.312 C 
ENDROOT
BRANCH   1   2
ATOM      2  N   UNL     1     124.318 114.987 105.951  1.00  0.00    -0.353 N 
ATOM      3  H   UNL     1     124.620 114.774 104.972  1.00  0.00     0.344 HD
ATOM      4  H   UNL     1     124.738 115.895 106.260  1.00  0.00     0.344 HD
ATOM      5  H   UNL     1     123.277 115.069 105.976  1.00  0.00     0.344 HD
ENDBRANCH   1   2
BRANCH   1   6
ATOM      6  C   UNL     1     123.609 112.958 107.095  1.00  0.00     0.096 C 
ATOM      7  O   UNL     1     123.813 111.716 107.069  1.00  0.00    -0.544 OA
ATOM      8  O   UNL     1     122.344 113.443 107.403  1.00  0.00    -0.544 OA
ENDBRANCH   1   6
TORSDOF 2
ENDMDL
MODEL 5
REMARK VINA RESULT:    -2.054     21.757     22.199
REMARK INTER + INTRA:          -2.235
REMARK INTER:                  -2.235
REMARK INTRA:                   0.000
REMARK UNBOUND:                 0.000
REMARK SMILES [NH3+]CC(=O)[O-]
REMARK SMILES IDX 2 1 1 2 3 6 4 7 5 8
REMARK H PARENT 1 3 1 4 1 5
REMARK Flexibility Score: inf
ROOT
ATOM      1  C   UNL     1     112.188 118.467 106.900  1.00  0.00     0.312 C 
ENDROOT
BRANCH   1   2
ATOM      2  N   UNL     1     113.345 118.272 106.028  1.00  0.00    -0.353 N 
ATOM      3  H   UNL     1     113.421 117.266 105.752  1.00  0.00     0.344 HD
ATOM      4  H   UNL     1     114.219 118.570 106.521  1.00  0.00     0.344 HD
ATOM      5  H   UNL     1     113.227 118.853 105.167  1.00  0.00     0.344 HD
ENDBRANCH   1   2
BRANCH   1   6
ATOM      6  C   UNL     1     111.947 119.925 107.142  1.00  0.00     0.096 C 
ATOM      7  O   UNL     1     110.776 120.386 107.117  1.00  0.00    -0.544 OA
ATOM      8  O   UNL     1     113.012 120.763 107.448  1.00  0.00    -0.544 OA
ENDBRANCH   1   6
TORSDOF 2
ENDMDL
MODEL 6
REMARK VINA RESULT:    -2.034     19.122     19.446
REMARK INTER + INTRA:          -2.212
REMARK INTER:                  -2.212
REMARK INTRA:                   0.000
REMARK UNBOUND:                 0.000
REMARK SMILES [NH3+]CC(=O)[O-]
REMARK SMILES IDX 2 1 1 2 3 6 4 7 5 8
REMARK H PARENT 1 3 1 4 1 5
REMARK Flexibility Score: inf
ROOT
ATOM      1  C   UNL     1     120.619 126.457 111.226  1.00  0.00     0.312 C 
ENDROOT
BRANCH   1   2
ATOM      2  N   UNL     1     120.196 126.420 112.625  1.00  0.00    -0.353 N 
ATOM      3  H   UNL     1     120.946 126.819 113.237  1.00  0.00     0.344 HD
ATOM      4  H   UNL     1     119.994 125.435 112.912  1.00  0.00     0.344 HD
ATOM      5  H   UNL     1     119.327 126.991 112.736  1.00  0.00     0.344 HD
ENDBRANCH   1   2
BRANCH   1   6
ATOM      6  C   UNL     1     119.865 127.509 110.473  1.00  0.00     0.096 C 
ATOM      7  O   UNL     1     119.487 128.558 111.056  1.00  0.00    -0.544 OA
ATOM      8  O   UNL     1     119.625 127.351 109.114  1.00  0.00    -0.544 OA
ENDBRANCH   1   6
TORSDOF 2
ENDMDL
MODEL 7
REMARK VINA RESULT:    -2.015     10.909     11.245
REMARK INTER + INTRA:          -2.192
REMARK INTER:                  -2.192
REMARK INTRA:                   0.000
REMARK UNBOUND:                 0.000
REMARK SMILES [NH3+]CC(=O)[O-]
REMARK SMILES IDX 2 1 1 2 3 6 4 7 5 8
REMARK H PARENT 1 3 1 4 1 5
REMARK Flexibility Score: inf
ROOT
ATOM      1  C   UNL     1     125.088 115.920 111.187  1.00  0.00     0.312 C 
ENDROOT
BRANCH   1   2
ATOM      2  N   UNL     1     125.254 116.322 112.583  1.00  0.00    -0.353 N 
ATOM      3  H   UNL     1     125.869 115.639 113.082  1.00  0.00     0.344 HD
ATOM      4  H   UNL     1     124.322 116.370 113.055  1.00  0.00     0.344 HD
ATOM      5  H   UNL     1     125.699 117.267 112.616  1.00  0.00     0.344 HD
ENDBRANCH   1   2
BRANCH   1   6
ATOM      6  C   UNL     1     126.404 115.925 110.474  1.00  0.00     0.096 C 
ATOM      7  O   UNL     1     127.459 115.617 111.088  1.00  0.00    -0.544 OA
ATOM      8  O   UNL     1     126.458 116.221 109.118  1.00  0.00    -0.544 OA
ENDBRANCH   1   6
TORSDOF 2
ENDMDL
MODEL 8
REMARK VINA RESULT:    -1.989     17.422     17.871
REMARK INTER + INTRA:          -2.163
REMARK INTER:                  -2.163
REMARK INTRA:                   0.000
REMARK UNBOUND:                 0.000
REMARK SMILES [NH3+]CC(=O)[O-]
REMARK SMILES IDX 2 1 1 2 3 6 4 7 5 8
REMARK H PARENT 1 3 1 4 1 5
REMARK Flexibility Score: inf
ROOT
ATOM      1  C   UNL     1     114.656 116.381 111.438  1.00  0.00     0.312 C 
ENDROOT
BRANCH   1   2
ATOM      2  N   UNL     1     114.099 116.918 112.678  1.00  0.00    -0.353 N 
ATOM      3  H   UNL     1     114.791 117.557 113.135  1.00  0.00     0.344 HD
ATOM      4  H   UNL     1     113.857 116.136 113.331  1.00  0.00     0.344 HD
ATOM      5  H   UNL     1     113.231 117.457 112.459  1.00  0.00     0.344 HD
ENDBRANCH   1   2
BRANCH   1   6
ATOM      6  C   UNL     1     113.564 115.926 110.521  1.00  0.00     0.096 C 
ATOM      7  O   UNL     1     113.026 114.800 110.685  1.00  0.00    -0.544 OA
ATOM      8  O   UNL     1     113.105 116.768 109.516  1.00  0.00    -0.544 OA
ENDBRANCH   1   6
TORSDOF 2
ENDMDL
MODEL 9
REMARK VINA RESULT:    -1.986     14.867     15.129
REMARK INTER + INTRA:          -2.160
REMARK INTER:                  -2.160
REMARK INTRA:                   0.000
REMARK UNBOUND:                 0.000
REMARK SMILES [NH3+]CC(=O)[O-]
REMARK SMILES IDX 2 1 1 2 3 6 4 7 5 8
REMARK H PARENT 1 3 1 4 1 5
REMARK Flexibility Score: inf
ROOT
ATOM      1  C   UNL     1     123.749 113.549 107.459  1.00  0.00     0.312 C 
ENDROOT
BRANCH   1   2
ATOM      2  N   UNL     1     123.796 112.158 107.016  1.00  0.00    -0.353 N 
ATOM      3  H   UNL     1     123.019 111.970 106.339  1.00  0.00     0.344 HD
ATOM      4  H   UNL     1     123.710 111.516 107.838  1.00  0.00     0.344 HD
ATOM      5  H   UNL     1     124.710 111.979 106.541  1.00  0.00     0.344 HD
ENDBRANCH   1   2
BRANCH   1   6
ATOM      6  C   UNL     1     124.638 114.406 106.611  1.00  0.00     0.096 C 
ATOM      7  O   UNL     1     124.155 115.069 105.656  1.00  0.00    -0.544 OA
ATOM      8  O   UNL     1     125.990 114.511 106.908  1.00  0.00    -0.544 OA
ENDBRANCH   1   6
TORSDOF 2
ENDMDL
