MODEL 1
REMARK VINA RESULT:     9.226      0.000      0.000
REMARK INTER + INTRA:          12.275
REMARK INTER:                  12.463
REMARK INTRA:                  -0.188
REMARK UNBOUND:                -0.188
REMARK SMILES CCCCCCCC(=O)[O-]
REMARK SMILES IDX 5 1 6 2 7 3 8 4 9 5 10 6 4 7 3 8 2 9 1 10
REMARK H PARENT
REMARK Flexibility Score: inf
ROOT
ATOM      1  C   UNL     1       4.775 -17.639  15.086  1.00  0.00     0.000 C 
ENDROOT
BRANCH   1   2
ATOM      2  C   UNL     1       5.072 -16.624  16.201  1.00  0.00     0.006 C 
BRANCH   2   3
ATOM      3  C   UNL     1       4.974 -17.240  17.603  1.00  0.00     0.053 C 
BRANCH   3   4
ATOM      4  C   UNL     1       4.291 -16.295  18.541  1.00  0.00     0.041 C 
ATOM      5  O   UNL     1       4.734 -15.126  18.698  1.00  0.00    -0.550 OA
ATOM      6  O   UNL     1       3.193 -16.720  19.277  1.00  0.00    -0.550 OA
ENDBRANCH   3   4
ENDBRANCH   2   3
ENDBRANCH   1   2
BRANCH   1   7
ATOM      7  C   UNL     1       4.734 -16.993  13.693  1.00  0.00     0.000 C 
BRANCH   7   8
ATOM      8  C   UNL     1       4.766 -18.064  12.592  1.00  0.00    -0.000 C 
BRANCH   8   9
ATOM      9  C   UNL     1       3.892 -19.282  12.926  1.00  0.00    -0.003 C 
ATOM     10  C   UNL     1       2.558 -19.277  12.177  1.00  0.00     0.004 C 
ENDBRANCH   8   9
ENDBRANCH   7   8
ENDBRANCH   1   7
TORSDOF 6
ENDMDL
MODEL 2
REMARK VINA RESULT:     9.371     12.988     14.402
REMARK INTER + INTRA:          12.469
REMARK INTER:                  12.651
REMARK INTRA:                  -0.181
REMARK UNBOUND:                -0.188
REMARK SMILES CCCCCCCC(=O)[O-]
REMARK SMILES IDX 5 1 6 2 7 3 8 4 9 5 10 6 4 7 3 8 2 9 1 10
REMARK H PARENT
REMARK Flexibility Score: inf
ROOT
ATOM      1  C   UNL     1      -5.079 -14.792  26.621  1.00  0.00     0.000 C 
ENDROOT
BRANCH   1   2
ATOM      2  C   UNL     1      -5.039 -16.312  26.401  1.00  0.00     0.006 C 
BRANCH   2   3
ATOM      3  C   UNL     1      -4.292 -16.705  25.120  1.00  0.00     0.053 C 
BRANCH   3   4
ATOM      4  C   UNL     1      -5.008 -17.814  24.417  1.00  0.00     0.041 C 
ATOM      5  O   UNL     1      -5.449 -18.798  25.068  1.00  0.00    -0.550 OA
ATOM      6  O   UNL     1      -5.149 -17.784  23.035  1.00  0.00    -0.550 OA
ENDBRANCH   3   4
ENDBRANCH   2   3
ENDBRANCH   1   2
BRANCH   1   7
ATOM      7  C   UNL     1      -5.402 -14.016  25.335  1.00  0.00     0.000 C 
BRANCH   7   8
ATOM      8  C   UNL     1      -6.451 -12.927  25.601  1.00  0.00    -0.000 C 
BRANCH   8   9
ATOM      9  C   UNL     1      -6.485 -11.856  24.500  1.00  0.00    -0.003 C 
ATOM     10  C   UNL     1      -6.856 -12.427  23.131  1.00  0.00     0.004 C 
ENDBRANCH   8   9
ENDBRANCH   7   8
ENDBRANCH   1   7
TORSDOF 6
ENDMDL
MODEL 3
REMARK VINA RESULT:     9.447     12.126     13.395
REMARK INTER + INTRA:          12.573
REMARK INTER:                  12.470
REMARK INTRA:                   0.102
REMARK UNBOUND:                -0.188
REMARK SMILES CCCCCCCC(=O)[O-]
REMARK SMILES IDX 5 1 6 2 7 3 8 4 9 5 10 6 4 7 3 8 2 9 1 10
REMARK H PARENT
REMARK Flexibility Score: inf
ROOT
ATOM      1  C   UNL     1      -1.653  -7.677  22.469  1.00  0.00     0.000 C 
ENDROOT
BRANCH   1   2
ATOM      2  C   UNL     1      -2.894  -7.467  23.350  1.00  0.00     0.006 C 
BRANCH   2   3
ATOM      3  C   UNL     1      -2.963  -8.457  24.520  1.00  0.00     0.053 C 
BRANCH   3   4
ATOM      4  C   UNL     1      -1.648  -9.147  24.699  1.00  0.00     0.041 C 
ATOM      5  O   UNL     1      -0.825  -8.732  25.557  1.00  0.00    -0.550 OA
ATOM      6  O   UNL     1      -1.311 -10.221  23.885  1.00  0.00    -0.550 OA
ENDBRANCH   3   4
ENDBRANCH   2   3
ENDBRANCH   1   2
BRANCH   1   7
ATOM      7  C   UNL     1      -1.888  -7.268  21.006  1.00  0.00     0.000 C 
BRANCH   7   8
ATOM      8  C   UNL     1      -3.366  -6.930  20.764  1.00  0.00    -0.000 C 
BRANCH   8   9
ATOM      9  C   UNL     1      -3.823  -7.267  19.336  1.00  0.00    -0.003 C 
ATOM     10  C   UNL     1      -2.975  -8.361  18.687  1.00  0.00     0.004 C 
ENDBRANCH   8   9
ENDBRANCH   7   8
ENDBRANCH   1   7
TORSDOF 6
ENDMDL
MODEL 4
REMARK VINA RESULT:     9.559     14.129     14.799
REMARK INTER + INTRA:          12.723
REMARK INTER:                  12.955
REMARK INTRA:                  -0.232
REMARK UNBOUND:                -0.188
REMARK SMILES CCCCCCCC(=O)[O-]
REMARK SMILES IDX 5 1 6 2 7 3 8 4 9 5 10 6 4 7 3 8 2 9 1 10
REMARK H PARENT
REMARK Flexibility Score: inf
ROOT
ATOM      1  C   UNL     1      -2.720  -8.294  23.987  1.00  0.00     0.000 C 
ENDROOT
BRANCH   1   2
ATOM      2  C   UNL     1      -1.242  -8.148  24.381  1.00  0.00     0.006 C 
BRANCH   2   3
ATOM      3  C   UNL     1      -0.842  -9.080  25.533  1.00  0.00     0.053 C 
BRANCH   3   4
ATOM      4  C   UNL     1       0.256  -8.466  26.343  1.00  0.00     0.041 C 
ATOM      5  O   UNL     1       0.944  -9.178  27.122  1.00  0.00    -0.550 OA
ATOM      6  O   UNL     1       0.489  -7.099  26.274  1.00  0.00    -0.550 OA
ENDBRANCH   3   4
ENDBRANCH   2   3
ENDBRANCH   1   2
BRANCH   1   7
ATOM      7  C   UNL     1      -3.476  -9.288  24.882  1.00  0.00     0.000 C 
BRANCH   7   8
ATOM      8  C   UNL     1      -4.854  -8.735  25.272  1.00  0.00    -0.000 C 
BRANCH   8   9
ATOM      9  C   UNL     1      -5.986  -9.294  24.396  1.00  0.00    -0.003 C 
ATOM     10  C   UNL     1      -6.064 -10.821  24.436  1.00  0.00     0.004 C 
ENDBRANCH   8   9
ENDBRANCH   7   8
ENDBRANCH   1   7
TORSDOF 6
ENDMDL
MODEL 5
REMARK VINA RESULT:     9.879      3.577      5.694
REMARK INTER + INTRA:          13.156
REMARK INTER:                  13.372
REMARK INTRA:                  -0.216
REMARK UNBOUND:                -0.188
REMARK SMILES CCCCCCCC(=O)[O-]
REMARK SMILES IDX 5 1 6 2 7 3 8 4 9 5 10 6 4 7 3 8 2 9 1 10
REMARK H PARENT
REMARK Flexibility Score: inf
ROOT
ATOM      1  C   UNL     1       4.939 -17.056  13.567  1.00  0.00     0.000 C 
ENDROOT
BRANCH   1   2
ATOM      2  C   UNL     1       4.557 -17.978  12.399  1.00  0.00     0.006 C 
BRANCH   2   3
ATOM      3  C   UNL     1       3.799 -19.232  12.859  1.00  0.00     0.053 C 
BRANCH   3   4
ATOM      4  C   UNL     1       2.452 -19.294  12.212  1.00  0.00     0.041 C 
ATOM      5  O   UNL     1       1.917 -18.247  11.758  1.00  0.00    -0.550 OA
ATOM      6  O   UNL     1       1.765 -20.499  12.153  1.00  0.00    -0.550 OA
ENDBRANCH   3   4
ENDBRANCH   2   3
ENDBRANCH   1   2
BRANCH   1   7
ATOM      7  C   UNL     1       4.753 -17.726  14.937  1.00  0.00     0.000 C 
BRANCH   7   8
ATOM      8  C   UNL     1       5.125 -16.762  16.074  1.00  0.00    -0.000 C 
BRANCH   8   9
ATOM      9  C   UNL     1       4.750 -17.310  17.459  1.00  0.00    -0.003 C 
ATOM     10  C   UNL     1       4.200 -16.231  18.392  1.00  0.00     0.004 C 
ENDBRANCH   8   9
ENDBRANCH   7   8
ENDBRANCH   1   7
TORSDOF 6
ENDMDL
MODEL 6
REMARK VINA RESULT:    10.038     12.861     14.254
REMARK INTER + INTRA:          13.371
REMARK INTER:                  13.588
REMARK INTRA:                  -0.217
REMARK UNBOUND:                -0.188
REMARK SMILES CCCCCCCC(=O)[O-]
REMARK SMILES IDX 5 1 6 2 7 3 8 4 9 5 10 6 4 7 3 8 2 9 1 10
REMARK H PARENT
REMARK Flexibility Score: inf
ROOT
ATOM      1  C   UNL     1      -5.067 -15.066  26.321  1.00  0.00     0.000 C 
ENDROOT
BRANCH   1   2
ATOM      2  C   UNL     1      -5.071 -13.798  25.453  1.00  0.00     0.006 C 
BRANCH   2   3
ATOM      3  C   UNL     1      -6.437 -13.100  25.432  1.00  0.00     0.053 C 
BRANCH   3   4
ATOM      4  C   UNL     1      -6.525 -12.160  24.272  1.00  0.00     0.041 C 
ATOM      5  O   UNL     1      -6.903 -12.576  23.145  1.00  0.00    -0.550 OA
ATOM      6  O   UNL     1      -6.142 -10.833  24.423  1.00  0.00    -0.550 OA
ENDBRANCH   3   4
ENDBRANCH   2   3
ENDBRANCH   1   2
BRANCH   1   7
ATOM      7  C   UNL     1      -4.476 -16.282  25.591  1.00  0.00     0.000 C 
BRANCH   7   8
ATOM      8  C   UNL     1      -5.262 -17.558  25.928  1.00  0.00    -0.000 C 
BRANCH   8   9
ATOM      9  C   UNL     1      -5.505 -18.444  24.696  1.00  0.00    -0.003 C 
ATOM     10  C   UNL     1      -5.113 -17.757  23.387  1.00  0.00     0.004 C 
ENDBRANCH   8   9
ENDBRANCH   7   8
ENDBRANCH   1   7
TORSDOF 6
ENDMDL
MODEL 7
REMARK VINA RESULT:    11.784     12.321     13.254
REMARK INTER + INTRA:          15.729
REMARK INTER:                  15.896
REMARK INTRA:                  -0.167
REMARK UNBOUND:                -0.188
REMARK SMILES CCCCCCCC(=O)[O-]
REMARK SMILES IDX 5 1 6 2 7 3 8 4 9 5 10 6 4 7 3 8 2 9 1 10
REMARK H PARENT
REMARK Flexibility Score: inf
ROOT
ATOM      1  C   UNL     1      -9.745 -18.198  17.441  1.00  0.00     0.000 C 
ENDROOT
BRANCH   1   2
ATOM      2  C   UNL     1      -9.825 -16.850  18.175  1.00  0.00     0.006 C 
BRANCH   2   3
ATOM      3  C   UNL     1      -9.141 -15.714  17.403  1.00  0.00     0.053 C 
BRANCH   3   4
ATOM      4  C   UNL     1      -9.205 -14.440  18.185  1.00  0.00     0.041 C 
ATOM      5  O   UNL     1      -8.676 -14.369  19.326  1.00  0.00    -0.550 OA
ATOM      6  O   UNL     1      -9.889 -13.345  17.675  1.00  0.00    -0.550 OA
ENDBRANCH   3   4
ENDBRANCH   2   3
ENDBRANCH   1   2
BRANCH   1   7
ATOM      7  C   UNL     1      -8.314 -18.756  17.384  1.00  0.00     0.000 C 
BRANCH   7   8
ATOM      8  C   UNL     1      -7.989 -19.286  15.979  1.00  0.00    -0.000 C 
BRANCH   8   9
ATOM      9  C   UNL     1      -6.522 -19.719  15.836  1.00  0.00    -0.003 C 
ATOM     10  C   UNL     1      -6.144 -20.061  14.394  1.00  0.00     0.004 C 
ENDBRANCH   8   9
ENDBRANCH   7   8
ENDBRANCH   1   7
TORSDOF 6
ENDMDL
