MODEL 1
REMARK VINA RESULT:    -2.409      0.000      0.000
REMARK INTER + INTRA:          -2.409
REMARK INTER:                  -2.409
REMARK INTRA:                   0.000
REMARK UNBOUND:                 0.000
REMARK SMILES CC(=O)[O-]
REMARK SMILES IDX 1 1 2 2 3 3 4 4
REMARK H PARENT
REMARK Flexibility Score: inf
ROOT
ATOM      1  C   UNL     1     -14.031  59.126   1.188  1.00  0.00     0.063 C 
ATOM      2  C   UNL     1     -15.274  58.575   0.579  1.00  0.00     0.038 C 
ATOM      3  O   UNL     1     -15.353  58.422  -0.668  1.00  0.00    -0.550 OA
ATOM      4  O   UNL     1     -16.330  58.177   1.389  1.00  0.00    -0.550 OA
ENDROOT
TORSDOF 0
ENDMDL
MODEL 2
REMARK VINA RESULT:    -2.365      0.124      1.620
REMARK INTER + INTRA:          -2.365
REMARK INTER:                  -2.365
REMARK INTRA:                   0.000
REMARK UNBOUND:                 0.000
REMARK SMILES CC(=O)[O-]
REMARK SMILES IDX 1 1 2 2 3 3 4 4
REMARK H PARENT
REMARK Flexibility Score: inf
ROOT
ATOM      1  C   UNL     1     -14.020  59.145   1.203  1.00  0.00     0.063 C 
ATOM      2  C   UNL     1     -15.270  58.602   0.601  1.00  0.00     0.038 C 
ATOM      3  O   UNL     1     -16.275  58.379   1.324  1.00  0.00    -0.550 OA
ATOM      4  O   UNL     1     -15.348  58.391  -0.770  1.00  0.00    -0.550 OA
ENDROOT
TORSDOF 0
ENDMDL
MODEL 3
REMARK VINA RESULT:    -2.358     16.485     16.895
REMARK INTER + INTRA:          -2.358
REMARK INTER:                  -2.358
REMARK INTRA:                   0.000
REMARK UNBOUND:                 0.000
REMARK SMILES CC(=O)[O-]
REMARK SMILES IDX 1 1 2 2 3 3 4 4
REMARK H PARENT
REMARK Flexibility Score: inf
ROOT
ATOM      1  C   UNL     1     -19.530  47.307 -10.262  1.00  0.00     0.063 C 
ATOM      2  C   UNL     1     -19.818  46.026  -9.557  1.00  0.00     0.038 C 
ATOM      3  O   UNL     1     -20.792  45.946  -8.764  1.00  0.00    -0.550 OA
ATOM      4  O   UNL     1     -19.045  44.901  -9.814  1.00  0.00    -0.550 OA
ENDROOT
TORSDOF 0
ENDMDL
MODEL 4
REMARK VINA RESULT:    -2.289     16.441     16.784
REMARK INTER + INTRA:          -2.289
REMARK INTER:                  -2.289
REMARK INTRA:                   0.000
REMARK UNBOUND:                 0.000
REMARK SMILES CC(=O)[O-]
REMARK SMILES IDX 1 1 2 2 3 3 4 4
REMARK H PARENT
REMARK Flexibility Score: inf
ROOT
ATOM      1  C   UNL     1     -19.439  47.462 -10.355  1.00  0.00     0.063 C 
ATOM      2  C   UNL     1     -19.687  46.133  -9.729  1.00  0.00     0.038 C 
ATOM      3  O   UNL     1     -18.933  45.161  -9.991  1.00  0.00    -0.550 OA
ATOM      4  O   UNL     1     -20.720  45.977  -8.814  1.00  0.00    -0.550 OA
ENDROOT
TORSDOF 0
ENDMDL
MODEL 5
REMARK VINA RESULT:    -2.244      5.610      6.087
REMARK INTER + INTRA:          -2.244
REMARK INTER:                  -2.244
REMARK INTRA:                   0.000
REMARK UNBOUND:                 0.000
REMARK SMILES CC(=O)[O-]
REMARK SMILES IDX 1 1 2 2 3 3 4 4
REMARK H PARENT
REMARK Flexibility Score: inf
ROOT
ATOM      1  C   UNL     1     -18.046  56.342  -3.975  1.00  0.00     0.063 C 
ATOM      2  C   UNL     1     -19.228  56.414  -3.070  1.00  0.00     0.038 C 
ATOM      3  O   UNL     1     -19.089  56.222  -1.834  1.00  0.00    -0.550 OA
ATOM      4  O   UNL     1     -20.476  56.745  -3.579  1.00  0.00    -0.550 OA
ENDROOT
TORSDOF 0
ENDMDL
MODEL 6
REMARK VINA RESULT:    -2.203      5.388      5.754
REMARK INTER + INTRA:          -2.203
REMARK INTER:                  -2.203
REMARK INTRA:                   0.000
REMARK UNBOUND:                 0.000
REMARK SMILES CC(=O)[O-]
REMARK SMILES IDX 1 1 2 2 3 3 4 4
REMARK H PARENT
REMARK Flexibility Score: inf
ROOT
ATOM      1  C   UNL     1     -17.773  56.268  -4.001  1.00  0.00     0.063 C 
ATOM      2  C   UNL     1     -18.926  56.481  -3.082  1.00  0.00     0.038 C 
ATOM      3  O   UNL     1     -20.066  56.742  -3.548  1.00  0.00    -0.550 OA
ATOM      4  O   UNL     1     -18.760  56.340  -1.710  1.00  0.00    -0.550 OA
ENDROOT
TORSDOF 0
ENDMDL
MODEL 7
REMARK VINA RESULT:    -2.181      4.354      5.021
REMARK INTER + INTRA:          -2.181
REMARK INTER:                  -2.181
REMARK INTRA:                   0.000
REMARK UNBOUND:                 0.000
REMARK SMILES CC(=O)[O-]
REMARK SMILES IDX 1 1 2 2 3 3 4 4
REMARK H PARENT
REMARK Flexibility Score: inf
ROOT
ATOM      1  C   UNL     1     -18.013  56.678  -3.718  1.00  0.00     0.063 C 
ATOM      2  C   UNL     1     -17.335  56.085  -2.531  1.00  0.00     0.038 C 
ATOM      3  O   UNL     1     -17.306  56.714  -1.441  1.00  0.00    -0.550 OA
ATOM      4  O   UNL     1     -16.781  54.814  -2.608  1.00  0.00    -0.550 OA
ENDROOT
TORSDOF 0
ENDMDL
MODEL 8
REMARK VINA RESULT:    -2.166     16.072     16.662
REMARK INTER + INTRA:          -2.166
REMARK INTER:                  -2.166
REMARK INTRA:                   0.000
REMARK UNBOUND:                 0.000
REMARK SMILES CC(=O)[O-]
REMARK SMILES IDX 1 1 2 2 3 3 4 4
REMARK H PARENT
REMARK Flexibility Score: inf
ROOT
ATOM      1  C   UNL     1     -19.990  45.408  -9.997  1.00  0.00     0.063 C 
ATOM      2  C   UNL     1     -19.691  46.865 -10.082  1.00  0.00     0.038 C 
ATOM      3  O   UNL     1     -20.102  47.648  -9.187  1.00  0.00    -0.550 OA
ATOM      4  O   UNL     1     -18.911  47.356 -11.121  1.00  0.00    -0.550 OA
ENDROOT
TORSDOF 0
ENDMDL
MODEL 9
REMARK VINA RESULT:    -2.093     17.161     17.684
REMARK INTER + INTRA:          -2.093
REMARK INTER:                  -2.093
REMARK INTRA:                   0.000
REMARK UNBOUND:                 0.000
REMARK SMILES CC(=O)[O-]
REMARK SMILES IDX 1 1 2 2 3 3 4 4
REMARK H PARENT
REMARK Flexibility Score: inf
ROOT
ATOM      1  C   UNL     1     -20.191  45.779  -9.356  1.00  0.00     0.063 C 
ATOM      2  C   UNL     1     -19.068  45.164 -10.119  1.00  0.00     0.038 C 
ATOM      3  O   UNL     1     -18.991  43.913 -10.232  1.00  0.00    -0.550 OA
ATOM      4  O   UNL     1     -18.134  45.972 -10.754  1.00  0.00    -0.550 OA
ENDROOT
TORSDOF 0
ENDMDL
