MODEL 1
REMARK VINA RESULT:    19.842      0.000      0.000
REMARK INTER + INTRA:          24.513
REMARK INTER:                  25.062
REMARK INTRA:                  -0.549
REMARK UNBOUND:                -0.549
REMARK SMILES Oc1cc(O)cc(CCc2ccccc2O)c1
REMARK SMILES IDX 9 1 10 2 12 3 13 4 11 5 14 6 15 7 16 8 8 10 7 11 6 12 17 13
REMARK SMILES IDX 4 14 2 15 3 16 5 17 1 19
REMARK H PARENT 16 9 5 18 1 20
REMARK Flexibility Score: inf
ROOT
ATOM      1  C   UNL     1     -16.636  10.994 -24.430  1.00  0.00     0.044 C 
ENDROOT
BRANCH   1   2
ATOM      2  C   UNL     1     -17.177  10.122 -25.537  1.00  0.00    -0.006 A 
ATOM      3  C   UNL     1     -17.491   9.756 -27.923  1.00  0.00     0.001 A 
ATOM      4  C   UNL     1     -18.183   8.575 -27.658  1.00  0.00     0.004 A 
ATOM      5  C   UNL     1     -16.995  10.528 -26.870  1.00  0.00     0.007 A 
ATOM      6  C   UNL     1     -18.387   8.165 -26.340  1.00  0.00     0.046 A 
ATOM      7  C   UNL     1     -17.899   8.929 -25.272  1.00  0.00     0.118 A 
BRANCH   7   8
ATOM      8  O   UNL     1     -18.154   8.480 -23.975  1.00  0.00    -0.508 OA
ATOM      9  H   UNL     1     -18.933   8.799 -23.415  1.00  0.00     0.293 HD
ENDBRANCH   7   8
ENDBRANCH   1   2
BRANCH   1  10
ATOM     10  C   UNL     1     -17.749  11.854 -23.822  1.00  0.00     0.040 C 
BRANCH  10  11
ATOM     11  C   UNL     1     -17.574  13.298 -24.211  1.00  0.00    -0.040 A 
ATOM     12  C   UNL     1     -18.677  14.048 -24.653  1.00  0.00     0.050 A 
ATOM     13  C   UNL     1     -16.323  13.922 -24.079  1.00  0.00     0.050 A 
ATOM     14  C   UNL     1     -18.525  15.399 -24.984  1.00  0.00     0.119 A 
ATOM     15  C   UNL     1     -16.169  15.272 -24.409  1.00  0.00     0.119 A 
ATOM     16  C   UNL     1     -17.270  16.010 -24.865  1.00  0.00     0.092 A 
BRANCH  14  17
ATOM     17  O   UNL     1     -19.629  16.125 -25.428  1.00  0.00    -0.508 OA
ATOM     18  H   UNL     1     -20.361  15.691 -25.977  1.00  0.00     0.293 HD
ENDBRANCH  14  17
BRANCH  15  19
ATOM     19  O   UNL     1     -14.918  15.872 -24.278  1.00  0.00    -0.508 OA
ATOM     20  H   UNL     1     -14.262  15.579 -23.563  1.00  0.00     0.293 HD
ENDBRANCH  15  19
ENDBRANCH  10  11
ENDBRANCH   1  10
TORSDOF 6
ENDMDL
MODEL 2
REMARK VINA RESULT:    19.892      0.043      2.040
REMARK INTER + INTRA:          24.576
REMARK INTER:                  25.112
REMARK INTRA:                  -0.536
REMARK UNBOUND:                -0.549
REMARK SMILES Oc1cc(O)cc(CCc2ccccc2O)c1
REMARK SMILES IDX 9 1 10 2 12 3 13 4 11 5 14 6 15 7 16 8 8 10 7 11 6 12 17 13
REMARK SMILES IDX 4 14 2 15 3 16 5 17 1 19
REMARK H PARENT 16 9 5 18 1 20
REMARK Flexibility Score: inf
ROOT
ATOM      1  C   UNL     1     -16.631  11.042 -24.431  1.00  0.00     0.044 C 
ENDROOT
BRANCH   1   2
ATOM      2  C   UNL     1     -17.173  10.152 -25.523  1.00  0.00    -0.006 A 
ATOM      3  C   UNL     1     -17.486   9.746 -27.903  1.00  0.00     0.001 A 
ATOM      4  C   UNL     1     -18.182   8.572 -27.618  1.00  0.00     0.004 A 
ATOM      5  C   UNL     1     -16.988  10.534 -26.864  1.00  0.00     0.007 A 
ATOM      6  C   UNL     1     -18.389   8.186 -26.293  1.00  0.00     0.046 A 
ATOM      7  C   UNL     1     -17.900   8.967 -25.239  1.00  0.00     0.118 A 
BRANCH   7   8
ATOM      8  O   UNL     1     -18.159   8.542 -23.934  1.00  0.00    -0.508 OA
ATOM      9  H   UNL     1     -17.455   8.147 -23.324  1.00  0.00     0.293 HD
ENDBRANCH   7   8
ENDBRANCH   1   2
BRANCH   1  10
ATOM     10  C   UNL     1     -17.750  11.879 -23.804  1.00  0.00     0.040 C 
BRANCH  10  11
ATOM     11  C   UNL     1     -17.588  13.332 -24.161  1.00  0.00    -0.040 A 
ATOM     12  C   UNL     1     -16.328  13.947 -24.063  1.00  0.00     0.050 A 
ATOM     13  C   UNL     1     -18.679  14.068 -24.651  1.00  0.00     0.050 A 
ATOM     14  C   UNL     1     -16.167  15.288 -24.425  1.00  0.00     0.119 A 
ATOM     15  C   UNL     1     -18.520  15.409 -25.015  1.00  0.00     0.119 A 
ATOM     16  C   UNL     1     -17.264  16.020 -24.899  1.00  0.00     0.092 A 
BRANCH  14  17
ATOM     17  O   UNL     1     -14.911  15.883 -24.314  1.00  0.00    -0.508 OA
ATOM     18  H   UNL     1     -14.669  16.711 -24.845  1.00  0.00     0.293 HD
ENDBRANCH  14  17
BRANCH  15  19
ATOM     19  O   UNL     1     -19.616  16.125 -25.493  1.00  0.00    -0.508 OA
ATOM     20  H   UNL     1     -20.011  15.940 -26.407  1.00  0.00     0.293 HD
ENDBRANCH  15  19
ENDBRANCH  10  11
ENDBRANCH   1  10
TORSDOF 6
ENDMDL
MODEL 3
REMARK VINA RESULT:    21.705      3.720      5.053
REMARK INTER + INTRA:          26.866
REMARK INTER:                  27.007
REMARK INTRA:                  -0.141
REMARK UNBOUND:                -0.549
REMARK SMILES Oc1cc(O)cc(CCc2ccccc2O)c1
REMARK SMILES IDX 9 1 10 2 12 3 13 4 11 5 14 6 15 7 16 8 8 10 7 11 6 12 17 13
REMARK SMILES IDX 4 14 2 15 3 16 5 17 1 19
REMARK H PARENT 16 9 5 18 1 20
REMARK Flexibility Score: inf
ROOT
ATOM      1  C   UNL     1     -16.880  14.601 -26.065  1.00  0.00     0.044 C 
ENDROOT
BRANCH   1   2
ATOM      2  C   UNL     1     -18.019  14.627 -25.074  1.00  0.00    -0.006 A 
ATOM      3  C   UNL     1     -20.094  15.657 -24.326  1.00  0.00     0.001 A 
ATOM      4  C   UNL     1     -20.156  14.768 -23.253  1.00  0.00     0.004 A 
ATOM      5  C   UNL     1     -19.030  15.591 -25.229  1.00  0.00     0.007 A 
ATOM      6  C   UNL     1     -19.152  13.816 -23.075  1.00  0.00     0.046 A 
ATOM      7  C   UNL     1     -18.076  13.739 -23.969  1.00  0.00     0.118 A 
BRANCH   7   8
ATOM      8  O   UNL     1     -17.090  12.781 -23.725  1.00  0.00    -0.508 OA
ATOM      9  H   UNL     1     -17.030  12.243 -22.870  1.00  0.00     0.293 HD
ENDBRANCH   7   8
ENDBRANCH   1   2
BRANCH   1  10
ATOM     10  C   UNL     1     -16.131  15.937 -26.068  1.00  0.00     0.040 C 
BRANCH  10  11
ATOM     11  C   UNL     1     -15.208  16.029 -24.883  1.00  0.00    -0.040 A 
ATOM     12  C   UNL     1     -15.732  16.038 -23.579  1.00  0.00     0.050 A 
ATOM     13  C   UNL     1     -13.816  16.048 -25.067  1.00  0.00     0.050 A 
ATOM     14  C   UNL     1     -14.877  16.090 -22.474  1.00  0.00     0.119 A 
ATOM     15  C   UNL     1     -12.958  16.100 -23.964  1.00  0.00     0.119 A 
ATOM     16  C   UNL     1     -13.489  16.124 -22.667  1.00  0.00     0.092 A 
BRANCH  14  17
ATOM     17  O   UNL     1     -15.415  16.105 -21.189  1.00  0.00    -0.508 OA
ATOM     18  H   UNL     1     -14.824  16.060 -20.367  1.00  0.00     0.293 HD
ENDBRANCH  14  17
BRANCH  15  19
ATOM     19  O   UNL     1     -11.580  16.125 -24.167  1.00  0.00    -0.508 OA
ATOM     20  H   UNL     1     -11.176  15.946 -25.079  1.00  0.00     0.293 HD
ENDBRANCH  15  19
ENDBRANCH  10  11
ENDBRANCH   1  10
TORSDOF 6
ENDMDL
MODEL 4
REMARK VINA RESULT:    22.361      3.225      6.123
REMARK INTER + INTRA:          27.694
REMARK INTER:                  25.296
REMARK INTRA:                   2.398
REMARK UNBOUND:                -0.549
REMARK SMILES Oc1cc(O)cc(CCc2ccccc2O)c1
REMARK SMILES IDX 9 1 10 2 12 3 13 4 11 5 14 6 15 7 16 8 8 10 7 11 6 12 17 13
REMARK SMILES IDX 4 14 2 15 3 16 5 17 1 19
REMARK H PARENT 16 9 5 18 1 20
REMARK Flexibility Score: inf
ROOT
ATOM      1  C   UNL     1     -15.521  16.112 -26.365  1.00  0.00     0.044 C 
ENDROOT
BRANCH   1   2
ATOM      2  C   UNL     1     -14.722  16.125 -25.084  1.00  0.00    -0.006 A 
ATOM      3  C   UNL     1     -12.543  16.089 -23.998  1.00  0.00     0.001 A 
ATOM      4  C   UNL     1     -13.159  16.108 -22.747  1.00  0.00     0.004 A 
ATOM      5  C   UNL     1     -13.318  16.092 -25.160  1.00  0.00     0.007 A 
ATOM      6  C   UNL     1     -14.551  16.125 -22.653  1.00  0.00     0.046 A 
ATOM      7  C   UNL     1     -15.343  16.124 -23.809  1.00  0.00     0.118 A 
BRANCH   7   8
ATOM      8  O   UNL     1     -16.731  16.118 -23.651  1.00  0.00    -0.508 OA
ATOM      9  H   UNL     1     -17.194  16.268 -22.765  1.00  0.00     0.293 HD
ENDBRANCH   7   8
ENDBRANCH   1   2
BRANCH   1  10
ATOM     10  C   UNL     1     -16.139  14.732 -26.608  1.00  0.00     0.040 C 
BRANCH  10  11
ATOM     11  C   UNL     1     -17.231  14.458 -25.609  1.00  0.00    -0.040 A 
ATOM     12  C   UNL     1     -17.051  13.478 -24.619  1.00  0.00     0.050 A 
ATOM     13  C   UNL     1     -18.411  15.219 -25.622  1.00  0.00     0.050 A 
ATOM     14  C   UNL     1     -18.050  13.243 -23.668  1.00  0.00     0.119 A 
ATOM     15  C   UNL     1     -19.411  14.986 -24.672  1.00  0.00     0.119 A 
ATOM     16  C   UNL     1     -19.232  13.996 -23.697  1.00  0.00     0.092 A 
BRANCH  14  17
ATOM     17  O   UNL     1     -17.857  12.261 -22.697  1.00  0.00    -0.508 OA
ATOM     18  H   UNL     1     -18.543  11.532 -22.539  1.00  0.00     0.293 HD
ENDBRANCH  14  17
BRANCH  15  19
ATOM     19  O   UNL     1     -20.579  15.747 -24.705  1.00  0.00    -0.508 OA
ATOM     20  H   UNL     1     -20.706  16.492 -25.379  1.00  0.00     0.293 HD
ENDBRANCH  15  19
ENDBRANCH  10  11
ENDBRANCH   1  10
TORSDOF 6
ENDMDL
