MODEL 1
REMARK VINA RESULT:    -5.423      0.000      0.000
REMARK INTER + INTRA:         -11.644
REMARK INTER:                  -9.862
REMARK INTRA:                  -1.783
REMARK UNBOUND:                -1.783
REMARK SMILES CCCCCCCCCCCCCC[C@H](C)C(=O)[O-]
REMARK SMILES IDX 9 1 10 2 11 3 12 4 13 5 14 6 15 7 16 8 17 9 18 10 19 11 8 12
REMARK SMILES IDX 7 13 6 14 5 15 4 16 3 17 2 18 1 19
REMARK H PARENT
REMARK Flexibility Score: inf
ROOT
ATOM      1  C   UNL     1      25.020  12.185  36.046  1.00  0.00     0.000 C 
ENDROOT
BRANCH   1   2
ATOM      2  C   UNL     1      25.430  10.803  35.520  1.00  0.00     0.000 C 
BRANCH   2   3
ATOM      3  C   UNL     1      26.858  10.833  34.951  1.00  0.00     0.000 C 
BRANCH   3   4
ATOM      4  C   UNL     1      27.594  12.145  35.269  1.00  0.00     0.000 C 
BRANCH   4   5
ATOM      5  C   UNL     1      28.156  12.824  34.008  1.00  0.00     0.001 C 
BRANCH   5   6
ATOM      6  C   UNL     1      27.122  13.709  33.284  1.00  0.00     0.009 C 
BRANCH   6   7
ATOM      7  C   UNL     1      26.647  13.141  31.924  1.00  0.00     0.032 C 
ATOM      8  C   UNL     1      25.351  12.341  32.095  1.00  0.00     0.014 C 
BRANCH   7   9
ATOM      9  C   UNL     1      27.688  12.265  31.281  1.00  0.00     0.044 C 
ATOM     10  O   UNL     1      28.721  12.768  30.764  1.00  0.00    -0.550 OA
ATOM     11  O   UNL     1      27.528  10.884  31.286  1.00  0.00    -0.550 OA
ENDBRANCH   7   9
ENDBRANCH   6   7
ENDBRANCH   5   6
ENDBRANCH   4   5
ENDBRANCH   3   4
ENDBRANCH   2   3
ENDBRANCH   1   2
BRANCH   1  12
ATOM     12  C   UNL     1      23.566  12.506  35.670  1.00  0.00     0.000 C 
BRANCH  12  13
ATOM     13  C   UNL     1      22.868  11.341  34.950  1.00  0.00    -0.000 C 
BRANCH  13  14
ATOM     14  C   UNL     1      21.910  10.567  35.866  1.00  0.00    -0.000 C 
BRANCH  14  15
ATOM     15  C   UNL     1      20.461  10.692  35.378  1.00  0.00    -0.000 C 
BRANCH  15  16
ATOM     16  C   UNL     1      19.798  11.959  35.942  1.00  0.00    -0.000 C 
BRANCH  16  17
ATOM     17  C   UNL     1      19.313  12.913  34.840  1.00  0.00    -0.000 C 
BRANCH  17  18
ATOM     18  C   UNL     1      20.359  13.976  34.475  1.00  0.00    -0.003 C 
ATOM     19  C   UNL     1      20.306  14.311  32.987  1.00  0.00     0.004 C 
ENDBRANCH  17  18
ENDBRANCH  16  17
ENDBRANCH  15  16
ENDBRANCH  14  15
ENDBRANCH  13  14
ENDBRANCH  12  13
ENDBRANCH   1  12
TORSDOF 14
ENDMDL
MODEL 2
REMARK VINA RESULT:    -5.368      1.151      2.827
REMARK INTER + INTRA:         -11.545
REMARK INTER:                  -9.645
REMARK INTRA:                  -1.900
REMARK UNBOUND:                -1.783
REMARK SMILES CCCCCCCCCCCCCC[C@H](C)C(=O)[O-]
REMARK SMILES IDX 9 1 10 2 11 3 12 4 13 5 14 6 15 7 16 8 17 9 18 10 19 11 8 12
REMARK SMILES IDX 7 13 6 14 5 15 4 16 3 17 2 18 1 19
REMARK H PARENT
REMARK Flexibility Score: inf
ROOT
ATOM      1  C   UNL     1      21.832  10.580  35.845  1.00  0.00     0.000 C 
ENDROOT
BRANCH   1   2
ATOM      2  C   UNL     1      22.828  11.120  34.810  1.00  0.00     0.000 C 
BRANCH   2   3
ATOM      3  C   UNL     1      23.726  12.205  35.426  1.00  0.00     0.000 C 
BRANCH   3   4
ATOM      4  C   UNL     1      25.030  11.636  36.008  1.00  0.00     0.000 C 
BRANCH   4   5
ATOM      5  C   UNL     1      26.041  11.248  34.916  1.00  0.00     0.001 C 
BRANCH   5   6
ATOM      6  C   UNL     1      27.464  11.772  35.191  1.00  0.00     0.009 C 
BRANCH   6   7
ATOM      7  C   UNL     1      27.886  12.959  34.291  1.00  0.00     0.032 C 
ATOM      8  C   UNL     1      27.328  14.277  34.838  1.00  0.00     0.014 C 
BRANCH   7   9
ATOM      9  C   UNL     1      27.429  12.781  32.868  1.00  0.00     0.044 C 
ATOM     10  O   UNL     1      26.494  13.485  32.402  1.00  0.00    -0.550 OA
ATOM     11  O   UNL     1      28.066  11.859  32.047  1.00  0.00    -0.550 OA
ENDBRANCH   7   9
ENDBRANCH   6   7
ENDBRANCH   5   6
ENDBRANCH   4   5
ENDBRANCH   3   4
ENDBRANCH   2   3
ENDBRANCH   1   2
BRANCH   1  12
ATOM     12  C   UNL     1      20.590   9.994  35.158  1.00  0.00     0.000 C 
BRANCH  12  13
ATOM     13  C   UNL     1      19.302  10.755  35.511  1.00  0.00    -0.000 C 
BRANCH  13  14
ATOM     14  C   UNL     1      19.577  12.070  36.255  1.00  0.00    -0.000 C 
BRANCH  14  15
ATOM     15  C   UNL     1      18.547  13.142  35.874  1.00  0.00    -0.000 C 
BRANCH  15  16
ATOM     16  C   UNL     1      18.843  13.719  34.481  1.00  0.00    -0.000 C 
BRANCH  16  17
ATOM     17  C   UNL     1      20.327  14.070  34.289  1.00  0.00    -0.000 C 
BRANCH  17  18
ATOM     18  C   UNL     1      20.895  13.538  32.965  1.00  0.00    -0.003 C 
ATOM     19  C   UNL     1      19.953  12.515  32.336  1.00  0.00     0.004 C 
ENDBRANCH  17  18
ENDBRANCH  16  17
ENDBRANCH  15  16
ENDBRANCH  14  15
ENDBRANCH  13  14
ENDBRANCH  12  13
ENDBRANCH   1  12
TORSDOF 14
ENDMDL
MODEL 3
REMARK VINA RESULT:    -5.345      1.511      3.546
REMARK INTER + INTRA:         -11.503
REMARK INTER:                  -9.345
REMARK INTRA:                  -2.158
REMARK UNBOUND:                -1.783
REMARK SMILES CCCCCCCCCCCCCC[C@H](C)C(=O)[O-]
REMARK SMILES IDX 9 1 10 2 11 3 12 4 13 5 14 6 15 7 16 8 17 9 18 10 19 11 8 12
REMARK SMILES IDX 7 13 6 14 5 15 4 16 3 17 2 18 1 19
REMARK H PARENT
REMARK Flexibility Score: inf
ROOT
ATOM      1  C   UNL     1      21.955  11.611  32.620  1.00  0.00     0.000 C 
ENDROOT
BRANCH   1   2
ATOM      2  C   UNL     1      23.123  12.281  33.356  1.00  0.00     0.000 C 
BRANCH   2   3
ATOM      3  C   UNL     1      23.573  11.435  34.558  1.00  0.00     0.000 C 
BRANCH   3   4
ATOM      4  C   UNL     1      23.726  12.265  35.843  1.00  0.00     0.000 C 
BRANCH   4   5
ATOM      5  C   UNL     1      25.072  13.007  35.908  1.00  0.00     0.001 C 
BRANCH   5   6
ATOM      6  C   UNL     1      26.261  12.152  35.428  1.00  0.00     0.009 C 
BRANCH   6   7
ATOM      7  C   UNL     1      27.380  12.960  34.727  1.00  0.00     0.032 C 
ATOM      8  C   UNL     1      27.309  14.439  35.125  1.00  0.00     0.014 C 
BRANCH   7   9
ATOM      9  C   UNL     1      27.306  12.849  33.228  1.00  0.00     0.044 C 
ATOM     10  O   UNL     1      26.429  13.481  32.580  1.00  0.00    -0.550 OA
ATOM     11  O   UNL     1      28.233  12.071  32.545  1.00  0.00    -0.550 OA
ENDBRANCH   7   9
ENDBRANCH   6   7
ENDBRANCH   5   6
ENDBRANCH   4   5
ENDBRANCH   3   4
ENDBRANCH   2   3
ENDBRANCH   1   2
BRANCH   1  12
ATOM     12  C   UNL     1      20.938  12.655  32.139  1.00  0.00     0.000 C 
BRANCH  12  13
ATOM     13  C   UNL     1      20.823  13.855  33.092  1.00  0.00    -0.000 C 
BRANCH  13  14
ATOM     14  C   UNL     1      19.665  13.710  34.090  1.00  0.00    -0.000 C 
BRANCH  14  15
ATOM     15  C   UNL     1      20.191  13.557  35.524  1.00  0.00    -0.000 C 
BRANCH  15  16
ATOM     16  C   UNL     1      19.507  12.381  36.238  1.00  0.00    -0.000 C 
BRANCH  16  17
ATOM     17  C   UNL     1      19.327  11.158  35.325  1.00  0.00    -0.000 C 
BRANCH  17  18
ATOM     18  C   UNL     1      19.718   9.842  36.014  1.00  0.00    -0.003 C 
ATOM     19  C   UNL     1      20.979   9.251  35.390  1.00  0.00     0.004 C 
ENDBRANCH  17  18
ENDBRANCH  16  17
ENDBRANCH  15  16
ENDBRANCH  14  15
ENDBRANCH  13  14
ENDBRANCH  12  13
ENDBRANCH   1  12
TORSDOF 14
ENDMDL
MODEL 4
REMARK VINA RESULT:    -5.252      1.337      2.883
REMARK INTER + INTRA:         -11.333
REMARK INTER:                  -9.693
REMARK INTRA:                  -1.640
REMARK UNBOUND:                -1.783
REMARK SMILES CCCCCCCCCCCCCC[C@H](C)C(=O)[O-]
REMARK SMILES IDX 9 1 10 2 11 3 12 4 13 5 14 6 15 7 16 8 17 9 18 10 19 11 8 12
REMARK SMILES IDX 7 13 6 14 5 15 4 16 3 17 2 18 1 19
REMARK H PARENT
REMARK Flexibility Score: inf
ROOT
ATOM      1  C   UNL     1      22.667  12.318  35.532  1.00  0.00     0.000 C 
ENDROOT
BRANCH   1   2
ATOM      2  C   UNL     1      23.456  11.002  35.507  1.00  0.00     0.000 C 
BRANCH   2   3
ATOM      3  C   UNL     1      24.937  11.244  35.844  1.00  0.00     0.000 C 
BRANCH   3   4
ATOM      4  C   UNL     1      25.292  12.738  35.916  1.00  0.00     0.000 C 
BRANCH   4   5
ATOM      5  C   UNL     1      26.442  13.116  34.966  1.00  0.00     0.001 C 
BRANCH   5   6
ATOM      6  C   UNL     1      26.255  12.566  33.538  1.00  0.00     0.009 C 
BRANCH   6   7
ATOM      7  C   UNL     1      27.304  11.504  33.128  1.00  0.00     0.032 C 
ATOM      8  C   UNL     1      28.491  11.513  34.097  1.00  0.00     0.014 C 
BRANCH   7   9
ATOM      9  C   UNL     1      27.810  11.718  31.727  1.00  0.00     0.044 C 
ATOM     10  O   UNL     1      28.547  12.702  31.454  1.00  0.00    -0.550 OA
ATOM     11  O   UNL     1      27.491  10.804  30.729  1.00  0.00    -0.550 OA
ENDBRANCH   7   9
ENDBRANCH   6   7
ENDBRANCH   5   6
ENDBRANCH   4   5
ENDBRANCH   3   4
ENDBRANCH   2   3
ENDBRANCH   1   2
BRANCH   1  12
ATOM     12  C   UNL     1      22.065  12.622  34.152  1.00  0.00     0.000 C 
BRANCH  12  13
ATOM     13  C   UNL     1      20.665  13.253  34.242  1.00  0.00    -0.000 C 
BRANCH  13  14
ATOM     14  C   UNL     1      20.151  13.350  35.686  1.00  0.00    -0.000 C 
BRANCH  14  15
ATOM     15  C   UNL     1      19.168  12.214  35.996  1.00  0.00    -0.000 C 
BRANCH  15  16
ATOM     16  C   UNL     1      18.768  11.467  34.714  1.00  0.00    -0.000 C 
BRANCH  16  17
ATOM     17  C   UNL     1      18.957   9.947  34.832  1.00  0.00    -0.000 C 
BRANCH  17  18
ATOM     18  C   UNL     1      20.059   9.563  35.830  1.00  0.00    -0.003 C 
ATOM     19  C   UNL     1      19.572   8.490  36.800  1.00  0.00     0.004 C 
ENDBRANCH  17  18
ENDBRANCH  16  17
ENDBRANCH  15  16
ENDBRANCH  14  15
ENDBRANCH  13  14
ENDBRANCH  12  13
ENDBRANCH   1  12
TORSDOF 14
ENDMDL
MODEL 5
REMARK VINA RESULT:    -5.227      1.269      2.354
REMARK INTER + INTRA:         -11.287
REMARK INTER:                  -9.324
REMARK INTRA:                  -1.963
REMARK UNBOUND:                -1.783
REMARK SMILES CCCCCCCCCCCCCC[C@H](C)C(=O)[O-]
REMARK SMILES IDX 9 1 10 2 11 3 12 4 13 5 14 6 15 7 16 8 17 9 18 10 19 11 8 12
REMARK SMILES IDX 7 13 6 14 5 15 4 16 3 17 2 18 1 19
REMARK H PARENT
REMARK Flexibility Score: inf
ROOT
ATOM      1  C   UNL     1      22.987  11.323  34.742  1.00  0.00     0.000 C 
ENDROOT
BRANCH   1   2
ATOM      2  C   UNL     1      23.465  12.624  35.399  1.00  0.00     0.000 C 
BRANCH   2   3
ATOM      3  C   UNL     1      24.978  12.581  35.667  1.00  0.00     0.000 C 
BRANCH   3   4
ATOM      4  C   UNL     1      25.566  11.168  35.520  1.00  0.00     0.000 C 
BRANCH   4   5
ATOM      5  C   UNL     1      26.799  11.136  34.601  1.00  0.00     0.001 C 
BRANCH   5   6
ATOM      6  C   UNL     1      26.952  12.410  33.746  1.00  0.00     0.009 C 
BRANCH   6   7
ATOM      7  C   UNL     1      26.989  12.146  32.221  1.00  0.00     0.032 C 
ATOM      8  C   UNL     1      28.316  12.624  31.621  1.00  0.00     0.014 C 
BRANCH   7   9
ATOM      9  C   UNL     1      25.852  12.821  31.502  1.00  0.00     0.044 C 
ATOM     10  O   UNL     1      26.076  13.640  30.571  1.00  0.00    -0.550 OA
ATOM     11  O   UNL     1      24.539  12.513  31.841  1.00  0.00    -0.550 OA
ENDBRANCH   7   9
ENDBRANCH   6   7
ENDBRANCH   5   6
ENDBRANCH   4   5
ENDBRANCH   3   4
ENDBRANCH   2   3
ENDBRANCH   1   2
BRANCH   1  12
ATOM     12  C   UNL     1      21.913  10.637  35.599  1.00  0.00     0.000 C 
BRANCH  12  13
ATOM     13  C   UNL     1      20.524  10.661  34.941  1.00  0.00    -0.000 C 
BRANCH  13  14
ATOM     14  C   UNL     1      19.452  11.290  35.842  1.00  0.00    -0.000 C 
BRANCH  14  15
ATOM     15  C   UNL     1      19.751  12.773  36.098  1.00  0.00    -0.000 C 
BRANCH  15  16
ATOM     16  C   UNL     1      19.264  13.642  34.928  1.00  0.00    -0.000 C 
BRANCH  16  17
ATOM     17  C   UNL     1      20.421  14.237  34.112  1.00  0.00    -0.000 C 
BRANCH  17  18
ATOM     18  C   UNL     1      20.199  14.118  32.597  1.00  0.00    -0.003 C 
ATOM     19  C   UNL     1      21.092  13.037  31.995  1.00  0.00     0.004 C 
ENDBRANCH  17  18
ENDBRANCH  16  17
ENDBRANCH  15  16
ENDBRANCH  14  15
ENDBRANCH  13  14
ENDBRANCH  12  13
ENDBRANCH   1  12
TORSDOF 14
ENDMDL
MODEL 6
REMARK VINA RESULT:    -5.197      1.438      3.150
REMARK INTER + INTRA:         -11.234
REMARK INTER:                  -9.153
REMARK INTRA:                  -2.081
REMARK UNBOUND:                -1.783
REMARK SMILES CCCCCCCCCCCCCC[C@H](C)C(=O)[O-]
REMARK SMILES IDX 9 1 10 2 11 3 12 4 13 5 14 6 15 7 16 8 17 9 18 10 19 11 8 12
REMARK SMILES IDX 7 13 6 14 5 15 4 16 3 17 2 18 1 19
REMARK H PARENT
REMARK Flexibility Score: inf
ROOT
ATOM      1  C   UNL     1      21.801  11.165  35.501  1.00  0.00     0.000 C 
ENDROOT
BRANCH   1   2
ATOM      2  C   UNL     1      22.786  12.341  35.520  1.00  0.00     0.000 C 
BRANCH   2   3
ATOM      3  C   UNL     1      24.050  12.013  34.710  1.00  0.00     0.000 C 
BRANCH   3   4
ATOM      4  C   UNL     1      25.033  11.117  35.482  1.00  0.00     0.000 C 
BRANCH   4   5
ATOM      5  C   UNL     1      26.502  11.487  35.214  1.00  0.00     0.001 C 
BRANCH   5   6
ATOM      6  C   UNL     1      26.965  11.138  33.786  1.00  0.00     0.009 C 
BRANCH   6   7
ATOM      7  C   UNL     1      27.839  12.229  33.120  1.00  0.00     0.032 C 
ATOM      8  C   UNL     1      27.231  13.618  33.340  1.00  0.00     0.014 C 
BRANCH   7   9
ATOM      9  C   UNL     1      28.013  11.993  31.644  1.00  0.00     0.044 C 
ATOM     10  O   UNL     1      27.325  11.122  31.048  1.00  0.00    -0.550 OA
ATOM     11  O   UNL     1      28.913  12.766  30.921  1.00  0.00    -0.550 OA
ENDBRANCH   7   9
ENDBRANCH   6   7
ENDBRANCH   5   6
ENDBRANCH   4   5
ENDBRANCH   3   4
ENDBRANCH   2   3
ENDBRANCH   1   2
BRANCH   1  12
ATOM     12  C   UNL     1      20.369  11.643  35.778  1.00  0.00     0.000 C 
BRANCH  12  13
ATOM     13  C   UNL     1      20.229  13.172  35.702  1.00  0.00    -0.000 C 
BRANCH  13  14
ATOM     14  C   UNL     1      19.440  13.633  34.467  1.00  0.00    -0.000 C 
BRANCH  14  15
ATOM     15  C   UNL     1      20.371  14.269  33.427  1.00  0.00    -0.000 C 
BRANCH  15  16
ATOM     16  C   UNL     1      20.371  13.459  32.121  1.00  0.00    -0.000 C 
BRANCH  16  17
ATOM     17  C   UNL     1      21.684  12.692  31.900  1.00  0.00    -0.000 C 
BRANCH  17  18
ATOM     18  C   UNL     1      21.479  11.171  31.843  1.00  0.00    -0.003 C 
ATOM     19  C   UNL     1      20.025  10.803  32.123  1.00  0.00     0.004 C 
ENDBRANCH  17  18
ENDBRANCH  16  17
ENDBRANCH  15  16
ENDBRANCH  14  15
ENDBRANCH  13  14
ENDBRANCH  12  13
ENDBRANCH   1  12
TORSDOF 14
ENDMDL
MODEL 7
REMARK VINA RESULT:    -5.192      1.086      2.110
REMARK INTER + INTRA:         -11.224
REMARK INTER:                  -9.666
REMARK INTRA:                  -1.558
REMARK UNBOUND:                -1.783
REMARK SMILES CCCCCCCCCCCCCC[C@H](C)C(=O)[O-]
REMARK SMILES IDX 9 1 10 2 11 3 12 4 13 5 14 6 15 7 16 8 17 9 18 10 19 11 8 12
REMARK SMILES IDX 7 13 6 14 5 15 4 16 3 17 2 18 1 19
REMARK H PARENT
REMARK Flexibility Score: inf
ROOT
ATOM      1  C   UNL     1      24.023  10.995  35.809  1.00  0.00     0.000 C 
ENDROOT
BRANCH   1   2
ATOM      2  C   UNL     1      25.524  11.099  35.508  1.00  0.00     0.000 C 
BRANCH   2   3
ATOM      3  C   UNL     1      25.990  12.563  35.538  1.00  0.00     0.000 C 
BRANCH   3   4
ATOM      4  C   UNL     1      27.424  12.739  35.012  1.00  0.00     0.000 C 
BRANCH   4   5
ATOM      5  C   UNL     1      27.470  13.469  33.659  1.00  0.00     0.001 C 
BRANCH   5   6
ATOM      6  C   UNL     1      26.324  13.063  32.711  1.00  0.00     0.009 C 
BRANCH   6   7
ATOM      7  C   UNL     1      26.705  13.089  31.211  1.00  0.00     0.032 C 
ATOM      8  C   UNL     1      25.537  12.601  30.347  1.00  0.00     0.014 C 
BRANCH   7   9
ATOM      9  C   UNL     1      27.919  12.249  30.920  1.00  0.00     0.044 C 
ATOM     10  O   UNL     1      29.021  12.789  30.632  1.00  0.00    -0.550 OA
ATOM     11  O   UNL     1      27.838  10.864  31.003  1.00  0.00    -0.550 OA
ENDBRANCH   7   9
ENDBRANCH   6   7
ENDBRANCH   5   6
ENDBRANCH   4   5
ENDBRANCH   3   4
ENDBRANCH   2   3
ENDBRANCH   1   2
BRANCH   1  12
ATOM     12  C   UNL     1      23.310  12.323  35.512  1.00  0.00     0.000 C 
BRANCH  12  13
ATOM     13  C   UNL     1      22.676  12.355  34.112  1.00  0.00    -0.000 C 
BRANCH  13  14
ATOM     14  C   UNL     1      21.212  12.817  34.136  1.00  0.00    -0.000 C 
BRANCH  14  15
ATOM     15  C   UNL     1      20.791  13.237  35.550  1.00  0.00    -0.000 C 
BRANCH  15  16
ATOM     16  C   UNL     1      19.542  12.465  36.005  1.00  0.00    -0.000 C 
BRANCH  16  17
ATOM     17  C   UNL     1      19.273  11.219  35.147  1.00  0.00    -0.000 C 
BRANCH  17  18
ATOM     18  C   UNL     1      19.563   9.911  35.897  1.00  0.00    -0.003 C 
ATOM     19  C   UNL     1      20.906   9.322  35.474  1.00  0.00     0.004 C 
ENDBRANCH  17  18
ENDBRANCH  16  17
ENDBRANCH  15  16
ENDBRANCH  14  15
ENDBRANCH  13  14
ENDBRANCH  12  13
ENDBRANCH   1  12
TORSDOF 14
ENDMDL
MODEL 8
REMARK VINA RESULT:    -5.170      2.211      3.792
REMARK INTER + INTRA:         -11.183
REMARK INTER:                  -9.187
REMARK INTRA:                  -1.996
REMARK UNBOUND:                -1.783
REMARK SMILES CCCCCCCCCCCCCC[C@H](C)C(=O)[O-]
REMARK SMILES IDX 9 1 10 2 11 3 12 4 13 5 14 6 15 7 16 8 17 9 18 10 19 11 8 12
REMARK SMILES IDX 7 13 6 14 5 15 4 16 3 17 2 18 1 19
REMARK H PARENT
REMARK Flexibility Score: inf
ROOT
ATOM      1  C   UNL     1      23.860  12.281  31.081  1.00  0.00     0.000 C 
ENDROOT
BRANCH   1   2
ATOM      2  C   UNL     1      25.188  12.695  31.729  1.00  0.00     0.000 C 
BRANCH   2   3
ATOM      3  C   UNL     1      26.265  12.947  30.662  1.00  0.00     0.000 C 
BRANCH   3   4
ATOM      4  C   UNL     1      27.664  12.498  31.115  1.00  0.00     0.000 C 
BRANCH   4   5
ATOM      5  C   UNL     1      27.616  11.557  32.331  1.00  0.00     0.001 C 
BRANCH   5   6
ATOM      6  C   UNL     1      28.368  12.109  33.557  1.00  0.00     0.009 C 
BRANCH   6   7
ATOM      7  C   UNL     1      27.544  12.087  34.868  1.00  0.00     0.032 C 
ATOM      8  C   UNL     1      26.507  10.959  34.836  1.00  0.00     0.014 C 
BRANCH   7   9
ATOM      9  C   UNL     1      26.843  13.395  35.118  1.00  0.00     0.044 C 
ATOM     10  O   UNL     1      27.298  14.469  34.642  1.00  0.00    -0.550 OA
ATOM     11  O   UNL     1      25.662  13.418  35.852  1.00  0.00    -0.550 OA
ENDBRANCH   7   9
ENDBRANCH   6   7
ENDBRANCH   5   6
ENDBRANCH   4   5
ENDBRANCH   3   4
ENDBRANCH   2   3
ENDBRANCH   1   2
BRANCH   1  12
ATOM     12  C   UNL     1      22.723  12.277  32.113  1.00  0.00     0.000 C 
BRANCH  12  13
ATOM     13  C   UNL     1      23.219  11.998  33.541  1.00  0.00    -0.000 C 
BRANCH  13  14
ATOM     14  C   UNL     1      22.468  12.818  34.600  1.00  0.00    -0.000 C 
BRANCH  14  15
ATOM     15  C   UNL     1      22.173  11.971  35.844  1.00  0.00    -0.000 C 
BRANCH  15  16
ATOM     16  C   UNL     1      22.350  10.474  35.545  1.00  0.00    -0.000 C 
BRANCH  16  17
ATOM     17  C   UNL     1      21.044   9.680  35.705  1.00  0.00    -0.000 C 
BRANCH  17  18
ATOM     18  C   UNL     1      20.018  10.001  34.607  1.00  0.00    -0.003 C 
ATOM     19  C   UNL     1      20.439   9.397  33.270  1.00  0.00     0.004 C 
ENDBRANCH  17  18
ENDBRANCH  16  17
ENDBRANCH  15  16
ENDBRANCH  14  15
ENDBRANCH  13  14
ENDBRANCH  12  13
ENDBRANCH   1  12
TORSDOF 14
ENDMDL
MODEL 9
REMARK VINA RESULT:    -5.155      0.924      1.969
REMARK INTER + INTRA:         -11.157
REMARK INTER:                  -9.434
REMARK INTRA:                  -1.723
REMARK UNBOUND:                -1.783
REMARK SMILES CCCCCCCCCCCCCC[C@H](C)C(=O)[O-]
REMARK SMILES IDX 9 1 10 2 11 3 12 4 13 5 14 6 15 7 16 8 17 9 18 10 19 11 8 12
REMARK SMILES IDX 7 13 6 14 5 15 4 16 3 17 2 18 1 19
REMARK H PARENT
REMARK Flexibility Score: inf
ROOT
ATOM      1  C   UNL     1      22.567  11.212  35.816  1.00  0.00     0.000 C 
ENDROOT
BRANCH   1   2
ATOM      2  C   UNL     1      23.761  11.259  34.852  1.00  0.00     0.000 C 
BRANCH   2   3
ATOM      3  C   UNL     1      25.089  11.285  35.624  1.00  0.00     0.000 C 
BRANCH   3   4
ATOM      4  C   UNL     1      25.664  12.705  35.768  1.00  0.00     0.000 C 
BRANCH   4   5
ATOM      5  C   UNL     1      27.036  12.856  35.089  1.00  0.00     0.001 C 
BRANCH   5   6
ATOM      6  C   UNL     1      27.217  11.929  33.872  1.00  0.00     0.009 C 
BRANCH   6   7
ATOM      7  C   UNL     1      27.122  12.652  32.506  1.00  0.00     0.032 C 
ATOM      8  C   UNL     1      25.673  12.677  32.007  1.00  0.00     0.014 C 
BRANCH   7   9
ATOM      9  C   UNL     1      27.993  12.008  31.462  1.00  0.00     0.044 C 
ATOM     10  O   UNL     1      27.784  10.822  31.094  1.00  0.00    -0.550 OA
ATOM     11  O   UNL     1      29.017  12.738  30.869  1.00  0.00    -0.550 OA
ENDBRANCH   7   9
ENDBRANCH   6   7
ENDBRANCH   5   6
ENDBRANCH   4   5
ENDBRANCH   3   4
ENDBRANCH   2   3
ENDBRANCH   1   2
BRANCH   1  12
ATOM     12  C   UNL     1      21.766   9.915  35.633  1.00  0.00     0.000 C 
BRANCH  12  13
ATOM     13  C   UNL     1      20.389  10.154  34.991  1.00  0.00    -0.000 C 
BRANCH  13  14
ATOM     14  C   UNL     1      19.421  10.894  35.925  1.00  0.00    -0.000 C 
BRANCH  14  15
ATOM     15  C   UNL     1      18.797  12.106  35.221  1.00  0.00    -0.000 C 
BRANCH  15  16
ATOM     16  C   UNL     1      19.387  13.419  35.760  1.00  0.00    -0.000 C 
BRANCH  16  17
ATOM     17  C   UNL     1      20.533  13.954  34.887  1.00  0.00    -0.000 C 
BRANCH  17  18
ATOM     18  C   UNL     1      20.213  13.892  33.386  1.00  0.00    -0.003 C 
ATOM     19  C   UNL     1      21.201  12.990  32.652  1.00  0.00     0.004 C 
ENDBRANCH  17  18
ENDBRANCH  16  17
ENDBRANCH  15  16
ENDBRANCH  14  15
ENDBRANCH  13  14
ENDBRANCH  12  13
ENDBRANCH   1  12
TORSDOF 14
ENDMDL
