MODEL 1
REMARK VINA RESULT:    -4.592      0.000      0.000
REMARK INTER + INTRA:          -5.957
REMARK INTER:                  -5.666
REMARK INTRA:                  -0.290
REMARK UNBOUND:                -0.290
REMARK SMILES COC(=O)c1ccccc1C(=O)OC
REMARK SMILES IDX 5 1 6 2 7 3 8 4 9 5 10 6 3 7 4 8 2 9 1 10 11 11 12 12 13 13
REMARK SMILES IDX 14 14
REMARK H PARENT
REMARK Flexibility Score: inf
ROOT
ATOM      1  C   UNL     1      87.184 114.289 116.752  1.00  0.00     0.074 A 
ATOM      2  C   UNL     1      88.150 114.993 116.010  1.00  0.00     0.016 A 
ATOM      3  C   UNL     1      89.067 115.831 116.646  1.00  0.00     0.001 A 
ATOM      4  C   UNL     1      89.035 115.979 118.031  1.00  0.00     0.001 A 
ATOM      5  C   UNL     1      88.099 115.272 118.788  1.00  0.00     0.016 A 
ATOM      6  C   UNL     1      87.179 114.405 118.169  1.00  0.00     0.074 A 
ENDROOT
BRANCH   1   7
ATOM      7  C   UNL     1      86.172 113.508 116.006  1.00  0.00     0.338 C 
ATOM      8  O   UNL     1      85.108 114.059 115.609  1.00  0.00    -0.246 OA
BRANCH   7   9
ATOM      9  O   UNL     1      86.427 112.169 115.693  1.00  0.00    -0.465 OA
ATOM     10  C   UNL     1      85.543 111.384 114.903  1.00  0.00     0.282 C 
ENDBRANCH   7   9
ENDBRANCH   1   7
BRANCH   6  11
ATOM     11  C   UNL     1      86.292 113.593 119.034  1.00  0.00     0.338 C 
ATOM     12  O   UNL     1      85.412 114.161 119.739  1.00  0.00    -0.246 OA
BRANCH  11  13
ATOM     13  O   UNL     1      86.465 112.207 119.110  1.00  0.00    -0.465 OA
ATOM     14  C   UNL     1      85.393 111.313 119.382  1.00  0.00     0.282 C 
ENDBRANCH  11  13
ENDBRANCH   6  11
TORSDOF 4
ENDMDL
MODEL 2
REMARK VINA RESULT:    -4.585      0.317      3.118
REMARK INTER + INTRA:          -5.947
REMARK INTER:                  -5.616
REMARK INTRA:                  -0.331
REMARK UNBOUND:                -0.290
REMARK SMILES COC(=O)c1ccccc1C(=O)OC
REMARK SMILES IDX 5 1 6 2 7 3 8 4 9 5 10 6 3 7 4 8 2 9 1 10 11 11 12 12 13 13
REMARK SMILES IDX 14 14
REMARK H PARENT
REMARK Flexibility Score: inf
ROOT
ATOM      1  C   UNL     1      87.099 114.382 118.284  1.00  0.00     0.074 A 
ATOM      2  C   UNL     1      87.968 115.158 119.073  1.00  0.00     0.016 A 
ATOM      3  C   UNL     1      89.007 115.885 118.488  1.00  0.00     0.001 A 
ATOM      4  C   UNL     1      89.193 115.849 117.108  1.00  0.00     0.001 A 
ATOM      5  C   UNL     1      88.329 115.103 116.304  1.00  0.00     0.016 A 
ATOM      6  C   UNL     1      87.263 114.381 116.871  1.00  0.00     0.074 A 
ENDROOT
BRANCH   1   7
ATOM      7  C   UNL     1      86.093 113.548 118.978  1.00  0.00     0.338 C 
ATOM      8  O   UNL     1      85.064 114.078 119.481  1.00  0.00    -0.246 OA
BRANCH   7   9
ATOM      9  O   UNL     1      86.260 112.160 119.023  1.00  0.00    -0.465 OA
ATOM     10  C   UNL     1      85.200 111.270 119.352  1.00  0.00     0.282 C 
ENDBRANCH   7   9
ENDBRANCH   1   7
BRANCH   6  11
ATOM     11  C   UNL     1      86.310 113.707 115.959  1.00  0.00     0.338 C 
ATOM     12  O   UNL     1      85.306 114.338 115.524  1.00  0.00    -0.246 OA
BRANCH  11  13
ATOM     13  O   UNL     1      86.491 112.361 115.625  1.00  0.00    -0.465 OA
ATOM     14  C   UNL     1      85.428 111.532 115.171  1.00  0.00     0.282 C 
ENDBRANCH  11  13
ENDBRANCH   6  11
TORSDOF 4
ENDMDL
MODEL 3
REMARK VINA RESULT:    -4.400      0.691      3.451
REMARK INTER + INTRA:          -5.719
REMARK INTER:                  -5.456
REMARK INTRA:                  -0.263
REMARK UNBOUND:                -0.290
REMARK SMILES COC(=O)c1ccccc1C(=O)OC
REMARK SMILES IDX 5 1 6 2 7 3 8 4 9 5 10 6 3 7 4 8 2 9 1 10 11 11 12 12 13 13
REMARK SMILES IDX 14 14
REMARK H PARENT
REMARK Flexibility Score: inf
ROOT
ATOM      1  C   UNL     1      87.188 114.364 118.237  1.00  0.00     0.074 A 
ATOM      2  C   UNL     1      88.105 115.198 118.903  1.00  0.00     0.016 A 
ATOM      3  C   UNL     1      89.059 115.925 118.188  1.00  0.00     0.001 A 
ATOM      4  C   UNL     1      89.112 115.830 116.799  1.00  0.00     0.001 A 
ATOM      5  C   UNL     1      88.196 115.027 116.117  1.00  0.00     0.016 A 
ATOM      6  C   UNL     1      87.213 114.303 116.816  1.00  0.00     0.074 A 
ENDROOT
BRANCH   1   7
ATOM      7  C   UNL     1      86.279 113.536 119.062  1.00  0.00     0.338 C 
ATOM      8  O   UNL     1      85.342 114.074 119.713  1.00  0.00    -0.246 OA
BRANCH   7   9
ATOM      9  O   UNL     1      86.431 112.145 119.069  1.00  0.00    -0.465 OA
ATOM     10  C   UNL     1      85.376 111.261 119.430  1.00  0.00     0.282 C 
ENDBRANCH   7   9
ENDBRANCH   1   7
BRANCH   6  11
ATOM     11  C   UNL     1      86.197 113.564 116.032  1.00  0.00     0.338 C 
ATOM     12  O   UNL     1      86.450 112.397 115.620  1.00  0.00    -0.246 OA
BRANCH  11  13
ATOM     13  O   UNL     1      84.985 114.177 115.701  1.00  0.00    -0.465 OA
ATOM     14  C   UNL     1      84.885 115.206 114.723  1.00  0.00     0.282 C 
ENDBRANCH  11  13
ENDBRANCH   6  11
TORSDOF 4
ENDMDL
MODEL 4
REMARK VINA RESULT:    -4.398      0.678      1.338
REMARK INTER + INTRA:          -5.716
REMARK INTER:                  -5.379
REMARK INTRA:                  -0.338
REMARK UNBOUND:                -0.290
REMARK SMILES COC(=O)c1ccccc1C(=O)OC
REMARK SMILES IDX 5 1 6 2 7 3 8 4 9 5 10 6 3 7 4 8 2 9 1 10 11 11 12 12 13 13
REMARK SMILES IDX 14 14
REMARK H PARENT
REMARK Flexibility Score: inf
ROOT
ATOM      1  C   UNL     1      87.240 114.302 116.793  1.00  0.00     0.074 A 
ATOM      2  C   UNL     1      88.245 114.990 116.087  1.00  0.00     0.016 A 
ATOM      3  C   UNL     1      89.113 115.861 116.749  1.00  0.00     0.001 A 
ATOM      4  C   UNL     1      88.992 116.058 118.123  1.00  0.00     0.001 A 
ATOM      5  C   UNL     1      88.017 115.368 118.845  1.00  0.00     0.016 A 
ATOM      6  C   UNL     1      87.145 114.469 118.202  1.00  0.00     0.074 A 
ENDROOT
BRANCH   1   7
ATOM      7  C   UNL     1      86.284 113.484 116.014  1.00  0.00     0.338 C 
ATOM      8  O   UNL     1      86.571 112.296 115.699  1.00  0.00    -0.246 OA
BRANCH   7   9
ATOM      9  O   UNL     1      85.035 114.017 115.678  1.00  0.00    -0.465 OA
ATOM     10  C   UNL     1      84.882 115.097 114.764  1.00  0.00     0.282 C 
ENDBRANCH   7   9
ENDBRANCH   1   7
BRANCH   6  11
ATOM     11  C   UNL     1      86.212 113.679 119.038  1.00  0.00     0.338 C 
ATOM     12  O   UNL     1      85.244 114.252 119.610  1.00  0.00    -0.246 OA
BRANCH  11  13
ATOM     13  O   UNL     1      86.436 112.313 119.236  1.00  0.00    -0.465 OA
ATOM     14  C   UNL     1      85.381 111.358 119.269  1.00  0.00     0.282 C 
ENDBRANCH  11  13
ENDBRANCH   6  11
TORSDOF 4
ENDMDL
MODEL 5
REMARK VINA RESULT:    -4.353      0.713      1.315
REMARK INTER + INTRA:          -5.661
REMARK INTER:                  -5.346
REMARK INTRA:                  -0.315
REMARK UNBOUND:                -0.290
REMARK SMILES COC(=O)c1ccccc1C(=O)OC
REMARK SMILES IDX 5 1 6 2 7 3 8 4 9 5 10 6 3 7 4 8 2 9 1 10 11 11 12 12 13 13
REMARK SMILES IDX 14 14
REMARK H PARENT
REMARK Flexibility Score: inf
ROOT
ATOM      1  C   UNL     1      87.165 114.462 116.681  1.00  0.00     0.074 A 
ATOM      2  C   UNL     1      88.086 115.256 115.973  1.00  0.00     0.016 A 
ATOM      3  C   UNL     1      88.966 116.104 116.649  1.00  0.00     0.001 A 
ATOM      4  C   UNL     1      88.938 116.172 118.041  1.00  0.00     0.001 A 
ATOM      5  C   UNL     1      88.048 115.375 118.763  1.00  0.00     0.016 A 
ATOM      6  C   UNL     1      87.168 114.499 118.102  1.00  0.00     0.074 A 
ENDROOT
BRANCH   1   7
ATOM      7  C   UNL     1      86.187 113.673 115.898  1.00  0.00     0.338 C 
ATOM      8  O   UNL     1      85.098 114.193 115.529  1.00  0.00    -0.246 OA
BRANCH   7   9
ATOM      9  O   UNL     1      86.502 112.363 115.521  1.00  0.00    -0.465 OA
ATOM     10  C   UNL     1      85.518 111.432 115.090  1.00  0.00     0.282 C 
ENDBRANCH   7   9
ENDBRANCH   1   7
BRANCH   6  11
ATOM     11  C   UNL     1      86.332 113.594 118.925  1.00  0.00     0.338 C 
ATOM     12  O   UNL     1      86.725 112.418 119.161  1.00  0.00    -0.246 OA
BRANCH  11  13
ATOM     13  O   UNL     1      85.086 114.024 119.393  1.00  0.00    -0.465 OA
ATOM     14  C   UNL     1      84.926 114.721 120.623  1.00  0.00     0.282 C 
ENDBRANCH  11  13
ENDBRANCH   6  11
TORSDOF 4
ENDMDL
MODEL 6
REMARK VINA RESULT:    -4.183      0.969      3.811
REMARK INTER + INTRA:          -5.451
REMARK INTER:                  -5.148
REMARK INTRA:                  -0.303
REMARK UNBOUND:                -0.290
REMARK SMILES COC(=O)c1ccccc1C(=O)OC
REMARK SMILES IDX 5 1 6 2 7 3 8 4 9 5 10 6 3 7 4 8 2 9 1 10 11 11 12 12 13 13
REMARK SMILES IDX 14 14
REMARK H PARENT
REMARK Flexibility Score: inf
ROOT
ATOM      1  C   UNL     1      87.169 114.319 118.252  1.00  0.00     0.074 A 
ATOM      2  C   UNL     1      88.078 115.132 118.954  1.00  0.00     0.016 A 
ATOM      3  C   UNL     1      88.992 115.936 118.271  1.00  0.00     0.001 A 
ATOM      4  C   UNL     1      89.013 115.941 116.878  1.00  0.00     0.001 A 
ATOM      5  C   UNL     1      88.104 115.160 116.162  1.00  0.00     0.016 A 
ATOM      6  C   UNL     1      87.161 114.358 116.830  1.00  0.00     0.074 A 
ENDROOT
BRANCH   1   7
ATOM      7  C   UNL     1      86.306 113.408 119.037  1.00  0.00     0.338 C 
ATOM      8  O   UNL     1      86.705 112.248 119.330  1.00  0.00    -0.246 OA
BRANCH   7   9
ATOM      9  O   UNL     1      85.067 113.862 119.501  1.00  0.00    -0.465 OA
ATOM     10  C   UNL     1      84.912 114.527 120.749  1.00  0.00     0.282 C 
ENDBRANCH   7   9
ENDBRANCH   1   7
BRANCH   6  11
ATOM     11  C   UNL     1      86.147 113.645 116.019  1.00  0.00     0.338 C 
ATOM     12  O   UNL     1      86.376 112.468 115.623  1.00  0.00    -0.246 OA
BRANCH  11  13
ATOM     13  O   UNL     1      84.965 114.293 115.646  1.00  0.00    -0.465 OA
ATOM     14  C   UNL     1      84.879 115.138 114.505  1.00  0.00     0.282 C 
ENDBRANCH  11  13
ENDBRANCH   6  11
TORSDOF 4
ENDMDL
MODEL 7
REMARK VINA RESULT:    -4.180      1.873      3.363
REMARK INTER + INTRA:          -5.448
REMARK INTER:                  -5.295
REMARK INTRA:                  -0.152
REMARK UNBOUND:                -0.290
REMARK SMILES COC(=O)c1ccccc1C(=O)OC
REMARK SMILES IDX 5 1 6 2 7 3 8 4 9 5 10 6 3 7 4 8 2 9 1 10 11 11 12 12 13 13
REMARK SMILES IDX 14 14
REMARK H PARENT
REMARK Flexibility Score: inf
ROOT
ATOM      1  C   UNL     1      88.032 115.620 116.594  1.00  0.00     0.074 A 
ATOM      2  C   UNL     1      88.954 116.262 117.442  1.00  0.00     0.016 A 
ATOM      3  C   UNL     1      88.980 115.983 118.809  1.00  0.00     0.001 A 
ATOM      4  C   UNL     1      88.088 115.061 119.351  1.00  0.00     0.001 A 
ATOM      5  C   UNL     1      87.180 114.396 118.525  1.00  0.00     0.016 A 
ATOM      6  C   UNL     1      87.151 114.646 117.140  1.00  0.00     0.074 A 
ENDROOT
BRANCH   1   7
ATOM      7  C   UNL     1      87.982 116.045 115.177  1.00  0.00     0.338 C 
ATOM      8  O   UNL     1      86.930 116.553 114.701  1.00  0.00    -0.246 OA
BRANCH   7   9
ATOM      9  O   UNL     1      89.129 115.932 114.383  1.00  0.00    -0.465 OA
ATOM     10  C   UNL     1      89.385 116.794 113.281  1.00  0.00     0.282 C 
ENDBRANCH   7   9
ENDBRANCH   1   7
BRANCH   6  11
ATOM     11  C   UNL     1      86.251 113.824 116.299  1.00  0.00     0.338 C 
ATOM     12  O   UNL     1      85.062 114.202 116.099  1.00  0.00    -0.246 OA
BRANCH  11  13
ATOM     13  O   UNL     1      86.698 112.608 115.774  1.00  0.00    -0.465 OA
ATOM     14  C   UNL     1      85.816 111.643 115.212  1.00  0.00     0.282 C 
ENDBRANCH  11  13
ENDBRANCH   6  11
TORSDOF 4
ENDMDL
MODEL 8
REMARK VINA RESULT:    -4.120      2.077      4.154
REMARK INTER + INTRA:          -5.373
REMARK INTER:                  -5.003
REMARK INTRA:                  -0.370
REMARK UNBOUND:                -0.290
REMARK SMILES COC(=O)c1ccccc1C(=O)OC
REMARK SMILES IDX 5 1 6 2 7 3 8 4 9 5 10 6 3 7 4 8 2 9 1 10 11 11 12 12 13 13
REMARK SMILES IDX 14 14
REMARK H PARENT
REMARK Flexibility Score: inf
ROOT
ATOM      1  C   UNL     1      87.162 114.700 117.179  1.00  0.00     0.074 A 
ATOM      2  C   UNL     1      86.581 114.777 118.458  1.00  0.00     0.016 A 
ATOM      3  C   UNL     1      87.216 115.469 119.490  1.00  0.00     0.001 A 
ATOM      4  C   UNL     1      88.440 116.094 119.262  1.00  0.00     0.001 A 
ATOM      5  C   UNL     1      89.023 116.050 117.994  1.00  0.00     0.016 A 
ATOM      6  C   UNL     1      88.389 115.375 116.934  1.00  0.00     0.074 A 
ENDROOT
BRANCH   1   7
ATOM      7  C   UNL     1      86.492 113.856 116.164  1.00  0.00     0.338 C 
ATOM      8  O   UNL     1      86.934 112.704 115.901  1.00  0.00    -0.246 OA
BRANCH   7   9
ATOM      9  O   UNL     1      85.330 114.322 115.539  1.00  0.00    -0.465 OA
ATOM     10  C   UNL     1      85.285 115.547 114.818  1.00  0.00     0.282 C 
ENDBRANCH   7   9
ENDBRANCH   1   7
BRANCH   6  11
ATOM     11  C   UNL     1      88.996 115.463 115.586  1.00  0.00     0.338 C 
ATOM     12  O   UNL     1      89.892 114.641 115.247  1.00  0.00    -0.246 OA
BRANCH  11  13
ATOM     13  O   UNL     1      88.617 116.488 114.713  1.00  0.00    -0.465 OA
ATOM     14  C   UNL     1      89.243 116.693 113.452  1.00  0.00     0.282 C 
ENDBRANCH  11  13
ENDBRANCH   6  11
TORSDOF 4
ENDMDL
MODEL 9
REMARK VINA RESULT:    -3.961      2.466      3.874
REMARK INTER + INTRA:          -5.178
REMARK INTER:                  -4.895
REMARK INTRA:                  -0.283
REMARK UNBOUND:                -0.290
REMARK SMILES COC(=O)c1ccccc1C(=O)OC
REMARK SMILES IDX 5 1 6 2 7 3 8 4 9 5 10 6 3 7 4 8 2 9 1 10 11 11 12 12 13 13
REMARK SMILES IDX 14 14
REMARK H PARENT
REMARK Flexibility Score: inf
ROOT
ATOM      1  C   UNL     1      87.289 114.872 117.002  1.00  0.00     0.074 A 
ATOM      2  C   UNL     1      86.774 113.820 116.222  1.00  0.00     0.016 A 
ATOM      3  C   UNL     1      86.324 112.642 116.820  1.00  0.00     0.001 A 
ATOM      4  C   UNL     1      86.382 112.494 118.204  1.00  0.00     0.001 A 
ATOM      5  C   UNL     1      86.868 113.534 118.999  1.00  0.00     0.016 A 
ATOM      6  C   UNL     1      87.306 114.739 118.418  1.00  0.00     0.074 A 
ENDROOT
BRANCH   1   7
ATOM      7  C   UNL     1      87.852 116.045 116.298  1.00  0.00     0.338 C 
ATOM      8  O   UNL     1      88.910 115.934 115.619  1.00  0.00    -0.246 OA
BRANCH   7   9
ATOM      9  O   UNL     1      87.172 117.267 116.341  1.00  0.00    -0.465 OA
ATOM     10  C   UNL     1      85.793 117.390 116.012  1.00  0.00     0.282 C 
ENDBRANCH   7   9
ENDBRANCH   1   7
BRANCH   6  11
ATOM     11  C   UNL     1      87.698 115.848 119.319  1.00  0.00     0.338 C 
ATOM     12  O   UNL     1      88.907 116.208 119.380  1.00  0.00    -0.246 OA
BRANCH  11  13
ATOM     13  O   UNL     1      86.742 116.456 120.138  1.00  0.00    -0.465 OA
ATOM     14  C   UNL     1      85.440 116.798 119.678  1.00  0.00     0.282 C 
ENDBRANCH  11  13
ENDBRANCH   6  11
TORSDOF 4
ENDMDL
