MODEL 1
REMARK VINA RESULT:    -5.542      0.000      0.000
REMARK INTER + INTRA:          -5.542
REMARK INTER:                  -5.542
REMARK INTRA:                   0.000
REMARK UNBOUND:                 0.000
REMARK SMILES C=C1CCC[C@]2(C)CC(=O)C(=C(C)C)C[C@H]12
REMARK SMILES IDX 13 1 12 2 11 3 15 4 16 5 2 6 1 7 3 8 4 9 5 10 6 11 8 12 9 13
REMARK SMILES IDX 10 14 7 15 14 16
REMARK H PARENT
REMARK Flexibility Score: inf
ROOT
ATOM      1  C   UNL     1      10.147  -7.464  40.906  1.00  0.00     0.039 C 
ATOM      2  C   UNL     1       8.993  -6.735  41.557  1.00  0.00    -0.070 C 
ATOM      3  C   UNL     1       9.138  -5.466  42.034  1.00  0.00    -0.006 C 
ATOM      4  C   UNL     1      10.428  -4.679  41.914  1.00  0.00     0.047 C 
ATOM      5  C   UNL     1      10.222  -3.319  41.188  1.00  0.00     0.025 C 
ATOM      6  C   UNL     1      11.355  -2.384  41.581  1.00  0.00    -0.073 C 
ATOM      7  C   UNL     1      12.555  -2.479  40.985  1.00  0.00     0.008 C 
ATOM      8  C   UNL     1      11.149  -1.433  42.737  1.00  0.00     0.031 C 
ATOM      9  C   UNL     1       9.857  -0.609  42.594  1.00  0.00     0.005 C 
ATOM     10  C   UNL     1       8.905  -1.113  41.494  1.00  0.00     0.008 C 
ATOM     11  C   UNL     1       8.798  -2.663  41.419  1.00  0.00    -0.018 C 
ATOM     12  C   UNL     1       8.125  -3.207  42.714  1.00  0.00     0.088 C 
ATOM     13  C   UNL     1       8.044  -4.706  42.693  1.00  0.00     0.159 C 
ATOM     14  O   UNL     1       7.102  -5.282  43.300  1.00  0.00    -0.295 OA
ATOM     15  C   UNL     1       7.878  -2.990  40.211  1.00  0.00     0.012 C 
ATOM     16  C   UNL     1       7.666  -7.455  41.616  1.00  0.00     0.039 C 
ENDROOT
TORSDOF 0
ENDMDL
MODEL 2
REMARK VINA RESULT:    -5.422      1.621      2.954
REMARK INTER + INTRA:          -5.422
REMARK INTER:                  -5.422
REMARK INTRA:                   0.000
REMARK UNBOUND:                 0.000
REMARK SMILES C=C1CCC[C@]2(C)CC(=O)C(=C(C)C)C[C@H]12
REMARK SMILES IDX 13 1 12 2 11 3 15 4 16 5 2 6 1 7 3 8 4 9 5 10 6 11 8 12 9 13
REMARK SMILES IDX 10 14 7 15 14 16
REMARK H PARENT
REMARK Flexibility Score: inf
ROOT
ATOM      1  C   UNL     1       7.502  -5.908  43.734  1.00  0.00     0.039 C 
ATOM      2  C   UNL     1       7.846  -5.488  42.323  1.00  0.00    -0.070 C 
ATOM      3  C   UNL     1       8.075  -4.181  42.011  1.00  0.00    -0.006 C 
ATOM      4  C   UNL     1       8.048  -3.067  43.040  1.00  0.00     0.047 C 
ATOM      5  C   UNL     1       9.376  -2.260  43.069  1.00  0.00     0.025 C 
ATOM      6  C   UNL     1       9.098  -0.892  43.671  1.00  0.00    -0.073 C 
ATOM      7  C   UNL     1       9.018  -0.737  45.003  1.00  0.00     0.008 C 
ATOM      8  C   UNL     1       8.790   0.263  42.748  1.00  0.00     0.031 C 
ATOM      9  C   UNL     1       9.842   0.419  41.634  1.00  0.00     0.005 C 
ATOM     10  C   UNL     1      10.803  -0.775  41.502  1.00  0.00     0.008 C 
ATOM     11  C   UNL     1      10.110  -2.159  41.668  1.00  0.00    -0.018 C 
ATOM     12  C   UNL     1       9.122  -2.398  40.489  1.00  0.00     0.088 C 
ATOM     13  C   UNL     1       8.404  -3.708  40.641  1.00  0.00     0.159 C 
ATOM     14  O   UNL     1       8.029  -4.330  39.612  1.00  0.00    -0.295 OA
ATOM     15  C   UNL     1      11.232  -3.231  41.596  1.00  0.00     0.012 C 
ATOM     16  C   UNL     1       7.969  -6.580  41.287  1.00  0.00     0.039 C 
ENDROOT
TORSDOF 0
ENDMDL
MODEL 3
REMARK VINA RESULT:    -5.296      2.438      5.134
REMARK INTER + INTRA:          -5.296
REMARK INTER:                  -5.296
REMARK INTRA:                   0.000
REMARK UNBOUND:                 0.000
REMARK SMILES C=C1CCC[C@]2(C)CC(=O)C(=C(C)C)C[C@H]12
REMARK SMILES IDX 13 1 12 2 11 3 15 4 16 5 2 6 1 7 3 8 4 9 5 10 6 11 8 12 9 13
REMARK SMILES IDX 10 14 7 15 14 16
REMARK H PARENT
REMARK Flexibility Score: inf
ROOT
ATOM      1  C   UNL     1       8.720  -0.786  45.294  1.00  0.00     0.039 C 
ATOM      2  C   UNL     1       9.531  -0.328  44.104  1.00  0.00    -0.070 C 
ATOM      3  C   UNL     1       9.767  -1.158  43.048  1.00  0.00    -0.006 C 
ATOM      4  C   UNL     1       9.210  -2.565  42.962  1.00  0.00     0.047 C 
ATOM      5  C   UNL     1       8.372  -2.789  41.671  1.00  0.00     0.025 C 
ATOM      6  C   UNL     1       8.325  -4.280  41.376  1.00  0.00    -0.073 C 
ATOM      7  C   UNL     1       7.463  -5.077  42.030  1.00  0.00     0.008 C 
ATOM      8  C   UNL     1       9.345  -4.869  40.431  1.00  0.00     0.031 C 
ATOM      9  C   UNL     1       9.418  -4.105  39.096  1.00  0.00     0.005 C 
ATOM     10  C   UNL     1       8.681  -2.754  39.102  1.00  0.00     0.008 C 
ATOM     11  C   UNL     1       8.860  -1.947  40.421  1.00  0.00    -0.018 C 
ATOM     12  C   UNL     1      10.348  -1.513  40.573  1.00  0.00     0.088 C 
ATOM     13  C   UNL     1      10.566  -0.767  41.857  1.00  0.00     0.159 C 
ATOM     14  O   UNL     1      11.469   0.110  41.917  1.00  0.00    -0.295 OA
ATOM     15  C   UNL     1       7.986  -0.670  40.285  1.00  0.00     0.012 C 
ATOM     16  C   UNL     1      10.029   1.098  44.114  1.00  0.00     0.039 C 
ENDROOT
TORSDOF 0
ENDMDL
MODEL 4
REMARK VINA RESULT:    -5.272      2.508      4.474
REMARK INTER + INTRA:          -5.272
REMARK INTER:                  -5.272
REMARK INTRA:                   0.000
REMARK UNBOUND:                 0.000
REMARK SMILES C=C1CCC[C@]2(C)CC(=O)C(=C(C)C)C[C@H]12
REMARK SMILES IDX 13 1 12 2 11 3 15 4 16 5 2 6 1 7 3 8 4 9 5 10 6 11 8 12 9 13
REMARK SMILES IDX 10 14 7 15 14 16
REMARK H PARENT
REMARK Flexibility Score: inf
ROOT
ATOM      1  C   UNL     1       6.075  -1.396  38.099  1.00  0.00     0.039 C 
ATOM      2  C   UNL     1       7.096  -2.467  37.788  1.00  0.00    -0.070 C 
ATOM      3  C   UNL     1       8.191  -2.650  38.579  1.00  0.00    -0.006 C 
ATOM      4  C   UNL     1       8.450  -1.841  39.834  1.00  0.00     0.047 C 
ATOM      5  C   UNL     1       8.627  -2.742  41.089  1.00  0.00     0.025 C 
ATOM      6  C   UNL     1       9.402  -1.962  42.140  1.00  0.00    -0.073 C 
ATOM      7  C   UNL     1       8.779  -1.062  42.919  1.00  0.00     0.008 C 
ATOM      8  C   UNL     1      10.902  -2.124  42.208  1.00  0.00     0.031 C 
ATOM      9  C   UNL     1      11.330  -3.601  42.276  1.00  0.00     0.005 C 
ATOM     10  C   UNL     1      10.201  -4.600  41.964  1.00  0.00     0.008 C 
ATOM     11  C   UNL     1       9.277  -4.156  40.793  1.00  0.00    -0.018 C 
ATOM     12  C   UNL     1      10.085  -4.143  39.461  1.00  0.00     0.088 C 
ATOM     13  C   UNL     1       9.232  -3.678  38.316  1.00  0.00     0.159 C 
ATOM     14  O   UNL     1       9.471  -4.105  37.155  1.00  0.00    -0.295 OA
ATOM     15  C   UNL     1       8.156  -5.225  40.679  1.00  0.00     0.012 C 
ATOM     16  C   UNL     1       6.827  -3.353  36.594  1.00  0.00     0.039 C 
ENDROOT
TORSDOF 0
ENDMDL
MODEL 5
REMARK VINA RESULT:    -5.184     16.299     18.143
REMARK INTER + INTRA:          -5.184
REMARK INTER:                  -5.184
REMARK INTRA:                   0.000
REMARK UNBOUND:                 0.000
REMARK SMILES C=C1CCC[C@]2(C)CC(=O)C(=C(C)C)C[C@H]12
REMARK SMILES IDX 13 1 12 2 11 3 15 4 16 5 2 6 1 7 3 8 4 9 5 10 6 11 8 12 9 13
REMARK SMILES IDX 10 14 7 15 14 16
REMARK H PARENT
REMARK Flexibility Score: inf
ROOT
ATOM      1  C   UNL     1      25.093 -16.904  47.641  1.00  0.00     0.039 C 
ATOM      2  C   UNL     1      24.206 -16.734  46.429  1.00  0.00    -0.070 C 
ATOM      3  C   UNL     1      23.668 -15.522  46.112  1.00  0.00    -0.006 C 
ATOM      4  C   UNL     1      23.944 -14.260  46.907  1.00  0.00     0.047 C 
ATOM      5  C   UNL     1      24.522 -13.121  46.021  1.00  0.00     0.025 C 
ATOM      6  C   UNL     1      24.256 -11.791  46.709  1.00  0.00    -0.073 C 
ATOM      7  C   UNL     1      25.050 -11.368  47.706  1.00  0.00     0.008 C 
ATOM      8  C   UNL     1      23.016 -11.013  46.337  1.00  0.00     0.031 C 
ATOM      9  C   UNL     1      22.879 -10.818  44.816  1.00  0.00     0.005 C 
ATOM     10  C   UNL     1      23.839 -11.684  43.981  1.00  0.00     0.008 C 
ATOM     11  C   UNL     1      24.009 -13.133  44.522  1.00  0.00    -0.018 C 
ATOM     12  C   UNL     1      22.664 -13.906  44.387  1.00  0.00     0.088 C 
ATOM     13  C   UNL     1      22.781 -15.297  44.941  1.00  0.00     0.159 C 
ATOM     14  O   UNL     1      22.070 -16.216  44.455  1.00  0.00    -0.295 OA
ATOM     15  C   UNL     1      25.067 -13.825  43.620  1.00  0.00     0.012 C 
ATOM     16  C   UNL     1      23.980 -17.949  45.561  1.00  0.00     0.039 C 
ENDROOT
TORSDOF 0
ENDMDL
MODEL 6
REMARK VINA RESULT:    -4.978     16.533     18.907
REMARK INTER + INTRA:          -4.978
REMARK INTER:                  -4.978
REMARK INTRA:                   0.000
REMARK UNBOUND:                 0.000
REMARK SMILES C=C1CCC[C@]2(C)CC(=O)C(=C(C)C)C[C@H]12
REMARK SMILES IDX 13 1 12 2 11 3 15 4 16 5 2 6 1 7 3 8 4 9 5 10 6 11 8 12 9 13
REMARK SMILES IDX 10 14 7 15 14 16
REMARK H PARENT
REMARK Flexibility Score: inf
ROOT
ATOM      1  C   UNL     1      25.124 -11.702  48.030  1.00  0.00     0.039 C 
ATOM      2  C   UNL     1      24.572 -11.720  46.624  1.00  0.00    -0.070 C 
ATOM      3  C   UNL     1      24.486 -12.880  45.912  1.00  0.00    -0.006 C 
ATOM      4  C   UNL     1      24.888 -14.229  46.477  1.00  0.00     0.047 C 
ATOM      5  C   UNL     1      23.730 -15.264  46.407  1.00  0.00     0.025 C 
ATOM      6  C   UNL     1      24.328 -16.662  46.453  1.00  0.00    -0.073 C 
ATOM      7  C   UNL     1      24.696 -17.208  47.624  1.00  0.00     0.008 C 
ATOM      8  C   UNL     1      24.615 -17.376  45.153  1.00  0.00     0.031 C 
ATOM      9  C   UNL     1      23.398 -17.391  44.211  1.00  0.00     0.005 C 
ATOM     10  C   UNL     1      22.260 -16.446  44.636  1.00  0.00     0.008 C 
ATOM     11  C   UNL     1      22.753 -15.071  45.175  1.00  0.00    -0.018 C 
ATOM     12  C   UNL     1      23.437 -14.272  44.026  1.00  0.00     0.088 C 
ATOM     13  C   UNL     1      23.964 -12.956  44.523  1.00  0.00     0.159 C 
ATOM     14  O   UNL     1      24.025 -11.977  43.732  1.00  0.00    -0.295 OA
ATOM     15  C   UNL     1      21.491 -14.292  45.634  1.00  0.00     0.012 C 
ATOM     16  C   UNL     1      24.079 -10.409  46.058  1.00  0.00     0.039 C 
ENDROOT
TORSDOF 0
ENDMDL
MODEL 7
REMARK VINA RESULT:    -4.945      1.779      2.831
REMARK INTER + INTRA:          -4.945
REMARK INTER:                  -4.945
REMARK INTRA:                   0.000
REMARK UNBOUND:                 0.000
REMARK SMILES C=C1CCC[C@]2(C)CC(=O)C(=C(C)C)C[C@H]12
REMARK SMILES IDX 13 1 12 2 11 3 15 4 16 5 2 6 1 7 3 8 4 9 5 10 6 11 8 12 9 13
REMARK SMILES IDX 10 14 7 15 14 16
REMARK H PARENT
REMARK Flexibility Score: inf
ROOT
ATOM      1  C   UNL     1      12.381  -4.176  40.556  1.00  0.00     0.039 C 
ATOM      2  C   UNL     1      10.964  -4.203  41.080  1.00  0.00    -0.070 C 
ATOM      3  C   UNL     1      10.571  -3.387  42.099  1.00  0.00    -0.006 C 
ATOM      4  C   UNL     1      11.493  -2.373  42.749  1.00  0.00     0.047 C 
ATOM      5  C   UNL     1      10.912  -0.932  42.696  1.00  0.00     0.025 C 
ATOM      6  C   UNL     1      11.564  -0.107  43.795  1.00  0.00    -0.073 C 
ATOM      7  C   UNL     1      12.787   0.419  43.618  1.00  0.00     0.008 C 
ATOM      8  C   UNL     1      10.869   0.007  45.131  1.00  0.00     0.031 C 
ATOM      9  C   UNL     1       9.399   0.445  44.992  1.00  0.00     0.005 C 
ATOM     10  C   UNL     1       8.858   0.388  43.552  1.00  0.00     0.008 C 
ATOM     11  C   UNL     1       9.330  -0.861  42.753  1.00  0.00    -0.018 C 
ATOM     12  C   UNL     1       8.726  -2.149  43.385  1.00  0.00     0.088 C 
ATOM     13  C   UNL     1       9.196  -3.379  42.663  1.00  0.00     0.159 C 
ATOM     14  O   UNL     1       8.452  -4.394  42.622  1.00  0.00    -0.295 OA
ATOM     15  C   UNL     1       8.769  -0.709  41.313  1.00  0.00     0.012 C 
ATOM     16  C   UNL     1       9.993  -5.138  40.398  1.00  0.00     0.039 C 
ENDROOT
TORSDOF 0
ENDMDL
MODEL 8
REMARK VINA RESULT:    -4.818     15.669     18.267
REMARK INTER + INTRA:          -4.818
REMARK INTER:                  -4.818
REMARK INTRA:                   0.000
REMARK UNBOUND:                 0.000
REMARK SMILES C=C1CCC[C@]2(C)CC(=O)C(=C(C)C)C[C@H]12
REMARK SMILES IDX 13 1 12 2 11 3 15 4 16 5 2 6 1 7 3 8 4 9 5 10 6 11 8 12 9 13
REMARK SMILES IDX 10 14 7 15 14 16
REMARK H PARENT
REMARK Flexibility Score: inf
ROOT
ATOM      1  C   UNL     1      22.496 -11.589  47.086  1.00  0.00     0.039 C 
ATOM      2  C   UNL     1      23.466 -12.748  47.052  1.00  0.00    -0.070 C 
ATOM      3  C   UNL     1      23.124 -13.939  46.483  1.00  0.00    -0.006 C 
ATOM      4  C   UNL     1      21.787 -14.182  45.811  1.00  0.00     0.047 C 
ATOM      5  C   UNL     1      21.945 -14.658  44.339  1.00  0.00     0.025 C 
ATOM      6  C   UNL     1      20.676 -15.388  43.928  1.00  0.00    -0.073 C 
ATOM      7  C   UNL     1      19.586 -14.701  43.550  1.00  0.00     0.008 C 
ATOM      8  C   UNL     1      20.621 -16.891  44.070  1.00  0.00     0.031 C 
ATOM      9  C   UNL     1      21.827 -17.587  43.411  1.00  0.00     0.005 C 
ATOM     10  C   UNL     1      22.967 -16.632  43.015  1.00  0.00     0.008 C 
ATOM     11  C   UNL     1      23.247 -15.519  44.067  1.00  0.00    -0.018 C 
ATOM     12  C   UNL     1      23.791 -16.159  45.378  1.00  0.00     0.088 C 
ATOM     13  C   UNL     1      24.031 -15.115  46.430  1.00  0.00     0.159 C 
ATOM     14  O   UNL     1      24.937 -15.299  47.286  1.00  0.00    -0.295 OA
ATOM     15  C   UNL     1      24.352 -14.607  43.468  1.00  0.00     0.012 C 
ATOM     16  C   UNL     1      24.840 -12.516  47.633  1.00  0.00     0.039 C 
ENDROOT
TORSDOF 0
ENDMDL
MODEL 9
REMARK VINA RESULT:    -4.735     16.309     17.776
REMARK INTER + INTRA:          -4.735
REMARK INTER:                  -4.735
REMARK INTRA:                   0.000
REMARK UNBOUND:                 0.000
REMARK SMILES C=C1CCC[C@]2(C)CC(=O)C(=C(C)C)C[C@H]12
REMARK SMILES IDX 13 1 12 2 11 3 15 4 16 5 2 6 1 7 3 8 4 9 5 10 6 11 8 12 9 13
REMARK SMILES IDX 10 14 7 15 14 16
REMARK H PARENT
REMARK Flexibility Score: inf
ROOT
ATOM      1  C   UNL     1      22.491 -16.353  42.052  1.00  0.00     0.039 C 
ATOM      2  C   UNL     1      22.801 -16.661  43.498  1.00  0.00    -0.070 C 
ATOM      3  C   UNL     1      23.328 -15.715  44.326  1.00  0.00    -0.006 C 
ATOM      4  C   UNL     1      23.601 -14.290  43.885  1.00  0.00     0.047 C 
ATOM      5  C   UNL     1      22.879 -13.247  44.784  1.00  0.00     0.025 C 
ATOM      6  C   UNL     1      23.602 -11.915  44.657  1.00  0.00    -0.073 C 
ATOM      7  C   UNL     1      23.373 -11.112  43.605  1.00  0.00     0.008 C 
ATOM      8  C   UNL     1      24.672 -11.567  45.665  1.00  0.00     0.031 C 
ATOM      9  C   UNL     1      24.184 -11.726  47.117  1.00  0.00     0.005 C 
ATOM     10  C   UNL     1      22.846 -12.475  47.254  1.00  0.00     0.008 C 
ATOM     11  C   UNL     1      22.708 -13.693  46.295  1.00  0.00    -0.018 C 
ATOM     12  C   UNL     1      23.742 -14.790  46.685  1.00  0.00     0.088 C 
ATOM     13  C   UNL     1      23.665 -15.964  45.752  1.00  0.00     0.159 C 
ATOM     14  O   UNL     1      23.962 -17.111  46.177  1.00  0.00    -0.295 OA
ATOM     15  C   UNL     1      21.280 -14.266  46.504  1.00  0.00     0.012 C 
ATOM     16  C   UNL     1      22.461 -18.045  43.998  1.00  0.00     0.039 C 
ENDROOT
TORSDOF 0
ENDMDL
