MODEL 1
REMARK VINA RESULT:    -3.975      0.000      0.000
REMARK INTER + INTRA:          -5.126
REMARK INTER:                  -4.905
REMARK INTRA:                  -0.221
REMARK UNBOUND:                -0.221
REMARK SMILES CCCCCC(=O)[O-]
REMARK SMILES IDX 4 1 5 2 6 3 7 4 8 5 3 6 2 7 1 8
REMARK H PARENT
REMARK Flexibility Score: inf
ROOT
ATOM      1  C   UNL     1      13.132  32.703  12.819  1.00  0.00     0.006 C 
ENDROOT
BRANCH   1   2
ATOM      2  C   UNL     1      13.302  33.838  13.836  1.00  0.00     0.053 C 
BRANCH   2   3
ATOM      3  C   UNL     1      14.235  34.898  13.335  1.00  0.00     0.041 C 
ATOM      4  O   UNL     1      15.459  34.855  13.629  1.00  0.00    -0.550 OA
ATOM      5  O   UNL     1      13.760  35.915  12.517  1.00  0.00    -0.550 OA
ENDBRANCH   2   3
ENDBRANCH   1   2
BRANCH   1   6
ATOM      6  C   UNL     1      13.915  31.443  13.217  1.00  0.00     0.000 C 
BRANCH   6   7
ATOM      7  C   UNL     1      15.063  31.177  12.237  1.00  0.00    -0.003 C 
ATOM      8  C   UNL     1      16.406  31.579  12.839  1.00  0.00     0.004 C 
ENDBRANCH   6   7
ENDBRANCH   1   6
TORSDOF 4
ENDMDL
MODEL 2
REMARK VINA RESULT:    -3.786     12.818     14.465
REMARK INTER + INTRA:          -4.893
REMARK INTER:                  -4.762
REMARK INTRA:                  -0.130
REMARK UNBOUND:                -0.221
REMARK SMILES CCCCCC(=O)[O-]
REMARK SMILES IDX 4 1 5 2 6 3 7 4 8 5 3 6 2 7 1 8
REMARK H PARENT
REMARK Flexibility Score: inf
ROOT
ATOM      1  C   UNL     1       2.644  42.186  11.803  1.00  0.00     0.006 C 
ENDROOT
BRANCH   1   2
ATOM      2  C   UNL     1       4.001  41.578  12.181  1.00  0.00     0.053 C 
BRANCH   2   3
ATOM      3  C   UNL     1       3.849  40.236  12.827  1.00  0.00     0.041 C 
ATOM      4  O   UNL     1       2.761  39.607  12.735  1.00  0.00    -0.550 OA
ATOM      5  O   UNL     1       4.919  39.663  13.503  1.00  0.00    -0.550 OA
ENDBRANCH   2   3
ENDBRANCH   1   2
BRANCH   1   6
ATOM      6  C   UNL     1       2.568  43.685  12.124  1.00  0.00     0.000 C 
BRANCH   6   7
ATOM      7  C   UNL     1       3.971  44.282  12.291  1.00  0.00    -0.003 C 
ATOM      8  C   UNL     1       4.318  45.207  11.129  1.00  0.00     0.004 C 
ENDBRANCH   6   7
ENDBRANCH   1   6
TORSDOF 4
ENDMDL
MODEL 3
REMARK VINA RESULT:    -3.761     12.811     14.204
REMARK INTER + INTRA:          -4.862
REMARK INTER:                  -4.709
REMARK INTRA:                  -0.153
REMARK UNBOUND:                -0.221
REMARK SMILES CCCCCC(=O)[O-]
REMARK SMILES IDX 4 1 5 2 6 3 7 4 8 5 3 6 2 7 1 8
REMARK H PARENT
REMARK Flexibility Score: inf
ROOT
ATOM      1  C   UNL     1       2.631  42.524  11.745  1.00  0.00     0.006 C 
ENDROOT
BRANCH   1   2
ATOM      2  C   UNL     1       3.736  43.547  12.037  1.00  0.00     0.053 C 
BRANCH   2   3
ATOM      3  C   UNL     1       4.174  44.263  10.797  1.00  0.00     0.041 C 
ATOM      4  O   UNL     1       4.595  45.449  10.865  1.00  0.00    -0.550 OA
ATOM      5  O   UNL     1       4.150  43.612   9.571  1.00  0.00    -0.550 OA
ENDBRANCH   2   3
ENDBRANCH   1   2
BRANCH   1   6
ATOM      6  C   UNL     1       3.028  41.102  12.171  1.00  0.00     0.000 C 
BRANCH   6   7
ATOM      7  C   UNL     1       4.490  41.054  12.628  1.00  0.00    -0.003 C 
ATOM      8  C   UNL     1       4.808  39.733  13.321  1.00  0.00     0.004 C 
ENDBRANCH   6   7
ENDBRANCH   1   6
TORSDOF 4
ENDMDL
MODEL 4
REMARK VINA RESULT:    -3.727     14.787     15.872
REMARK INTER + INTRA:          -4.821
REMARK INTER:                  -4.696
REMARK INTRA:                  -0.124
REMARK UNBOUND:                -0.221
REMARK SMILES CCCCCC(=O)[O-]
REMARK SMILES IDX 4 1 5 2 6 3 7 4 8 5 3 6 2 7 1 8
REMARK H PARENT
REMARK Flexibility Score: inf
ROOT
ATOM      1  C   UNL     1       4.117  44.603  11.814  1.00  0.00     0.006 C 
ENDROOT
BRANCH   1   2
ATOM      2  C   UNL     1       2.885  43.733  12.096  1.00  0.00     0.053 C 
BRANCH   2   3
ATOM      3  C   UNL     1       2.910  42.461  11.304  1.00  0.00     0.041 C 
ATOM      4  O   UNL     1       3.052  41.354  11.888  1.00  0.00    -0.550 OA
ATOM      5  O   UNL     1       2.743  42.495   9.926  1.00  0.00    -0.550 OA
ENDBRANCH   2   3
ENDBRANCH   1   2
BRANCH   1   6
ATOM      6  C   UNL     1       3.771  45.848  10.985  1.00  0.00     0.000 C 
BRANCH   6   7
ATOM      7  C   UNL     1       4.537  45.854   9.657  1.00  0.00    -0.003 C 
ATOM      8  C   UNL     1       5.388  47.112   9.518  1.00  0.00     0.004 C 
ENDBRANCH   6   7
ENDBRANCH   1   6
TORSDOF 4
ENDMDL
MODEL 5
REMARK VINA RESULT:    -3.696     14.485     15.749
REMARK INTER + INTRA:          -4.782
REMARK INTER:                  -4.548
REMARK INTRA:                  -0.234
REMARK UNBOUND:                -0.221
REMARK SMILES CCCCCC(=O)[O-]
REMARK SMILES IDX 4 1 5 2 6 3 7 4 8 5 3 6 2 7 1 8
REMARK H PARENT
REMARK Flexibility Score: inf
ROOT
ATOM      1  C   UNL     1       3.920  44.206  12.143  1.00  0.00     0.006 C 
ENDROOT
BRANCH   1   2
ATOM      2  C   UNL     1       4.512  45.150  11.089  1.00  0.00     0.053 C 
BRANCH   2   3
ATOM      3  C   UNL     1       3.915  44.918   9.735  1.00  0.00     0.041 C 
ATOM      4  O   UNL     1       3.231  45.820   9.181  1.00  0.00    -0.550 OA
ATOM      5  O   UNL     1       4.141  43.720   9.070  1.00  0.00    -0.550 OA
ENDBRANCH   2   3
ENDBRANCH   1   2
BRANCH   1   6
ATOM      6  C   UNL     1       2.391  44.103  12.038  1.00  0.00     0.000 C 
BRANCH   6   7
ATOM      7  C   UNL     1       1.933  42.641  12.101  1.00  0.00    -0.003 C 
ATOM      8  C   UNL     1       3.082  41.690  11.782  1.00  0.00     0.004 C 
ENDBRANCH   6   7
ENDBRANCH   1   6
TORSDOF 4
ENDMDL
MODEL 6
REMARK VINA RESULT:    -3.664     15.031     16.181
REMARK INTER + INTRA:          -4.743
REMARK INTER:                  -4.667
REMARK INTRA:                  -0.076
REMARK UNBOUND:                -0.221
REMARK SMILES CCCCCC(=O)[O-]
REMARK SMILES IDX 4 1 5 2 6 3 7 4 8 5 3 6 2 7 1 8
REMARK H PARENT
REMARK Flexibility Score: inf
ROOT
ATOM      1  C   UNL     1       4.486  44.893  10.920  1.00  0.00     0.006 C 
ENDROOT
BRANCH   1   2
ATOM      2  C   UNL     1       3.990  46.327  10.692  1.00  0.00     0.053 C 
BRANCH   2   3
ATOM      3  C   UNL     1       4.740  47.007   9.588  1.00  0.00     0.041 C 
ATOM      4  O   UNL     1       5.993  47.127   9.653  1.00  0.00    -0.550 OA
ATOM      5  O   UNL     1       4.062  47.478   8.472  1.00  0.00    -0.550 OA
ENDBRANCH   2   3
ENDBRANCH   1   2
BRANCH   1   6
ATOM      6  C   UNL     1       4.014  44.322  12.265  1.00  0.00     0.000 C 
BRANCH   6   7
ATOM      7  C   UNL     1       2.710  43.532  12.098  1.00  0.00    -0.003 C 
ATOM      8  C   UNL     1       2.972  42.155  11.498  1.00  0.00     0.004 C 
ENDBRANCH   6   7
ENDBRANCH   1   6
TORSDOF 4
ENDMDL
MODEL 7
REMARK VINA RESULT:    -3.590      1.332      2.214
REMARK INTER + INTRA:          -4.651
REMARK INTER:                  -4.563
REMARK INTRA:                  -0.088
REMARK UNBOUND:                -0.221
REMARK SMILES CCCCCC(=O)[O-]
REMARK SMILES IDX 4 1 5 2 6 3 7 4 8 5 3 6 2 7 1 8
REMARK H PARENT
REMARK Flexibility Score: inf
ROOT
ATOM      1  C   UNL     1      15.367  32.970  13.151  1.00  0.00     0.006 C 
ENDROOT
BRANCH   1   2
ATOM      2  C   UNL     1      15.171  34.288  13.910  1.00  0.00     0.053 C 
BRANCH   2   3
ATOM      3  C   UNL     1      14.006  35.067  13.381  1.00  0.00     0.041 C 
ATOM      4  O   UNL     1      12.918  35.092  14.016  1.00  0.00    -0.550 OA
ATOM      5  O   UNL     1      14.131  35.794  12.204  1.00  0.00    -0.550 OA
ENDBRANCH   2   3
ENDBRANCH   1   2
BRANCH   1   6
ATOM      6  C   UNL     1      14.035  32.358  12.694  1.00  0.00     0.000 C 
BRANCH   6   7
ATOM      7  C   UNL     1      13.683  31.122  13.531  1.00  0.00    -0.003 C 
ATOM      8  C   UNL     1      12.317  31.276  14.192  1.00  0.00     0.004 C 
ENDBRANCH   6   7
ENDBRANCH   1   6
TORSDOF 4
ENDMDL
MODEL 8
REMARK VINA RESULT:    -3.576     14.999     16.146
REMARK INTER + INTRA:          -4.634
REMARK INTER:                  -4.566
REMARK INTRA:                  -0.068
REMARK UNBOUND:                -0.221
REMARK SMILES CCCCCC(=O)[O-]
REMARK SMILES IDX 4 1 5 2 6 3 7 4 8 5 3 6 2 7 1 8
REMARK H PARENT
REMARK Flexibility Score: inf
ROOT
ATOM      1  C   UNL     1       3.772  45.357   9.541  1.00  0.00     0.006 C 
ENDROOT
BRANCH   1   2
ATOM      2  C   UNL     1       4.138  43.870   9.633  1.00  0.00     0.053 C 
BRANCH   2   3
ATOM      3  C   UNL     1       3.510  43.215  10.825  1.00  0.00     0.041 C 
ATOM      4  O   UNL     1       2.678  42.282  10.670  1.00  0.00    -0.550 OA
ATOM      5  O   UNL     1       3.867  43.611  12.107  1.00  0.00    -0.550 OA
ENDBRANCH   2   3
ENDBRANCH   1   2
BRANCH   1   6
ATOM      6  C   UNL     1       4.873  46.263  10.110  1.00  0.00     0.000 C 
BRANCH   6   7
ATOM      7  C   UNL     1       5.236  47.375   9.119  1.00  0.00    -0.003 C 
ATOM      8  C   UNL     1       6.692  47.800   9.276  1.00  0.00     0.004 C 
ENDBRANCH   6   7
ENDBRANCH   1   6
TORSDOF 4
ENDMDL
MODEL 9
REMARK VINA RESULT:    -3.541     15.211     15.853
REMARK INTER + INTRA:          -4.590
REMARK INTER:                  -4.357
REMARK INTRA:                  -0.233
REMARK UNBOUND:                -0.221
REMARK SMILES CCCCCC(=O)[O-]
REMARK SMILES IDX 4 1 5 2 6 3 7 4 8 5 3 6 2 7 1 8
REMARK H PARENT
REMARK Flexibility Score: inf
ROOT
ATOM      1  C   UNL     1       3.969  43.570   9.269  1.00  0.00     0.006 C 
ENDROOT
BRANCH   1   2
ATOM      2  C   UNL     1       3.741  45.084   9.170  1.00  0.00     0.053 C 
BRANCH   2   3
ATOM      3  C   UNL     1       4.489  45.830  10.232  1.00  0.00     0.041 C 
ATOM      4  O   UNL     1       4.216  45.647  11.448  1.00  0.00    -0.550 OA
ATOM      5  O   UNL     1       5.511  46.703   9.880  1.00  0.00    -0.550 OA
ENDBRANCH   2   3
ENDBRANCH   1   2
BRANCH   1   6
ATOM      6  C   UNL     1       2.693  42.814   9.666  1.00  0.00     0.000 C 
BRANCH   6   7
ATOM      7  C   UNL     1       2.762  42.349  11.126  1.00  0.00    -0.003 C 
ATOM      8  C   UNL     1       1.773  43.119  11.996  1.00  0.00     0.004 C 
ENDBRANCH   6   7
ENDBRANCH   1   6
TORSDOF 4
ENDMDL
