MODEL 1
REMARK VINA RESULT:    -3.339      0.000      0.000
REMARK INTER + INTRA:          -6.331
REMARK INTER:                  -5.291
REMARK INTRA:                  -1.040
REMARK UNBOUND:                -1.040
REMARK SMILES CCCCCCCCCCCC(=O)[O-]
REMARK SMILES IDX 7 1 8 2 9 3 10 4 11 5 12 6 13 7 14 8 6 9 5 10 4 11 3 12 2 13
REMARK SMILES IDX 1 14
REMARK H PARENT
REMARK Flexibility Score: inf
ROOT
ATOM      1  C   UNL     1      -5.318  -6.316  -7.007  1.00  0.00     0.000 C 
ENDROOT
BRANCH   1   2
ATOM      2  C   UNL     1      -4.292  -6.800  -8.047  1.00  0.00     0.000 C 
BRANCH   2   3
ATOM      3  C   UNL     1      -4.842  -7.923  -8.941  1.00  0.00     0.000 C 
BRANCH   3   4
ATOM      4  C   UNL     1      -4.132  -9.264  -8.708  1.00  0.00     0.006 C 
BRANCH   4   5
ATOM      5  C   UNL     1      -4.904 -10.125  -7.704  1.00  0.00     0.053 C 
BRANCH   5   6
ATOM      6  C   UNL     1      -4.319  -9.985  -6.334  1.00  0.00     0.041 C 
ATOM      7  O   UNL     1      -5.049 -10.120  -5.317  1.00  0.00    -0.550 OA
ATOM      8  O   UNL     1      -2.979  -9.657  -6.180  1.00  0.00    -0.550 OA
ENDBRANCH   5   6
ENDBRANCH   4   5
ENDBRANCH   3   4
ENDBRANCH   2   3
ENDBRANCH   1   2
BRANCH   1   9
ATOM      9  C   UNL     1      -6.689  -6.990  -7.171  1.00  0.00     0.000 C 
BRANCH   9  10
ATOM     10  C   UNL     1      -7.252  -7.514  -5.841  1.00  0.00    -0.000 C 
BRANCH  10  11
ATOM     11  C   UNL     1      -8.739  -7.864  -5.974  1.00  0.00    -0.000 C 
BRANCH  11  12
ATOM     12  C   UNL     1      -9.430  -6.952  -6.999  1.00  0.00    -0.000 C 
BRANCH  12  13
ATOM     13  C   UNL     1     -10.045  -5.699  -6.356  1.00  0.00    -0.003 C 
ATOM     14  C   UNL     1      -9.736  -4.422  -7.138  1.00  0.00     0.004 C 
ENDBRANCH  12  13
ENDBRANCH  11  12
ENDBRANCH  10  11
ENDBRANCH   9  10
ENDBRANCH   1   9
TORSDOF 10
ENDMDL
MODEL 2
REMARK VINA RESULT:    -3.282      3.099      5.409
REMARK INTER + INTRA:          -6.241
REMARK INTER:                  -4.871
REMARK INTRA:                  -1.370
REMARK UNBOUND:                -1.040
REMARK SMILES CCCCCCCCCCCC(=O)[O-]
REMARK SMILES IDX 7 1 8 2 9 3 10 4 11 5 12 6 13 7 14 8 6 9 5 10 4 11 3 12 2 13
REMARK SMILES IDX 1 14
REMARK H PARENT
REMARK Flexibility Score: inf
ROOT
ATOM      1  C   UNL     1      -6.568  -8.666 -10.017  1.00  0.00     0.000 C 
ENDROOT
BRANCH   1   2
ATOM      2  C   UNL     1      -7.918  -8.099  -9.543  1.00  0.00     0.000 C 
BRANCH   2   3
ATOM      3  C   UNL     1      -8.414  -8.758  -8.246  1.00  0.00     0.000 C 
BRANCH   3   4
ATOM      4  C   UNL     1      -9.200  -7.786  -7.354  1.00  0.00     0.006 C 
BRANCH   4   5
ATOM      5  C   UNL     1      -8.941  -6.334  -7.766  1.00  0.00     0.053 C 
BRANCH   5   6
ATOM      6  C   UNL     1      -9.586  -5.392  -6.799  1.00  0.00     0.041 C 
ATOM      7  O   UNL     1     -10.106  -5.830  -5.740  1.00  0.00    -0.550 OA
ATOM      8  O   UNL     1      -9.657  -4.036  -7.090  1.00  0.00    -0.550 OA
ENDBRANCH   5   6
ENDBRANCH   4   5
ENDBRANCH   3   4
ENDBRANCH   2   3
ENDBRANCH   1   2
BRANCH   1   9
ATOM      9  C   UNL     1      -5.424  -7.648  -9.898  1.00  0.00     0.000 C 
BRANCH   9  10
ATOM     10  C   UNL     1      -4.206  -8.212  -9.151  1.00  0.00    -0.000 C 
BRANCH  10  11
ATOM     11  C   UNL     1      -3.879  -7.366  -7.915  1.00  0.00    -0.000 C 
BRANCH  11  12
ATOM     12  C   UNL     1      -5.069  -6.477  -7.526  1.00  0.00    -0.000 C 
BRANCH  12  13
ATOM     13  C   UNL     1      -5.731  -6.917  -6.211  1.00  0.00    -0.003 C 
ATOM     14  C   UNL     1      -5.621  -8.423  -5.969  1.00  0.00     0.004 C 
ENDBRANCH  12  13
ENDBRANCH  11  12
ENDBRANCH  10  11
ENDBRANCH   9  10
ENDBRANCH   1   9
TORSDOF 10
ENDMDL
MODEL 3
REMARK VINA RESULT:    -3.156      1.918      2.300
REMARK INTER + INTRA:          -6.041
REMARK INTER:                  -5.006
REMARK INTRA:                  -1.034
REMARK UNBOUND:                -1.040
REMARK SMILES CCCCCCCCCCCC(=O)[O-]
REMARK SMILES IDX 7 1 8 2 9 3 10 4 11 5 12 6 13 7 14 8 6 9 5 10 4 11 3 12 2 13
REMARK SMILES IDX 1 14
REMARK H PARENT
REMARK Flexibility Score: inf
ROOT
ATOM      1  C   UNL     1      -5.418  -6.434  -7.170  1.00  0.00     0.000 C 
ENDROOT
BRANCH   1   2
ATOM      2  C   UNL     1      -4.336  -7.220  -7.931  1.00  0.00     0.000 C 
BRANCH   2   3
ATOM      3  C   UNL     1      -4.809  -7.688  -9.317  1.00  0.00     0.000 C 
BRANCH   3   4
ATOM      4  C   UNL     1      -5.440  -9.087  -9.284  1.00  0.00     0.006 C 
BRANCH   4   5
ATOM      5  C   UNL     1      -6.967  -9.001  -9.361  1.00  0.00     0.053 C 
BRANCH   5   6
ATOM      6  C   UNL     1      -7.591  -9.733  -8.216  1.00  0.00     0.041 C 
ATOM      7  O   UNL     1      -8.828  -9.968  -8.213  1.00  0.00    -0.550 OA
ATOM      8  O   UNL     1      -6.817 -10.113  -7.127  1.00  0.00    -0.550 OA
ENDBRANCH   5   6
ENDBRANCH   4   5
ENDBRANCH   3   4
ENDBRANCH   2   3
ENDBRANCH   1   2
BRANCH   1   9
ATOM      9  C   UNL     1      -5.898  -7.162  -5.905  1.00  0.00     0.000 C 
BRANCH   9  10
ATOM     10  C   UNL     1      -7.403  -6.983  -5.655  1.00  0.00    -0.000 C 
BRANCH  10  11
ATOM     11  C   UNL     1      -8.070  -6.252  -6.826  1.00  0.00    -0.000 C 
BRANCH  11  12
ATOM     12  C   UNL     1      -9.560  -6.006  -6.544  1.00  0.00    -0.000 C 
BRANCH  12  13
ATOM     13  C   UNL     1      -9.982  -4.554  -6.817  1.00  0.00    -0.003 C 
ATOM     14  C   UNL     1      -9.847  -4.167  -8.290  1.00  0.00     0.004 C 
ENDBRANCH  12  13
ENDBRANCH  11  12
ENDBRANCH  10  11
ENDBRANCH   9  10
ENDBRANCH   1   9
TORSDOF 10
ENDMDL
MODEL 4
REMARK VINA RESULT:    -3.085      1.942      3.454
REMARK INTER + INTRA:          -5.929
REMARK INTER:                  -4.325
REMARK INTRA:                  -1.604
REMARK UNBOUND:                -1.040
REMARK SMILES CCCCCCCCCCCC(=O)[O-]
REMARK SMILES IDX 7 1 8 2 9 3 10 4 11 5 12 6 13 7 14 8 6 9 5 10 4 11 3 12 2 13
REMARK SMILES IDX 1 14
REMARK H PARENT
REMARK Flexibility Score: inf
ROOT
ATOM      1  C   UNL     1      -8.968  -7.282  -8.653  1.00  0.00     0.000 C 
ENDROOT
BRANCH   1   2
ATOM      2  C   UNL     1      -7.906  -7.836  -9.619  1.00  0.00     0.000 C 
BRANCH   2   3
ATOM      3  C   UNL     1      -7.131  -9.024  -9.027  1.00  0.00     0.000 C 
BRANCH   3   4
ATOM      4  C   UNL     1      -5.618  -8.918  -9.263  1.00  0.00     0.006 C 
BRANCH   4   5
ATOM      5  C   UNL     1      -5.160  -7.457  -9.236  1.00  0.00     0.053 C 
BRANCH   5   6
ATOM      6  C   UNL     1      -4.499  -7.139  -7.934  1.00  0.00     0.041 C 
ATOM      7  O   UNL     1      -4.963  -6.234  -7.191  1.00  0.00    -0.550 OA
ATOM      8  O   UNL     1      -3.340  -7.807  -7.560  1.00  0.00    -0.550 OA
ENDBRANCH   5   6
ENDBRANCH   4   5
ENDBRANCH   3   4
ENDBRANCH   2   3
ENDBRANCH   1   2
BRANCH   1   9
ATOM      9  C   UNL     1      -8.371  -6.338  -7.597  1.00  0.00     0.000 C 
BRANCH   9  10
ATOM     10  C   UNL     1      -8.613  -6.830  -6.162  1.00  0.00    -0.000 C 
BRANCH  10  11
ATOM     11  C   UNL     1      -9.309  -8.196  -6.159  1.00  0.00    -0.000 C 
BRANCH  11  12
ATOM     12  C   UNL     1      -8.379  -9.286  -5.606  1.00  0.00    -0.000 C 
BRANCH  12  13
ATOM     13  C   UNL     1      -6.990  -8.746  -5.234  1.00  0.00    -0.003 C 
ATOM     14  C   UNL     1      -5.864  -9.716  -5.592  1.00  0.00     0.004 C 
ENDBRANCH  12  13
ENDBRANCH  11  12
ENDBRANCH  10  11
ENDBRANCH   9  10
ENDBRANCH   1   9
TORSDOF 10
ENDMDL
MODEL 5
REMARK VINA RESULT:    -2.866      1.175      2.219
REMARK INTER + INTRA:          -5.581
REMARK INTER:                  -4.466
REMARK INTRA:                  -1.115
REMARK UNBOUND:                -1.040
REMARK SMILES CCCCCCCCCCCC(=O)[O-]
REMARK SMILES IDX 7 1 8 2 9 3 10 4 11 5 12 6 13 7 14 8 6 9 5 10 4 11 3 12 2 13
REMARK SMILES IDX 1 14
REMARK H PARENT
REMARK Flexibility Score: inf
ROOT
ATOM      1  C   UNL     1      -5.484  -6.412  -6.759  1.00  0.00     0.000 C 
ENDROOT
BRANCH   1   2
ATOM      2  C   UNL     1      -4.493  -6.760  -7.883  1.00  0.00     0.000 C 
BRANCH   2   3
ATOM      3  C   UNL     1      -5.039  -7.830  -8.843  1.00  0.00     0.000 C 
BRANCH   3   4
ATOM      4  C   UNL     1      -4.209  -9.121  -8.820  1.00  0.00     0.006 C 
BRANCH   4   5
ATOM      5  C   UNL     1      -4.785 -10.125  -7.817  1.00  0.00     0.053 C 
BRANCH   5   6
ATOM      6  C   UNL     1      -4.156  -9.942  -6.473  1.00  0.00     0.041 C 
ATOM      7  O   UNL     1      -2.932  -9.664  -6.378  1.00  0.00    -0.550 OA
ATOM      8  O   UNL     1      -4.910 -10.125  -5.320  1.00  0.00    -0.550 OA
ENDBRANCH   5   6
ENDBRANCH   4   5
ENDBRANCH   3   4
ENDBRANCH   2   3
ENDBRANCH   1   2
BRANCH   1   9
ATOM      9  C   UNL     1      -6.758  -7.269  -6.808  1.00  0.00     0.000 C 
BRANCH   9  10
ATOM     10  C   UNL     1      -8.037  -6.422  -6.895  1.00  0.00    -0.000 C 
BRANCH  10  11
ATOM     11  C   UNL     1      -9.052  -7.058  -7.852  1.00  0.00    -0.000 C 
BRANCH  11  12
ATOM     12  C   UNL     1      -8.646  -8.495  -8.211  1.00  0.00    -0.000 C 
BRANCH  12  13
ATOM     13  C   UNL     1      -9.666  -9.536  -7.724  1.00  0.00    -0.003 C 
ATOM     14  C   UNL     1      -9.594  -9.773  -6.216  1.00  0.00     0.004 C 
ENDBRANCH  12  13
ENDBRANCH  11  12
ENDBRANCH  10  11
ENDBRANCH   9  10
ENDBRANCH   1   9
TORSDOF 10
ENDMDL
MODEL 6
REMARK VINA RESULT:    -2.844      2.926      4.642
REMARK INTER + INTRA:          -5.547
REMARK INTER:                  -4.222
REMARK INTRA:                  -1.325
REMARK UNBOUND:                -1.040
REMARK SMILES CCCCCCCCCCCC(=O)[O-]
REMARK SMILES IDX 7 1 8 2 9 3 10 4 11 5 12 6 13 7 14 8 6 9 5 10 4 11 3 12 2 13
REMARK SMILES IDX 1 14
REMARK H PARENT
REMARK Flexibility Score: inf
ROOT
ATOM      1  C   UNL     1      -4.871  -7.208  -8.629  1.00  0.00     0.000 C 
ENDROOT
BRANCH   1   2
ATOM      2  C   UNL     1      -5.167  -8.167  -9.795  1.00  0.00     0.000 C 
BRANCH   2   3
ATOM      3  C   UNL     1      -6.665  -8.253 -10.125  1.00  0.00     0.000 C 
BRANCH   3   4
ATOM      4  C   UNL     1      -7.555  -7.880  -8.930  1.00  0.00     0.006 C 
BRANCH   4   5
ATOM      5  C   UNL     1      -8.808  -7.131  -9.393  1.00  0.00     0.053 C 
BRANCH   5   6
ATOM      6  C   UNL     1      -9.483  -6.472  -8.233  1.00  0.00     0.041 C 
ATOM      7  O   UNL     1      -9.870  -7.159  -7.250  1.00  0.00    -0.550 OA
ATOM      8  O   UNL     1      -9.731  -5.105  -8.256  1.00  0.00    -0.550 OA
ENDBRANCH   5   6
ENDBRANCH   4   5
ENDBRANCH   3   4
ENDBRANCH   2   3
ENDBRANCH   1   2
BRANCH   1   9
ATOM      9  C   UNL     1      -3.794  -7.750  -7.676  1.00  0.00     0.000 C 
BRANCH   9  10
ATOM     10  C   UNL     1      -4.040  -9.213  -7.278  1.00  0.00    -0.000 C 
BRANCH  10  11
ATOM     11  C   UNL     1      -4.735  -9.301  -5.914  1.00  0.00    -0.000 C 
BRANCH  11  12
ATOM     12  C   UNL     1      -6.232  -9.601  -6.077  1.00  0.00    -0.000 C 
BRANCH  12  13
ATOM     13  C   UNL     1      -7.120  -8.624  -5.292  1.00  0.00    -0.003 C 
ATOM     14  C   UNL     1      -6.764  -7.161  -5.554  1.00  0.00     0.004 C 
ENDBRANCH  12  13
ENDBRANCH  11  12
ENDBRANCH  10  11
ENDBRANCH   9  10
ENDBRANCH   1   9
TORSDOF 10
ENDMDL
MODEL 7
REMARK VINA RESULT:    -2.823      1.689      2.727
REMARK INTER + INTRA:          -5.513
REMARK INTER:                  -4.399
REMARK INTRA:                  -1.114
REMARK UNBOUND:                -1.040
REMARK SMILES CCCCCCCCCCCC(=O)[O-]
REMARK SMILES IDX 7 1 8 2 9 3 10 4 11 5 12 6 13 7 14 8 6 9 5 10 4 11 3 12 2 13
REMARK SMILES IDX 1 14
REMARK H PARENT
REMARK Flexibility Score: inf
ROOT
ATOM      1  C   UNL     1      -6.741  -7.235  -6.383  1.00  0.00     0.000 C 
ENDROOT
BRANCH   1   2
ATOM      2  C   UNL     1      -5.717  -6.231  -6.940  1.00  0.00     0.000 C 
BRANCH   2   3
ATOM      3  C   UNL     1      -4.511  -6.919  -7.598  1.00  0.00     0.000 C 
BRANCH   3   4
ATOM      4  C   UNL     1      -4.843  -7.496  -8.981  1.00  0.00     0.006 C 
BRANCH   4   5
ATOM      5  C   UNL     1      -4.167  -8.856  -9.184  1.00  0.00     0.053 C 
BRANCH   5   6
ATOM      6  C   UNL     1      -4.177  -9.641  -7.912  1.00  0.00     0.041 C 
ATOM      7  O   UNL     1      -5.254 -10.125  -7.475  1.00  0.00    -0.550 OA
ATOM      8  O   UNL     1      -3.006  -9.799  -7.181  1.00  0.00    -0.550 OA
ENDBRANCH   5   6
ENDBRANCH   4   5
ENDBRANCH   3   4
ENDBRANCH   2   3
ENDBRANCH   1   2
BRANCH   1   9
ATOM      9  C   UNL     1      -8.114  -6.596  -6.122  1.00  0.00     0.000 C 
BRANCH   9  10
ATOM     10  C   UNL     1      -9.220  -7.188  -7.008  1.00  0.00    -0.000 C 
BRANCH  10  11
ATOM     11  C   UNL     1      -9.391  -6.369  -8.293  1.00  0.00    -0.000 C 
BRANCH  11  12
ATOM     12  C   UNL     1      -8.833  -7.126  -9.507  1.00  0.00    -0.000 C 
BRANCH  12  13
ATOM     13  C   UNL     1      -9.145  -8.630  -9.461  1.00  0.00    -0.003 C 
ATOM     14  C   UNL     1      -7.905  -9.498  -9.674  1.00  0.00     0.004 C 
ENDBRANCH  12  13
ENDBRANCH  11  12
ENDBRANCH  10  11
ENDBRANCH   9  10
ENDBRANCH   1   9
TORSDOF 10
ENDMDL
MODEL 8
REMARK VINA RESULT:    -2.779      3.342      5.838
REMARK INTER + INTRA:          -5.444
REMARK INTER:                  -4.448
REMARK INTRA:                  -0.996
REMARK UNBOUND:                -1.040
REMARK SMILES CCCCCCCCCCCC(=O)[O-]
REMARK SMILES IDX 7 1 8 2 9 3 10 4 11 5 12 6 13 7 14 8 6 9 5 10 4 11 3 12 2 13
REMARK SMILES IDX 1 14
REMARK H PARENT
REMARK Flexibility Score: inf
ROOT
ATOM      1  C   UNL     1      -6.999  -7.867  -5.569  1.00  0.00     0.000 C 
ENDROOT
BRANCH   1   2
ATOM      2  C   UNL     1      -7.937  -8.381  -6.676  1.00  0.00     0.000 C 
BRANCH   2   3
ATOM      3  C   UNL     1      -9.403  -7.982  -6.441  1.00  0.00     0.000 C 
BRANCH   3   4
ATOM      4  C   UNL     1      -9.950  -7.070  -7.548  1.00  0.00     0.006 C 
BRANCH   4   5
ATOM      5  C   UNL     1      -9.024  -5.871  -7.777  1.00  0.00     0.053 C 
BRANCH   5   6
ATOM      6  C   UNL     1      -9.712  -4.598  -7.403  1.00  0.00     0.041 C 
ATOM      7  O   UNL     1     -10.124  -4.422  -6.226  1.00  0.00    -0.550 OA
ATOM      8  O   UNL     1      -9.944  -3.623  -8.365  1.00  0.00    -0.550 OA
ENDBRANCH   5   6
ENDBRANCH   4   5
ENDBRANCH   3   4
ENDBRANCH   2   3
ENDBRANCH   1   2
BRANCH   1   9
ATOM      9  C   UNL     1      -5.683  -7.301  -6.125  1.00  0.00     0.000 C 
BRANCH   9  10
ATOM     10  C   UNL     1      -4.690  -8.402  -6.525  1.00  0.00    -0.000 C 
BRANCH  10  11
ATOM     11  C   UNL     1      -4.069  -8.109  -7.896  1.00  0.00    -0.000 C 
BRANCH  11  12
ATOM     12  C   UNL     1      -4.961  -7.165  -8.715  1.00  0.00    -0.000 C 
BRANCH  12  13
ATOM     13  C   UNL     1      -5.604  -7.859  -9.925  1.00  0.00    -0.003 C 
ATOM     14  C   UNL     1      -5.811  -9.358  -9.705  1.00  0.00     0.004 C 
ENDBRANCH  12  13
ENDBRANCH  11  12
ENDBRANCH  10  11
ENDBRANCH   9  10
ENDBRANCH   1   9
TORSDOF 10
ENDMDL
