MODEL 1
REMARK VINA RESULT:    -4.735      0.000      0.000
REMARK INTER + INTRA:          -6.110
REMARK INTER:                  -5.843
REMARK INTRA:                  -0.267
REMARK UNBOUND:                -0.267
REMARK SMILES CCCCC=CC(C)=O
REMARK SMILES IDX 4 1 3 2 2 3 1 4 5 5 6 6 7 7 9 8 8 9
REMARK H PARENT
REMARK Flexibility Score: inf
ROOT
ATOM      1  C   UNL     1       2.274   9.585  23.222  1.00  0.00     0.027 C 
ENDROOT
BRANCH   1   2
ATOM      2  C   UNL     1       0.797   9.934  23.463  1.00  0.00     0.004 C 
BRANCH   2   3
ATOM      3  C   UNL     1      -0.160   8.893  22.862  1.00  0.00    -0.003 C 
ATOM      4  C   UNL     1       0.500   8.037  21.781  1.00  0.00     0.004 C 
ENDBRANCH   2   3
ENDBRANCH   1   2
BRANCH   1   5
ATOM      5  C   UNL     1       3.013  10.743  22.614  1.00  0.00    -0.023 C 
ATOM      6  C   UNL     1       2.372  11.842  22.201  1.00  0.00     0.042 C 
BRANCH   6   7
ATOM      7  C   UNL     1       3.076  12.983  21.589  1.00  0.00     0.152 C 
ATOM      8  O   UNL     1       3.715  12.844  20.510  1.00  0.00    -0.295 OA
ATOM      9  C   UNL     1       3.036  14.321  22.253  1.00  0.00     0.093 C 
ENDBRANCH   6   7
ENDBRANCH   1   5
TORSDOF 4
ENDMDL
MODEL 2
REMARK VINA RESULT:    -4.692      5.337      7.294
REMARK INTER + INTRA:          -6.057
REMARK INTER:                  -5.813
REMARK INTRA:                  -0.244
REMARK UNBOUND:                -0.267
REMARK SMILES CCCCC=CC(C)=O
REMARK SMILES IDX 4 1 3 2 2 3 1 4 5 5 6 6 7 7 9 8 8 9
REMARK H PARENT
REMARK Flexibility Score: inf
ROOT
ATOM      1  C   UNL     1      -2.183  15.665  22.816  1.00  0.00     0.027 C 
ENDROOT
BRANCH   1   2
ATOM      2  C   UNL     1      -1.702  16.374  21.540  1.00  0.00     0.004 C 
BRANCH   2   3
ATOM      3  C   UNL     1      -0.421  17.191  21.768  1.00  0.00    -0.003 C 
ATOM      4  C   UNL     1       0.465  16.608  22.868  1.00  0.00     0.004 C 
ENDBRANCH   2   3
ENDBRANCH   1   2
BRANCH   1   5
ATOM      5  C   UNL     1      -2.605  14.253  22.525  1.00  0.00    -0.023 C 
ATOM      6  C   UNL     1      -2.944  13.865  21.291  1.00  0.00     0.042 C 
BRANCH   6   7
ATOM      7  C   UNL     1      -3.374  12.488  20.986  1.00  0.00     0.152 C 
ATOM      8  O   UNL     1      -4.100  12.245  19.983  1.00  0.00    -0.295 OA
ATOM      9  C   UNL     1      -2.948  11.365  21.876  1.00  0.00     0.093 C 
ENDBRANCH   6   7
ENDBRANCH   1   5
TORSDOF 4
ENDMDL
MODEL 3
REMARK VINA RESULT:    -4.642      1.395      1.677
REMARK INTER + INTRA:          -5.994
REMARK INTER:                  -5.708
REMARK INTRA:                  -0.286
REMARK UNBOUND:                -0.267
REMARK SMILES CCCCC=CC(C)=O
REMARK SMILES IDX 4 1 3 2 2 3 1 4 5 5 6 6 7 7 9 8 8 9
REMARK H PARENT
REMARK Flexibility Score: inf
ROOT
ATOM      1  C   UNL     1       2.265   9.547  22.936  1.00  0.00     0.027 C 
ENDROOT
BRANCH   1   2
ATOM      2  C   UNL     1       2.200   8.669  21.677  1.00  0.00     0.004 C 
BRANCH   2   3
ATOM      3  C   UNL     1       0.816   8.032  21.474  1.00  0.00    -0.003 C 
ATOM      4  C   UNL     1      -0.153   8.348  22.613  1.00  0.00     0.004 C 
ENDBRANCH   2   3
ENDBRANCH   1   2
BRANCH   1   5
ATOM      5  C   UNL     1       2.488  10.989  22.581  1.00  0.00    -0.023 C 
ATOM      6  C   UNL     1       1.482  11.774  22.179  1.00  0.00     0.042 C 
BRANCH   6   7
ATOM      7  C   UNL     1       1.682  13.188  21.813  1.00  0.00     0.152 C 
ATOM      8  O   UNL     1       0.766  13.842  21.242  1.00  0.00    -0.295 OA
ATOM      9  C   UNL     1       2.983  13.856  22.118  1.00  0.00     0.093 C 
ENDBRANCH   6   7
ENDBRANCH   1   5
TORSDOF 4
ENDMDL
MODEL 4
REMARK VINA RESULT:    -4.475      3.999      5.446
REMARK INTER + INTRA:          -5.788
REMARK INTER:                  -5.543
REMARK INTRA:                  -0.245
REMARK UNBOUND:                -0.267
REMARK SMILES CCCCC=CC(C)=O
REMARK SMILES IDX 4 1 3 2 2 3 1 4 5 5 6 6 7 7 9 8 8 9
REMARK H PARENT
REMARK Flexibility Score: inf
ROOT
ATOM      1  C   UNL     1      -1.013  15.261  23.568  1.00  0.00     0.027 C 
ENDROOT
BRANCH   1   2
ATOM      2  C   UNL     1      -2.276  15.576  22.752  1.00  0.00     0.004 C 
BRANCH   2   3
ATOM      3  C   UNL     1      -1.993  16.513  21.567  1.00  0.00    -0.003 C 
ATOM      4  C   UNL     1      -2.709  16.082  20.287  1.00  0.00     0.004 C 
ENDBRANCH   2   3
ENDBRANCH   1   2
BRANCH   1   5
ATOM      5  C   UNL     1       0.153  14.966  22.668  1.00  0.00    -0.023 C 
ATOM      6  C   UNL     1       0.430  13.720  22.268  1.00  0.00     0.042 C 
BRANCH   6   7
ATOM      7  C   UNL     1       1.577  13.406  21.397  1.00  0.00     0.152 C 
ATOM      8  O   UNL     1       1.411  12.796  20.305  1.00  0.00    -0.295 OA
ATOM      9  C   UNL     1       2.954  13.814  21.811  1.00  0.00     0.093 C 
ENDBRANCH   6   7
ENDBRANCH   1   5
TORSDOF 4
ENDMDL
MODEL 5
REMARK VINA RESULT:    -4.459      2.803      3.883
REMARK INTER + INTRA:          -5.769
REMARK INTER:                  -5.581
REMARK INTRA:                  -0.188
REMARK UNBOUND:                -0.267
REMARK SMILES CCCCC=CC(C)=O
REMARK SMILES IDX 4 1 3 2 2 3 1 4 5 5 6 6 7 7 9 8 8 9
REMARK H PARENT
REMARK Flexibility Score: inf
ROOT
ATOM      1  C   UNL     1       1.318   9.949  23.504  1.00  0.00     0.027 C 
ENDROOT
BRANCH   1   2
ATOM      2  C   UNL     1       2.547   9.599  22.652  1.00  0.00     0.004 C 
BRANCH   2   3
ATOM      3  C   UNL     1       2.214   8.628  21.509  1.00  0.00    -0.003 C 
ATOM      4  C   UNL     1       2.883   9.014  20.189  1.00  0.00     0.004 C 
ENDBRANCH   2   3
ENDBRANCH   1   2
BRANCH   1   5
ATOM      5  C   UNL     1       0.411  10.904  22.780  1.00  0.00    -0.023 C 
ATOM      6  C   UNL     1      -0.770  10.511  22.291  1.00  0.00     0.042 C 
BRANCH   6   7
ATOM      7  C   UNL     1      -1.669  11.428  21.566  1.00  0.00     0.152 C 
ATOM      8  O   UNL     1      -1.243  12.123  20.603  1.00  0.00    -0.295 OA
ATOM      9  C   UNL     1      -3.102  11.539  21.976  1.00  0.00     0.093 C 
ENDBRANCH   6   7
ENDBRANCH   1   5
TORSDOF 4
ENDMDL
MODEL 6
REMARK VINA RESULT:    -4.375      3.932      5.325
REMARK INTER + INTRA:          -5.665
REMARK INTER:                  -5.507
REMARK INTRA:                  -0.158
REMARK UNBOUND:                -0.267
REMARK SMILES CCCCC=CC(C)=O
REMARK SMILES IDX 4 1 3 2 2 3 1 4 5 5 6 6 7 7 9 8 8 9
REMARK H PARENT
REMARK Flexibility Score: inf
ROOT
ATOM      1  C   UNL     1      -2.722  11.592  22.098  1.00  0.00     0.027 C 
ENDROOT
BRANCH   1   2
ATOM      2  C   UNL     1      -2.012  12.950  21.988  1.00  0.00     0.004 C 
BRANCH   2   3
ATOM      3  C   UNL     1      -2.914  14.122  22.406  1.00  0.00    -0.003 C 
ATOM      4  C   UNL     1      -2.193  15.137  23.293  1.00  0.00     0.004 C 
ENDBRANCH   2   3
ENDBRANCH   1   2
BRANCH   1   5
ATOM      5  C   UNL     1      -1.759  10.507  22.487  1.00  0.00    -0.023 C 
ATOM      6  C   UNL     1      -0.483  10.527  22.084  1.00  0.00     0.042 C 
BRANCH   6   7
ATOM      7  C   UNL     1       0.474   9.465  22.442  1.00  0.00     0.152 C 
ATOM      8  O   UNL     1       0.366   8.307  21.953  1.00  0.00    -0.295 OA
ATOM      9  C   UNL     1       1.586   9.761  23.396  1.00  0.00     0.093 C 
ENDBRANCH   6   7
ENDBRANCH   1   5
TORSDOF 4
ENDMDL
MODEL 7
REMARK VINA RESULT:    -4.358      3.303      4.306
REMARK INTER + INTRA:          -5.644
REMARK INTER:                  -5.379
REMARK INTRA:                  -0.265
REMARK UNBOUND:                -0.267
REMARK SMILES CCCCC=CC(C)=O
REMARK SMILES IDX 4 1 3 2 2 3 1 4 5 5 6 6 7 7 9 8 8 9
REMARK H PARENT
REMARK Flexibility Score: inf
ROOT
ATOM      1  C   UNL     1      -0.182   8.907  23.124  1.00  0.00     0.027 C 
ENDROOT
BRANCH   1   2
ATOM      2  C   UNL     1       0.652   8.617  21.867  1.00  0.00     0.004 C 
BRANCH   2   3
ATOM      3  C   UNL     1       2.123   9.032  22.027  1.00  0.00    -0.003 C 
ATOM      4  C   UNL     1       2.366   9.880  23.276  1.00  0.00     0.004 C 
ENDBRANCH   2   3
ENDBRANCH   1   2
BRANCH   1   5
ATOM      5  C   UNL     1      -1.320   9.838  22.817  1.00  0.00    -0.023 C 
ATOM      6  C   UNL     1      -1.134  10.962  22.115  1.00  0.00     0.042 C 
BRANCH   6   7
ATOM      7  C   UNL     1      -2.234  11.896  21.814  1.00  0.00     0.152 C 
ATOM      8  O   UNL     1      -3.305  11.485  21.289  1.00  0.00    -0.295 OA
ATOM      9  C   UNL     1      -2.081  13.348  22.133  1.00  0.00     0.093 C 
ENDBRANCH   6   7
ENDBRANCH   1   5
TORSDOF 4
ENDMDL
MODEL 8
REMARK VINA RESULT:    -4.357      2.712      3.853
REMARK INTER + INTRA:          -5.644
REMARK INTER:                  -5.473
REMARK INTRA:                  -0.171
REMARK UNBOUND:                -0.267
REMARK SMILES CCCCC=CC(C)=O
REMARK SMILES IDX 4 1 3 2 2 3 1 4 5 5 6 6 7 7 9 8 8 9
REMARK H PARENT
REMARK Flexibility Score: inf
ROOT
ATOM      1  C   UNL     1       2.750  13.093  21.361  1.00  0.00     0.027 C 
ENDROOT
BRANCH   1   2
ATOM      2  C   UNL     1       3.254  11.891  22.174  1.00  0.00     0.004 C 
BRANCH   2   3
ATOM      3  C   UNL     1       2.295  10.691  22.105  1.00  0.00    -0.003 C 
ATOM      4  C   UNL     1       2.336   9.828  23.366  1.00  0.00     0.004 C 
ENDBRANCH   2   3
ENDBRANCH   1   2
BRANCH   1   5
ATOM      5  C   UNL     1       2.189  14.158  22.259  1.00  0.00    -0.023 C 
ATOM      6  C   UNL     1       0.880  14.435  22.281  1.00  0.00     0.042 C 
BRANCH   6   7
ATOM      7  C   UNL     1       0.310  15.486  23.145  1.00  0.00     0.152 C 
ATOM      8  O   UNL     1       0.957  16.540  23.391  1.00  0.00    -0.295 OA
ATOM      9  C   UNL     1      -1.049  15.300  23.738  1.00  0.00     0.093 C 
ENDBRANCH   6   7
ENDBRANCH   1   5
TORSDOF 4
ENDMDL
MODEL 9
REMARK VINA RESULT:    -4.285      3.624      5.181
REMARK INTER + INTRA:          -5.555
REMARK INTER:                  -5.417
REMARK INTRA:                  -0.138
REMARK UNBOUND:                -0.267
REMARK SMILES CCCCC=CC(C)=O
REMARK SMILES IDX 4 1 3 2 2 3 1 4 5 5 6 6 7 7 9 8 8 9
REMARK H PARENT
REMARK Flexibility Score: inf
ROOT
ATOM      1  C   UNL     1      -0.126  14.046  22.297  1.00  0.00     0.027 C 
ENDROOT
BRANCH   1   2
ATOM      2  C   UNL     1      -0.677  14.769  23.535  1.00  0.00     0.004 C 
BRANCH   2   3
ATOM      3  C   UNL     1      -2.080  15.349  23.302  1.00  0.00    -0.003 C 
ATOM      4  C   UNL     1      -2.195  16.110  21.981  1.00  0.00     0.004 C 
ENDBRANCH   2   3
ENDBRANCH   1   2
BRANCH   1   5
ATOM      5  C   UNL     1      -0.060  12.562  22.520  1.00  0.00    -0.023 C 
ATOM      6  C   UNL     1       1.045  11.861  22.243  1.00  0.00     0.042 C 
BRANCH   6   7
ATOM      7  C   UNL     1       1.126  10.403  22.442  1.00  0.00     0.152 C 
ATOM      8  O   UNL     1       0.313   9.627  21.869  1.00  0.00    -0.295 OA
ATOM      9  C   UNL     1       2.182   9.834  23.333  1.00  0.00     0.093 C 
ENDBRANCH   6   7
ENDBRANCH   1   5
TORSDOF 4
ENDMDL
