MODEL 1
REMARK VINA RESULT:    -4.527      0.000      0.000
REMARK INTER + INTRA:          -6.611
REMARK INTER:                  -6.380
REMARK INTRA:                  -0.231
REMARK UNBOUND:                -0.231
REMARK SMILES C=CCCCCCCC(=O)[O-]
REMARK SMILES IDX 6 1 7 2 8 3 9 4 10 5 11 6 5 7 4 8 3 9 2 10 1 11
REMARK H PARENT
REMARK Flexibility Score: inf
ROOT
ATOM      1  C   UNL     1      -1.649  -8.186  -3.332  1.00  0.00     0.000 C 
ENDROOT
BRANCH   1   2
ATOM      2  C   UNL     1      -3.024  -7.533  -3.125  1.00  0.00     0.006 C 
BRANCH   2   3
ATOM      3  C   UNL     1      -3.832  -7.454  -4.427  1.00  0.00     0.053 C 
BRANCH   3   4
ATOM      4  C   UNL     1      -3.824  -6.071  -5.002  1.00  0.00     0.041 C 
ATOM      5  O   UNL     1      -3.805  -5.068  -4.240  1.00  0.00    -0.550 OA
ATOM      6  O   UNL     1      -3.869  -5.889  -6.378  1.00  0.00    -0.550 OA
ENDBRANCH   3   4
ENDBRANCH   2   3
ENDBRANCH   1   2
BRANCH   1   7
ATOM      7  C   UNL     1      -0.526  -7.276  -2.815  1.00  0.00     0.000 C 
BRANCH   7   8
ATOM      8  C   UNL     1       0.855  -7.949  -2.869  1.00  0.00     0.004 C 
BRANCH   8   9
ATOM      9  C   UNL     1       1.988  -7.010  -2.432  1.00  0.00     0.027 C 
BRANCH   9  10
ATOM     10  C   UNL     1       3.221  -7.222  -3.268  1.00  0.00    -0.035 C 
ATOM     11  C   UNL     1       3.467  -8.385  -3.876  1.00  0.00     0.004 C 
ENDBRANCH   9  10
ENDBRANCH   8   9
ENDBRANCH   7   8
ENDBRANCH   1   7
TORSDOF 7
ENDMDL
MODEL 2
REMARK VINA RESULT:    -4.407      3.371      6.173
REMARK INTER + INTRA:          -6.441
REMARK INTER:                  -6.191
REMARK INTRA:                  -0.250
REMARK UNBOUND:                -0.231
REMARK SMILES C=CCCCCCCC(=O)[O-]
REMARK SMILES IDX 6 1 7 2 8 3 9 4 10 5 11 6 5 7 4 8 3 9 2 10 1 11
REMARK H PARENT
REMARK Flexibility Score: inf
ROOT
ATOM      1  C   UNL     1      -1.203  -7.955  -3.007  1.00  0.00     0.000 C 
ENDROOT
BRANCH   1   2
ATOM      2  C   UNL     1       0.123  -7.186  -2.893  1.00  0.00     0.006 C 
BRANCH   2   3
ATOM      3  C   UNL     1       1.307  -8.114  -2.590  1.00  0.00     0.053 C 
BRANCH   3   4
ATOM      4  C   UNL     1       2.606  -7.367  -2.573  1.00  0.00     0.041 C 
ATOM      5  O   UNL     1       3.317  -7.309  -3.611  1.00  0.00    -0.550 OA
ATOM      6  O   UNL     1       3.046  -6.763  -1.402  1.00  0.00    -0.550 OA
ENDBRANCH   3   4
ENDBRANCH   2   3
ENDBRANCH   1   2
BRANCH   1   7
ATOM      7  C   UNL     1      -2.358  -7.007  -3.361  1.00  0.00     0.000 C 
BRANCH   7   8
ATOM      8  C   UNL     1      -3.737  -7.661  -3.185  1.00  0.00     0.004 C 
BRANCH   8   9
ATOM      9  C   UNL     1      -4.709  -7.306  -4.319  1.00  0.00     0.027 C 
BRANCH   9  10
ATOM     10  C   UNL     1      -4.094  -6.314  -5.269  1.00  0.00    -0.035 C 
ATOM     11  C   UNL     1      -4.109  -6.504  -6.590  1.00  0.00     0.004 C 
ENDBRANCH   9  10
ENDBRANCH   8   9
ENDBRANCH   7   8
ENDBRANCH   1   7
TORSDOF 7
ENDMDL
MODEL 3
REMARK VINA RESULT:    -4.240      2.788      5.806
REMARK INTER + INTRA:          -6.205
REMARK INTER:                  -5.786
REMARK INTRA:                  -0.419
REMARK UNBOUND:                -0.231
REMARK SMILES C=CCCCCCCC(=O)[O-]
REMARK SMILES IDX 6 1 7 2 8 3 9 4 10 5 11 6 5 7 4 8 3 9 2 10 1 11
REMARK H PARENT
REMARK Flexibility Score: inf
ROOT
ATOM      1  C   UNL     1      -4.454  -7.826  -3.494  1.00  0.00     0.000 C 
ENDROOT
BRANCH   1   2
ATOM      2  C   UNL     1      -3.064  -7.213  -3.724  1.00  0.00     0.006 C 
BRANCH   2   3
ATOM      3  C   UNL     1      -1.934  -8.190  -3.373  1.00  0.00     0.053 C 
BRANCH   3   4
ATOM      4  C   UNL     1      -0.722  -7.474  -2.859  1.00  0.00     0.041 C 
ATOM      5  O   UNL     1      -0.759  -6.232  -2.654  1.00  0.00    -0.550 OA
ATOM      6  O   UNL     1       0.457  -8.174  -2.636  1.00  0.00    -0.550 OA
ENDBRANCH   3   4
ENDBRANCH   2   3
ENDBRANCH   1   2
BRANCH   1   7
ATOM      7  C   UNL     1      -5.474  -7.262  -4.494  1.00  0.00     0.000 C 
BRANCH   7   8
ATOM      8  C   UNL     1      -4.928  -6.061  -5.283  1.00  0.00     0.004 C 
BRANCH   8   9
ATOM      9  C   UNL     1      -5.172  -6.186  -6.793  1.00  0.00     0.027 C 
BRANCH   9  10
ATOM     10  C   UNL     1      -3.922  -6.618  -7.510  1.00  0.00    -0.035 C 
ATOM     11  C   UNL     1      -3.970  -7.307  -8.653  1.00  0.00     0.004 C 
ENDBRANCH   9  10
ENDBRANCH   8   9
ENDBRANCH   7   8
ENDBRANCH   1   7
TORSDOF 7
ENDMDL
MODEL 4
REMARK VINA RESULT:    -4.154      2.195      3.748
REMARK INTER + INTRA:          -6.085
REMARK INTER:                  -5.921
REMARK INTRA:                  -0.164
REMARK UNBOUND:                -0.231
REMARK SMILES C=CCCCCCCC(=O)[O-]
REMARK SMILES IDX 6 1 7 2 8 3 9 4 10 5 11 6 5 7 4 8 3 9 2 10 1 11
REMARK H PARENT
REMARK Flexibility Score: inf
ROOT
ATOM      1  C   UNL     1      -4.556  -5.850  -5.241  1.00  0.00     0.000 C 
ENDROOT
BRANCH   1   2
ATOM      2  C   UNL     1      -5.139  -7.212  -5.650  1.00  0.00     0.006 C 
BRANCH   2   3
ATOM      3  C   UNL     1      -4.808  -7.571  -7.104  1.00  0.00     0.053 C 
BRANCH   3   4
ATOM      4  C   UNL     1      -4.361  -6.373  -7.884  1.00  0.00     0.041 C 
ATOM      5  O   UNL     1      -3.154  -6.252  -8.225  1.00  0.00    -0.550 OA
ATOM      6  O   UNL     1      -5.270  -5.374  -8.206  1.00  0.00    -0.550 OA
ENDBRANCH   3   4
ENDBRANCH   2   3
ENDBRANCH   1   2
BRANCH   1   7
ATOM      7  C   UNL     1      -3.516  -6.012  -4.124  1.00  0.00     0.000 C 
BRANCH   7   8
ATOM      8  C   UNL     1      -3.631  -7.361  -3.398  1.00  0.00     0.004 C 
BRANCH   8   9
ATOM      9  C   UNL     1      -2.292  -8.110  -3.327  1.00  0.00     0.027 C 
BRANCH   9  10
ATOM     10  C   UNL     1      -1.178  -7.191  -2.906  1.00  0.00    -0.035 C 
ATOM     11  C   UNL     1       0.085  -7.613  -2.815  1.00  0.00     0.004 C 
ENDBRANCH   9  10
ENDBRANCH   8   9
ENDBRANCH   7   8
ENDBRANCH   1   7
TORSDOF 7
ENDMDL
MODEL 5
REMARK VINA RESULT:    -4.082     14.708     16.489
REMARK INTER + INTRA:          -5.984
REMARK INTER:                  -5.715
REMARK INTRA:                  -0.268
REMARK UNBOUND:                -0.231
REMARK SMILES C=CCCCCCCC(=O)[O-]
REMARK SMILES IDX 6 1 7 2 8 3 9 4 10 5 11 6 5 7 4 8 3 9 2 10 1 11
REMARK H PARENT
REMARK Flexibility Score: inf
ROOT
ATOM      1  C   UNL     1      -8.570   6.244   1.838  1.00  0.00     0.000 C 
ENDROOT
BRANCH   1   2
ATOM      2  C   UNL     1      -8.504   7.618   1.155  1.00  0.00     0.006 C 
BRANCH   2   3
ATOM      3  C   UNL     1      -7.060   8.077   0.912  1.00  0.00     0.053 C 
BRANCH   3   4
ATOM      4  C   UNL     1      -6.906   8.742  -0.421  1.00  0.00     0.041 C 
ATOM      5  O   UNL     1      -7.874   8.780  -1.227  1.00  0.00    -0.550 OA
ATOM      6  O   UNL     1      -5.684   9.292  -0.787  1.00  0.00    -0.550 OA
ENDBRANCH   3   4
ENDBRANCH   2   3
ENDBRANCH   1   2
BRANCH   1   7
ATOM      7  C   UNL     1      -9.967   5.625   1.692  1.00  0.00     0.000 C 
BRANCH   7   8
ATOM      8  C   UNL     1     -10.025   4.170   2.185  1.00  0.00     0.004 C 
BRANCH   8   9
ATOM      9  C   UNL     1      -8.642   3.617   2.557  1.00  0.00     0.027 C 
BRANCH   9  10
ATOM     10  C   UNL     1      -8.723   2.161   2.931  1.00  0.00    -0.035 C 
ATOM     11  C   UNL     1      -9.834   1.629   3.449  1.00  0.00     0.004 C 
ENDBRANCH   9  10
ENDBRANCH   8   9
ENDBRANCH   7   8
ENDBRANCH   1   7
TORSDOF 7
ENDMDL
MODEL 6
REMARK VINA RESULT:    -4.025      1.598      2.588
REMARK INTER + INTRA:          -5.903
REMARK INTER:                  -5.644
REMARK INTRA:                  -0.259
REMARK UNBOUND:                -0.231
REMARK SMILES C=CCCCCCCC(=O)[O-]
REMARK SMILES IDX 6 1 7 2 8 3 9 4 10 5 11 6 5 7 4 8 3 9 2 10 1 11
REMARK H PARENT
REMARK Flexibility Score: inf
ROOT
ATOM      1  C   UNL     1      -4.355  -8.382  -3.661  1.00  0.00     0.000 C 
ENDROOT
BRANCH   1   2
ATOM      2  C   UNL     1      -5.206  -7.925  -4.856  1.00  0.00     0.006 C 
BRANCH   2   3
ATOM      3  C   UNL     1      -5.069  -6.421  -5.125  1.00  0.00     0.053 C 
BRANCH   3   4
ATOM      4  C   UNL     1      -4.895  -6.133  -6.585  1.00  0.00     0.041 C 
ATOM      5  O   UNL     1      -5.889  -5.815  -7.291  1.00  0.00    -0.550 OA
ATOM      6  O   UNL     1      -3.642  -6.246  -7.172  1.00  0.00    -0.550 OA
ENDBRANCH   3   4
ENDBRANCH   2   3
ENDBRANCH   1   2
BRANCH   1   7
ATOM      7  C   UNL     1      -3.233  -7.376  -3.370  1.00  0.00     0.000 C 
BRANCH   7   8
ATOM      8  C   UNL     1      -1.845  -8.036  -3.318  1.00  0.00     0.004 C 
BRANCH   8   9
ATOM      9  C   UNL     1      -0.797  -7.153  -2.624  1.00  0.00     0.027 C 
BRANCH   9  10
ATOM     10  C   UNL     1       0.593  -7.496  -3.088  1.00  0.00    -0.035 C 
ATOM     11  C   UNL     1       1.424  -8.225  -2.339  1.00  0.00     0.004 C 
ENDBRANCH   9  10
ENDBRANCH   8   9
ENDBRANCH   7   8
ENDBRANCH   1   7
TORSDOF 7
ENDMDL
MODEL 7
REMARK VINA RESULT:    -3.925     13.324     15.204
REMARK INTER + INTRA:          -5.762
REMARK INTER:                  -5.259
REMARK INTRA:                  -0.503
REMARK UNBOUND:                -0.231
REMARK SMILES C=CCCCCCCC(=O)[O-]
REMARK SMILES IDX 6 1 7 2 8 3 9 4 10 5 11 6 5 7 4 8 3 9 2 10 1 11
REMARK H PARENT
REMARK Flexibility Score: inf
ROOT
ATOM      1  C   UNL     1       8.296   5.470  -1.067  1.00  0.00     0.000 C 
ENDROOT
BRANCH   1   2
ATOM      2  C   UNL     1       9.251   4.924   0.006  1.00  0.00     0.006 C 
BRANCH   2   3
ATOM      3  C   UNL     1       8.771   5.243   1.428  1.00  0.00     0.053 C 
BRANCH   3   4
ATOM      4  C   UNL     1       7.493   4.532   1.754  1.00  0.00     0.041 C 
ATOM      5  O   UNL     1       7.385   3.294   1.545  1.00  0.00    -0.550 OA
ATOM      6  O   UNL     1       6.411   5.242   2.258  1.00  0.00    -0.550 OA
ENDBRANCH   3   4
ENDBRANCH   2   3
ENDBRANCH   1   2
BRANCH   1   7
ATOM      7  C   UNL     1       8.051   4.426  -2.166  1.00  0.00     0.000 C 
BRANCH   7   8
ATOM      8  C   UNL     1       8.607   3.040  -1.801  1.00  0.00     0.004 C 
BRANCH   8   9
ATOM      9  C   UNL     1       8.605   2.071  -2.991  1.00  0.00     0.027 C 
BRANCH   9  10
ATOM     10  C   UNL     1       7.863   2.653  -4.164  1.00  0.00    -0.035 C 
ATOM     11  C   UNL     1       7.505   1.905  -5.210  1.00  0.00     0.004 C 
ENDBRANCH   9  10
ENDBRANCH   8   9
ENDBRANCH   7   8
ENDBRANCH   1   7
TORSDOF 7
ENDMDL
MODEL 8
REMARK VINA RESULT:    -3.875     13.033     15.140
REMARK INTER + INTRA:          -5.692
REMARK INTER:                  -5.074
REMARK INTRA:                  -0.618
REMARK UNBOUND:                -0.231
REMARK SMILES C=CCCCCCCC(=O)[O-]
REMARK SMILES IDX 6 1 7 2 8 3 9 4 10 5 11 6 5 7 4 8 3 9 2 10 1 11
REMARK H PARENT
REMARK Flexibility Score: inf
ROOT
ATOM      1  C   UNL     1       8.024   5.495  -1.960  1.00  0.00     0.000 C 
ENDROOT
BRANCH   1   2
ATOM      2  C   UNL     1       8.660   5.535  -0.562  1.00  0.00     0.006 C 
BRANCH   2   3
ATOM      3  C   UNL     1       9.141   4.153  -0.102  1.00  0.00     0.053 C 
BRANCH   3   4
ATOM      4  C   UNL     1       7.993   3.249   0.230  1.00  0.00     0.041 C 
ATOM      5  O   UNL     1       7.714   2.277  -0.522  1.00  0.00    -0.550 OA
ATOM      6  O   UNL     1       7.212   3.498   1.351  1.00  0.00    -0.550 OA
ENDBRANCH   3   4
ENDBRANCH   2   3
ENDBRANCH   1   2
BRANCH   1   7
ATOM      7  C   UNL     1       9.066   5.798  -3.045  1.00  0.00     0.000 C 
BRANCH   7   8
ATOM      8  C   UNL     1       9.393   4.572  -3.913  1.00  0.00     0.004 C 
BRANCH   8   9
ATOM      9  C   UNL     1       8.374   3.437  -3.738  1.00  0.00     0.027 C 
BRANCH   9  10
ATOM     10  C   UNL     1       9.064   2.105  -3.613  1.00  0.00    -0.035 C 
ATOM     11  C   UNL     1       8.384   0.956  -3.647  1.00  0.00     0.004 C 
ENDBRANCH   9  10
ENDBRANCH   8   9
ENDBRANCH   7   8
ENDBRANCH   1   7
TORSDOF 7
ENDMDL
MODEL 9
REMARK VINA RESULT:    -3.865     12.814     14.827
REMARK INTER + INTRA:          -5.678
REMARK INTER:                  -5.156
REMARK INTRA:                  -0.522
REMARK UNBOUND:                -0.231
REMARK SMILES C=CCCCCCCC(=O)[O-]
REMARK SMILES IDX 6 1 7 2 8 3 9 4 10 5 11 6 5 7 4 8 3 9 2 10 1 11
REMARK H PARENT
REMARK Flexibility Score: inf
ROOT
ATOM      1  C   UNL     1       7.868   4.526  -2.585  1.00  0.00     0.000 C 
ENDROOT
BRANCH   1   2
ATOM      2  C   UNL     1       8.915   3.921  -3.534  1.00  0.00     0.006 C 
BRANCH   2   3
ATOM      3  C   UNL     1       9.223   2.456  -3.200  1.00  0.00     0.053 C 
BRANCH   3   4
ATOM      4  C   UNL     1       7.972   1.641  -3.075  1.00  0.00     0.041 C 
ATOM      5  O   UNL     1       7.685   1.083  -1.982  1.00  0.00    -0.550 OA
ATOM      6  O   UNL     1       7.139   1.471  -4.173  1.00  0.00    -0.550 OA
ENDBRANCH   3   4
ENDBRANCH   2   3
ENDBRANCH   1   2
BRANCH   1   7
ATOM      7  C   UNL     1       8.444   5.732  -1.829  1.00  0.00     0.000 C 
BRANCH   7   8
ATOM      8  C   UNL     1       8.638   5.453  -0.330  1.00  0.00     0.004 C 
BRANCH   8   9
ATOM      9  C   UNL     1       8.152   4.056   0.079  1.00  0.00     0.027 C 
BRANCH   9  10
ATOM     10  C   UNL     1       7.744   4.027   1.527  1.00  0.00    -0.035 C 
ATOM     11  C   UNL     1       7.127   5.060   2.105  1.00  0.00     0.004 C 
ENDBRANCH   9  10
ENDBRANCH   8   9
ENDBRANCH   7   8
ENDBRANCH   1   7
TORSDOF 7
ENDMDL
