MODEL 1
REMARK VINA RESULT:    25.565      0.000      0.000
REMARK INTER + INTRA:          67.062
REMARK INTER:                  60.686
REMARK INTRA:                   6.375
REMARK UNBOUND:                 6.375
REMARK SMILES O=C(OC[C@H]1O[C@H](OC(=O)c2cc(O)c(O)c(O)c2)[C@H](OC(=O)c2cc(O)c(O)c(O)c2)[C@@H](OC(=O)c2cc(O)c(O)c(O)c2)[C@H]1OC(=O)c1cc(O)c(O)c(O)c1)c1cc(O)c(O)c(O)c1
REMARK SMILES IDX 5 1 46 2 33 3 20 4 7 5 6 6 4 7 3 8 2 9 1 10 59 11 60 12
REMARK SMILES IDX 61 13 67 14 63 15 65 16 62 17 64 19 66 21 47 23 48 24 49 25
REMARK SMILES IDX 50 26 58 27 51 28 56 29 52 30 54 31 57 32 53 34 55 36 34 38
REMARK SMILES IDX 35 39 36 40 37 41 45 42 38 43 43 44 39 45 41 46 44 47 40 49
REMARK SMILES IDX 42 51 8 53 9 54 10 55 11 56 19 57 12 58 17 59 13 60 15 61
REMARK SMILES IDX 18 62 14 64 16 66 21 68 22 69 23 70 24 71 32 72 25 73 30 74
REMARK SMILES IDX 26 75 28 76 31 77 27 79 29 81
REMARK H PARENT 62 18 64 20 66 22 57 33 53 35 55 37 44 48 40 50 42 52 18 63
REMARK H PARENT 14 65 16 67 31 78 27 80 29 82
REMARK Flexibility Score: inf
ROOT
ATOM      1  C   UNL     1      74.564  41.160  23.489  1.00  0.00     0.205 C 
ATOM      2  C   UNL     1      74.691  40.255  24.728  1.00  0.00     0.254 C 
ATOM      3  C   UNL     1      75.962  39.415  24.555  1.00  0.00     0.267 C 
ATOM      4  C   UNL     1      77.175  40.345  24.371  1.00  0.00     0.290 C 
ATOM      5  C   UNL     1      76.892  41.348  23.229  1.00  0.00     0.357 C 
ATOM      6  O   UNL     1      75.669  42.050  23.419  1.00  0.00    -0.329 OA
ENDROOT
BRANCH   1   7
ATOM      7  C   UNL     1      73.258  41.975  23.491  1.00  0.00     0.269 C 
BRANCH   7   8
ATOM      8  O   UNL     1      72.428  41.546  22.417  1.00  0.00    -0.459 OA
BRANCH   8   9
ATOM      9  C   UNL     1      71.086  41.186  22.602  1.00  0.00     0.338 C 
ATOM     10  O   UNL     1      70.681  40.833  23.747  1.00  0.00    -0.246 OA
BRANCH   9  11
ATOM     11  C   UNL     1      70.155  41.188  21.455  1.00  0.00     0.067 A 
ATOM     12  C   UNL     1      68.872  40.640  21.585  1.00  0.00     0.066 A 
ATOM     13  C   UNL     1      68.000  40.588  20.495  1.00  0.00     0.162 A 
ATOM     14  C   UNL     1      70.563  41.701  20.206  1.00  0.00     0.066 A 
ATOM     15  C   UNL     1      68.423  41.069  19.233  1.00  0.00     0.200 A 
ATOM     16  C   UNL     1      69.707  41.630  19.102  1.00  0.00     0.162 A 
BRANCH  13  17
ATOM     17  O   UNL     1      66.725  40.063  20.711  1.00  0.00    -0.504 OA
ATOM     18  H   UNL     1      65.882  40.608  20.658  1.00  0.00     0.293 HD
ENDBRANCH  13  17
BRANCH  15  19
ATOM     19  O   UNL     1      67.605  41.000  18.101  1.00  0.00    -0.502 OA
ATOM     20  H   UNL     1      67.919  40.711  17.187  1.00  0.00     0.293 HD
ENDBRANCH  15  19
BRANCH  16  21
ATOM     21  O   UNL     1      70.156  42.123  17.876  1.00  0.00    -0.504 OA
ATOM     22  H   UNL     1      69.566  42.686  17.275  1.00  0.00     0.293 HD
ENDBRANCH  16  21
ENDBRANCH   9  11
ENDBRANCH   8   9
ENDBRANCH   7   8
ENDBRANCH   1   7
BRANCH   2  23
ATOM     23  O   UNL     1      74.817  41.048  25.910  1.00  0.00    -0.452 OA
BRANCH  23  24
ATOM     24  C   UNL     1      75.292  40.565  27.136  1.00  0.00     0.338 C 
ATOM     25  O   UNL     1      76.262  39.763  27.160  1.00  0.00    -0.246 OA
BRANCH  24  26
ATOM     26  C   UNL     1      74.658  41.019  28.394  1.00  0.00     0.067 A 
ATOM     27  C   UNL     1      75.435  41.295  29.534  1.00  0.00     0.066 A 
ATOM     28  C   UNL     1      73.261  41.126  28.478  1.00  0.00     0.066 A 
ATOM     29  C   UNL     1      74.822  41.659  30.745  1.00  0.00     0.162 A 
ATOM     30  C   UNL     1      72.647  41.498  29.679  1.00  0.00     0.162 A 
ATOM     31  C   UNL     1      73.423  41.764  30.816  1.00  0.00     0.200 A 
BRANCH  29  32
ATOM     32  O   UNL     1      75.597  41.910  31.875  1.00  0.00    -0.504 OA
ATOM     33  H   UNL     1      76.510  42.343  31.805  1.00  0.00     0.293 HD
ENDBRANCH  29  32
BRANCH  30  34
ATOM     34  O   UNL     1      71.258  41.591  29.723  1.00  0.00    -0.504 OA
ATOM     35  H   UNL     1      70.749  42.312  29.221  1.00  0.00     0.293 HD
ENDBRANCH  30  34
BRANCH  31  36
ATOM     36  O   UNL     1      72.790  42.121  32.005  1.00  0.00    -0.502 OA
ATOM     37  H   UNL     1      73.005  42.980  32.496  1.00  0.00     0.293 HD
ENDBRANCH  31  36
ENDBRANCH  24  26
ENDBRANCH  23  24
ENDBRANCH   2  23
BRANCH   3  38
ATOM     38  O   UNL     1      76.140  38.547  25.673  1.00  0.00    -0.450 OA
BRANCH  38  39
ATOM     39  C   UNL     1      77.340  37.862  25.914  1.00  0.00     0.338 C 
ATOM     40  O   UNL     1      78.254  37.867  25.045  1.00  0.00    -0.246 OA
BRANCH  39  41
ATOM     41  C   UNL     1      77.545  37.149  27.194  1.00  0.00     0.067 A 
ATOM     42  C   UNL     1      78.756  36.482  27.450  1.00  0.00     0.066 A 
ATOM     43  C   UNL     1      76.534  37.133  28.168  1.00  0.00     0.066 A 
ATOM     44  C   UNL     1      78.954  35.807  28.657  1.00  0.00     0.162 A 
ATOM     45  C   UNL     1      76.718  36.457  29.379  1.00  0.00     0.162 A 
ATOM     46  C   UNL     1      77.938  35.776  29.625  1.00  0.00     0.200 A 
BRANCH  44  47
ATOM     47  O   UNL     1      80.169  35.162  28.898  1.00  0.00    -0.504 OA
ATOM     48  H   UNL     1      80.227  34.151  28.994  1.00  0.00     0.293 HD
ENDBRANCH  44  47
BRANCH  45  49
ATOM     49  O   UNL     1      75.670  36.484  30.299  1.00  0.00    -0.504 OA
ATOM     50  H   UNL     1      75.789  36.645  31.288  1.00  0.00     0.293 HD
ENDBRANCH  45  49
BRANCH  46  51
ATOM     51  O   UNL     1      78.182  35.061  30.802  1.00  0.00    -0.502 OA
ATOM     52  H   UNL     1      78.792  35.389  31.542  1.00  0.00     0.293 HD
ENDBRANCH  46  51
ENDBRANCH  39  41
ENDBRANCH  38  39
ENDBRANCH   3  38
BRANCH   5  53
ATOM     53  O   UNL     1      76.907  40.684  21.967  1.00  0.00    -0.428 OA
BRANCH  53  54
ATOM     54  C   UNL     1      75.999  40.963  20.940  1.00  0.00     0.340 C 
ATOM     55  O   UNL     1      75.898  42.125  20.470  1.00  0.00    -0.246 OA
BRANCH  54  56
ATOM     56  C   UNL     1      75.160  39.878  20.404  1.00  0.00     0.067 A 
ATOM     57  C   UNL     1      75.624  39.058  19.368  1.00  0.00     0.066 A 
ATOM     58  C   UNL     1      73.889  39.649  20.942  1.00  0.00     0.066 A 
ATOM     59  C   UNL     1      74.849  37.995  18.887  1.00  0.00     0.162 A 
ATOM     60  C   UNL     1      73.087  38.614  20.459  1.00  0.00     0.162 A 
ATOM     61  C   UNL     1      73.562  37.765  19.438  1.00  0.00     0.200 A 
BRANCH  59  62
ATOM     62  O   UNL     1      75.398  37.202  17.875  1.00  0.00    -0.504 OA
ATOM     63  H   UNL     1      74.973  36.348  17.531  1.00  0.00     0.293 HD
ENDBRANCH  59  62
BRANCH  60  64
ATOM     64  O   UNL     1      71.813  38.450  21.003  1.00  0.00    -0.504 OA
ATOM     65  H   UNL     1      71.209  37.681  20.734  1.00  0.00     0.293 HD
ENDBRANCH  60  64
BRANCH  61  66
ATOM     66  O   UNL     1      72.742  36.712  19.005  1.00  0.00    -0.502 OA
ATOM     67  H   UNL     1      72.583  36.480  18.034  1.00  0.00     0.293 HD
ENDBRANCH  61  66
ENDBRANCH  54  56
ENDBRANCH  53  54
ENDBRANCH   5  53
BRANCH   4  68
ATOM     68  O   UNL     1      78.329  39.584  24.018  1.00  0.00    -0.448 OA
BRANCH  68  69
ATOM     69  C   UNL     1      79.555  40.142  23.643  1.00  0.00     0.339 C 
ATOM     70  O   UNL     1      80.192  40.876  24.449  1.00  0.00    -0.246 OA
BRANCH  69  71
ATOM     71  C   UNL     1      80.092  39.878  22.292  1.00  0.00     0.067 A 
ATOM     72  C   UNL     1      80.775  38.688  22.008  1.00  0.00     0.066 A 
ATOM     73  C   UNL     1      79.916  40.820  21.266  1.00  0.00     0.066 A 
ATOM     74  C   UNL     1      81.264  38.431  20.719  1.00  0.00     0.162 A 
ATOM     75  C   UNL     1      80.396  40.573  19.977  1.00  0.00     0.162 A 
ATOM     76  C   UNL     1      81.072  39.376  19.697  1.00  0.00     0.200 A 
BRANCH  74  77
ATOM     77  O   UNL     1      81.931  37.237  20.446  1.00  0.00    -0.504 OA
ATOM     78  H   UNL     1      81.656  36.640  19.672  1.00  0.00     0.293 HD
ENDBRANCH  74  77
BRANCH  75  79
ATOM     79  O   UNL     1      80.189  41.530  18.982  1.00  0.00    -0.504 OA
ATOM     80  H   UNL     1      80.833  42.292  18.823  1.00  0.00     0.293 HD
ENDBRANCH  75  79
BRANCH  76  81
ATOM     81  O   UNL     1      81.548  39.137  18.406  1.00  0.00    -0.502 OA
ATOM     82  H   UNL     1      81.371  38.274  17.913  1.00  0.00     0.293 HD
ENDBRANCH  76  81
ENDBRANCH  69  71
ENDBRANCH  68  69
ENDBRANCH   4  68
TORSDOF 31
ENDMDL
MODEL 2
REMARK VINA RESULT:    27.446      1.375      8.528
REMARK INTER + INTRA:          71.527
REMARK INTER:                  56.895
REMARK INTRA:                  14.632
REMARK UNBOUND:                 6.375
REMARK SMILES O=C(OC[C@H]1O[C@H](OC(=O)c2cc(O)c(O)c(O)c2)[C@H](OC(=O)c2cc(O)c(O)c(O)c2)[C@@H](OC(=O)c2cc(O)c(O)c(O)c2)[C@H]1OC(=O)c1cc(O)c(O)c(O)c1)c1cc(O)c(O)c(O)c1
REMARK SMILES IDX 5 1 46 2 33 3 20 4 7 5 6 6 4 7 3 8 2 9 1 10 59 11 60 12
REMARK SMILES IDX 61 13 67 14 63 15 65 16 62 17 64 19 66 21 47 23 48 24 49 25
REMARK SMILES IDX 50 26 58 27 51 28 56 29 52 30 54 31 57 32 53 34 55 36 34 38
REMARK SMILES IDX 35 39 36 40 37 41 45 42 38 43 43 44 39 45 41 46 44 47 40 49
REMARK SMILES IDX 42 51 8 53 9 54 10 55 11 56 19 57 12 58 17 59 13 60 15 61
REMARK SMILES IDX 18 62 14 64 16 66 21 68 22 69 23 70 24 71 32 72 25 73 30 74
REMARK SMILES IDX 26 75 28 76 31 77 27 79 29 81
REMARK H PARENT 62 18 64 20 66 22 57 33 53 35 55 37 44 48 40 50 42 52 18 63
REMARK H PARENT 14 65 16 67 31 78 27 80 29 82
REMARK Flexibility Score: inf
ROOT
ATOM      1  C   UNL     1      74.637  41.412  23.358  1.00  0.00     0.205 C 
ATOM      2  C   UNL     1      75.984  40.811  22.917  1.00  0.00     0.254 C 
ATOM      3  C   UNL     1      76.662  40.238  24.167  1.00  0.00     0.267 C 
ATOM      4  C   UNL     1      75.735  39.200  24.827  1.00  0.00     0.290 C 
ATOM      5  C   UNL     1      74.342  39.826  25.066  1.00  0.00     0.357 C 
ATOM      6  O   UNL     1      73.796  40.394  23.882  1.00  0.00    -0.329 OA
ENDROOT
BRANCH   1   7
ATOM      7  C   UNL     1      73.909  42.125  22.203  1.00  0.00     0.269 C 
BRANCH   7   8
ATOM      8  O   UNL     1      74.439  41.677  20.960  1.00  0.00    -0.459 OA
BRANCH   8   9
ATOM      9  C   UNL     1      73.620  41.253  19.904  1.00  0.00     0.338 C 
ATOM     10  O   UNL     1      74.137  40.925  18.797  1.00  0.00    -0.246 OA
BRANCH   9  11
ATOM     11  C   UNL     1      72.152  41.221  20.075  1.00  0.00     0.067 A 
ATOM     12  C   UNL     1      71.311  41.669  19.048  1.00  0.00     0.066 A 
ATOM     13  C   UNL     1      69.925  41.693  19.214  1.00  0.00     0.162 A 
ATOM     14  C   UNL     1      71.584  40.781  21.288  1.00  0.00     0.066 A 
ATOM     15  C   UNL     1      69.358  41.287  20.445  1.00  0.00     0.200 A 
ATOM     16  C   UNL     1      70.198  40.826  21.475  1.00  0.00     0.162 A 
BRANCH  13  17
ATOM     17  O   UNL     1      69.151  42.116  18.132  1.00  0.00    -0.504 OA
ATOM     18  H   UNL     1      68.962  41.545  17.326  1.00  0.00     0.293 HD
ENDBRANCH  13  17
BRANCH  15  19
ATOM     19  O   UNL     1      67.980  41.333  20.678  1.00  0.00    -0.502 OA
ATOM     20  H   UNL     1      67.370  42.068  20.353  1.00  0.00     0.293 HD
ENDBRANCH  15  19
BRANCH  16  21
ATOM     21  O   UNL     1      69.676  40.408  22.699  1.00  0.00    -0.504 OA
ATOM     22  H   UNL     1      68.948  39.707  22.762  1.00  0.00     0.293 HD
ENDBRANCH  16  21
ENDBRANCH   9  11
ENDBRANCH   8   9
ENDBRANCH   7   8
ENDBRANCH   1   7
BRANCH   2  23
ATOM     23  O   UNL     1      75.772  39.755  21.979  1.00  0.00    -0.452 OA
BRANCH  23  24
ATOM     24  C   UNL     1      75.080  38.571  22.267  1.00  0.00     0.338 C 
ATOM     25  O   UNL     1      75.172  38.056  23.411  1.00  0.00    -0.246 OA
BRANCH  24  26
ATOM     26  C   UNL     1      74.233  37.949  21.226  1.00  0.00     0.067 A 
ATOM     27  C   UNL     1      73.761  36.632  21.371  1.00  0.00     0.066 A 
ATOM     28  C   UNL     1      73.936  38.654  20.048  1.00  0.00     0.066 A 
ATOM     29  C   UNL     1      73.015  36.023  20.348  1.00  0.00     0.162 A 
ATOM     30  C   UNL     1      73.184  38.056  19.031  1.00  0.00     0.162 A 
ATOM     31  C   UNL     1      72.723  36.739  19.175  1.00  0.00     0.200 A 
BRANCH  29  32
ATOM     32  O   UNL     1      72.570  34.711  20.490  1.00  0.00    -0.504 OA
ATOM     33  H   UNL     1      72.891  33.974  19.874  1.00  0.00     0.293 HD
ENDBRANCH  29  32
BRANCH  30  34
ATOM     34  O   UNL     1      72.912  38.787  17.877  1.00  0.00    -0.504 OA
ATOM     35  H   UNL     1      72.324  38.423  17.134  1.00  0.00     0.293 HD
ENDBRANCH  30  34
BRANCH  31  36
ATOM     36  O   UNL     1      71.987  36.158  18.144  1.00  0.00    -0.502 OA
ATOM     37  H   UNL     1      71.533  35.259  18.243  1.00  0.00     0.293 HD
ENDBRANCH  31  36
ENDBRANCH  24  26
ENDBRANCH  23  24
ENDBRANCH   2  23
BRANCH   3  38
ATOM     38  O   UNL     1      77.924  39.664  23.829  1.00  0.00    -0.450 OA
BRANCH  38  39
ATOM     39  C   UNL     1      78.990  40.425  23.330  1.00  0.00     0.338 C 
ATOM     40  O   UNL     1      79.949  40.740  24.087  1.00  0.00    -0.246 OA
BRANCH  39  41
ATOM     41  C   UNL     1      79.006  40.842  21.911  1.00  0.00     0.067 A 
ATOM     42  C   UNL     1      80.206  40.827  21.179  1.00  0.00     0.066 A 
ATOM     43  C   UNL     1      77.821  41.253  21.278  1.00  0.00     0.066 A 
ATOM     44  C   UNL     1      80.226  41.221  19.839  1.00  0.00     0.162 A 
ATOM     45  C   UNL     1      77.828  41.654  19.939  1.00  0.00     0.162 A 
ATOM     46  C   UNL     1      79.046  41.649  19.209  1.00  0.00     0.200 A 
BRANCH  44  47
ATOM     47  O   UNL     1      81.425  41.187  19.125  1.00  0.00    -0.504 OA
ATOM     48  H   UNL     1      81.676  41.922  18.468  1.00  0.00     0.293 HD
ENDBRANCH  44  47
BRANCH  45  49
ATOM     49  O   UNL     1      76.614  42.049  19.377  1.00  0.00    -0.504 OA
ATOM     50  H   UNL     1      76.529  42.717  18.624  1.00  0.00     0.293 HD
ENDBRANCH  45  49
BRANCH  46  51
ATOM     51  O   UNL     1      79.130  42.058  17.875  1.00  0.00    -0.502 OA
ATOM     52  H   UNL     1      79.010  41.432  17.087  1.00  0.00     0.293 HD
ENDBRANCH  46  51
ENDBRANCH  39  41
ENDBRANCH  38  39
ENDBRANCH   3  38
BRANCH   5  53
ATOM     53  O   UNL     1      74.402  40.792  26.114  1.00  0.00    -0.428 OA
BRANCH  53  54
ATOM     54  C   UNL     1      75.222  40.656  27.239  1.00  0.00     0.340 C 
ATOM     55  O   UNL     1      76.387  40.194  27.132  1.00  0.00    -0.246 OA
BRANCH  54  56
ATOM     56  C   UNL     1      74.712  41.065  28.557  1.00  0.00     0.067 A 
ATOM     57  C   UNL     1      73.344  41.289  28.759  1.00  0.00     0.066 A 
ATOM     58  C   UNL     1      75.596  41.220  29.631  1.00  0.00     0.066 A 
ATOM     59  C   UNL     1      72.848  41.633  30.023  1.00  0.00     0.162 A 
ATOM     60  C   UNL     1      75.128  41.590  30.892  1.00  0.00     0.162 A 
ATOM     61  C   UNL     1      73.748  41.785  31.108  1.00  0.00     0.200 A 
BRANCH  59  62
ATOM     62  O   UNL     1      71.466  41.805  30.148  1.00  0.00    -0.504 OA
ATOM     63  H   UNL     1      71.034  42.528  30.714  1.00  0.00     0.293 HD
ENDBRANCH  59  62
BRANCH  60  64
ATOM     64  O   UNL     1      76.055  41.766  31.920  1.00  0.00    -0.504 OA
ATOM     65  H   UNL     1      76.315  42.688  32.255  1.00  0.00     0.293 HD
ENDBRANCH  60  64
BRANCH  61  66
ATOM     66  O   UNL     1      73.311  42.120  32.399  1.00  0.00    -0.502 OA
ATOM     67  H   UNL     1      73.900  42.097  33.220  1.00  0.00     0.293 HD
ENDBRANCH  61  66
ENDBRANCH  54  56
ENDBRANCH  53  54
ENDBRANCH   5  53
BRANCH   4  68
ATOM     68  O   UNL     1      76.265  38.801  26.090  1.00  0.00    -0.448 OA
BRANCH  68  69
ATOM     69  C   UNL     1      77.316  37.892  26.250  1.00  0.00     0.339 C 
ATOM     70  O   UNL     1      78.178  37.750  25.339  1.00  0.00    -0.246 OA
BRANCH  69  71
ATOM     71  C   UNL     1      77.401  37.089  27.488  1.00  0.00     0.067 A 
ATOM     72  C   UNL     1      78.515  36.281  27.747  1.00  0.00     0.066 A 
ATOM     73  C   UNL     1      76.362  37.133  28.431  1.00  0.00     0.066 A 
ATOM     74  C   UNL     1      78.603  35.537  28.933  1.00  0.00     0.162 A 
ATOM     75  C   UNL     1      76.440  36.399  29.618  1.00  0.00     0.162 A 
ATOM     76  C   UNL     1      77.562  35.598  29.875  1.00  0.00     0.200 A 
BRANCH  74  77
ATOM     77  O   UNL     1      79.724  34.746  29.185  1.00  0.00    -0.504 OA
ATOM     78  H   UNL     1      79.636  33.775  29.466  1.00  0.00     0.293 HD
ENDBRANCH  74  77
BRANCH  75  79
ATOM     79  O   UNL     1      75.391  36.481  30.535  1.00  0.00    -0.504 OA
ATOM     80  H   UNL     1      74.519  35.985  30.404  1.00  0.00     0.293 HD
ENDBRANCH  75  79
BRANCH  76  81
ATOM     81  O   UNL     1      77.633  34.868  31.063  1.00  0.00    -0.502 OA
ATOM     82  H   UNL     1      77.069  35.088  31.870  1.00  0.00     0.293 HD
ENDBRANCH  76  81
ENDBRANCH  69  71
ENDBRANCH  68  69
ENDBRANCH   4  68
TORSDOF 31
ENDMDL
MODEL 3
REMARK VINA RESULT:    27.556      1.453      2.786
REMARK INTER + INTRA:          71.789
REMARK INTER:                  67.067
REMARK INTRA:                   4.721
REMARK UNBOUND:                 6.375
REMARK SMILES O=C(OC[C@H]1O[C@H](OC(=O)c2cc(O)c(O)c(O)c2)[C@H](OC(=O)c2cc(O)c(O)c(O)c2)[C@@H](OC(=O)c2cc(O)c(O)c(O)c2)[C@H]1OC(=O)c1cc(O)c(O)c(O)c1)c1cc(O)c(O)c(O)c1
REMARK SMILES IDX 5 1 46 2 33 3 20 4 7 5 6 6 4 7 3 8 2 9 1 10 59 11 60 12
REMARK SMILES IDX 61 13 67 14 63 15 65 16 62 17 64 19 66 21 47 23 48 24 49 25
REMARK SMILES IDX 50 26 58 27 51 28 56 29 52 30 54 31 57 32 53 34 55 36 34 38
REMARK SMILES IDX 35 39 36 40 37 41 45 42 38 43 43 44 39 45 41 46 44 47 40 49
REMARK SMILES IDX 42 51 8 53 9 54 10 55 11 56 19 57 12 58 17 59 13 60 15 61
REMARK SMILES IDX 18 62 14 64 16 66 21 68 22 69 23 70 24 71 32 72 25 73 30 74
REMARK SMILES IDX 26 75 28 76 31 77 27 79 29 81
REMARK H PARENT 62 18 64 20 66 22 57 33 53 35 55 37 44 48 40 50 42 52 18 63
REMARK H PARENT 14 65 16 67 31 78 27 80 29 82
REMARK Flexibility Score: inf
ROOT
ATOM      1  C   UNL     1      75.315  40.184  23.383  1.00  0.00     0.205 C 
ATOM      2  C   UNL     1      76.039  39.603  24.612  1.00  0.00     0.254 C 
ATOM      3  C   UNL     1      77.528  39.502  24.263  1.00  0.00     0.267 C 
ATOM      4  C   UNL     1      78.060  40.890  23.862  1.00  0.00     0.290 C 
ATOM      5  C   UNL     1      77.166  41.487  22.751  1.00  0.00     0.357 C 
ATOM      6  O   UNL     1      75.790  41.496  23.113  1.00  0.00    -0.329 OA
ENDROOT
BRANCH   1   7
ATOM      7  C   UNL     1      73.788  40.228  23.571  1.00  0.00     0.269 C 
BRANCH   7   8
ATOM      8  O   UNL     1      73.217  39.009  23.105  1.00  0.00    -0.459 OA
BRANCH   8   9
ATOM      9  C   UNL     1      72.641  38.888  21.833  1.00  0.00     0.338 C 
ATOM     10  O   UNL     1      73.298  38.355  20.892  1.00  0.00    -0.246 OA
BRANCH   9  11
ATOM     11  C   UNL     1      71.283  39.413  21.584  1.00  0.00     0.067 A 
ATOM     12  C   UNL     1      71.095  40.510  20.732  1.00  0.00     0.066 A 
ATOM     13  C   UNL     1      69.823  41.051  20.527  1.00  0.00     0.162 A 
ATOM     14  C   UNL     1      70.168  38.846  22.233  1.00  0.00     0.066 A 
ATOM     15  C   UNL     1      68.710  40.504  21.209  1.00  0.00     0.200 A 
ATOM     16  C   UNL     1      68.893  39.396  22.056  1.00  0.00     0.162 A 
BRANCH  13  17
ATOM     17  O   UNL     1      69.710  42.117  19.635  1.00  0.00    -0.504 OA
ATOM     18  H   UNL     1      68.979  42.806  19.680  1.00  0.00     0.293 HD
ENDBRANCH  13  17
BRANCH  15  19
ATOM     19  O   UNL     1      67.424  41.035  21.073  1.00  0.00    -0.502 OA
ATOM     20  H   UNL     1      66.584  40.593  21.415  1.00  0.00     0.293 HD
ENDBRANCH  15  19
BRANCH  16  21
ATOM     21  O   UNL     1      67.819  38.824  22.737  1.00  0.00    -0.504 OA
ATOM     22  H   UNL     1      66.894  38.765  22.330  1.00  0.00     0.293 HD
ENDBRANCH  16  21
ENDBRANCH   9  11
ENDBRANCH   8   9
ENDBRANCH   7   8
ENDBRANCH   1   7
BRANCH   2  23
ATOM     23  O   UNL     1      75.883  40.471  25.735  1.00  0.00    -0.452 OA
BRANCH  23  24
ATOM     24  C   UNL     1      74.826  40.392  26.652  1.00  0.00     0.338 C 
ATOM     25  O   UNL     1      73.703  39.967  26.277  1.00  0.00    -0.246 OA
BRANCH  24  26
ATOM     26  C   UNL     1      75.049  40.794  28.058  1.00  0.00     0.067 A 
ATOM     27  C   UNL     1      73.963  41.012  28.927  1.00  0.00     0.066 A 
ATOM     28  C   UNL     1      76.353  41.017  28.528  1.00  0.00     0.066 A 
ATOM     29  C   UNL     1      74.178  41.460  30.241  1.00  0.00     0.162 A 
ATOM     30  C   UNL     1      76.573  41.453  29.839  1.00  0.00     0.162 A 
ATOM     31  C   UNL     1      75.488  41.678  30.699  1.00  0.00     0.200 A 
BRANCH  29  32
ATOM     32  O   UNL     1      73.098  41.694  31.087  1.00  0.00    -0.504 OA
ATOM     33  H   UNL     1      73.178  41.583  32.091  1.00  0.00     0.293 HD
ENDBRANCH  29  32
BRANCH  30  34
ATOM     34  O   UNL     1      77.881  41.665  30.266  1.00  0.00    -0.504 OA
ATOM     35  H   UNL     1      78.341  41.045  30.926  1.00  0.00     0.293 HD
ENDBRANCH  30  34
BRANCH  31  36
ATOM     36  O   UNL     1      75.729  42.124  31.997  1.00  0.00    -0.502 OA
ATOM     37  H   UNL     1      75.014  42.565  32.560  1.00  0.00     0.293 HD
ENDBRANCH  31  36
ENDBRANCH  24  26
ENDBRANCH  23  24
ENDBRANCH   2  23
BRANCH   3  38
ATOM     38  O   UNL     1      78.262  38.965  25.363  1.00  0.00    -0.450 OA
BRANCH  38  39
ATOM     39  C   UNL     1      78.267  37.597  25.671  1.00  0.00     0.338 C 
ATOM     40  O   UNL     1      78.633  36.756  24.806  1.00  0.00    -0.246 OA
BRANCH  39  41
ATOM     41  C   UNL     1      77.863  37.137  27.019  1.00  0.00     0.067 A 
ATOM     42  C   UNL     1      76.649  37.567  27.582  1.00  0.00     0.066 A 
ATOM     43  C   UNL     1      78.686  36.264  27.747  1.00  0.00     0.066 A 
ATOM     44  C   UNL     1      76.264  37.137  28.854  1.00  0.00     0.162 A 
ATOM     45  C   UNL     1      78.314  35.829  29.023  1.00  0.00     0.162 A 
ATOM     46  C   UNL     1      77.093  36.277  29.591  1.00  0.00     0.200 A 
BRANCH  44  47
ATOM     47  O   UNL     1      75.048  37.564  29.391  1.00  0.00    -0.504 OA
ATOM     48  H   UNL     1      74.374  36.907  29.775  1.00  0.00     0.293 HD
ENDBRANCH  44  47
BRANCH  45  49
ATOM     49  O   UNL     1      79.182  34.962  29.688  1.00  0.00    -0.504 OA
ATOM     50  H   UNL     1      80.186  35.072  29.709  1.00  0.00     0.293 HD
ENDBRANCH  45  49
BRANCH  46  51
ATOM     51  O   UNL     1      76.671  35.901  30.870  1.00  0.00    -0.502 OA
ATOM     52  H   UNL     1      75.755  35.512  31.067  1.00  0.00     0.293 HD
ENDBRANCH  46  51
ENDBRANCH  39  41
ENDBRANCH  38  39
ENDBRANCH   3  38
BRANCH   5  53
ATOM     53  O   UNL     1      77.365  40.791  21.522  1.00  0.00    -0.428 OA
BRANCH  53  54
ATOM     54  C   UNL     1      76.966  41.296  20.279  1.00  0.00     0.340 C 
ATOM     55  O   UNL     1      77.685  42.123  19.662  1.00  0.00    -0.246 OA
BRANCH  54  56
ATOM     56  C   UNL     1      75.695  40.844  19.692  1.00  0.00     0.067 A 
ATOM     57  C   UNL     1      74.551  41.650  19.751  1.00  0.00     0.066 A 
ATOM     58  C   UNL     1      75.625  39.602  19.052  1.00  0.00     0.066 A 
ATOM     59  C   UNL     1      73.351  41.245  19.152  1.00  0.00     0.162 A 
ATOM     60  C   UNL     1      74.432  39.165  18.474  1.00  0.00     0.162 A 
ATOM     61  C   UNL     1      73.286  39.986  18.502  1.00  0.00     0.200 A 
BRANCH  59  62
ATOM     62  O   UNL     1      72.265  42.122  19.225  1.00  0.00    -0.504 OA
ATOM     63  H   UNL     1      71.324  41.840  19.477  1.00  0.00     0.293 HD
ENDBRANCH  59  62
BRANCH  60  64
ATOM     64  O   UNL     1      74.405  37.903  17.880  1.00  0.00    -0.504 OA
ATOM     65  H   UNL     1      75.125  37.210  18.056  1.00  0.00     0.293 HD
ENDBRANCH  60  64
BRANCH  61  66
ATOM     66  O   UNL     1      72.117  39.529  17.877  1.00  0.00    -0.502 OA
ATOM     67  H   UNL     1      71.780  38.577  17.931  1.00  0.00     0.293 HD
ENDBRANCH  61  66
ENDBRANCH  54  56
ENDBRANCH  53  54
ENDBRANCH   5  53
BRANCH   4  68
ATOM     68  O   UNL     1      79.387  40.779  23.351  1.00  0.00    -0.448 OA
BRANCH  68  69
ATOM     69  C   UNL     1      79.702  40.690  21.992  1.00  0.00     0.339 C 
ATOM     70  O   UNL     1      79.274  41.558  21.182  1.00  0.00    -0.246 OA
BRANCH  69  71
ATOM     71  C   UNL     1      80.529  39.564  21.509  1.00  0.00     0.067 A 
ATOM     72  C   UNL     1      80.452  38.302  22.112  1.00  0.00     0.066 A 
ATOM     73  C   UNL     1      81.402  39.744  20.424  1.00  0.00     0.066 A 
ATOM     74  C   UNL     1      81.221  37.230  21.636  1.00  0.00     0.162 A 
ATOM     75  C   UNL     1      82.171  38.682  19.939  1.00  0.00     0.162 A 
ATOM     76  C   UNL     1      82.083  37.419  20.543  1.00  0.00     0.200 A 
BRANCH  74  77
ATOM     77  O   UNL     1      81.125  35.975  22.238  1.00  0.00    -0.504 OA
ATOM     78  H   UNL     1      80.530  35.818  23.045  1.00  0.00     0.293 HD
ENDBRANCH  74  77
BRANCH  75  79
ATOM     79  O   UNL     1      83.018  38.900  18.851  1.00  0.00    -0.504 OA
ATOM     80  H   UNL     1      83.201  39.824  18.485  1.00  0.00     0.293 HD
ENDBRANCH  75  79
BRANCH  76  81
ATOM     81  O   UNL     1      82.854  36.363  20.053  1.00  0.00    -0.502 OA
ATOM     82  H   UNL     1      82.519  35.732  19.340  1.00  0.00     0.293 HD
ENDBRANCH  76  81
ENDBRANCH  69  71
ENDBRANCH  68  69
ENDBRANCH   4  68
TORSDOF 31
ENDMDL
MODEL 4
REMARK VINA RESULT:    27.786      1.179      2.004
REMARK INTER + INTRA:          72.333
REMARK INTER:                  64.128
REMARK INTRA:                   8.205
REMARK UNBOUND:                 6.375
REMARK SMILES O=C(OC[C@H]1O[C@H](OC(=O)c2cc(O)c(O)c(O)c2)[C@H](OC(=O)c2cc(O)c(O)c(O)c2)[C@@H](OC(=O)c2cc(O)c(O)c(O)c2)[C@H]1OC(=O)c1cc(O)c(O)c(O)c1)c1cc(O)c(O)c(O)c1
REMARK SMILES IDX 5 1 46 2 33 3 20 4 7 5 6 6 4 7 3 8 2 9 1 10 59 11 60 12
REMARK SMILES IDX 61 13 67 14 63 15 65 16 62 17 64 19 66 21 47 23 48 24 49 25
REMARK SMILES IDX 50 26 58 27 51 28 56 29 52 30 54 31 57 32 53 34 55 36 34 38
REMARK SMILES IDX 35 39 36 40 37 41 45 42 38 43 43 44 39 45 41 46 44 47 40 49
REMARK SMILES IDX 42 51 8 53 9 54 10 55 11 56 19 57 12 58 17 59 13 60 15 61
REMARK SMILES IDX 18 62 14 64 16 66 21 68 22 69 23 70 24 71 32 72 25 73 30 74
REMARK SMILES IDX 26 75 28 76 31 77 27 79 29 81
REMARK H PARENT 62 18 64 20 66 22 57 33 53 35 55 37 44 48 40 50 42 52 18 63
REMARK H PARENT 14 65 16 67 31 78 27 80 29 82
REMARK Flexibility Score: inf
ROOT
ATOM      1  C   UNL     1      73.997  40.312  23.250  1.00  0.00     0.205 C 
ATOM      2  C   UNL     1      75.009  39.884  24.328  1.00  0.00     0.254 C 
ATOM      3  C   UNL     1      76.412  40.153  23.774  1.00  0.00     0.267 C 
ATOM      4  C   UNL     1      76.542  41.640  23.394  1.00  0.00     0.290 C 
ATOM      5  C   UNL     1      75.379  42.039  22.456  1.00  0.00     0.357 C 
ATOM      6  O   UNL     1      74.108  41.707  23.002  1.00  0.00    -0.329 OA
ENDROOT
BRANCH   1   7
ATOM      7  C   UNL     1      72.546  39.983  23.646  1.00  0.00     0.269 C 
BRANCH   7   8
ATOM      8  O   UNL     1      71.700  40.126  22.509  1.00  0.00    -0.459 OA
BRANCH   8   9
ATOM      9  C   UNL     1      70.672  41.078  22.454  1.00  0.00     0.338 C 
ATOM     10  O   UNL     1      70.722  42.102  23.195  1.00  0.00    -0.246 OA
BRANCH   9  11
ATOM     11  C   UNL     1      69.518  40.868  21.556  1.00  0.00     0.067 A 
ATOM     12  C   UNL     1      68.491  39.986  21.920  1.00  0.00     0.066 A 
ATOM     13  C   UNL     1      67.420  39.737  21.059  1.00  0.00     0.162 A 
ATOM     14  C   UNL     1      69.458  41.516  20.306  1.00  0.00     0.066 A 
ATOM     15  C   UNL     1      67.380  40.360  19.790  1.00  0.00     0.200 A 
ATOM     16  C   UNL     1      68.403  41.254  19.425  1.00  0.00     0.162 A 
BRANCH  13  17
ATOM     17  O   UNL     1      66.417  38.877  21.508  1.00  0.00    -0.504 OA
ATOM     18  H   UNL     1      66.460  38.377  22.379  1.00  0.00     0.293 HD
ENDBRANCH  13  17
BRANCH  15  19
ATOM     19  O   UNL     1      66.353  40.111  18.873  1.00  0.00    -0.502 OA
ATOM     20  H   UNL     1      66.267  39.268  18.327  1.00  0.00     0.293 HD
ENDBRANCH  15  19
BRANCH  16  21
ATOM     21  O   UNL     1      68.393  41.894  18.186  1.00  0.00    -0.504 OA
ATOM     22  H   UNL     1      69.197  41.886  17.570  1.00  0.00     0.293 HD
ENDBRANCH  16  21
ENDBRANCH   9  11
ENDBRANCH   8   9
ENDBRANCH   7   8
ENDBRANCH   1   7
BRANCH   2  23
ATOM     23  O   UNL     1      74.823  40.656  25.516  1.00  0.00    -0.452 OA
BRANCH  23  24
ATOM     24  C   UNL     1      75.750  40.722  26.565  1.00  0.00     0.338 C 
ATOM     25  O   UNL     1      76.962  40.464  26.347  1.00  0.00    -0.246 OA
BRANCH  24  26
ATOM     26  C   UNL     1      75.294  41.115  27.917  1.00  0.00     0.067 A 
ATOM     27  C   UNL     1      76.219  41.480  28.912  1.00  0.00     0.066 A 
ATOM     28  C   UNL     1      73.927  41.074  28.237  1.00  0.00     0.066 A 
ATOM     29  C   UNL     1      75.785  41.785  30.213  1.00  0.00     0.162 A 
ATOM     30  C   UNL     1      73.489  41.387  29.528  1.00  0.00     0.162 A 
ATOM     31  C   UNL     1      74.415  41.741  30.521  1.00  0.00     0.200 A 
BRANCH  29  32
ATOM     32  O   UNL     1      76.708  42.125  31.199  1.00  0.00    -0.504 OA
ATOM     33  H   UNL     1      76.414  42.501  32.093  1.00  0.00     0.293 HD
ENDBRANCH  29  32
BRANCH  30  34
ATOM     34  O   UNL     1      72.126  41.332  29.807  1.00  0.00    -0.504 OA
ATOM     35  H   UNL     1      71.422  41.472  29.089  1.00  0.00     0.293 HD
ENDBRANCH  30  34
BRANCH  31  36
ATOM     36  O   UNL     1      73.957  42.038  31.804  1.00  0.00    -0.502 OA
ATOM     37  H   UNL     1      73.775  42.985  32.108  1.00  0.00     0.293 HD
ENDBRANCH  31  36
ENDBRANCH  24  26
ENDBRANCH  23  24
ENDBRANCH   2  23
BRANCH   3  38
ATOM     38  O   UNL     1      77.405  39.775  24.727  1.00  0.00    -0.450 OA
BRANCH  38  39
ATOM     39  C   UNL     1      77.597  38.446  25.130  1.00  0.00     0.338 C 
ATOM     40  O   UNL     1      78.210  37.640  24.378  1.00  0.00    -0.246 OA
BRANCH  39  41
ATOM     41  C   UNL     1      77.100  37.989  26.447  1.00  0.00     0.067 A 
ATOM     42  C   UNL     1      75.756  38.190  26.807  1.00  0.00     0.066 A 
ATOM     43  C   UNL     1      77.964  37.348  27.349  1.00  0.00     0.066 A 
ATOM     44  C   UNL     1      75.282  37.761  28.050  1.00  0.00     0.162 A 
ATOM     45  C   UNL     1      77.503  36.918  28.597  1.00  0.00     0.162 A 
ATOM     46  C   UNL     1      76.148  37.135  28.960  1.00  0.00     0.200 A 
BRANCH  44  47
ATOM     47  O   UNL     1      73.941  37.958  28.385  1.00  0.00    -0.504 OA
ATOM     48  H   UNL     1      73.299  38.435  27.757  1.00  0.00     0.293 HD
ENDBRANCH  44  47
BRANCH  45  49
ATOM     49  O   UNL     1      78.418  36.289  29.441  1.00  0.00    -0.504 OA
ATOM     50  H   UNL     1      79.080  35.588  29.137  1.00  0.00     0.293 HD
ENDBRANCH  45  49
BRANCH  46  51
ATOM     51  O   UNL     1      75.626  36.752  30.199  1.00  0.00    -0.502 OA
ATOM     52  H   UNL     1      75.464  37.398  30.964  1.00  0.00     0.293 HD
ENDBRANCH  46  51
ENDBRANCH  39  41
ENDBRANCH  38  39
ENDBRANCH   3  38
BRANCH   5  53
ATOM     53  O   UNL     1      75.551  41.448  21.169  1.00  0.00    -0.428 OA
BRANCH  53  54
ATOM     54  C   UNL     1      74.492  41.203  20.288  1.00  0.00     0.340 C 
ATOM     55  O   UNL     1      73.692  42.122  19.975  1.00  0.00    -0.246 OA
BRANCH  54  56
ATOM     56  C   UNL     1      74.324  39.857  19.719  1.00  0.00     0.067 A 
ATOM     57  C   UNL     1      73.101  39.183  19.820  1.00  0.00     0.066 A 
ATOM     58  C   UNL     1      75.392  39.242  19.055  1.00  0.00     0.066 A 
ATOM     59  C   UNL     1      72.922  37.921  19.239  1.00  0.00     0.162 A 
ATOM     60  C   UNL     1      75.246  37.972  18.494  1.00  0.00     0.162 A 
ATOM     61  C   UNL     1      74.006  37.303  18.564  1.00  0.00     0.200 A 
BRANCH  59  62
ATOM     62  O   UNL     1      71.660  37.330  19.355  1.00  0.00    -0.504 OA
ATOM     63  H   UNL     1      71.509  36.337  19.493  1.00  0.00     0.293 HD
ENDBRANCH  59  62
BRANCH  60  64
ATOM     64  O   UNL     1      76.351  37.388  17.875  1.00  0.00    -0.504 OA
ATOM     65  H   UNL     1      76.578  36.406  17.998  1.00  0.00     0.293 HD
ENDBRANCH  60  64
BRANCH  61  66
ATOM     66  O   UNL     1      73.887  36.045  17.956  1.00  0.00    -0.502 OA
ATOM     67  H   UNL     1      74.304  35.198  18.318  1.00  0.00     0.293 HD
ENDBRANCH  61  66
ENDBRANCH  54  56
ENDBRANCH  53  54
ENDBRANCH   5  53
BRANCH   4  68
ATOM     68  O   UNL     1      77.768  41.865  22.701  1.00  0.00    -0.448 OA
BRANCH  68  69
ATOM     69  C   UNL     1      78.870  41.007  22.754  1.00  0.00     0.339 C 
ATOM     70  O   UNL     1      79.296  40.585  23.866  1.00  0.00    -0.246 OA
BRANCH  69  71
ATOM     71  C   UNL     1      79.543  40.607  21.500  1.00  0.00     0.067 A 
ATOM     72  C   UNL     1      80.401  39.501  21.463  1.00  0.00     0.066 A 
ATOM     73  C   UNL     1      79.321  41.333  20.318  1.00  0.00     0.066 A 
ATOM     74  C   UNL     1      81.020  39.112  20.266  1.00  0.00     0.162 A 
ATOM     75  C   UNL     1      79.930  40.952  19.119  1.00  0.00     0.162 A 
ATOM     76  C   UNL     1      80.782  39.838  19.087  1.00  0.00     0.200 A 
BRANCH  74  77
ATOM     77  O   UNL     1      81.862  38.000  20.240  1.00  0.00    -0.504 OA
ATOM     78  H   UNL     1      82.141  37.526  21.093  1.00  0.00     0.293 HD
ENDBRANCH  74  77
BRANCH  75  79
ATOM     79  O   UNL     1      79.674  41.693  17.964  1.00  0.00    -0.504 OA
ATOM     80  H   UNL     1      78.955  41.433  17.303  1.00  0.00     0.293 HD
ENDBRANCH  75  79
BRANCH  76  81
ATOM     81  O   UNL     1      81.386  39.464  17.885  1.00  0.00    -0.502 OA
ATOM     82  H   UNL     1      82.233  39.894  17.546  1.00  0.00     0.293 HD
ENDBRANCH  76  81
ENDBRANCH  69  71
ENDBRANCH  68  69
ENDBRANCH   4  68
TORSDOF 31
ENDMDL
