MODEL 1
REMARK VINA RESULT:    -5.559      0.000      0.000
REMARK INTER + INTRA:          -9.999
REMARK INTER:                  -8.484
REMARK INTRA:                  -1.515
REMARK UNBOUND:                -1.515
REMARK SMILES OC[C@@H]1O[C@](CO)(O[C@H]2O[C@H](CO)[C@@H](O)[C@H](O)[C@H]2O)[C@@H](O)[C@@H]1O
REMARK SMILES IDX 8 1 9 2 11 3 14 4 10 5 16 6 18 7 12 8 13 9 15 11 17 13 19 15
REMARK SMILES IDX 5 17 20 18 4 19 22 20 3 21 6 22 7 23 21 25 23 27 2 29 1 30
REMARK H PARENT 13 10 15 12 17 14 19 16 7 24 21 26 23 28 1 31
REMARK Flexibility Score: inf
ROOT
ATOM      1  O   UNL     1     145.342 129.626 125.498  1.00  0.00    -0.313 OA
ENDROOT
BRANCH   1   2
ATOM      2  C   UNL     1     144.871 130.969 125.515  1.00  0.00     0.285 C 
ATOM      3  C   UNL     1     143.816 130.713 123.428  1.00  0.00     0.178 C 
ATOM      4  C   UNL     1     142.397 130.786 124.037  1.00  0.00     0.177 C 
ATOM      5  O   UNL     1     144.735 131.475 124.196  1.00  0.00    -0.341 OA
ATOM      6  C   UNL     1     142.433 130.295 125.493  1.00  0.00     0.179 C 
ATOM      7  C   UNL     1     143.529 131.042 126.270  1.00  0.00     0.202 C 
BRANCH   3   8
ATOM      8  C   UNL     1     143.835 131.234 121.983  1.00  0.00     0.191 C 
BRANCH   8   9
ATOM      9  O   UNL     1     144.967 132.028 121.744  1.00  0.00    -0.394 OA
ATOM     10  H   UNL     1     145.760 131.465 121.943  1.00  0.00     0.210 HD
ENDBRANCH   8   9
ENDBRANCH   3   8
BRANCH   4  11
ATOM     11  O   UNL     1     141.520 129.981 123.289  1.00  0.00    -0.387 OA
ATOM     12  H   UNL     1     142.071 129.274 122.863  1.00  0.00     0.211 HD
ENDBRANCH   4  11
BRANCH   6  13
ATOM     13  O   UNL     1     141.183 130.523 126.091  1.00  0.00    -0.387 OA
ATOM     14  H   UNL     1     140.905 131.442 125.838  1.00  0.00     0.211 HD
ENDBRANCH   6  13
BRANCH   7  15
ATOM     15  O   UNL     1     143.664 130.478 127.550  1.00  0.00    -0.385 OA
ATOM     16  H   UNL     1     142.885 130.786 128.084  1.00  0.00     0.211 HD
ENDBRANCH   7  15
ENDBRANCH   1   2
BRANCH   1  17
ATOM     17  C   UNL     1     146.739 129.486 125.742  1.00  0.00     0.224 C 
ATOM     18  C   UNL     1     147.279 130.895 126.055  1.00  0.00     0.208 C 
ATOM     19  O   UNL     1     147.413 129.020 124.579  1.00  0.00    -0.337 OA
ATOM     20  C   UNL     1     148.643 130.879 125.427  1.00  0.00     0.180 C 
ATOM     21  C   UNL     1     148.440 129.929 124.246  1.00  0.00     0.179 C 
BRANCH  17  22
ATOM     22  C   UNL     1     147.013 128.506 126.917  1.00  0.00     0.225 C 
BRANCH  22  23
ATOM     23  O   UNL     1     145.874 128.354 127.720  1.00  0.00    -0.391 OA
ATOM     24  H   UNL     1     145.640 129.263 128.042  1.00  0.00     0.210 HD
ENDBRANCH  22  23
ENDBRANCH  17  22
BRANCH  18  25
ATOM     25  O   UNL     1     147.342 131.164 127.434  1.00  0.00    -0.385 OA
ATOM     26  H   UNL     1     147.868 130.428 127.842  1.00  0.00     0.211 HD
ENDBRANCH  18  25
BRANCH  20  27
ATOM     27  O   UNL     1     149.037 132.171 125.042  1.00  0.00    -0.387 OA
ATOM     28  H   UNL     1     149.979 132.096 124.737  1.00  0.00     0.211 HD
ENDBRANCH  20  27
BRANCH  21  29
ATOM     29  C   UNL     1     148.067 130.642 122.936  1.00  0.00     0.191 C 
BRANCH  29  30
ATOM     30  O   UNL     1     146.984 129.986 122.336  1.00  0.00    -0.394 OA
ATOM     31  H   UNL     1     147.137 129.016 122.480  1.00  0.00     0.210 HD
ENDBRANCH  29  30
ENDBRANCH  21  29
ENDBRANCH   1  17
TORSDOF 13
ENDMDL
MODEL 2
REMARK VINA RESULT:    -5.498      1.630      4.329
REMARK INTER + INTRA:          -9.906
REMARK INTER:                  -7.958
REMARK INTRA:                  -1.948
REMARK UNBOUND:                -1.515
REMARK SMILES OC[C@@H]1O[C@](CO)(O[C@H]2O[C@H](CO)[C@@H](O)[C@H](O)[C@H]2O)[C@@H](O)[C@@H]1O
REMARK SMILES IDX 8 1 9 2 11 3 14 4 10 5 16 6 18 7 12 8 13 9 15 11 17 13 19 15
REMARK SMILES IDX 5 17 20 18 4 19 22 20 3 21 6 22 7 23 21 25 23 27 2 29 1 30
REMARK H PARENT 13 10 15 12 17 14 19 16 7 24 21 26 23 28 1 31
REMARK Flexibility Score: inf
ROOT
ATOM      1  O   UNL     1     146.203 129.770 124.424  1.00  0.00    -0.313 OA
ENDROOT
BRANCH   1   2
ATOM      2  C   UNL     1     146.211 131.012 125.120  1.00  0.00     0.285 C 
ATOM      3  C   UNL     1     144.390 130.366 126.462  1.00  0.00     0.178 C 
ATOM      4  C   UNL     1     145.252 130.269 127.741  1.00  0.00     0.177 C 
ATOM      5  O   UNL     1     144.909 131.346 125.576  1.00  0.00    -0.341 OA
ATOM      6  C   UNL     1     146.707 129.948 127.362  1.00  0.00     0.179 C 
ATOM      7  C   UNL     1     147.202 130.943 126.300  1.00  0.00     0.202 C 
BRANCH   3   8
ATOM      8  C   UNL     1     142.933 130.727 126.791  1.00  0.00     0.191 C 
BRANCH   8   9
ATOM      9  O   UNL     1     142.433 131.687 125.900  1.00  0.00    -0.394 OA
ATOM     10  H   UNL     1     141.493 131.434 125.703  1.00  0.00     0.210 HD
ENDBRANCH   8   9
ENDBRANCH   3   8
BRANCH   4  11
ATOM     11  O   UNL     1     144.748 129.256 128.575  1.00  0.00    -0.387 OA
ATOM     12  H   UNL     1     144.399 128.541 127.982  1.00  0.00     0.211 HD
ENDBRANCH   4  11
BRANCH   6  13
ATOM     13  O   UNL     1     147.515 130.030 128.507  1.00  0.00    -0.387 OA
ATOM     14  H   UNL     1     146.905 130.052 129.290  1.00  0.00     0.211 HD
ENDBRANCH   6  13
BRANCH   7  15
ATOM     15  O   UNL     1     148.471 130.548 125.842  1.00  0.00    -0.385 OA
ATOM     16  H   UNL     1     148.362 130.280 124.892  1.00  0.00     0.211 HD
ENDBRANCH   7  15
ENDBRANCH   1   2
BRANCH   1  17
ATOM     17  C   UNL     1     146.389 129.881 123.016  1.00  0.00     0.224 C 
ATOM     18  C   UNL     1     146.945 131.294 122.750  1.00  0.00     0.208 C 
ATOM     19  O   UNL     1     145.148 129.775 122.331  1.00  0.00    -0.337 OA
ATOM     20  C   UNL     1     146.297 131.670 121.448  1.00  0.00     0.180 C 
ATOM     21  C   UNL     1     144.966 130.921 121.526  1.00  0.00     0.179 C 
BRANCH  17  22
ATOM     22  C   UNL     1     147.358 128.788 122.485  1.00  0.00     0.225 C 
BRANCH  22  23
ATOM     23  O   UNL     1     148.309 128.445 123.456  1.00  0.00    -0.391 OA
ATOM     24  H   UNL     1     147.878 128.609 124.335  1.00  0.00     0.210 HD
ENDBRANCH  22  23
ENDBRANCH  17  22
BRANCH  18  25
ATOM     25  O   UNL     1     148.348 131.324 122.662  1.00  0.00    -0.385 OA
ATOM     26  H   UNL     1     148.572 131.286 121.696  1.00  0.00     0.211 HD
ENDBRANCH  18  25
BRANCH  20  27
ATOM     27  O   UNL     1     146.148 133.063 121.343  1.00  0.00    -0.387 OA
ATOM     28  H   UNL     1     145.775 133.235 120.439  1.00  0.00     0.211 HD
ENDBRANCH  20  27
BRANCH  21  29
ATOM     29  C   UNL     1     143.817 131.761 122.108  1.00  0.00     0.191 C 
BRANCH  29  30
ATOM     30  O   UNL     1     143.182 131.043 123.130  1.00  0.00    -0.394 OA
ATOM     31  H   UNL     1     143.291 131.584 123.956  1.00  0.00     0.210 HD
ENDBRANCH  29  30
ENDBRANCH  21  29
ENDBRANCH   1  17
TORSDOF 13
ENDMDL
MODEL 3
REMARK VINA RESULT:    -5.393      1.945      4.274
REMARK INTER + INTRA:          -9.746
REMARK INTER:                  -8.051
REMARK INTRA:                  -1.695
REMARK UNBOUND:                -1.515
REMARK SMILES OC[C@@H]1O[C@](CO)(O[C@H]2O[C@H](CO)[C@@H](O)[C@H](O)[C@H]2O)[C@@H](O)[C@@H]1O
REMARK SMILES IDX 8 1 9 2 11 3 14 4 10 5 16 6 18 7 12 8 13 9 15 11 17 13 19 15
REMARK SMILES IDX 5 17 20 18 4 19 22 20 3 21 6 22 7 23 21 25 23 27 2 29 1 30
REMARK H PARENT 13 10 15 12 17 14 19 16 7 24 21 26 23 28 1 31
REMARK Flexibility Score: inf
ROOT
ATOM      1  O   UNL     1     147.636 131.190 124.171  1.00  0.00    -0.313 OA
ENDROOT
BRANCH   1   2
ATOM      2  C   UNL     1     146.896 129.994 123.949  1.00  0.00     0.285 C 
ATOM      3  C   UNL     1     146.651 129.619 126.258  1.00  0.00     0.178 C 
ATOM      4  C   UNL     1     145.134 129.912 126.235  1.00  0.00     0.177 C 
ATOM      5  O   UNL     1     147.080 129.078 125.018  1.00  0.00    -0.341 OA
ATOM      6  C   UNL     1     144.810 130.872 125.079  1.00  0.00     0.179 C 
ATOM      7  C   UNL     1     145.402 130.331 123.768  1.00  0.00     0.202 C 
BRANCH   3   8
ATOM      8  C   UNL     1     147.016 128.629 127.375  1.00  0.00     0.191 C 
BRANCH   8   9
ATOM      9  O   UNL     1     145.888 127.918 127.814  1.00  0.00    -0.394 OA
ATOM     10  H   UNL     1     145.844 127.087 127.272  1.00  0.00     0.210 HD
ENDBRANCH   8   9
ENDBRANCH   3   8
BRANCH   4  11
ATOM     11  O   UNL     1     144.747 130.495 127.455  1.00  0.00    -0.387 OA
ATOM     12  H   UNL     1     145.466 130.299 128.109  1.00  0.00     0.211 HD
ENDBRANCH   4  11
BRANCH   6  13
ATOM     13  O   UNL     1     143.417 130.999 124.958  1.00  0.00    -0.387 OA
ATOM     14  H   UNL     1     143.135 130.401 124.218  1.00  0.00     0.211 HD
ENDBRANCH   6  13
BRANCH   7  15
ATOM     15  O   UNL     1     145.243 131.287 122.751  1.00  0.00    -0.385 OA
ATOM     16  H   UNL     1     145.778 130.973 121.975  1.00  0.00     0.211 HD
ENDBRANCH   7  15
ENDBRANCH   1   2
BRANCH   1  17
ATOM     17  C   UNL     1     148.731 131.382 123.280  1.00  0.00     0.224 C 
ATOM     18  C   UNL     1     149.233 132.823 123.496  1.00  0.00     0.208 C 
ATOM     19  O   UNL     1     148.307 131.277 121.926  1.00  0.00    -0.337 OA
ATOM     20  C   UNL     1     149.633 133.251 122.113  1.00  0.00     0.180 C 
ATOM     21  C   UNL     1     148.660 132.459 121.239  1.00  0.00     0.179 C 
BRANCH  17  22
ATOM     22  C   UNL     1     149.862 130.350 123.541  1.00  0.00     0.225 C 
BRANCH  22  23
ATOM     23  O   UNL     1     150.023 130.117 124.914  1.00  0.00    -0.391 OA
ATOM     24  H   UNL     1     150.116 131.010 125.337  1.00  0.00     0.210 HD
ENDBRANCH  22  23
ENDBRANCH  17  22
BRANCH  18  25
ATOM     25  O   UNL     1     150.308 132.901 124.399  1.00  0.00    -0.385 OA
ATOM     26  H   UNL     1     150.399 132.001 124.808  1.00  0.00     0.211 HD
ENDBRANCH  18  25
BRANCH  20  27
ATOM     27  O   UNL     1     149.515 134.642 121.960  1.00  0.00    -0.387 OA
ATOM     28  H   UNL     1     148.804 134.932 122.589  1.00  0.00     0.211 HD
ENDBRANCH  20  27
BRANCH  21  29
ATOM     29  C   UNL     1     147.377 133.231 120.887  1.00  0.00     0.191 C 
BRANCH  29  30
ATOM     30  O   UNL     1     146.461 132.365 120.276  1.00  0.00    -0.394 OA
ATOM     31  H   UNL     1     145.584 132.831 120.299  1.00  0.00     0.210 HD
ENDBRANCH  29  30
ENDBRANCH  21  29
ENDBRANCH   1  17
TORSDOF 13
ENDMDL
MODEL 4
REMARK VINA RESULT:    -5.255      3.505      6.660
REMARK INTER + INTRA:          -9.535
REMARK INTER:                  -7.855
REMARK INTRA:                  -1.680
REMARK UNBOUND:                -1.515
REMARK SMILES OC[C@@H]1O[C@](CO)(O[C@H]2O[C@H](CO)[C@@H](O)[C@H](O)[C@H]2O)[C@@H](O)[C@@H]1O
REMARK SMILES IDX 8 1 9 2 11 3 14 4 10 5 16 6 18 7 12 8 13 9 15 11 17 13 19 15
REMARK SMILES IDX 5 17 20 18 4 19 22 20 3 21 6 22 7 23 21 25 23 27 2 29 1 30
REMARK H PARENT 13 10 15 12 17 14 19 16 7 24 21 26 23 28 1 31
REMARK Flexibility Score: inf
ROOT
ATOM      1  O   UNL     1     141.685 132.987 122.486  1.00  0.00    -0.313 OA
ENDROOT
BRANCH   1   2
ATOM      2  C   UNL     1     141.860 132.636 121.117  1.00  0.00     0.285 C 
ATOM      3  C   UNL     1     141.430 134.839 120.412  1.00  0.00     0.178 C 
ATOM      4  C   UNL     1     142.891 135.077 119.970  1.00  0.00     0.177 C 
ATOM      5  O   UNL     1     141.077 133.471 120.276  1.00  0.00    -0.341 OA
ATOM      6  C   UNL     1     143.833 134.186 120.795  1.00  0.00     0.179 C 
ATOM      7  C   UNL     1     143.353 132.727 120.741  1.00  0.00     0.202 C 
BRANCH   3   8
ATOM      8  C   UNL     1     140.446 135.681 119.584  1.00  0.00     0.191 C 
BRANCH   8   9
ATOM      9  O   UNL     1     141.012 136.065 118.359  1.00  0.00    -0.394 OA
ATOM     10  H   UNL     1     140.980 135.269 117.767  1.00  0.00     0.210 HD
ENDBRANCH   8   9
ENDBRANCH   3   8
BRANCH   4  11
ATOM     11  O   UNL     1     143.229 136.428 120.164  1.00  0.00    -0.387 OA
ATOM     12  H   UNL     1     143.814 136.691 119.407  1.00  0.00     0.211 HD
ENDBRANCH   4  11
BRANCH   6  13
ATOM     13  O   UNL     1     145.134 134.280 120.275  1.00  0.00    -0.387 OA
ATOM     14  H   UNL     1     145.046 134.512 119.314  1.00  0.00     0.211 HD
ENDBRANCH   6  13
BRANCH   7  15
ATOM     15  O   UNL     1     144.120 131.947 121.623  1.00  0.00    -0.385 OA
ATOM     16  H   UNL     1     144.019 131.003 121.334  1.00  0.00     0.211 HD
ENDBRANCH   7  15
ENDBRANCH   1   2
BRANCH   1  17
ATOM     17  C   UNL     1     140.989 132.015 123.261  1.00  0.00     0.224 C 
ATOM     18  C   UNL     1     141.270 132.342 124.741  1.00  0.00     0.208 C 
ATOM     19  O   UNL     1     141.493 130.710 123.010  1.00  0.00    -0.337 OA
ATOM     20  C   UNL     1     141.353 130.984 125.375  1.00  0.00     0.180 C 
ATOM     21  C   UNL     1     141.901 130.130 124.231  1.00  0.00     0.179 C 
BRANCH  17  22
ATOM     22  C   UNL     1     139.464 132.039 122.962  1.00  0.00     0.225 C 
BRANCH  22  23
ATOM     23  O   UNL     1     139.025 133.342 122.691  1.00  0.00    -0.391 OA
ATOM     24  H   UNL     1     139.138 133.853 123.534  1.00  0.00     0.210 HD
ENDBRANCH  22  23
ENDBRANCH  17  22
BRANCH  18  25
ATOM     25  O   UNL     1     140.266 133.132 125.329  1.00  0.00    -0.385 OA
ATOM     26  H   UNL     1     140.134 133.913 124.730  1.00  0.00     0.211 HD
ENDBRANCH  18  25
BRANCH  20  27
ATOM     27  O   UNL     1     142.188 131.004 126.505  1.00  0.00    -0.387 OA
ATOM     28  H   UNL     1     142.182 130.082 126.872  1.00  0.00     0.211 HD
ENDBRANCH  20  27
BRANCH  21  29
ATOM     29  C   UNL     1     143.433 130.002 124.233  1.00  0.00     0.191 C 
BRANCH  29  30
ATOM     30  O   UNL     1     143.851 129.338 123.073  1.00  0.00    -0.394 OA
ATOM     31  H   UNL     1     144.835 129.465 123.023  1.00  0.00     0.210 HD
ENDBRANCH  29  30
ENDBRANCH  21  29
ENDBRANCH   1  17
TORSDOF 13
ENDMDL
MODEL 5
REMARK VINA RESULT:    -5.244      2.116      5.563
REMARK INTER + INTRA:          -9.518
REMARK INTER:                  -7.886
REMARK INTRA:                  -1.633
REMARK UNBOUND:                -1.515
REMARK SMILES OC[C@@H]1O[C@](CO)(O[C@H]2O[C@H](CO)[C@@H](O)[C@H](O)[C@H]2O)[C@@H](O)[C@@H]1O
REMARK SMILES IDX 8 1 9 2 11 3 14 4 10 5 16 6 18 7 12 8 13 9 15 11 17 13 19 15
REMARK SMILES IDX 5 17 20 18 4 19 22 20 3 21 6 22 7 23 21 25 23 27 2 29 1 30
REMARK H PARENT 13 10 15 12 17 14 19 16 7 24 21 26 23 28 1 31
REMARK Flexibility Score: inf
ROOT
ATOM      1  O   UNL     1     146.909 131.323 123.719  1.00  0.00    -0.313 OA
ENDROOT
BRANCH   1   2
ATOM      2  C   UNL     1     148.187 130.766 123.429  1.00  0.00     0.285 C 
ATOM      3  C   UNL     1     148.526 132.262 121.646  1.00  0.00     0.178 C 
ATOM      4  C   UNL     1     149.640 133.035 122.389  1.00  0.00     0.177 C 
ATOM      5  O   UNL     1     148.498 130.902 122.051  1.00  0.00    -0.341 OA
ATOM      6  C   UNL     1     149.424 132.921 123.907  1.00  0.00     0.179 C 
ATOM      7  C   UNL     1     149.262 131.444 124.303  1.00  0.00     0.202 C 
BRANCH   3   8
ATOM      8  C   UNL     1     148.725 132.315 120.124  1.00  0.00     0.191 C 
BRANCH   8   9
ATOM      9  O   UNL     1     148.433 133.590 119.617  1.00  0.00    -0.394 OA
ATOM     10  H   UNL     1     147.588 133.883 120.046  1.00  0.00     0.210 HD
ENDBRANCH   8   9
ENDBRANCH   3   8
BRANCH   4  11
ATOM     11  O   UNL     1     149.610 134.388 122.009  1.00  0.00    -0.387 OA
ATOM     12  H   UNL     1     149.602 134.922 122.846  1.00  0.00     0.211 HD
ENDBRANCH   4  11
BRANCH   6  13
ATOM     13  O   UNL     1     150.527 133.476 124.576  1.00  0.00    -0.387 OA
ATOM     14  H   UNL     1     150.495 133.145 125.511  1.00  0.00     0.211 HD
ENDBRANCH   6  13
BRANCH   7  15
ATOM     15  O   UNL     1     148.907 131.357 125.659  1.00  0.00    -0.385 OA
ATOM     16  H   UNL     1     149.472 130.646 126.059  1.00  0.00     0.211 HD
ENDBRANCH   7  15
ENDBRANCH   1   2
BRANCH   1  17
ATOM     17  C   UNL     1     145.926 130.372 124.117  1.00  0.00     0.224 C 
ATOM     18  C   UNL     1     144.696 131.173 124.587  1.00  0.00     0.208 C 
ATOM     19  O   UNL     1     146.382 129.604 125.224  1.00  0.00    -0.337 OA
ATOM     20  C   UNL     1     144.172 130.348 125.727  1.00  0.00     0.180 C 
ATOM     21  C   UNL     1     145.451 129.718 126.280  1.00  0.00     0.179 C 
BRANCH  17  22
ATOM     22  C   UNL     1     145.559 129.415 122.950  1.00  0.00     0.225 C 
BRANCH  22  23
ATOM     23  O   UNL     1     145.342 130.129 121.763  1.00  0.00    -0.391 OA
ATOM     24  H   UNL     1     146.229 130.476 121.484  1.00  0.00     0.210 HD
ENDBRANCH  22  23
ENDBRANCH  17  22
BRANCH  18  25
ATOM     25  O   UNL     1     143.732 131.340 123.577  1.00  0.00    -0.385 OA
ATOM     26  H   UNL     1     142.983 130.727 123.797  1.00  0.00     0.211 HD
ENDBRANCH  18  25
BRANCH  20  27
ATOM     27  O   UNL     1     143.496 131.149 126.661  1.00  0.00    -0.387 OA
ATOM     28  H   UNL     1     142.530 131.075 126.444  1.00  0.00     0.211 HD
ENDBRANCH  20  27
BRANCH  21  29
ATOM     29  C   UNL     1     146.093 130.523 127.422  1.00  0.00     0.191 C 
BRANCH  29  30
ATOM     30  O   UNL     1     147.350 129.986 127.727  1.00  0.00    -0.394 OA
ATOM     31  H   UNL     1     147.257 129.553 128.615  1.00  0.00     0.210 HD
ENDBRANCH  29  30
ENDBRANCH  21  29
ENDBRANCH   1  17
TORSDOF 13
ENDMDL
MODEL 6
REMARK VINA RESULT:    -5.157      3.086      6.837
REMARK INTER + INTRA:          -9.385
REMARK INTER:                  -7.718
REMARK INTRA:                  -1.667
REMARK UNBOUND:                -1.515
REMARK SMILES OC[C@@H]1O[C@](CO)(O[C@H]2O[C@H](CO)[C@@H](O)[C@H](O)[C@H]2O)[C@@H](O)[C@@H]1O
REMARK SMILES IDX 8 1 9 2 11 3 14 4 10 5 16 6 18 7 12 8 13 9 15 11 17 13 19 15
REMARK SMILES IDX 5 17 20 18 4 19 22 20 3 21 6 22 7 23 21 25 23 27 2 29 1 30
REMARK H PARENT 13 10 15 12 17 14 19 16 7 24 21 26 23 28 1 31
REMARK Flexibility Score: inf
ROOT
ATOM      1  O   UNL     1     141.646 132.428 124.235  1.00  0.00    -0.313 OA
ENDROOT
BRANCH   1   2
ATOM      2  C   UNL     1     141.668 131.005 124.242  1.00  0.00     0.285 C 
ATOM      3  C   UNL     1     143.875 130.952 123.430  1.00  0.00     0.178 C 
ATOM      4  C   UNL     1     144.448 130.421 124.764  1.00  0.00     0.177 C 
ATOM      5  O   UNL     1     142.541 130.507 123.240  1.00  0.00    -0.341 OA
ATOM      6  C   UNL     1     143.550 130.871 125.928  1.00  0.00     0.179 C 
ATOM      7  C   UNL     1     142.088 130.495 125.636  1.00  0.00     0.202 C 
BRANCH   3   8
ATOM      8  C   UNL     1     144.720 130.492 122.232  1.00  0.00     0.191 C 
BRANCH   8   9
ATOM      9  O   UNL     1     145.377 129.284 122.507  1.00  0.00    -0.394 OA
ATOM     10  H   UNL     1     144.951 128.904 123.320  1.00  0.00     0.210 HD
ENDBRANCH   8   9
ENDBRANCH   3   8
BRANCH   4  11
ATOM     11  O   UNL     1     145.748 130.921 124.952  1.00  0.00    -0.387 OA
ATOM     12  H   UNL     1     145.662 131.897 125.111  1.00  0.00     0.211 HD
ENDBRANCH   4  11
BRANCH   6  13
ATOM     13  O   UNL     1     143.976 130.246 127.111  1.00  0.00    -0.387 OA
ATOM     14  H   UNL     1     144.888 129.893 126.940  1.00  0.00     0.211 HD
ENDBRANCH   6  13
BRANCH   7  15
ATOM     15  O   UNL     1     141.255 131.048 126.623  1.00  0.00    -0.385 OA
ATOM     16  H   UNL     1     141.488 132.011 126.689  1.00  0.00     0.211 HD
ENDBRANCH   7  15
ENDBRANCH   1   2
BRANCH   1  17
ATOM     17  C   UNL     1     140.430 132.998 123.761  1.00  0.00     0.224 C 
ATOM     18  C   UNL     1     140.320 134.401 124.391  1.00  0.00     0.208 C 
ATOM     19  O   UNL     1     139.309 132.244 124.204  1.00  0.00    -0.337 OA
ATOM     20  C   UNL     1     138.847 134.543 124.643  1.00  0.00     0.180 C 
ATOM     21  C   UNL     1     138.427 133.096 124.904  1.00  0.00     0.179 C 
BRANCH  17  22
ATOM     22  C   UNL     1     140.409 133.078 122.209  1.00  0.00     0.225 C 
BRANCH  22  23
ATOM     23  O   UNL     1     141.708 133.188 121.694  1.00  0.00    -0.391 OA
ATOM     24  H   UNL     1     141.973 134.137 121.812  1.00  0.00     0.210 HD
ENDBRANCH  22  23
ENDBRANCH  17  22
BRANCH  18  25
ATOM     25  O   UNL     1     140.807 135.419 123.552  1.00  0.00    -0.385 OA
ATOM     26  H   UNL     1     140.467 135.222 122.641  1.00  0.00     0.211 HD
ENDBRANCH  18  25
BRANCH  20  27
ATOM     27  O   UNL     1     138.600 135.401 125.727  1.00  0.00    -0.387 OA
ATOM     28  H   UNL     1     138.090 134.869 126.392  1.00  0.00     0.211 HD
ENDBRANCH  20  27
BRANCH  21  29
ATOM     29  C   UNL     1     138.438 132.708 126.392  1.00  0.00     0.191 C 
BRANCH  29  30
ATOM     30  O   UNL     1     138.448 131.313 126.514  1.00  0.00    -0.394 OA
ATOM     31  H   UNL     1     139.361 131.070 126.820  1.00  0.00     0.210 HD
ENDBRANCH  29  30
ENDBRANCH  21  29
ENDBRANCH   1  17
TORSDOF 13
ENDMDL
MODEL 7
REMARK VINA RESULT:    -5.150      1.743      4.280
REMARK INTER + INTRA:          -9.375
REMARK INTER:                  -7.667
REMARK INTRA:                  -1.707
REMARK UNBOUND:                -1.515
REMARK SMILES OC[C@@H]1O[C@](CO)(O[C@H]2O[C@H](CO)[C@@H](O)[C@H](O)[C@H]2O)[C@@H](O)[C@@H]1O
REMARK SMILES IDX 8 1 9 2 11 3 14 4 10 5 16 6 18 7 12 8 13 9 15 11 17 13 19 15
REMARK SMILES IDX 5 17 20 18 4 19 22 20 3 21 6 22 7 23 21 25 23 27 2 29 1 30
REMARK H PARENT 13 10 15 12 17 14 19 16 7 24 21 26 23 28 1 31
REMARK Flexibility Score: inf
ROOT
ATOM      1  O   UNL     1     147.056 131.256 124.127  1.00  0.00    -0.313 OA
ENDROOT
BRANCH   1   2
ATOM      2  C   UNL     1     146.302 130.061 123.953  1.00  0.00     0.285 C 
ATOM      3  C   UNL     1     145.463 130.171 126.148  1.00  0.00     0.178 C 
ATOM      4  C   UNL     1     144.027 130.495 125.678  1.00  0.00     0.177 C 
ATOM      5  O   UNL     1     146.143 129.378 125.187  1.00  0.00    -0.341 OA
ATOM      6  C   UNL     1     144.076 131.208 124.317  1.00  0.00     0.179 C 
ATOM      7  C   UNL     1     144.931 130.394 123.331  1.00  0.00     0.202 C 
BRANCH   3   8
ATOM      8  C   UNL     1     145.461 129.420 127.488  1.00  0.00     0.191 C 
BRANCH   8   9
ATOM      9  O   UNL     1     146.180 128.219 127.400  1.00  0.00    -0.394 OA
ATOM     10  H   UNL     1     145.604 127.511 127.790  1.00  0.00     0.210 HD
ENDBRANCH   8   9
ENDBRANCH   3   8
BRANCH   4  11
ATOM     11  O   UNL     1     143.397 131.324 126.622  1.00  0.00    -0.387 OA
ATOM     12  H   UNL     1     142.419 131.192 126.516  1.00  0.00     0.211 HD
ENDBRANCH   4  11
BRANCH   6  13
ATOM     13  O   UNL     1     142.771 131.345 123.817  1.00  0.00    -0.387 OA
ATOM     14  H   UNL     1     142.179 131.509 124.597  1.00  0.00     0.211 HD
ENDBRANCH   6  13
BRANCH   7  15
ATOM     15  O   UNL     1     145.104 131.126 122.145  1.00  0.00    -0.385 OA
ATOM     16  H   UNL     1     145.192 132.080 122.406  1.00  0.00     0.211 HD
ENDBRANCH   7  15
ENDBRANCH   1   2
BRANCH   1  17
ATOM     17  C   UNL     1     148.388 131.193 123.627  1.00  0.00     0.224 C 
ATOM     18  C   UNL     1     148.355 130.280 122.386  1.00  0.00     0.208 C 
ATOM     19  O   UNL     1     149.258 130.590 124.576  1.00  0.00    -0.337 OA
ATOM     20  C   UNL     1     149.667 129.554 122.467  1.00  0.00     0.180 C 
ATOM     21  C   UNL     1     149.901 129.485 123.976  1.00  0.00     0.179 C 
BRANCH  17  22
ATOM     22  C   UNL     1     148.926 132.606 123.269  1.00  0.00     0.225 C 
BRANCH  22  23
ATOM     23  O   UNL     1     147.982 133.330 122.527  1.00  0.00    -0.391 OA
ATOM     24  H   UNL     1     147.591 133.995 123.152  1.00  0.00     0.210 HD
ENDBRANCH  22  23
ENDBRANCH  17  22
BRANCH  18  25
ATOM     25  O   UNL     1     148.228 130.995 121.181  1.00  0.00    -0.385 OA
ATOM     26  H   UNL     1     149.011 131.602 121.129  1.00  0.00     0.211 HD
ENDBRANCH  18  25
BRANCH  20  27
ATOM     27  O   UNL     1     149.585 128.292 121.856  1.00  0.00    -0.387 OA
ATOM     28  H   UNL     1     148.851 128.352 121.191  1.00  0.00     0.211 HD
ENDBRANCH  20  27
BRANCH  21  29
ATOM     29  C   UNL     1     149.377 128.193 124.625  1.00  0.00     0.191 C 
BRANCH  29  30
ATOM     30  O   UNL     1     148.786 128.493 125.859  1.00  0.00    -0.394 OA
ATOM     31  H   UNL     1     147.929 128.949 125.650  1.00  0.00     0.210 HD
ENDBRANCH  29  30
ENDBRANCH  21  29
ENDBRANCH   1  17
TORSDOF 13
ENDMDL
MODEL 8
REMARK VINA RESULT:    -5.134      1.989      3.147
REMARK INTER + INTRA:          -9.350
REMARK INTER:                  -7.449
REMARK INTRA:                  -1.901
REMARK UNBOUND:                -1.515
REMARK SMILES OC[C@@H]1O[C@](CO)(O[C@H]2O[C@H](CO)[C@@H](O)[C@H](O)[C@H]2O)[C@@H](O)[C@@H]1O
REMARK SMILES IDX 8 1 9 2 11 3 14 4 10 5 16 6 18 7 12 8 13 9 15 11 17 13 19 15
REMARK SMILES IDX 5 17 20 18 4 19 22 20 3 21 6 22 7 23 21 25 23 27 2 29 1 30
REMARK H PARENT 13 10 15 12 17 14 19 16 7 24 21 26 23 28 1 31
REMARK Flexibility Score: inf
ROOT
ATOM      1  O   UNL     1     148.128 129.834 123.861  1.00  0.00    -0.313 OA
ENDROOT
BRANCH   1   2
ATOM      2  C   UNL     1     147.544 131.056 124.297  1.00  0.00     0.285 C 
ATOM      3  C   UNL     1     145.571 130.644 123.086  1.00  0.00     0.178 C 
ATOM      4  C   UNL     1     144.728 130.421 124.362  1.00  0.00     0.177 C 
ATOM      5  O   UNL     1     146.630 131.555 123.332  1.00  0.00    -0.341 OA
ATOM      6  C   UNL     1     145.632 129.915 125.497  1.00  0.00     0.179 C 
ATOM      7  C   UNL     1     146.844 130.846 125.655  1.00  0.00     0.202 C 
BRANCH   3   8
ATOM      8  C   UNL     1     144.714 131.190 121.933  1.00  0.00     0.191 C 
BRANCH   8   9
ATOM      9  O   UNL     1     145.453 132.059 121.117  1.00  0.00    -0.394 OA
ATOM     10  H   UNL     1     146.411 131.857 121.277  1.00  0.00     0.210 HD
ENDBRANCH   8   9
ENDBRANCH   3   8
BRANCH   4  11
ATOM     11  O   UNL     1     143.720 129.476 124.104  1.00  0.00    -0.387 OA
ATOM     12  H   UNL     1     143.677 129.362 123.119  1.00  0.00     0.211 HD
ENDBRANCH   4  11
BRANCH   6  13
ATOM     13  O   UNL     1     144.898 129.878 126.694  1.00  0.00    -0.387 OA
ATOM     14  H   UNL     1     143.937 129.866 126.444  1.00  0.00     0.211 HD
ENDBRANCH   6  13
BRANCH   7  15
ATOM     15  O   UNL     1     147.745 130.292 126.581  1.00  0.00    -0.385 OA
ATOM     16  H   UNL     1     148.002 129.399 126.232  1.00  0.00     0.211 HD
ENDBRANCH   7  15
ENDBRANCH   1   2
BRANCH   1  17
ATOM     17  C   UNL     1     149.522 129.911 123.582  1.00  0.00     0.224 C 
ATOM     18  C   UNL     1     150.002 131.287 124.083  1.00  0.00     0.208 C 
ATOM     19  O   UNL     1     149.763 129.860 122.181  1.00  0.00    -0.337 OA
ATOM     20  C   UNL     1     151.033 131.676 123.064  1.00  0.00     0.180 C 
ATOM     21  C   UNL     1     150.503 131.001 121.799  1.00  0.00     0.179 C 
BRANCH  17  22
ATOM     22  C   UNL     1     150.303 128.759 124.274  1.00  0.00     0.225 C 
BRANCH  22  23
ATOM     23  O   UNL     1     149.568 128.224 125.341  1.00  0.00    -0.391 OA
ATOM     24  H   UNL     1     149.937 128.636 126.165  1.00  0.00     0.210 HD
ENDBRANCH  22  23
ENDBRANCH  17  22
BRANCH  18  25
ATOM     25  O   UNL     1     150.542 131.241 125.381  1.00  0.00    -0.385 OA
ATOM     26  H   UNL     1     151.522 131.127 125.275  1.00  0.00     0.211 HD
ENDBRANCH  18  25
BRANCH  20  27
ATOM     27  O   UNL     1     151.131 133.073 122.952  1.00  0.00    -0.387 OA
ATOM     28  H   UNL     1     152.091 133.295 123.070  1.00  0.00     0.211 HD
ENDBRANCH  20  27
BRANCH  21  29
ATOM     29  C   UNL     1     149.606 131.910 120.942  1.00  0.00     0.191 C 
BRANCH  29  30
ATOM     30  O   UNL     1     148.306 131.391 120.909  1.00  0.00    -0.394 OA
ATOM     31  H   UNL     1     147.764 131.967 121.511  1.00  0.00     0.210 HD
ENDBRANCH  29  30
ENDBRANCH  21  29
ENDBRANCH   1  17
TORSDOF 13
ENDMDL
MODEL 9
REMARK VINA RESULT:    -5.073      3.613      6.541
REMARK INTER + INTRA:          -9.257
REMARK INTER:                  -8.277
REMARK INTRA:                  -0.980
REMARK UNBOUND:                -1.515
REMARK SMILES OC[C@@H]1O[C@](CO)(O[C@H]2O[C@H](CO)[C@@H](O)[C@H](O)[C@H]2O)[C@@H](O)[C@@H]1O
REMARK SMILES IDX 8 1 9 2 11 3 14 4 10 5 16 6 18 7 12 8 13 9 15 11 17 13 19 15
REMARK SMILES IDX 5 17 20 18 4 19 22 20 3 21 6 22 7 23 21 25 23 27 2 29 1 30
REMARK H PARENT 13 10 15 12 17 14 19 16 7 24 21 26 23 28 1 31
REMARK Flexibility Score: inf
ROOT
ATOM      1  O   UNL     1     141.608 132.685 122.751  1.00  0.00    -0.313 OA
ENDROOT
BRANCH   1   2
ATOM      2  C   UNL     1     140.533 133.184 121.963  1.00  0.00     0.285 C 
ATOM      3  C   UNL     1     140.211 135.012 123.407  1.00  0.00     0.178 C 
ATOM      4  C   UNL     1     140.724 136.036 122.369  1.00  0.00     0.177 C 
ATOM      5  O   UNL     1     139.606 133.901 122.764  1.00  0.00    -0.341 OA
ATOM      6  C   UNL     1     141.715 135.352 121.414  1.00  0.00     0.179 C 
ATOM      7  C   UNL     1     141.084 134.076 120.832  1.00  0.00     0.202 C 
BRANCH   3   8
ATOM      8  C   UNL     1     139.185 135.643 124.361  1.00  0.00     0.191 C 
BRANCH   8   9
ATOM      9  O   UNL     1     139.274 135.087 125.645  1.00  0.00    -0.394 OA
ATOM     10  H   UNL     1     138.487 135.412 126.154  1.00  0.00     0.210 HD
ENDBRANCH   8   9
ENDBRANCH   3   8
BRANCH   4  11
ATOM     11  O   UNL     1     141.364 137.099 123.031  1.00  0.00    -0.387 OA
ATOM     12  H   UNL     1     142.207 137.279 122.538  1.00  0.00     0.211 HD
ENDBRANCH   4  11
BRANCH   6  13
ATOM     13  O   UNL     1     142.044 136.238 120.375  1.00  0.00    -0.387 OA
ATOM     14  H   UNL     1     141.193 136.624 120.043  1.00  0.00     0.211 HD
ENDBRANCH   6  13
BRANCH   7  15
ATOM     15  O   UNL     1     142.047 133.373 120.089  1.00  0.00    -0.385 OA
ATOM     16  H   UNL     1     141.601 133.069 119.256  1.00  0.00     0.211 HD
ENDBRANCH   7  15
ENDBRANCH   1   2
BRANCH   1  17
ATOM     17  C   UNL     1     141.296 131.518 123.507  1.00  0.00     0.224 C 
ATOM     18  C   UNL     1     141.412 131.907 124.994  1.00  0.00     0.208 C 
ATOM     19  O   UNL     1     142.243 130.487 123.261  1.00  0.00    -0.337 OA
ATOM     20  C   UNL     1     141.970 130.663 125.624  1.00  0.00     0.180 C 
ATOM     21  C   UNL     1     142.810 130.078 124.488  1.00  0.00     0.179 C 
BRANCH  17  22
ATOM     22  C   UNL     1     139.872 130.993 123.174  1.00  0.00     0.225 C 
BRANCH  22  23
ATOM     23  O   UNL     1     139.864 129.595 123.069  1.00  0.00    -0.391 OA
ATOM     24  H   UNL     1     140.762 129.291 123.362  1.00  0.00     0.210 HD
ENDBRANCH  22  23
ENDBRANCH  17  22
BRANCH  18  25
ATOM     25  O   UNL     1     140.180 132.273 125.564  1.00  0.00    -0.385 OA
ATOM     26  H   UNL     1     139.836 131.470 126.034  1.00  0.00     0.211 HD
ENDBRANCH  18  25
BRANCH  20  27
ATOM     27  O   UNL     1     142.719 130.970 126.771  1.00  0.00    -0.387 OA
ATOM     28  H   UNL     1     142.209 131.670 127.258  1.00  0.00     0.211 HD
ENDBRANCH  20  27
BRANCH  21  29
ATOM     29  C   UNL     1     144.285 130.514 124.523  1.00  0.00     0.191 C 
BRANCH  29  30
ATOM     30  O   UNL     1     145.003 129.671 125.381  1.00  0.00    -0.394 OA
ATOM     31  H   UNL     1     144.991 128.773 124.958  1.00  0.00     0.210 HD
ENDBRANCH  29  30
ENDBRANCH  21  29
ENDBRANCH   1  17
TORSDOF 13
ENDMDL
