MODEL 1
REMARK VINA RESULT:    -1.418      0.000      0.000
REMARK INTER + INTRA:          -1.117
REMARK INTER:                  -1.709
REMARK INTRA:                   0.591
REMARK UNBOUND:                 0.591
REMARK SMILES O=c1c(O)c(-c2ccc(O)cc2O)oc2cc(O)cc(O)c12
REMARK SMILES IDX 5 1 3 2 2 3 1 4 22 5 20 6 19 7 17 8 16 9 15 10 14 11 6 12
REMARK SMILES IDX 8 13 7 14 9 15 11 16 12 17 10 18 13 20 4 22 21 24 18 26
REMARK H PARENT 10 19 13 21 4 23 21 25 18 27
REMARK Flexibility Score: inf
ROOT
ATOM      1  C   UNL     1      76.496  33.425  52.274  1.00  0.00     0.184 A 
ATOM      2  C   UNL     1      77.315  32.380  52.728  1.00  0.00     0.208 A 
ATOM      3  C   UNL     1      78.620  32.269  52.223  1.00  0.00     0.238 A 
ATOM      4  O   UNL     1      79.322  31.287  52.578  1.00  0.00    -0.285 OA
ATOM      5  C   UNL     1      79.107  33.238  51.314  1.00  0.00     0.111 A 
ATOM      6  C   UNL     1      80.429  33.251  50.770  1.00  0.00     0.134 A 
ATOM      7  C   UNL     1      80.766  34.199  49.796  1.00  0.00     0.093 A 
ATOM      8  C   UNL     1      79.851  35.174  49.393  1.00  0.00     0.123 A 
ATOM      9  C   UNL     1      78.578  35.205  49.956  1.00  0.00     0.094 A 
ATOM     10  C   UNL     1      78.199  34.249  50.902  1.00  0.00     0.146 A 
ATOM     11  O   UNL     1      76.967  34.302  51.397  1.00  0.00    -0.451 OA
ENDROOT
BRANCH   1  12
ATOM     12  C   UNL     1      75.110  33.594  52.759  1.00  0.00     0.063 A 
ATOM     13  C   UNL     1      73.259  32.749  54.089  1.00  0.00     0.047 A 
ATOM     14  C   UNL     1      74.564  32.617  53.607  1.00  0.00     0.020 A 
ATOM     15  C   UNL     1      72.490  33.863  53.743  1.00  0.00     0.119 A 
ATOM     16  C   UNL     1      73.035  34.854  52.917  1.00  0.00     0.093 A 
ATOM     17  C   UNL     1      74.346  34.733  52.433  1.00  0.00     0.130 A 
BRANCH  15  18
ATOM     18  O   UNL     1      71.190  33.978  54.228  1.00  0.00    -0.508 OA
ATOM     19  H   UNL     1      70.792  34.878  54.472  1.00  0.00     0.293 HD
ENDBRANCH  15  18
BRANCH  17  20
ATOM     20  O   UNL     1      74.894  35.750  51.651  1.00  0.00    -0.507 OA
ATOM     21  H   UNL     1      75.370  36.542  52.066  1.00  0.00     0.293 HD
ENDBRANCH  17  20
ENDBRANCH   1  12
BRANCH   2  22
ATOM     22  O   UNL     1      76.833  31.478  53.681  1.00  0.00    -0.502 OA
ATOM     23  H   UNL     1      76.045  31.693  54.281  1.00  0.00     0.293 HD
ENDBRANCH   2  22
BRANCH   6  24
ATOM     24  O   UNL     1      81.447  32.378  51.167  1.00  0.00    -0.507 OA
ATOM     25  H   UNL     1      81.605  31.461  50.782  1.00  0.00     0.293 HD
ENDBRANCH   6  24
BRANCH   8  26
ATOM     26  O   UNL     1      80.202  36.125  48.436  1.00  0.00    -0.508 OA
ATOM     27  H   UNL     1      79.543  36.436  47.732  1.00  0.00     0.293 HD
ENDBRANCH   8  26
TORSDOF 6
ENDMDL
MODEL 2
REMARK VINA RESULT:    -1.145      2.324      7.927
REMARK INTER + INTRA:          -0.787
REMARK INTER:                  -0.412
REMARK INTRA:                  -0.376
REMARK UNBOUND:                 0.591
REMARK SMILES O=c1c(O)c(-c2ccc(O)cc2O)oc2cc(O)cc(O)c12
REMARK SMILES IDX 5 1 3 2 2 3 1 4 22 5 20 6 19 7 17 8 16 9 15 10 14 11 6 12
REMARK SMILES IDX 8 13 7 14 9 15 11 16 12 17 10 18 13 20 4 22 21 24 18 26
REMARK H PARENT 10 19 13 21 4 23 21 25 18 27
REMARK Flexibility Score: inf
ROOT
ATOM      1  C   UNL     1      74.082  34.074  53.551  1.00  0.00     0.184 A 
ATOM      2  C   UNL     1      72.833  34.317  52.958  1.00  0.00     0.208 A 
ATOM      3  C   UNL     1      71.671  34.161  53.729  1.00  0.00     0.238 A 
ATOM      4  O   UNL     1      70.552  34.308  53.171  1.00  0.00    -0.285 OA
ATOM      5  C   UNL     1      71.776  33.818  55.099  1.00  0.00     0.111 A 
ATOM      6  C   UNL     1      70.667  33.675  55.988  1.00  0.00     0.134 A 
ATOM      7  C   UNL     1      70.886  33.229  57.297  1.00  0.00     0.093 A 
ATOM      8  C   UNL     1      72.177  32.981  57.769  1.00  0.00     0.123 A 
ATOM      9  C   UNL     1      73.269  33.170  56.926  1.00  0.00     0.094 A 
ATOM     10  C   UNL     1      73.081  33.578  55.603  1.00  0.00     0.146 A 
ATOM     11  O   UNL     1      74.150  33.724  54.828  1.00  0.00    -0.451 OA
ENDROOT
BRANCH   1  12
ATOM     12  C   UNL     1      75.343  34.214  52.792  1.00  0.00     0.063 A 
ATOM     13  C   UNL     1      76.911  35.653  51.619  1.00  0.00     0.047 A 
ATOM     14  C   UNL     1      75.723  35.485  52.334  1.00  0.00     0.020 A 
ATOM     15  C   UNL     1      77.741  34.558  51.366  1.00  0.00     0.119 A 
ATOM     16  C   UNL     1      77.382  33.289  51.840  1.00  0.00     0.093 A 
ATOM     17  C   UNL     1      76.193  33.112  52.563  1.00  0.00     0.130 A 
BRANCH  15  18
ATOM     18  O   UNL     1      78.921  34.741  50.649  1.00  0.00    -0.508 OA
ATOM     19  H   UNL     1      79.755  35.116  51.087  1.00  0.00     0.293 HD
ENDBRANCH  15  18
BRANCH  17  20
ATOM     20  O   UNL     1      75.870  31.854  53.071  1.00  0.00    -0.507 OA
ATOM     21  H   UNL     1      75.115  31.726  53.734  1.00  0.00     0.293 HD
ENDBRANCH  17  20
ENDBRANCH   1  12
BRANCH   2  22
ATOM     22  O   UNL     1      72.761  34.724  51.623  1.00  0.00    -0.502 OA
ATOM     23  H   UNL     1      72.325  35.596  51.343  1.00  0.00     0.293 HD
ENDBRANCH   2  22
BRANCH   6  24
ATOM     24  O   UNL     1      69.346  33.981  55.647  1.00  0.00    -0.507 OA
ATOM     25  H   UNL     1      68.740  33.392  55.099  1.00  0.00     0.293 HD
ENDBRANCH   6  24
BRANCH   8  26
ATOM     26  O   UNL     1      72.385  32.554  59.079  1.00  0.00    -0.508 OA
ATOM     27  H   UNL     1      72.681  31.608  59.287  1.00  0.00     0.293 HD
ENDBRANCH   8  26
TORSDOF 6
ENDMDL
MODEL 3
REMARK VINA RESULT:    -0.306     13.867     15.298
REMARK INTER + INTRA:           0.222
REMARK INTER:                   0.359
REMARK INTRA:                  -0.137
REMARK UNBOUND:                 0.591
REMARK SMILES O=c1c(O)c(-c2ccc(O)cc2O)oc2cc(O)cc(O)c12
REMARK SMILES IDX 5 1 3 2 2 3 1 4 22 5 20 6 19 7 17 8 16 9 15 10 14 11 6 12
REMARK SMILES IDX 8 13 7 14 9 15 11 16 12 17 10 18 13 20 4 22 21 24 18 26
REMARK H PARENT 10 19 13 21 4 23 21 25 18 27
REMARK Flexibility Score: inf
ROOT
ATOM      1  C   UNL     1      85.179  31.524  64.455  1.00  0.00     0.184 A 
ATOM      2  C   UNL     1      86.159  32.006  65.337  1.00  0.00     0.208 A 
ATOM      3  C   UNL     1      86.705  33.280  65.117  1.00  0.00     0.238 A 
ATOM      4  O   UNL     1      87.635  33.675  65.867  1.00  0.00    -0.285 OA
ATOM      5  C   UNL     1      86.224  34.077  64.051  1.00  0.00     0.111 A 
ATOM      6  C   UNL     1      86.674  35.402  63.759  1.00  0.00     0.134 A 
ATOM      7  C   UNL     1      86.202  36.055  62.614  1.00  0.00     0.093 A 
ATOM      8  C   UNL     1      85.249  35.458  61.784  1.00  0.00     0.123 A 
ATOM      9  C   UNL     1      84.764  34.189  62.090  1.00  0.00     0.094 A 
ATOM     10  C   UNL     1      85.243  33.496  63.204  1.00  0.00     0.146 A 
ATOM     11  O   UNL     1      84.769  32.279  63.445  1.00  0.00    -0.451 OA
ENDROOT
BRANCH   1  12
ATOM     12  C   UNL     1      84.569  30.189  64.627  1.00  0.00     0.063 A 
ATOM     13  C   UNL     1      84.858  27.814  65.057  1.00  0.00     0.047 A 
ATOM     14  C   UNL     1      85.403  29.089  64.884  1.00  0.00     0.020 A 
ATOM     15  C   UNL     1      83.475  27.624  64.990  1.00  0.00     0.119 A 
ATOM     16  C   UNL     1      82.634  28.719  64.756  1.00  0.00     0.093 A 
ATOM     17  C   UNL     1      83.171  30.004  64.586  1.00  0.00     0.130 A 
BRANCH  15  18
ATOM     18  O   UNL     1      82.948  26.346  65.160  1.00  0.00    -0.508 OA
ATOM     19  H   UNL     1      82.198  26.166  65.818  1.00  0.00     0.293 HD
ENDBRANCH  15  18
BRANCH  17  20
ATOM     20  O   UNL     1      82.320  31.094  64.403  1.00  0.00    -0.507 OA
ATOM     21  H   UNL     1      82.598  32.034  64.656  1.00  0.00     0.293 HD
ENDBRANCH  17  20
ENDBRANCH   1  12
BRANCH   2  22
ATOM     22  O   UNL     1      86.564  31.227  66.424  1.00  0.00    -0.502 OA
ATOM     23  H   UNL     1      87.060  31.618  67.217  1.00  0.00     0.293 HD
ENDBRANCH   2  22
BRANCH   6  24
ATOM     24  O   UNL     1      87.556  36.125  64.568  1.00  0.00    -0.507 OA
ATOM     25  H   UNL     1      87.971  35.782  65.420  1.00  0.00     0.293 HD
ENDBRANCH   6  24
BRANCH   8  26
ATOM     26  O   UNL     1      84.772  36.123  60.657  1.00  0.00    -0.508 OA
ATOM     27  H   UNL     1      84.757  35.679  59.746  1.00  0.00     0.293 HD
ENDBRANCH   8  26
TORSDOF 6
ENDMDL
MODEL 4
REMARK VINA RESULT:    -0.010      1.616      7.073
REMARK INTER + INTRA:           0.580
REMARK INTER:                   0.635
REMARK INTRA:                  -0.056
REMARK UNBOUND:                 0.591
REMARK SMILES O=c1c(O)c(-c2ccc(O)cc2O)oc2cc(O)cc(O)c12
REMARK SMILES IDX 5 1 3 2 2 3 1 4 22 5 20 6 19 7 17 8 16 9 15 10 14 11 6 12
REMARK SMILES IDX 8 13 7 14 9 15 11 16 12 17 10 18 13 20 4 22 21 24 18 26
REMARK H PARENT 10 19 13 21 4 23 21 25 18 27
REMARK Flexibility Score: inf
ROOT
ATOM      1  C   UNL     1      76.613  34.019  52.176  1.00  0.00     0.184 A 
ATOM      2  C   UNL     1      76.054  35.005  51.347  1.00  0.00     0.208 A 
ATOM      3  C   UNL     1      74.686  35.294  51.461  1.00  0.00     0.238 A 
ATOM      4  O   UNL     1      74.176  36.125  50.664  1.00  0.00    -0.285 OA
ATOM      5  C   UNL     1      73.906  34.635  52.442  1.00  0.00     0.111 A 
ATOM      6  C   UNL     1      72.519  34.880  52.677  1.00  0.00     0.134 A 
ATOM      7  C   UNL     1      71.825  34.091  53.603  1.00  0.00     0.093 A 
ATOM      8  C   UNL     1      72.482  33.108  54.348  1.00  0.00     0.123 A 
ATOM      9  C   UNL     1      73.846  32.898  54.165  1.00  0.00     0.094 A 
ATOM     10  C   UNL     1      74.558  33.643  53.222  1.00  0.00     0.146 A 
ATOM     11  O   UNL     1      75.853  33.394  53.065  1.00  0.00    -0.451 OA
ENDROOT
BRANCH   1  12
ATOM     12  C   UNL     1      78.045  33.662  52.101  1.00  0.00     0.063 A 
ATOM     13  C   UNL     1      80.359  34.385  51.922  1.00  0.00     0.047 A 
ATOM     14  C   UNL     1      78.997  34.688  51.989  1.00  0.00     0.020 A 
ATOM     15  C   UNL     1      80.789  33.056  51.980  1.00  0.00     0.119 A 
ATOM     16  C   UNL     1      79.848  32.027  52.115  1.00  0.00     0.093 A 
ATOM     17  C   UNL     1      78.478  32.322  52.189  1.00  0.00     0.130 A 
BRANCH  15  18
ATOM     18  O   UNL     1      82.149  32.770  51.908  1.00  0.00    -0.508 OA
ATOM     19  H   UNL     1      82.485  31.836  51.701  1.00  0.00     0.293 HD
ENDBRANCH  15  18
BRANCH  17  20
ATOM     20  O   UNL     1      77.555  31.293  52.372  1.00  0.00    -0.507 OA
ATOM     21  H   UNL     1      76.778  31.384  53.015  1.00  0.00     0.293 HD
ENDBRANCH  17  20
ENDBRANCH   1  12
BRANCH   2  22
ATOM     22  O   UNL     1      76.862  35.692  50.436  1.00  0.00    -0.502 OA
ATOM     23  H   UNL     1      77.863  35.786  50.562  1.00  0.00     0.293 HD
ENDBRANCH   2  22
BRANCH   6  24
ATOM     24  O   UNL     1      71.786  35.894  52.053  1.00  0.00    -0.507 OA
ATOM     25  H   UNL     1      71.950  36.882  52.171  1.00  0.00     0.293 HD
ENDBRANCH   6  24
BRANCH   8  26
ATOM     26  O   UNL     1      71.787  32.340  55.280  1.00  0.00    -0.508 OA
ATOM     27  H   UNL     1      72.267  31.841  56.019  1.00  0.00     0.293 HD
ENDBRANCH   8  26
TORSDOF 6
ENDMDL
MODEL 5
REMARK VINA RESULT:     0.155     15.788     17.699
REMARK INTER + INTRA:           0.778
REMARK INTER:                   0.886
REMARK INTRA:                  -0.109
REMARK UNBOUND:                 0.591
REMARK SMILES O=c1c(O)c(-c2ccc(O)cc2O)oc2cc(O)cc(O)c12
REMARK SMILES IDX 5 1 3 2 2 3 1 4 22 5 20 6 19 7 17 8 16 9 15 10 14 11 6 12
REMARK SMILES IDX 8 13 7 14 9 15 11 16 12 17 10 18 13 20 4 22 21 24 18 26
REMARK H PARENT 10 19 13 21 4 23 21 25 18 27
REMARK Flexibility Score: inf
ROOT
ATOM      1  C   UNL     1      86.051  28.096  64.566  1.00  0.00     0.184 A 
ATOM      2  C   UNL     1      84.673  28.362  64.563  1.00  0.00     0.208 A 
ATOM      3  C   UNL     1      84.208  29.557  65.135  1.00  0.00     0.238 A 
ATOM      4  O   UNL     1      82.967  29.754  65.195  1.00  0.00    -0.285 OA
ATOM      5  C   UNL     1      85.133  30.496  65.652  1.00  0.00     0.111 A 
ATOM      6  C   UNL     1      84.779  31.760  66.216  1.00  0.00     0.134 A 
ATOM      7  C   UNL     1      85.772  32.561  66.793  1.00  0.00     0.093 A 
ATOM      8  C   UNL     1      87.114  32.174  66.771  1.00  0.00     0.123 A 
ATOM      9  C   UNL     1      87.477  30.969  66.175  1.00  0.00     0.094 A 
ATOM     10  C   UNL     1      86.505  30.130  65.624  1.00  0.00     0.146 A 
ATOM     11  O   UNL     1      86.894  28.979  65.086  1.00  0.00    -0.451 OA
ENDROOT
BRANCH   1  12
ATOM     12  C   UNL     1      86.605  26.854  63.987  1.00  0.00     0.063 A 
ATOM     13  C   UNL     1      86.658  25.265  62.149  1.00  0.00     0.047 A 
ATOM     14  C   UNL     1      86.151  26.431  62.728  1.00  0.00     0.020 A 
ATOM     15  C   UNL     1      87.633  24.515  62.813  1.00  0.00     0.119 A 
ATOM     16  C   UNL     1      88.108  24.942  64.060  1.00  0.00     0.093 A 
ATOM     17  C   UNL     1      87.609  26.115  64.646  1.00  0.00     0.130 A 
BRANCH  15  18
ATOM     18  O   UNL     1      88.125  23.353  62.225  1.00  0.00    -0.508 OA
ATOM     19  H   UNL     1      88.764  22.739  62.718  1.00  0.00     0.293 HD
ENDBRANCH  15  18
BRANCH  17  20
ATOM     20  O   UNL     1      88.125  26.556  65.865  1.00  0.00    -0.507 OA
ATOM     21  H   UNL     1      88.602  25.927  66.499  1.00  0.00     0.293 HD
ENDBRANCH  17  20
ENDBRANCH   1  12
BRANCH   2  22
ATOM     22  O   UNL     1      83.787  27.451  63.981  1.00  0.00    -0.502 OA
ATOM     23  H   UNL     1      83.880  26.450  64.104  1.00  0.00     0.293 HD
ENDBRANCH   2  22
BRANCH   6  24
ATOM     24  O   UNL     1      83.482  32.283  66.212  1.00  0.00    -0.507 OA
ATOM     25  H   UNL     1      83.096  32.876  66.929  1.00  0.00     0.293 HD
ENDBRANCH   6  24
BRANCH   8  26
ATOM     26  O   UNL     1      88.097  32.987  67.332  1.00  0.00    -0.508 OA
ATOM     27  H   UNL     1      89.031  33.033  66.944  1.00  0.00     0.293 HD
ENDBRANCH   8  26
TORSDOF 6
ENDMDL
MODEL 6
REMARK VINA RESULT:     0.179     15.555     17.351
REMARK INTER + INTRA:           0.807
REMARK INTER:                   1.066
REMARK INTRA:                  -0.259
REMARK UNBOUND:                 0.591
REMARK SMILES O=c1c(O)c(-c2ccc(O)cc2O)oc2cc(O)cc(O)c12
REMARK SMILES IDX 5 1 3 2 2 3 1 4 22 5 20 6 19 7 17 8 16 9 15 10 14 11 6 12
REMARK SMILES IDX 8 13 7 14 9 15 11 16 12 17 10 18 13 20 4 22 21 24 18 26
REMARK H PARENT 10 19 13 21 4 23 21 25 18 27
REMARK Flexibility Score: inf
ROOT
ATOM      1  C   UNL     1      86.067  30.905  65.127  1.00  0.00     0.184 A 
ATOM      2  C   UNL     1      84.683  30.683  65.047  1.00  0.00     0.208 A 
ATOM      3  C   UNL     1      84.215  29.384  64.797  1.00  0.00     0.238 A 
ATOM      4  O   UNL     1      82.977  29.206  64.652  1.00  0.00    -0.285 OA
ATOM      5  C   UNL     1      85.135  28.313  64.688  1.00  0.00     0.111 A 
ATOM      6  C   UNL     1      84.772  26.947  64.479  1.00  0.00     0.134 A 
ATOM      7  C   UNL     1      85.773  25.989  64.280  1.00  0.00     0.093 A 
ATOM      8  C   UNL     1      87.125  26.334  64.346  1.00  0.00     0.123 A 
ATOM      9  C   UNL     1      87.490  27.653  64.603  1.00  0.00     0.094 A 
ATOM     10  C   UNL     1      86.515  28.639  64.768  1.00  0.00     0.146 A 
ATOM     11  O   UNL     1      86.908  29.889  64.990  1.00  0.00    -0.451 OA
ENDROOT
BRANCH   1  12
ATOM     12  C   UNL     1      86.625  32.249  65.380  1.00  0.00     0.063 A 
ATOM     13  C   UNL     1      86.752  34.595  64.756  1.00  0.00     0.047 A 
ATOM     14  C   UNL     1      86.248  33.310  64.541  1.00  0.00     0.020 A 
ATOM     15  C   UNL     1      87.627  34.840  65.818  1.00  0.00     0.119 A 
ATOM     16  C   UNL     1      87.991  33.792  66.674  1.00  0.00     0.093 A 
ATOM     17  C   UNL     1      87.485  32.500  66.469  1.00  0.00     0.130 A 
BRANCH  15  18
ATOM     18  O   UNL     1      88.125  36.125  66.017  1.00  0.00    -0.508 OA
ATOM     19  H   UNL     1      89.098  36.350  65.844  1.00  0.00     0.293 HD
ENDBRANCH  15  18
BRANCH  17  20
ATOM     20  O   UNL     1      87.816  31.476  67.357  1.00  0.00    -0.507 OA
ATOM     21  H   UNL     1      88.779  31.212  67.529  1.00  0.00     0.293 HD
ENDBRANCH  17  20
ENDBRANCH   1  12
BRANCH   2  22
ATOM     22  O   UNL     1      83.794  31.746  65.230  1.00  0.00    -0.502 OA
ATOM     23  H   UNL     1      83.402  32.266  64.454  1.00  0.00     0.293 HD
ENDBRANCH   2  22
BRANCH   6  24
ATOM     24  O   UNL     1      83.454  26.479  64.483  1.00  0.00    -0.507 OA
ATOM     25  H   UNL     1      83.180  25.526  64.665  1.00  0.00     0.293 HD
ENDBRANCH   6  24
BRANCH   8  26
ATOM     26  O   UNL     1      88.114  25.370  64.164  1.00  0.00    -0.508 OA
ATOM     27  H   UNL     1      88.320  24.988  63.249  1.00  0.00     0.293 HD
ENDBRANCH   8  26
TORSDOF 6
ENDMDL
MODEL 7
REMARK VINA RESULT:     1.018     15.070     16.894
REMARK INTER + INTRA:           1.818
REMARK INTER:                   2.126
REMARK INTRA:                  -0.308
REMARK UNBOUND:                 0.591
REMARK SMILES O=c1c(O)c(-c2ccc(O)cc2O)oc2cc(O)cc(O)c12
REMARK SMILES IDX 5 1 3 2 2 3 1 4 22 5 20 6 19 7 17 8 16 9 15 10 14 11 6 12
REMARK SMILES IDX 8 13 7 14 9 15 11 16 12 17 10 18 13 20 4 22 21 24 18 26
REMARK H PARENT 10 19 13 21 4 23 21 25 18 27
REMARK Flexibility Score: inf
ROOT
ATOM      1  C   UNL     1      86.856  31.042  64.911  1.00  0.00     0.184 A 
ATOM      2  C   UNL     1      87.497  31.701  65.971  1.00  0.00     0.208 A 
ATOM      3  C   UNL     1      87.482  33.104  66.010  1.00  0.00     0.238 A 
ATOM      4  O   UNL     1      88.122  33.689  66.922  1.00  0.00    -0.285 OA
ATOM      5  C   UNL     1      86.776  33.828  65.018  1.00  0.00     0.111 A 
ATOM      6  C   UNL     1      86.656  35.251  64.981  1.00  0.00     0.134 A 
ATOM      7  C   UNL     1      86.024  35.862  63.893  1.00  0.00     0.093 A 
ATOM      8  C   UNL     1      85.451  35.102  62.871  1.00  0.00     0.123 A 
ATOM      9  C   UNL     1      85.515  33.712  62.924  1.00  0.00     0.094 A 
ATOM     10  C   UNL     1      86.172  33.073  63.978  1.00  0.00     0.146 A 
ATOM     11  O   UNL     1      86.229  31.745  63.977  1.00  0.00    -0.451 OA
ENDROOT
BRANCH   1  12
ATOM     12  C   UNL     1      86.841  29.568  64.807  1.00  0.00     0.063 A 
ATOM     13  C   UNL     1      88.086  27.485  64.655  1.00  0.00     0.047 A 
ATOM     14  C   UNL     1      88.064  28.879  64.747  1.00  0.00     0.020 A 
ATOM     15  C   UNL     1      86.891  26.762  64.636  1.00  0.00     0.119 A 
ATOM     16  C   UNL     1      85.667  27.439  64.719  1.00  0.00     0.093 A 
ATOM     17  C   UNL     1      85.635  28.838  64.817  1.00  0.00     0.130 A 
BRANCH  15  18
ATOM     18  O   UNL     1      86.929  25.373  64.539  1.00  0.00    -0.508 OA
ATOM     19  H   UNL     1      87.611  24.825  65.052  1.00  0.00     0.293 HD
ENDBRANCH  15  18
BRANCH  17  20
ATOM     20  O   UNL     1      84.412  29.496  64.949  1.00  0.00    -0.507 OA
ATOM     21  H   UNL     1      84.182  30.029  65.779  1.00  0.00     0.293 HD
ENDBRANCH  17  20
ENDBRANCH   1  12
BRANCH   2  22
ATOM     22  O   UNL     1      88.125  30.960  66.976  1.00  0.00    -0.502 OA
ATOM     23  H   UNL     1      87.713  30.123  67.371  1.00  0.00     0.293 HD
ENDBRANCH   2  22
BRANCH   6  24
ATOM     24  O   UNL     1      87.114  36.101  65.993  1.00  0.00    -0.507 OA
ATOM     25  H   UNL     1      88.070  36.169  66.302  1.00  0.00     0.293 HD
ENDBRANCH   6  24
BRANCH   8  26
ATOM     26  O   UNL     1      84.808  35.719  61.800  1.00  0.00    -0.508 OA
ATOM     27  H   UNL     1      85.328  36.185  61.066  1.00  0.00     0.293 HD
ENDBRANCH   8  26
TORSDOF 6
ENDMDL
