MODEL 1
REMARK VINA RESULT:    -4.291      0.000      0.000
REMARK INTER + INTRA:          -7.063
REMARK INTER:                  -6.549
REMARK INTRA:                  -0.515
REMARK UNBOUND:                -0.515
REMARK SMILES CCCCCCCCCC=CC(=O)[O-]
REMARK SMILES IDX 7 1 8 2 9 3 10 4 11 5 12 6 13 7 14 8 6 9 5 10 4 11 3 12 2 13
REMARK SMILES IDX 1 14
REMARK H PARENT
REMARK Flexibility Score: inf
ROOT
ATOM      1  C   UNL     1      44.793  26.026   3.051  1.00  0.00     0.000 C 
ENDROOT
BRANCH   1   2
ATOM      2  C   UNL     1      44.533  27.472   2.592  1.00  0.00     0.004 C 
BRANCH   2   3
ATOM      3  C   UNL     1      43.138  27.640   1.978  1.00  0.00     0.027 C 
BRANCH   3   4
ATOM      4  C   UNL     1      43.099  27.158   0.555  1.00  0.00    -0.025 C 
ATOM      5  C   UNL     1      44.060  27.474  -0.320  1.00  0.00     0.020 C 
BRANCH   5   6
ATOM      6  C   UNL     1      44.022  27.037  -1.724  1.00  0.00     0.064 C 
ATOM      7  O   UNL     1      44.003  27.872  -2.667  1.00  0.00    -0.545 OA
ATOM      8  O   UNL     1      44.006  25.680  -2.016  1.00  0.00    -0.545 OA
ENDBRANCH   5   6
ENDBRANCH   3   4
ENDBRANCH   2   3
ENDBRANCH   1   2
BRANCH   1   9
ATOM      9  C   UNL     1      45.588  25.953   4.365  1.00  0.00     0.000 C 
BRANCH   9  10
ATOM     10  C   UNL     1      46.143  27.323   4.796  1.00  0.00     0.000 C 
BRANCH  10  11
ATOM     11  C   UNL     1      46.521  27.363   6.286  1.00  0.00    -0.000 C 
BRANCH  11  12
ATOM     12  C   UNL     1      45.583  28.264   7.110  1.00  0.00    -0.000 C 
BRANCH  12  13
ATOM     13  C   UNL     1      45.458  27.804   8.571  1.00  0.00    -0.003 C 
ATOM     14  C   UNL     1      45.227  26.299   8.702  1.00  0.00     0.004 C 
ENDBRANCH  12  13
ENDBRANCH  11  12
ENDBRANCH  10  11
ENDBRANCH   9  10
ENDBRANCH   1   9
TORSDOF 9
ENDMDL
MODEL 2
REMARK VINA RESULT:    -4.281      4.395      7.622
REMARK INTER + INTRA:          -7.048
REMARK INTER:                  -6.210
REMARK INTRA:                  -0.838
REMARK UNBOUND:                -0.515
REMARK SMILES CCCCCCCCCC=CC(=O)[O-]
REMARK SMILES IDX 7 1 8 2 9 3 10 4 11 5 12 6 13 7 14 8 6 9 5 10 4 11 3 12 2 13
REMARK SMILES IDX 1 14
REMARK H PARENT
REMARK Flexibility Score: inf
ROOT
ATOM      1  C   UNL     1      44.917  25.980   2.882  1.00  0.00     0.000 C 
ENDROOT
BRANCH   1   2
ATOM      2  C   UNL     1      45.238  25.618   4.344  1.00  0.00     0.004 C 
BRANCH   2   3
ATOM      3  C   UNL     1      46.375  26.475   4.913  1.00  0.00     0.027 C 
BRANCH   3   4
ATOM      4  C   UNL     1      46.047  26.985   6.289  1.00  0.00    -0.025 C 
ATOM      5  C   UNL     1      45.828  26.152   7.313  1.00  0.00     0.020 C 
BRANCH   5   6
ATOM      6  C   UNL     1      45.477  26.633   8.658  1.00  0.00     0.064 C 
ATOM      7  O   UNL     1      45.619  25.897   9.670  1.00  0.00    -0.545 OA
ATOM      8  O   UNL     1      44.980  27.919   8.815  1.00  0.00    -0.545 OA
ENDBRANCH   5   6
ENDBRANCH   3   4
ENDBRANCH   2   3
ENDBRANCH   1   2
BRANCH   1   9
ATOM      9  C   UNL     1      45.400  27.389   2.501  1.00  0.00     0.000 C 
BRANCH   9  10
ATOM     10  C   UNL     1      44.238  28.383   2.320  1.00  0.00     0.000 C 
BRANCH  10  11
ATOM     11  C   UNL     1      42.905  27.683   2.011  1.00  0.00    -0.000 C 
BRANCH  11  12
ATOM     12  C   UNL     1      42.478  27.848   0.541  1.00  0.00    -0.000 C 
BRANCH  12  13
ATOM     13  C   UNL     1      42.967  26.693  -0.347  1.00  0.00    -0.003 C 
ATOM     14  C   UNL     1      44.124  27.094  -1.260  1.00  0.00     0.004 C 
ENDBRANCH  12  13
ENDBRANCH  11  12
ENDBRANCH  10  11
ENDBRANCH   9  10
ENDBRANCH   1   9
TORSDOF 9
ENDMDL
MODEL 3
REMARK VINA RESULT:    -4.278      0.674      1.567
REMARK INTER + INTRA:          -7.044
REMARK INTER:                  -6.481
REMARK INTRA:                  -0.563
REMARK UNBOUND:                -0.515
REMARK SMILES CCCCCCCCCC=CC(=O)[O-]
REMARK SMILES IDX 7 1 8 2 9 3 10 4 11 5 12 6 13 7 14 8 6 9 5 10 4 11 3 12 2 13
REMARK SMILES IDX 1 14
REMARK H PARENT
REMARK Flexibility Score: inf
ROOT
ATOM      1  C   UNL     1      45.726  26.070   4.462  1.00  0.00     0.000 C 
ENDROOT
BRANCH   1   2
ATOM      2  C   UNL     1      45.026  25.882   3.104  1.00  0.00     0.004 C 
BRANCH   2   3
ATOM      3  C   UNL     1      44.237  27.129   2.685  1.00  0.00     0.027 C 
BRANCH   3   4
ATOM      4  C   UNL     1      43.660  26.980   1.306  1.00  0.00    -0.025 C 
ATOM      5  C   UNL     1      44.407  27.150   0.209  1.00  0.00     0.020 C 
BRANCH   5   6
ATOM      6  C   UNL     1      43.852  27.038  -1.148  1.00  0.00     0.064 C 
ATOM      7  O   UNL     1      43.957  25.970  -1.809  1.00  0.00    -0.545 OA
ATOM      8  O   UNL     1      43.201  28.127  -1.711  1.00  0.00    -0.545 OA
ENDBRANCH   5   6
ENDBRANCH   3   4
ENDBRANCH   2   3
ENDBRANCH   1   2
BRANCH   1   9
ATOM      9  C   UNL     1      46.047  27.542   4.765  1.00  0.00     0.000 C 
BRANCH   9  10
ATOM     10  C   UNL     1      46.602  27.746   6.186  1.00  0.00     0.000 C 
BRANCH  10  11
ATOM     11  C   UNL     1      45.692  28.630   7.055  1.00  0.00    -0.000 C 
BRANCH  11  12
ATOM     12  C   UNL     1      45.273  27.940   8.365  1.00  0.00    -0.000 C 
BRANCH  12  13
ATOM     13  C   UNL     1      45.484  26.418   8.324  1.00  0.00    -0.003 C 
ATOM     14  C   UNL     1      46.137  25.874   9.594  1.00  0.00     0.004 C 
ENDBRANCH  12  13
ENDBRANCH  11  12
ENDBRANCH  10  11
ENDBRANCH   9  10
ENDBRANCH   1   9
TORSDOF 9
ENDMDL
MODEL 4
REMARK VINA RESULT:    -4.260      1.173      1.626
REMARK INTER + INTRA:          -7.016
REMARK INTER:                  -6.518
REMARK INTRA:                  -0.499
REMARK UNBOUND:                -0.515
REMARK SMILES CCCCCCCCCC=CC(=O)[O-]
REMARK SMILES IDX 7 1 8 2 9 3 10 4 11 5 12 6 13 7 14 8 6 9 5 10 4 11 3 12 2 13
REMARK SMILES IDX 1 14
REMARK H PARENT
REMARK Flexibility Score: inf
ROOT
ATOM      1  C   UNL     1      44.765  26.750   2.013  1.00  0.00     0.000 C 
ENDROOT
BRANCH   1   2
ATOM      2  C   UNL     1      43.450  27.539   2.146  1.00  0.00     0.004 C 
BRANCH   2   3
ATOM      3  C   UNL     1      42.585  27.434   0.883  1.00  0.00     0.027 C 
BRANCH   3   4
ATOM      4  C   UNL     1      43.372  26.904  -0.283  1.00  0.00    -0.025 C 
ATOM      5  C   UNL     1      43.591  27.643  -1.376  1.00  0.00     0.020 C 
BRANCH   5   6
ATOM      6  C   UNL     1      44.333  27.130  -2.538  1.00  0.00     0.064 C 
ATOM      7  O   UNL     1      43.752  26.900  -3.632  1.00  0.00    -0.545 OA
ATOM      8  O   UNL     1      45.696  26.894  -2.428  1.00  0.00    -0.545 OA
ENDBRANCH   5   6
ENDBRANCH   3   4
ENDBRANCH   2   3
ENDBRANCH   1   2
BRANCH   1   9
ATOM      9  C   UNL     1      44.950  25.712   3.133  1.00  0.00     0.000 C 
BRANCH   9  10
ATOM     10  C   UNL     1      46.429  25.365   3.379  1.00  0.00     0.000 C 
BRANCH  10  11
ATOM     11  C   UNL     1      46.924  25.837   4.756  1.00  0.00    -0.000 C 
BRANCH  11  12
ATOM     12  C   UNL     1      45.774  26.281   5.678  1.00  0.00    -0.000 C 
BRANCH  12  13
ATOM     13  C   UNL     1      46.277  26.844   7.017  1.00  0.00    -0.003 C 
ATOM     14  C   UNL     1      45.534  26.266   8.221  1.00  0.00     0.004 C 
ENDBRANCH  12  13
ENDBRANCH  11  12
ENDBRANCH  10  11
ENDBRANCH   9  10
ENDBRANCH   1   9
TORSDOF 9
ENDMDL
MODEL 5
REMARK VINA RESULT:    -4.194      2.918      4.526
REMARK INTER + INTRA:          -6.916
REMARK INTER:                  -6.079
REMARK INTRA:                  -0.837
REMARK UNBOUND:                -0.515
REMARK SMILES CCCCCCCCCC=CC(=O)[O-]
REMARK SMILES IDX 7 1 8 2 9 3 10 4 11 5 12 6 13 7 14 8 6 9 5 10 4 11 3 12 2 13
REMARK SMILES IDX 1 14
REMARK H PARENT
REMARK Flexibility Score: inf
ROOT
ATOM      1  C   UNL     1      43.276  26.751  -0.477  1.00  0.00     0.000 C 
ENDROOT
BRANCH   1   2
ATOM      2  C   UNL     1      44.142  27.628  -1.398  1.00  0.00     0.004 C 
BRANCH   2   3
ATOM      3  C   UNL     1      43.396  28.884  -1.865  1.00  0.00     0.027 C 
BRANCH   3   4
ATOM      4  C   UNL     1      42.730  28.670  -3.195  1.00  0.00    -0.025 C 
ATOM      5  C   UNL     1      43.354  28.046  -4.201  1.00  0.00     0.020 C 
BRANCH   5   6
ATOM      6  C   UNL     1      42.728  27.853  -5.518  1.00  0.00     0.064 C 
ATOM      7  O   UNL     1      41.589  28.328  -5.774  1.00  0.00    -0.545 OA
ATOM      8  O   UNL     1      43.403  27.136  -6.496  1.00  0.00    -0.545 OA
ENDBRANCH   5   6
ENDBRANCH   3   4
ENDBRANCH   2   3
ENDBRANCH   1   2
BRANCH   1   9
ATOM      9  C   UNL     1      42.319  27.575   0.401  1.00  0.00     0.000 C 
BRANCH   9  10
ATOM     10  C   UNL     1      42.733  27.580   1.884  1.00  0.00     0.000 C 
BRANCH  10  11
ATOM     11  C   UNL     1      43.946  28.486   2.155  1.00  0.00    -0.000 C 
BRANCH  11  12
ATOM     12  C   UNL     1      45.127  27.722   2.780  1.00  0.00    -0.000 C 
BRANCH  12  13
ATOM     13  C   UNL     1      44.920  26.199   2.760  1.00  0.00    -0.003 C 
ATOM     14  C   UNL     1      45.192  25.545   4.113  1.00  0.00     0.004 C 
ENDBRANCH  12  13
ENDBRANCH  11  12
ENDBRANCH  10  11
ENDBRANCH   9  10
ENDBRANCH   1   9
TORSDOF 9
ENDMDL
MODEL 6
REMARK VINA RESULT:    -4.145      2.742      3.461
REMARK INTER + INTRA:          -6.840
REMARK INTER:                  -5.796
REMARK INTRA:                  -1.045
REMARK UNBOUND:                -0.515
REMARK SMILES CCCCCCCCCC=CC(=O)[O-]
REMARK SMILES IDX 7 1 8 2 9 3 10 4 11 5 12 6 13 7 14 8 6 9 5 10 4 11 3 12 2 13
REMARK SMILES IDX 1 14
REMARK H PARENT
REMARK Flexibility Score: inf
ROOT
ATOM      1  C   UNL     1      43.063  29.782   2.153  1.00  0.00     0.000 C 
ENDROOT
BRANCH   1   2
ATOM      2  C   UNL     1      42.291  29.296   0.914  1.00  0.00     0.004 C 
BRANCH   2   3
ATOM      3  C   UNL     1      42.086  27.776   0.922  1.00  0.00     0.027 C 
BRANCH   3   4
ATOM      4  C   UNL     1      42.938  27.098  -0.116  1.00  0.00    -0.025 C 
ATOM      5  C   UNL     1      43.570  27.793  -1.068  1.00  0.00     0.020 C 
BRANCH   5   6
ATOM      6  C   UNL     1      44.382  27.144  -2.108  1.00  0.00     0.064 C 
ATOM      7  O   UNL     1      43.866  26.754  -3.190  1.00  0.00    -0.545 OA
ATOM      8  O   UNL     1      45.741  26.957  -1.896  1.00  0.00    -0.545 OA
ENDBRANCH   5   6
ENDBRANCH   3   4
ENDBRANCH   2   3
ENDBRANCH   1   2
BRANCH   1   9
ATOM      9  C   UNL     1      44.587  29.651   1.992  1.00  0.00     0.000 C 
BRANCH   9  10
ATOM     10  C   UNL     1      45.222  28.767   3.081  1.00  0.00     0.000 C 
BRANCH  10  11
ATOM     11  C   UNL     1      45.730  27.425   2.529  1.00  0.00    -0.000 C 
BRANCH  11  12
ATOM     12  C   UNL     1      44.755  26.266   2.802  1.00  0.00    -0.000 C 
BRANCH  12  13
ATOM     13  C   UNL     1      45.421  25.100   3.551  1.00  0.00    -0.003 C 
ATOM     14  C   UNL     1      46.946  25.124   3.452  1.00  0.00     0.004 C 
ENDBRANCH  12  13
ENDBRANCH  11  12
ENDBRANCH  10  11
ENDBRANCH   9  10
ENDBRANCH   1   9
TORSDOF 9
ENDMDL
MODEL 7
REMARK VINA RESULT:    -4.041      3.500      7.997
REMARK INTER + INTRA:          -6.682
REMARK INTER:                  -5.874
REMARK INTRA:                  -0.808
REMARK UNBOUND:                -0.515
REMARK SMILES CCCCCCCCCC=CC(=O)[O-]
REMARK SMILES IDX 7 1 8 2 9 3 10 4 11 5 12 6 13 7 14 8 6 9 5 10 4 11 3 12 2 13
REMARK SMILES IDX 1 14
REMARK H PARENT
REMARK Flexibility Score: inf
ROOT
ATOM      1  C   UNL     1      43.903  27.117  -0.744  1.00  0.00     0.000 C 
ENDROOT
BRANCH   1   2
ATOM      2  C   UNL     1      42.641  27.084   0.138  1.00  0.00     0.004 C 
BRANCH   2   3
ATOM      3  C   UNL     1      42.934  27.520   1.579  1.00  0.00     0.027 C 
BRANCH   3   4
ATOM      4  C   UNL     1      44.319  27.122   2.006  1.00  0.00    -0.025 C 
ATOM      5  C   UNL     1      44.527  26.129   2.879  1.00  0.00     0.020 C 
BRANCH   5   6
ATOM      6  C   UNL     1      45.873  25.747   3.331  1.00  0.00     0.064 C 
ATOM      7  O   UNL     1      46.730  25.300   2.521  1.00  0.00    -0.545 OA
ATOM      8  O   UNL     1      46.207  25.879   4.672  1.00  0.00    -0.545 OA
ENDBRANCH   5   6
ENDBRANCH   3   4
ENDBRANCH   2   3
ENDBRANCH   1   2
BRANCH   1   9
ATOM      9  C   UNL     1      44.079  28.457  -1.478  1.00  0.00     0.000 C 
BRANCH   9  10
ATOM     10  C   UNL     1      42.827  28.862  -2.277  1.00  0.00     0.000 C 
BRANCH  10  11
ATOM     11  C   UNL     1      43.110  29.009  -3.781  1.00  0.00    -0.000 C 
BRANCH  11  12
ATOM     12  C   UNL     1      42.565  27.829  -4.604  1.00  0.00    -0.000 C 
BRANCH  12  13
ATOM     13  C   UNL     1      43.535  26.637  -4.637  1.00  0.00    -0.003 C 
ATOM     14  C   UNL     1      44.989  27.060  -4.840  1.00  0.00     0.004 C 
ENDBRANCH  12  13
ENDBRANCH  11  12
ENDBRANCH  10  11
ENDBRANCH   9  10
ENDBRANCH   1   9
TORSDOF 9
ENDMDL
MODEL 8
REMARK VINA RESULT:    -4.012      1.512      2.886
REMARK INTER + INTRA:          -6.637
REMARK INTER:                  -5.894
REMARK INTRA:                  -0.743
REMARK UNBOUND:                -0.515
REMARK SMILES CCCCCCCCCC=CC(=O)[O-]
REMARK SMILES IDX 7 1 8 2 9 3 10 4 11 5 12 6 13 7 14 8 6 9 5 10 4 11 3 12 2 13
REMARK SMILES IDX 1 14
REMARK H PARENT
REMARK Flexibility Score: inf
ROOT
ATOM      1  C   UNL     1      42.719  27.493   1.871  1.00  0.00     0.000 C 
ENDROOT
BRANCH   1   2
ATOM      2  C   UNL     1      42.249  27.595   0.409  1.00  0.00     0.004 C 
BRANCH   2   3
ATOM      3  C   UNL     1      42.896  28.777  -0.323  1.00  0.00     0.027 C 
BRANCH   3   4
ATOM      4  C   UNL     1      43.296  28.407  -1.724  1.00  0.00    -0.025 C 
ATOM      5  C   UNL     1      44.039  27.324  -1.980  1.00  0.00     0.020 C 
BRANCH   5   6
ATOM      6  C   UNL     1      44.464  26.964  -3.341  1.00  0.00     0.064 C 
ATOM      7  O   UNL     1      45.640  27.186  -3.737  1.00  0.00    -0.545 OA
ATOM      8  O   UNL     1      43.555  26.370  -4.206  1.00  0.00    -0.545 OA
ENDBRANCH   5   6
ENDBRANCH   3   4
ENDBRANCH   2   3
ENDBRANCH   1   2
BRANCH   1   9
ATOM      9  C   UNL     1      44.032  28.252   2.127  1.00  0.00     0.000 C 
BRANCH   9  10
ATOM     10  C   UNL     1      45.232  27.308   2.322  1.00  0.00     0.000 C 
BRANCH  10  11
ATOM     11  C   UNL     1      44.835  25.977   2.981  1.00  0.00    -0.000 C 
BRANCH  11  12
ATOM     12  C   UNL     1      45.761  25.596   4.150  1.00  0.00    -0.000 C 
BRANCH  12  13
ATOM     13  C   UNL     1      46.036  26.777   5.093  1.00  0.00    -0.003 C 
ATOM     14  C   UNL     1      46.033  26.373   6.567  1.00  0.00     0.004 C 
ENDBRANCH  12  13
ENDBRANCH  11  12
ENDBRANCH  10  11
ENDBRANCH   9  10
ENDBRANCH   1   9
TORSDOF 9
ENDMDL
MODEL 9
REMARK VINA RESULT:    -3.991      3.566      8.365
REMARK INTER + INTRA:          -6.605
REMARK INTER:                  -6.084
REMARK INTRA:                  -0.521
REMARK UNBOUND:                -0.515
REMARK SMILES CCCCCCCCCC=CC(=O)[O-]
REMARK SMILES IDX 7 1 8 2 9 3 10 4 11 5 12 6 13 7 14 8 6 9 5 10 4 11 3 12 2 13
REMARK SMILES IDX 1 14
REMARK H PARENT
REMARK Flexibility Score: inf
ROOT
ATOM      1  C   UNL     1      43.366  27.462  -0.651  1.00  0.00     0.000 C 
ENDROOT
BRANCH   1   2
ATOM      2  C   UNL     1      42.401  27.200   0.519  1.00  0.00     0.004 C 
BRANCH   2   3
ATOM      3  C   UNL     1      43.054  27.483   1.878  1.00  0.00     0.027 C 
BRANCH   3   4
ATOM      4  C   UNL     1      44.458  26.950   1.938  1.00  0.00    -0.025 C 
ATOM      5  C   UNL     1      44.857  26.130   2.917  1.00  0.00     0.020 C 
BRANCH   5   6
ATOM      6  C   UNL     1      46.235  25.624   3.008  1.00  0.00     0.064 C 
ATOM      7  O   UNL     1      46.972  25.554   1.989  1.00  0.00    -0.545 OA
ATOM      8  O   UNL     1      46.733  25.215   4.238  1.00  0.00    -0.545 OA
ENDBRANCH   5   6
ENDBRANCH   3   4
ENDBRANCH   2   3
ENDBRANCH   1   2
BRANCH   1   9
ATOM      9  C   UNL     1      43.082  28.792  -1.367  1.00  0.00     0.000 C 
BRANCH   9  10
ATOM     10  C   UNL     1      43.028  28.640  -2.898  1.00  0.00     0.000 C 
BRANCH  10  11
ATOM     11  C   UNL     1      43.800  27.408  -3.397  1.00  0.00    -0.000 C 
BRANCH  11  12
ATOM     12  C   UNL     1      43.523  27.095  -4.878  1.00  0.00    -0.000 C 
BRANCH  12  13
ATOM     13  C   UNL     1      42.300  27.851  -5.421  1.00  0.00    -0.003 C 
ATOM     14  C   UNL     1      42.592  28.594  -6.723  1.00  0.00     0.004 C 
ENDBRANCH  12  13
ENDBRANCH  11  12
ENDBRANCH  10  11
ENDBRANCH   9  10
ENDBRANCH   1   9
TORSDOF 9
ENDMDL
