MODEL 1
REMARK VINA RESULT:    -4.777      0.000      0.000
REMARK INTER + INTRA:         -10.121
REMARK INTER:                  -8.687
REMARK INTRA:                  -1.434
REMARK UNBOUND:                -1.434
REMARK SMILES CCCCCC=CCC=CCCCCCCCC(=O)[O-]
REMARK SMILES IDX 11 1 12 2 13 3 14 4 15 5 16 6 17 7 18 8 19 9 20 10 10 11
REMARK SMILES IDX 9 12 8 13 7 14 6 15 5 16 4 17 3 18 2 19 1 20
REMARK H PARENT
REMARK Flexibility Score: inf
ROOT
ATOM      1  C   UNL     1      -9.043  -3.449   1.014  1.00  0.00     0.027 C 
ENDROOT
BRANCH   1   2
ATOM      2  C   UNL     1      -9.717  -2.221   0.384  1.00  0.00     0.004 C 
BRANCH   2   3
ATOM      3  C   UNL     1      -9.054  -1.797  -0.936  1.00  0.00     0.000 C 
BRANCH   3   4
ATOM      4  C   UNL     1      -9.608  -0.467  -1.478  1.00  0.00     0.000 C 
BRANCH   4   5
ATOM      5  C   UNL     1      -9.930   0.539  -0.363  1.00  0.00     0.000 C 
BRANCH   5   6
ATOM      6  C   UNL     1      -9.233   1.893  -0.564  1.00  0.00     0.006 C 
BRANCH   6   7
ATOM      7  C   UNL     1      -8.881   2.537   0.780  1.00  0.00     0.053 C 
BRANCH   7   8
ATOM      8  C   UNL     1      -7.447   2.961   0.799  1.00  0.00     0.041 C 
ATOM      9  O   UNL     1      -6.791   2.925   1.874  1.00  0.00    -0.550 OA
ATOM     10  O   UNL     1      -6.849   3.445  -0.358  1.00  0.00    -0.550 OA
ENDBRANCH   7   8
ENDBRANCH   6   7
ENDBRANCH   5   6
ENDBRANCH   4   5
ENDBRANCH   3   4
ENDBRANCH   2   3
ENDBRANCH   1   2
BRANCH   1  11
ATOM     11  C   UNL     1      -8.114  -4.122   0.036  1.00  0.00    -0.031 C 
ATOM     12  C   UNL     1      -8.265  -5.375  -0.435  1.00  0.00    -0.027 C 
BRANCH  12  13
ATOM     13  C   UNL     1      -9.394  -6.309  -0.071  1.00  0.00     0.054 C 
BRANCH  13  14
ATOM     14  C   UNL     1      -8.879  -7.438   0.773  1.00  0.00    -0.027 C 
ATOM     15  C   UNL     1      -7.573  -7.741   0.811  1.00  0.00    -0.031 C 
BRANCH  15  16
ATOM     16  C   UNL     1      -7.051  -8.865   1.664  1.00  0.00     0.027 C 
BRANCH  16  17
ATOM     17  C   UNL     1      -5.814  -8.428   2.459  1.00  0.00     0.004 C 
BRANCH  17  18
ATOM     18  C   UNL     1      -5.655  -6.901   2.433  1.00  0.00     0.000 C 
BRANCH  18  19
ATOM     19  C   UNL     1      -4.364  -6.454   1.732  1.00  0.00    -0.003 C 
ATOM     20  C   UNL     1      -4.613  -5.426   0.629  1.00  0.00     0.004 C 
ENDBRANCH  18  19
ENDBRANCH  17  18
ENDBRANCH  16  17
ENDBRANCH  15  16
ENDBRANCH  13  14
ENDBRANCH  12  13
ENDBRANCH   1  11
TORSDOF 14
ENDMDL
MODEL 2
REMARK VINA RESULT:    -4.603      1.180      1.985
REMARK INTER + INTRA:          -9.805
REMARK INTER:                  -8.842
REMARK INTRA:                  -0.963
REMARK UNBOUND:                -1.434
REMARK SMILES CCCCCC=CCC=CCCCCCCCC(=O)[O-]
REMARK SMILES IDX 11 1 12 2 13 3 14 4 15 5 16 6 17 7 18 8 19 9 20 10 10 11
REMARK SMILES IDX 9 12 8 13 7 14 6 15 5 16 4 17 3 18 2 19 1 20
REMARK H PARENT
REMARK Flexibility Score: inf
ROOT
ATOM      1  C   UNL     1      -9.794  -2.479   0.429  1.00  0.00     0.027 C 
ENDROOT
BRANCH   1   2
ATOM      2  C   UNL     1      -8.665  -2.364  -0.608  1.00  0.00     0.004 C 
BRANCH   2   3
ATOM      3  C   UNL     1      -8.888  -1.205  -1.594  1.00  0.00     0.000 C 
BRANCH   3   4
ATOM      4  C   UNL     1     -10.124  -0.358  -1.242  1.00  0.00     0.000 C 
BRANCH   4   5
ATOM      5  C   UNL     1      -9.775   1.113  -0.967  1.00  0.00     0.000 C 
BRANCH   5   6
ATOM      6  C   UNL     1      -9.363   1.363   0.492  1.00  0.00     0.006 C 
BRANCH   6   7
ATOM      7  C   UNL     1      -8.933   2.818   0.701  1.00  0.00     0.053 C 
BRANCH   7   8
ATOM      8  C   UNL     1      -7.442   2.927   0.723  1.00  0.00     0.041 C 
ATOM      9  O   UNL     1      -6.822   2.916   1.820  1.00  0.00    -0.550 OA
ATOM     10  O   UNL     1      -6.739   3.093  -0.464  1.00  0.00    -0.550 OA
ENDBRANCH   7   8
ENDBRANCH   6   7
ENDBRANCH   5   6
ENDBRANCH   4   5
ENDBRANCH   3   4
ENDBRANCH   2   3
ENDBRANCH   1   2
BRANCH   1  11
ATOM     11  C   UNL     1      -9.488  -3.546   1.450  1.00  0.00    -0.031 C 
ATOM     12  C   UNL     1      -9.060  -4.790   1.161  1.00  0.00    -0.027 C 
BRANCH  12  13
ATOM     13  C   UNL     1      -8.806  -5.320  -0.230  1.00  0.00     0.054 C 
BRANCH  13  14
ATOM     14  C   UNL     1      -7.362  -5.700  -0.383  1.00  0.00    -0.027 C 
ATOM     15  C   UNL     1      -6.424  -5.230   0.453  1.00  0.00    -0.031 C 
BRANCH  15  16
ATOM     16  C   UNL     1      -4.978  -5.616   0.310  1.00  0.00     0.027 C 
BRANCH  16  17
ATOM     17  C   UNL     1      -4.386  -6.053   1.656  1.00  0.00     0.004 C 
BRANCH  17  18
ATOM     18  C   UNL     1      -4.790  -7.496   1.991  1.00  0.00     0.000 C 
BRANCH  18  19
ATOM     19  C   UNL     1      -5.365  -7.633   3.409  1.00  0.00    -0.003 C 
ATOM     20  C   UNL     1      -6.830  -7.208   3.499  1.00  0.00     0.004 C 
ENDBRANCH  18  19
ENDBRANCH  17  18
ENDBRANCH  16  17
ENDBRANCH  15  16
ENDBRANCH  13  14
ENDBRANCH  12  13
ENDBRANCH   1  11
TORSDOF 14
ENDMDL
MODEL 3
REMARK VINA RESULT:    -4.592      3.499      5.180
REMARK INTER + INTRA:          -9.785
REMARK INTER:                  -8.700
REMARK INTRA:                  -1.084
REMARK UNBOUND:                -1.434
REMARK SMILES CCCCCC=CCC=CCCCCCCCC(=O)[O-]
REMARK SMILES IDX 11 1 12 2 13 3 14 4 15 5 16 6 17 7 18 8 19 9 20 10 10 11
REMARK SMILES IDX 9 12 8 13 7 14 6 15 5 16 4 17 3 18 2 19 1 20
REMARK H PARENT
REMARK Flexibility Score: inf
ROOT
ATOM      1  C   UNL     1      -5.807  -4.899   1.043  1.00  0.00     0.027 C 
ENDROOT
BRANCH   1   2
ATOM      2  C   UNL     1      -6.832  -5.253  -0.046  1.00  0.00     0.004 C 
BRANCH   2   3
ATOM      3  C   UNL     1      -8.157  -5.768   0.537  1.00  0.00     0.000 C 
BRANCH   3   4
ATOM      4  C   UNL     1      -9.332  -4.806   0.278  1.00  0.00     0.000 C 
BRANCH   4   5
ATOM      5  C   UNL     1      -9.249  -3.528   1.126  1.00  0.00     0.000 C 
BRANCH   5   6
ATOM      6  C   UNL     1      -9.627  -2.266   0.336  1.00  0.00     0.006 C 
BRANCH   6   7
ATOM      7  C   UNL     1      -8.739  -2.102  -0.900  1.00  0.00     0.053 C 
BRANCH   7   8
ATOM      8  C   UNL     1      -9.150  -0.898  -1.687  1.00  0.00     0.041 C 
ATOM      9  O   UNL     1      -9.150  -0.934  -2.946  1.00  0.00    -0.550 OA
ATOM     10  O   UNL     1      -9.485   0.280  -1.031  1.00  0.00    -0.550 OA
ENDBRANCH   7   8
ENDBRANCH   6   7
ENDBRANCH   5   6
ENDBRANCH   4   5
ENDBRANCH   3   4
ENDBRANCH   2   3
ENDBRANCH   1   2
BRANCH   1  11
ATOM     11  C   UNL     1      -4.712  -5.933   1.117  1.00  0.00    -0.031 C 
ATOM     12  C   UNL     1      -4.711  -6.998   1.942  1.00  0.00    -0.027 C 
BRANCH  12  13
ATOM     13  C   UNL     1      -5.808  -7.338   2.922  1.00  0.00     0.054 C 
BRANCH  13  14
ATOM     14  C   UNL     1      -5.221  -7.652   4.268  1.00  0.00    -0.027 C 
ATOM     15  C   UNL     1      -5.895  -8.381   5.169  1.00  0.00    -0.031 C 
BRANCH  15  16
ATOM     16  C   UNL     1      -5.308  -8.708   6.515  1.00  0.00     0.027 C 
BRANCH  16  17
ATOM     17  C   UNL     1      -4.042  -7.884   6.781  1.00  0.00     0.004 C 
BRANCH  17  18
ATOM     18  C   UNL     1      -4.119  -7.181   8.143  1.00  0.00     0.000 C 
BRANCH  18  19
ATOM     19  C   UNL     1      -2.887  -7.452   9.019  1.00  0.00    -0.003 C 
ATOM     20  C   UNL     1      -1.593  -7.544   8.209  1.00  0.00     0.004 C 
ENDBRANCH  18  19
ENDBRANCH  17  18
ENDBRANCH  16  17
ENDBRANCH  15  16
ENDBRANCH  13  14
ENDBRANCH  12  13
ENDBRANCH   1  11
TORSDOF 14
ENDMDL
MODEL 4
REMARK VINA RESULT:    -4.533      4.070      6.045
REMARK INTER + INTRA:          -9.677
REMARK INTER:                  -8.775
REMARK INTRA:                  -0.902
REMARK UNBOUND:                -1.434
REMARK SMILES CCCCCC=CCC=CCCCCCCCC(=O)[O-]
REMARK SMILES IDX 11 1 12 2 13 3 14 4 15 5 16 6 17 7 18 8 19 9 20 10 10 11
REMARK SMILES IDX 9 12 8 13 7 14 6 15 5 16 4 17 3 18 2 19 1 20
REMARK H PARENT
REMARK Flexibility Score: inf
ROOT
ATOM      1  C   UNL     1      -4.772  -6.655   1.660  1.00  0.00     0.027 C 
ENDROOT
BRANCH   1   2
ATOM      2  C   UNL     1      -5.075  -5.555   0.631  1.00  0.00     0.004 C 
BRANCH   2   3
ATOM      3  C   UNL     1      -6.422  -4.860   0.890  1.00  0.00     0.000 C 
BRANCH   3   4
ATOM      4  C   UNL     1      -7.501  -5.260  -0.132  1.00  0.00     0.000 C 
BRANCH   4   5
ATOM      5  C   UNL     1      -8.717  -4.322  -0.108  1.00  0.00     0.000 C 
BRANCH   5   6
ATOM      6  C   UNL     1      -8.334  -2.848  -0.315  1.00  0.00     0.006 C 
BRANCH   6   7
ATOM      7  C   UNL     1      -9.579  -1.958  -0.375  1.00  0.00     0.053 C 
BRANCH   7   8
ATOM      8  C   UNL     1      -9.345  -0.789  -1.278  1.00  0.00     0.041 C 
ATOM      9  O   UNL     1      -8.736  -0.944  -2.370  1.00  0.00    -0.550 OA
ATOM     10  O   UNL     1      -9.753   0.481  -0.891  1.00  0.00    -0.550 OA
ENDBRANCH   7   8
ENDBRANCH   6   7
ENDBRANCH   5   6
ENDBRANCH   4   5
ENDBRANCH   3   4
ENDBRANCH   2   3
ENDBRANCH   1   2
BRANCH   1  11
ATOM     11  C   UNL     1      -5.801  -6.667   2.762  1.00  0.00    -0.031 C 
ATOM     12  C   UNL     1      -5.850  -7.569   3.762  1.00  0.00    -0.027 C 
BRANCH  12  13
ATOM     13  C   UNL     1      -4.878  -8.708   3.951  1.00  0.00     0.054 C 
BRANCH  13  14
ATOM     14  C   UNL     1      -4.447  -8.788   5.387  1.00  0.00    -0.027 C 
ATOM     15  C   UNL     1      -5.139  -8.173   6.358  1.00  0.00    -0.031 C 
BRANCH  15  16
ATOM     16  C   UNL     1      -4.718  -8.259   7.799  1.00  0.00     0.027 C 
BRANCH  16  17
ATOM     17  C   UNL     1      -3.877  -7.042   8.203  1.00  0.00     0.004 C 
BRANCH  17  18
ATOM     18  C   UNL     1      -2.385  -7.400   8.263  1.00  0.00     0.000 C 
BRANCH  18  19
ATOM     19  C   UNL     1      -1.953  -7.901   9.649  1.00  0.00    -0.003 C 
ATOM     20  C   UNL     1      -1.913  -9.427   9.742  1.00  0.00     0.004 C 
ENDBRANCH  18  19
ENDBRANCH  17  18
ENDBRANCH  16  17
ENDBRANCH  15  16
ENDBRANCH  13  14
ENDBRANCH  12  13
ENDBRANCH   1  11
TORSDOF 14
ENDMDL
MODEL 5
REMARK VINA RESULT:    -4.426     15.647     18.410
REMARK INTER + INTRA:          -9.482
REMARK INTER:                  -7.611
REMARK INTRA:                  -1.871
REMARK UNBOUND:                -1.434
REMARK SMILES CCCCCC=CCC=CCCCCCCCC(=O)[O-]
REMARK SMILES IDX 11 1 12 2 13 3 14 4 15 5 16 6 17 7 18 8 19 9 20 10 10 11
REMARK SMILES IDX 9 12 8 13 7 14 6 15 5 16 4 17 3 18 2 19 1 20
REMARK H PARENT
REMARK Flexibility Score: inf
ROOT
ATOM      1  C   UNL     1       6.573  -2.074  -0.641  1.00  0.00     0.027 C 
ENDROOT
BRANCH   1   2
ATOM      2  C   UNL     1       6.905  -0.725   0.014  1.00  0.00     0.004 C 
BRANCH   2   3
ATOM      3  C   UNL     1       8.232  -0.757   0.790  1.00  0.00     0.000 C 
BRANCH   3   4
ATOM      4  C   UNL     1       8.628  -2.179   1.227  1.00  0.00     0.000 C 
BRANCH   4   5
ATOM      5  C   UNL     1      10.053  -2.557   0.793  1.00  0.00     0.000 C 
BRANCH   5   6
ATOM      6  C   UNL     1      10.125  -3.942   0.133  1.00  0.00     0.006 C 
BRANCH   6   7
ATOM      7  C   UNL     1       8.953  -4.825   0.573  1.00  0.00     0.053 C 
BRANCH   7   8
ATOM      8  C   UNL     1       9.427  -6.210   0.882  1.00  0.00     0.041 C 
ATOM      9  O   UNL     1       9.788  -6.977  -0.050  1.00  0.00    -0.550 OA
ATOM     10  O   UNL     1       9.420  -6.671   2.192  1.00  0.00    -0.550 OA
ENDBRANCH   7   8
ENDBRANCH   6   7
ENDBRANCH   5   6
ENDBRANCH   4   5
ENDBRANCH   3   4
ENDBRANCH   2   3
ENDBRANCH   1   2
BRANCH   1  11
ATOM     11  C   UNL     1       6.422  -1.933  -2.134  1.00  0.00    -0.031 C 
ATOM     12  C   UNL     1       7.440  -1.751  -2.998  1.00  0.00    -0.027 C 
BRANCH  12  13
ATOM     13  C   UNL     1       8.898  -1.669  -2.617  1.00  0.00     0.054 C 
BRANCH  13  14
ATOM     14  C   UNL     1       9.455  -0.325  -2.986  1.00  0.00    -0.027 C 
ATOM     15  C   UNL     1       8.753   0.801  -2.781  1.00  0.00    -0.031 C 
BRANCH  15  16
ATOM     16  C   UNL     1       9.311   2.151  -3.138  1.00  0.00     0.027 C 
BRANCH  16  17
ATOM     17  C   UNL     1       8.765   2.635  -4.487  1.00  0.00     0.004 C 
BRANCH  17  18
ATOM     18  C   UNL     1       7.523   3.518  -4.293  1.00  0.00     0.000 C 
BRANCH  18  19
ATOM     19  C   UNL     1       7.138   4.284  -5.567  1.00  0.00    -0.003 C 
ATOM     20  C   UNL     1       7.044   3.380  -6.796  1.00  0.00     0.004 C 
ENDBRANCH  18  19
ENDBRANCH  17  18
ENDBRANCH  16  17
ENDBRANCH  15  16
ENDBRANCH  13  14
ENDBRANCH  12  13
ENDBRANCH   1  11
TORSDOF 14
ENDMDL
MODEL 6
REMARK VINA RESULT:    -4.300      1.843      4.102
REMARK INTER + INTRA:          -9.253
REMARK INTER:                  -7.062
REMARK INTRA:                  -2.191
REMARK UNBOUND:                -1.434
REMARK SMILES CCCCCC=CCC=CCCCCCCCC(=O)[O-]
REMARK SMILES IDX 11 1 12 2 13 3 14 4 15 5 16 6 17 7 18 8 19 9 20 10 10 11
REMARK SMILES IDX 9 12 8 13 7 14 6 15 5 16 4 17 3 18 2 19 1 20
REMARK H PARENT
REMARK Flexibility Score: inf
ROOT
ATOM      1  C   UNL     1      -5.690  -4.698   1.028  1.00  0.00     0.027 C 
ENDROOT
BRANCH   1   2
ATOM      2  C   UNL     1      -7.201  -4.921   0.861  1.00  0.00     0.004 C 
BRANCH   2   3
ATOM      3  C   UNL     1      -7.999  -4.501   2.106  1.00  0.00     0.000 C 
BRANCH   3   4
ATOM      4  C   UNL     1      -9.140  -3.522   1.775  1.00  0.00     0.000 C 
BRANCH   4   5
ATOM      5  C   UNL     1      -9.043  -2.959   0.349  1.00  0.00     0.000 C 
BRANCH   5   6
ATOM      6  C   UNL     1     -10.125  -1.909   0.050  1.00  0.00     0.006 C 
BRANCH   6   7
ATOM      7  C   UNL     1      -9.573  -0.784  -0.829  1.00  0.00     0.053 C 
BRANCH   7   8
ATOM      8  C   UNL     1      -9.814   0.547  -0.191  1.00  0.00     0.041 C 
ATOM      9  O   UNL     1      -9.839   1.592  -0.895  1.00  0.00    -0.550 OA
ATOM     10  O   UNL     1      -9.961   0.641   1.187  1.00  0.00    -0.550 OA
ENDBRANCH   7   8
ENDBRANCH   6   7
ENDBRANCH   5   6
ENDBRANCH   4   5
ENDBRANCH   3   4
ENDBRANCH   2   3
ENDBRANCH   1   2
BRANCH   1  11
ATOM     11  C   UNL     1      -4.923  -5.977   0.806  1.00  0.00    -0.031 C 
ATOM     12  C   UNL     1      -4.737  -6.936   1.733  1.00  0.00    -0.027 C 
BRANCH  12  13
ATOM     13  C   UNL     1      -5.273  -6.896   3.143  1.00  0.00     0.054 C 
BRANCH  13  14
ATOM     14  C   UNL     1      -6.370  -7.908   3.309  1.00  0.00    -0.027 C 
ATOM     15  C   UNL     1      -7.492  -7.616   3.985  1.00  0.00    -0.031 C 
BRANCH  15  16
ATOM     16  C   UNL     1      -8.598  -8.623   4.145  1.00  0.00     0.027 C 
BRANCH  16  17
ATOM     17  C   UNL     1      -9.233  -8.967   2.793  1.00  0.00     0.004 C 
BRANCH  17  18
ATOM     18  C   UNL     1      -9.945  -7.746   2.193  1.00  0.00     0.000 C 
BRANCH  18  19
ATOM     19  C   UNL     1      -9.600  -7.531   0.711  1.00  0.00    -0.003 C 
ATOM     20  C   UNL     1      -8.444  -8.411   0.237  1.00  0.00     0.004 C 
ENDBRANCH  18  19
ENDBRANCH  17  18
ENDBRANCH  16  17
ENDBRANCH  15  16
ENDBRANCH  13  14
ENDBRANCH  12  13
ENDBRANCH   1  11
TORSDOF 14
ENDMDL
MODEL 7
REMARK VINA RESULT:    -4.273      2.653      3.471
REMARK INTER + INTRA:          -9.204
REMARK INTER:                  -8.568
REMARK INTRA:                  -0.636
REMARK UNBOUND:                -1.434
REMARK SMILES CCCCCC=CCC=CCCCCCCCC(=O)[O-]
REMARK SMILES IDX 11 1 12 2 13 3 14 4 15 5 16 6 17 7 18 8 19 9 20 10 10 11
REMARK SMILES IDX 9 12 8 13 7 14 6 15 5 16 4 17 3 18 2 19 1 20
REMARK H PARENT
REMARK Flexibility Score: inf
ROOT
ATOM      1  C   UNL     1      -7.943  -4.771   0.810  1.00  0.00     0.027 C 
ENDROOT
BRANCH   1   2
ATOM      2  C   UNL     1      -8.582  -4.029  -0.374  1.00  0.00     0.004 C 
BRANCH   2   3
ATOM      3  C   UNL     1      -9.061  -2.618   0.005  1.00  0.00     0.000 C 
BRANCH   3   4
ATOM      4  C   UNL     1      -8.875  -1.603  -1.138  1.00  0.00     0.000 C 
BRANCH   4   5
ATOM      5  C   UNL     1      -9.846  -0.416  -1.039  1.00  0.00     0.000 C 
BRANCH   5   6
ATOM      6  C   UNL     1      -9.680   0.380   0.265  1.00  0.00     0.006 C 
BRANCH   6   7
ATOM      7  C   UNL     1      -9.797   1.885   0.010  1.00  0.00     0.053 C 
BRANCH   7   8
ATOM      8  C   UNL     1      -8.515   2.576   0.351  1.00  0.00     0.041 C 
ATOM      9  O   UNL     1      -8.239   2.843   1.551  1.00  0.00    -0.550 OA
ATOM     10  O   UNL     1      -7.647   2.971  -0.660  1.00  0.00    -0.550 OA
ENDBRANCH   7   8
ENDBRANCH   6   7
ENDBRANCH   5   6
ENDBRANCH   4   5
ENDBRANCH   3   4
ENDBRANCH   2   3
ENDBRANCH   1   2
BRANCH   1  11
ATOM     11  C   UNL     1      -6.461  -4.504   0.884  1.00  0.00    -0.031 C 
ATOM     12  C   UNL     1      -5.525  -5.424   1.188  1.00  0.00    -0.027 C 
BRANCH  12  13
ATOM     13  C   UNL     1      -5.803  -6.876   1.496  1.00  0.00     0.054 C 
BRANCH  13  14
ATOM     14  C   UNL     1      -5.970  -7.068   2.976  1.00  0.00    -0.027 C 
ATOM     15  C   UNL     1      -5.256  -7.986   3.644  1.00  0.00    -0.031 C 
BRANCH  15  16
ATOM     16  C   UNL     1      -5.412  -8.176   5.128  1.00  0.00     0.027 C 
BRANCH  16  17
ATOM     17  C   UNL     1      -4.210  -8.922   5.720  1.00  0.00     0.004 C 
BRANCH  17  18
ATOM     18  C   UNL     1      -4.101  -8.676   7.232  1.00  0.00     0.000 C 
BRANCH  18  19
ATOM     19  C   UNL     1      -3.325  -7.395   7.568  1.00  0.00    -0.003 C 
ATOM     20  C   UNL     1      -1.938  -7.676   8.147  1.00  0.00     0.004 C 
ENDBRANCH  18  19
ENDBRANCH  17  18
ENDBRANCH  16  17
ENDBRANCH  15  16
ENDBRANCH  13  14
ENDBRANCH  12  13
ENDBRANCH   1  11
TORSDOF 14
ENDMDL
MODEL 8
REMARK VINA RESULT:    -4.229      5.201      9.668
REMARK INTER + INTRA:          -9.125
REMARK INTER:                  -8.158
REMARK INTRA:                  -0.968
REMARK UNBOUND:                -1.434
REMARK SMILES CCCCCC=CCC=CCCCCCCCC(=O)[O-]
REMARK SMILES IDX 11 1 12 2 13 3 14 4 15 5 16 6 17 7 18 8 19 9 20 10 10 11
REMARK SMILES IDX 9 12 8 13 7 14 6 15 5 16 4 17 3 18 2 19 1 20
REMARK H PARENT
REMARK Flexibility Score: inf
ROOT
ATOM      1  C   UNL     1      -4.882  -7.924   2.220  1.00  0.00     0.027 C 
ENDROOT
BRANCH   1   2
ATOM      2  C   UNL     1      -4.362  -9.007   3.178  1.00  0.00     0.004 C 
BRANCH   2   3
ATOM      3  C   UNL     1      -5.417  -9.437   4.210  1.00  0.00     0.000 C 
BRANCH   3   4
ATOM      4  C   UNL     1      -4.841  -9.552   5.633  1.00  0.00     0.000 C 
BRANCH   4   5
ATOM      5  C   UNL     1      -4.788  -8.201   6.362  1.00  0.00     0.000 C 
BRANCH   5   6
ATOM      6  C   UNL     1      -4.421  -8.341   7.848  1.00  0.00     0.006 C 
BRANCH   6   7
ATOM      7  C   UNL     1      -3.563  -7.162   8.317  1.00  0.00     0.053 C 
BRANCH   7   8
ATOM      8  C   UNL     1      -2.130  -7.571   8.436  1.00  0.00     0.041 C 
ATOM      9  O   UNL     1      -1.428  -7.729   7.402  1.00  0.00    -0.550 OA
ATOM     10  O   UNL     1      -1.582  -7.829   9.687  1.00  0.00    -0.550 OA
ENDBRANCH   7   8
ENDBRANCH   6   7
ENDBRANCH   5   6
ENDBRANCH   4   5
ENDBRANCH   3   4
ENDBRANCH   2   3
ENDBRANCH   1   2
BRANCH   1  11
ATOM     11  C   UNL     1      -5.745  -6.923   2.947  1.00  0.00    -0.031 C 
ATOM     12  C   UNL     1      -6.187  -5.763   2.425  1.00  0.00    -0.027 C 
BRANCH  12  13
ATOM     13  C   UNL     1      -5.901  -5.276   1.025  1.00  0.00     0.054 C 
BRANCH  13  14
ATOM     14  C   UNL     1      -7.174  -4.844   0.357  1.00  0.00    -0.027 C 
ATOM     15  C   UNL     1      -8.108  -4.147   1.021  1.00  0.00    -0.031 C 
BRANCH  15  16
ATOM     16  C   UNL     1      -9.381  -3.703   0.353  1.00  0.00     0.027 C 
BRANCH  16  17
ATOM     17  C   UNL     1      -9.339  -2.205   0.023  1.00  0.00     0.004 C 
BRANCH  17  18
ATOM     18  C   UNL     1      -8.694  -1.962  -1.349  1.00  0.00     0.000 C 
BRANCH  18  19
ATOM     19  C   UNL     1      -9.044  -0.584  -1.930  1.00  0.00    -0.003 C 
ATOM     20  C   UNL     1      -9.721   0.334  -0.912  1.00  0.00     0.004 C 
ENDBRANCH  18  19
ENDBRANCH  17  18
ENDBRANCH  16  17
ENDBRANCH  15  16
ENDBRANCH  13  14
ENDBRANCH  12  13
ENDBRANCH   1  11
TORSDOF 14
ENDMDL
MODEL 9
REMARK VINA RESULT:    -4.165      5.907      9.592
REMARK INTER + INTRA:          -9.008
REMARK INTER:                  -7.467
REMARK INTRA:                  -1.540
REMARK UNBOUND:                -1.434
REMARK SMILES CCCCCC=CCC=CCCCCCCCC(=O)[O-]
REMARK SMILES IDX 11 1 12 2 13 3 14 4 15 5 16 6 17 7 18 8 19 9 20 10 10 11
REMARK SMILES IDX 9 12 8 13 7 14 6 15 5 16 4 17 3 18 2 19 1 20
REMARK H PARENT
REMARK Flexibility Score: inf
ROOT
ATOM      1  C   UNL     1      -5.769  -7.848   4.059  1.00  0.00     0.027 C 
ENDROOT
BRANCH   1   2
ATOM      2  C   UNL     1      -5.597  -8.854   5.207  1.00  0.00     0.004 C 
BRANCH   2   3
ATOM      3  C   UNL     1      -4.425  -8.496   6.134  1.00  0.00     0.000 C 
BRANCH   3   4
ATOM      4  C   UNL     1      -4.881  -8.177   7.569  1.00  0.00     0.000 C 
BRANCH   4   5
ATOM      5  C   UNL     1      -3.994  -7.124   8.252  1.00  0.00     0.000 C 
BRANCH   5   6
ATOM      6  C   UNL     1      -2.978  -7.744   9.225  1.00  0.00     0.006 C 
BRANCH   6   7
ATOM      7  C   UNL     1      -1.542  -7.499   8.752  1.00  0.00     0.053 C 
BRANCH   7   8
ATOM      8  C   UNL     1      -1.118  -8.562   7.789  1.00  0.00     0.041 C 
ATOM      9  O   UNL     1      -1.509  -9.749   7.945  1.00  0.00    -0.550 OA
ATOM     10  O   UNL     1      -0.250  -8.252   6.750  1.00  0.00    -0.550 OA
ENDBRANCH   7   8
ENDBRANCH   6   7
ENDBRANCH   5   6
ENDBRANCH   4   5
ENDBRANCH   3   4
ENDBRANCH   2   3
ENDBRANCH   1   2
BRANCH   1  11
ATOM     11  C   UNL     1      -4.983  -8.269   2.843  1.00  0.00    -0.031 C 
ATOM     12  C   UNL     1      -5.457  -9.041   1.847  1.00  0.00    -0.027 C 
BRANCH  12  13
ATOM     13  C   UNL     1      -6.855  -9.606   1.777  1.00  0.00     0.054 C 
BRANCH  13  14
ATOM     14  C   UNL     1      -7.656  -8.876   0.738  1.00  0.00    -0.027 C 
ATOM     15  C   UNL     1      -8.368  -7.782   1.048  1.00  0.00    -0.031 C 
BRANCH  15  16
ATOM     16  C   UNL     1      -9.164  -7.041   0.008  1.00  0.00     0.027 C 
BRANCH  16  17
ATOM     17  C   UNL     1      -8.926  -5.529   0.103  1.00  0.00     0.004 C 
BRANCH  17  18
ATOM     18  C   UNL     1      -7.516  -5.163  -0.383  1.00  0.00     0.000 C 
BRANCH  18  19
ATOM     19  C   UNL     1      -6.610  -4.668   0.754  1.00  0.00    -0.003 C 
ATOM     20  C   UNL     1      -5.235  -5.336   0.750  1.00  0.00     0.004 C 
ENDBRANCH  18  19
ENDBRANCH  17  18
ENDBRANCH  16  17
ENDBRANCH  15  16
ENDBRANCH  13  14
ENDBRANCH  12  13
ENDBRANCH   1  11
TORSDOF 14
ENDMDL
