MODEL 1
REMARK VINA RESULT:    -2.263      0.000      0.000
REMARK INTER + INTRA:          -2.666
REMARK INTER:                  -2.395
REMARK INTRA:                  -0.271
REMARK UNBOUND:                -0.271
REMARK SMILES CC1=CC[C@H]2[C@H]3[C@@H]1[C@]2(C)CC[C@H]3C(C)C
REMARK SMILES IDX 1 1 2 2 3 3 4 4 5 5 6 6 7 7 8 8 10 9 11 10 12 11 9 12 13 13
REMARK SMILES IDX 14 14 15 15
REMARK H PARENT
REMARK Flexibility Score: inf
ROOT
ATOM      1  C   UNL     1       3.569   4.875  12.977  1.00  0.00     0.039 C 
ATOM      2  C   UNL     1       4.314   6.147  12.705  1.00  0.00    -0.073 C 
ATOM      3  C   UNL     1       5.478   6.145  12.005  1.00  0.00    -0.027 C 
ATOM      4  C   UNL     1       6.209   7.473  11.781  1.00  0.00     0.031 C 
ATOM      5  C   UNL     1       5.401   8.653  12.410  1.00  0.00     0.003 C 
ATOM      6  C   UNL     1       3.916   8.478  11.992  1.00  0.00     0.004 C 
ATOM      7  C   UNL     1       3.793   7.505  13.187  1.00  0.00     0.024 C 
ATOM      8  C   UNL     1       4.930   8.316  13.849  1.00  0.00    -0.022 C 
ATOM      9  C   UNL     1       4.322   9.578  14.535  1.00  0.00     0.008 C 
ATOM     10  C   UNL     1       3.605  10.517  13.527  1.00  0.00     0.005 C 
ATOM     11  C   UNL     1       3.070   9.755  12.275  1.00  0.00    -0.005 C 
ATOM     12  C   UNL     1       5.900   7.582  14.804  1.00  0.00     0.012 C 
ENDROOT
BRANCH  11  13
ATOM     13  C   UNL     1       2.898  10.644  11.007  1.00  0.00    -0.014 C 
ATOM     14  C   UNL     1       3.903  11.805  10.909  1.00  0.00     0.007 C 
ATOM     15  C   UNL     1       1.461  11.170  10.875  1.00  0.00     0.007 C 
ENDBRANCH  11  13
TORSDOF 1
ENDMDL
MODEL 2
REMARK VINA RESULT:    -1.999      1.396      2.981
REMARK INTER + INTRA:          -2.387
REMARK INTER:                  -2.152
REMARK INTRA:                  -0.235
REMARK UNBOUND:                -0.271
REMARK SMILES CC1=CC[C@H]2[C@H]3[C@@H]1[C@]2(C)CC[C@H]3C(C)C
REMARK SMILES IDX 1 1 2 2 3 3 4 4 5 5 6 6 7 7 8 8 10 9 11 10 12 11 9 12 13 13
REMARK SMILES IDX 14 14 15 15
REMARK H PARENT
REMARK Flexibility Score: inf
ROOT
ATOM      1  C   UNL     1       8.234   6.365  10.894  1.00  0.00     0.039 C 
ATOM      2  C   UNL     1       7.488   6.798  12.119  1.00  0.00    -0.073 C 
ATOM      3  C   UNL     1       8.144   7.164  13.251  1.00  0.00    -0.027 C 
ATOM      4  C   UNL     1       7.328   7.573  14.481  1.00  0.00     0.031 C 
ATOM      5  C   UNL     1       5.799   7.521  14.163  1.00  0.00     0.003 C 
ATOM      6  C   UNL     1       5.584   8.220  12.793  1.00  0.00     0.004 C 
ATOM      7  C   UNL     1       5.957   6.865  12.150  1.00  0.00     0.024 C 
ATOM      8  C   UNL     1       5.413   6.206  13.438  1.00  0.00    -0.022 C 
ATOM      9  C   UNL     1       3.862   6.076  13.327  1.00  0.00     0.008 C 
ATOM     10  C   UNL     1       3.159   7.453  13.175  1.00  0.00     0.005 C 
ATOM     11  C   UNL     1       4.081   8.527  12.518  1.00  0.00    -0.005 C 
ATOM     12  C   UNL     1       6.045   4.875  13.909  1.00  0.00     0.012 C 
ENDROOT
BRANCH  11  13
ATOM     13  C   UNL     1       3.703   9.997  12.868  1.00  0.00    -0.014 C 
ATOM     14  C   UNL     1       2.531  10.130  13.856  1.00  0.00     0.007 C 
ATOM     15  C   UNL     1       3.434  10.828  11.605  1.00  0.00     0.007 C 
ENDBRANCH  11  13
TORSDOF 1
ENDMDL
MODEL 3
REMARK VINA RESULT:    -1.677      1.418      4.721
REMARK INTER + INTRA:          -2.046
REMARK INTER:                  -1.833
REMARK INTRA:                  -0.213
REMARK UNBOUND:                -0.271
REMARK SMILES CC1=CC[C@H]2[C@H]3[C@@H]1[C@]2(C)CC[C@H]3C(C)C
REMARK SMILES IDX 1 1 2 2 3 3 4 4 5 5 6 6 7 7 8 8 10 9 11 10 12 11 9 12 13 13
REMARK SMILES IDX 14 14 15 15
REMARK H PARENT
REMARK Flexibility Score: inf
ROOT
ATOM      1  C   UNL     1       0.164   9.776  13.489  1.00  0.00     0.039 C 
ATOM      2  C   UNL     1       1.654   9.937  13.505  1.00  0.00    -0.073 C 
ATOM      3  C   UNL     1       2.254  10.864  14.297  1.00  0.00    -0.027 C 
ATOM      4  C   UNL     1       3.779  11.001  14.250  1.00  0.00     0.031 C 
ATOM      5  C   UNL     1       4.391   9.955  13.264  1.00  0.00     0.003 C 
ATOM      6  C   UNL     1       3.720   8.587  13.559  1.00  0.00     0.004 C 
ATOM      7  C   UNL     1       2.568   9.060  12.644  1.00  0.00     0.024 C 
ATOM      8  C   UNL     1       3.622   9.926  11.917  1.00  0.00    -0.022 C 
ATOM      9  C   UNL     1       4.376   9.043  10.875  1.00  0.00     0.008 C 
ATOM     10  C   UNL     1       5.125   7.852  11.534  1.00  0.00     0.005 C 
ATOM     11  C   UNL     1       4.471   7.403  12.878  1.00  0.00    -0.005 C 
ATOM     12  C   UNL     1       3.168  11.261  11.282  1.00  0.00     0.012 C 
ENDROOT
BRANCH  11  13
ATOM     13  C   UNL     1       5.444   6.678  13.854  1.00  0.00    -0.014 C 
ATOM     14  C   UNL     1       6.685   7.503  14.238  1.00  0.00     0.007 C 
ATOM     15  C   UNL     1       5.863   5.301  13.317  1.00  0.00     0.007 C 
ENDBRANCH  11  13
TORSDOF 1
ENDMDL
MODEL 4
REMARK VINA RESULT:    -0.829      1.276      4.850
REMARK INTER + INTRA:          -1.148
REMARK INTER:                  -0.918
REMARK INTRA:                  -0.231
REMARK UNBOUND:                -0.271
REMARK SMILES CC1=CC[C@H]2[C@H]3[C@@H]1[C@]2(C)CC[C@H]3C(C)C
REMARK SMILES IDX 1 1 2 2 3 3 4 4 5 5 6 6 7 7 8 8 10 9 11 10 12 11 9 12 13 13
REMARK SMILES IDX 14 14 15 15
REMARK H PARENT
REMARK Flexibility Score: inf
ROOT
ATOM      1  C   UNL     1       4.241  12.774  13.849  1.00  0.00     0.039 C 
ATOM      2  C   UNL     1       3.984  11.552  13.020  1.00  0.00    -0.073 C 
ATOM      3  C   UNL     1       3.872  11.629  11.668  1.00  0.00    -0.027 C 
ATOM      4  C   UNL     1       3.583  10.351  10.875  1.00  0.00     0.031 C 
ATOM      5  C   UNL     1       3.505   9.120  11.835  1.00  0.00     0.003 C 
ATOM      6  C   UNL     1       4.716   9.204  12.801  1.00  0.00     0.004 C 
ATOM      7  C   UNL     1       3.852  10.162  13.651  1.00  0.00     0.024 C 
ATOM      8  C   UNL     1       2.624   9.421  13.075  1.00  0.00    -0.022 C 
ATOM      9  C   UNL     1       2.380   8.121  13.902  1.00  0.00     0.008 C 
ATOM     10  C   UNL     1       3.585   7.143  13.843  1.00  0.00     0.005 C 
ATOM     11  C   UNL     1       4.939   7.875  13.584  1.00  0.00    -0.005 C 
ATOM     12  C   UNL     1       1.307  10.210  12.888  1.00  0.00     0.012 C 
ENDROOT
BRANCH  11  13
ATOM     13  C   UNL     1       6.037   6.981  12.935  1.00  0.00    -0.014 C 
ATOM     14  C   UNL     1       5.605   5.525  12.691  1.00  0.00     0.007 C 
ATOM     15  C   UNL     1       7.347   7.023  13.736  1.00  0.00     0.007 C 
ENDBRANCH  11  13
TORSDOF 1
ENDMDL
MODEL 5
REMARK VINA RESULT:    -0.364      1.075      4.618
REMARK INTER + INTRA:          -0.657
REMARK INTER:                  -0.508
REMARK INTRA:                  -0.149
REMARK UNBOUND:                -0.271
REMARK SMILES CC1=CC[C@H]2[C@H]3[C@@H]1[C@]2(C)CC[C@H]3C(C)C
REMARK SMILES IDX 1 1 2 2 3 3 4 4 5 5 6 6 7 7 8 8 10 9 11 10 12 11 9 12 13 13
REMARK SMILES IDX 14 14 15 15
REMARK H PARENT
REMARK Flexibility Score: inf
ROOT
ATOM      1  C   UNL     1       3.603  11.624  10.875  1.00  0.00     0.039 C 
ATOM      2  C   UNL     1       3.274  10.500  11.811  1.00  0.00    -0.073 C 
ATOM      3  C   UNL     1       1.986  10.166  12.086  1.00  0.00    -0.027 C 
ATOM      4  C   UNL     1       1.711   9.026  13.071  1.00  0.00     0.031 C 
ATOM      5  C   UNL     1       3.054   8.404  13.573  1.00  0.00     0.003 C 
ATOM      6  C   UNL     1       3.960   8.186  12.332  1.00  0.00     0.004 C 
ATOM      7  C   UNL     1       4.368   9.668  12.488  1.00  0.00     0.024 C 
ATOM      8  C   UNL     1       4.067   9.500  13.994  1.00  0.00    -0.022 C 
ATOM      9  C   UNL     1       5.307   8.861  14.693  1.00  0.00     0.008 C 
ATOM     10  C   UNL     1       5.651   7.456  14.127  1.00  0.00     0.005 C 
ATOM     11  C   UNL     1       5.184   7.275  12.648  1.00  0.00    -0.005 C 
ATOM     12  C   UNL     1       3.559  10.728  14.786  1.00  0.00     0.012 C 
ENDROOT
BRANCH  11  13
ATOM     13  C   UNL     1       4.946   5.794  12.228  1.00  0.00    -0.014 C 
ATOM     14  C   UNL     1       3.592   5.219  12.680  1.00  0.00     0.007 C 
ATOM     15  C   UNL     1       6.093   4.883  12.688  1.00  0.00     0.007 C 
ENDBRANCH  11  13
TORSDOF 1
ENDMDL
MODEL 6
REMARK VINA RESULT:    -0.263      1.600      3.436
REMARK INTER + INTRA:          -0.549
REMARK INTER:                  -0.462
REMARK INTRA:                  -0.088
REMARK UNBOUND:                -0.271
REMARK SMILES CC1=CC[C@H]2[C@H]3[C@@H]1[C@]2(C)CC[C@H]3C(C)C
REMARK SMILES IDX 1 1 2 2 3 3 4 4 5 5 6 6 7 7 8 8 10 9 11 10 12 11 9 12 13 13
REMARK SMILES IDX 14 14 15 15
REMARK H PARENT
REMARK Flexibility Score: inf
ROOT
ATOM      1  C   UNL     1       9.380   7.876  13.128  1.00  0.00     0.039 C 
ATOM      2  C   UNL     1       7.967   7.780  13.618  1.00  0.00    -0.073 C 
ATOM      3  C   UNL     1       7.641   8.108  14.896  1.00  0.00    -0.027 C 
ATOM      4  C   UNL     1       6.184   7.966  15.347  1.00  0.00     0.031 C 
ATOM      5  C   UNL     1       5.291   7.474  14.163  1.00  0.00     0.003 C 
ATOM      6  C   UNL     1       5.662   8.321  12.916  1.00  0.00     0.004 C 
ATOM      7  C   UNL     1       6.825   7.327  12.703  1.00  0.00     0.024 C 
ATOM      8  C   UNL     1       5.942   6.279  13.419  1.00  0.00    -0.022 C 
ATOM      9  C   UNL     1       4.943   5.667  12.388  1.00  0.00     0.008 C 
ATOM     10  C   UNL     1       3.996   6.732  11.771  1.00  0.00     0.005 C 
ATOM     11  C   UNL     1       4.624   8.160  11.764  1.00  0.00    -0.005 C 
ATOM     12  C   UNL     1       6.635   5.169  14.242  1.00  0.00     0.012 C 
ENDROOT
BRANCH  11  13
ATOM     13  C   UNL     1       3.584   9.319  11.738  1.00  0.00    -0.014 C 
ATOM     14  C   UNL     1       4.000  10.523  10.875  1.00  0.00     0.007 C 
ATOM     15  C   UNL     1       3.214   9.780  13.155  1.00  0.00     0.007 C 
ENDBRANCH  11  13
TORSDOF 1
ENDMDL
MODEL 7
REMARK VINA RESULT:     0.382      1.770      4.716
REMARK INTER + INTRA:           0.134
REMARK INTER:                   0.278
REMARK INTRA:                  -0.144
REMARK UNBOUND:                -0.271
REMARK SMILES CC1=CC[C@H]2[C@H]3[C@@H]1[C@]2(C)CC[C@H]3C(C)C
REMARK SMILES IDX 1 1 2 2 3 3 4 4 5 5 6 6 7 7 8 8 10 9 11 10 12 11 9 12 13 13
REMARK SMILES IDX 14 14 15 15
REMARK H PARENT
REMARK Flexibility Score: inf
ROOT
ATOM      1  C   UNL     1       2.878   9.465  14.296  1.00  0.00     0.039 C 
ATOM      2  C   UNL     1       3.754   8.691  13.358  1.00  0.00    -0.073 C 
ATOM      3  C   UNL     1       3.837   9.017  12.042  1.00  0.00    -0.027 C 
ATOM      4  C   UNL     1       4.729   8.173  11.126  1.00  0.00     0.031 C 
ATOM      5  C   UNL     1       5.446   7.052  11.944  1.00  0.00     0.003 C 
ATOM      6  C   UNL     1       6.015   7.706  13.232  1.00  0.00     0.004 C 
ATOM      7  C   UNL     1       4.607   7.513  13.838  1.00  0.00     0.024 C 
ATOM      8  C   UNL     1       4.457   6.310  12.879  1.00  0.00    -0.022 C 
ATOM      9  C   UNL     1       5.140   5.061  13.519  1.00  0.00     0.008 C 
ATOM     10  C   UNL     1       6.658   5.274  13.766  1.00  0.00     0.005 C 
ATOM     11  C   UNL     1       7.028   6.777  13.967  1.00  0.00    -0.005 C 
ATOM     12  C   UNL     1       3.046   5.958  12.354  1.00  0.00     0.012 C 
ENDROOT
BRANCH  11  13
ATOM     13  C   UNL     1       8.507   7.125  13.625  1.00  0.00    -0.014 C 
ATOM     14  C   UNL     1       8.994   8.461  14.213  1.00  0.00     0.007 C 
ATOM     15  C   UNL     1       8.763   7.083  12.111  1.00  0.00     0.007 C 
ENDBRANCH  11  13
TORSDOF 1
ENDMDL
