MODEL 1
REMARK VINA RESULT:    -3.926      0.000      0.000
REMARK INTER + INTRA:          -4.751
REMARK INTER:                  -4.614
REMARK INTRA:                  -0.137
REMARK UNBOUND:                -0.137
REMARK SMILES O=C([O-])CCC(=O)[O-]
REMARK SMILES IDX 4 1 2 2 1 3 3 4 5 5 6 6 7 7 8 8
REMARK H PARENT
REMARK Flexibility Score: inf
ROOT
ATOM      1  C   UNL     1       4.982  -9.620   4.539  1.00  0.00     0.059 C 
ENDROOT
BRANCH   1   2
ATOM      2  C   UNL     1       3.525  -9.322   4.356  1.00  0.00     0.042 C 
ATOM      3  O   UNL     1       2.701 -10.260   4.191  1.00  0.00    -0.550 OA
ATOM      4  O   UNL     1       3.073  -8.010   4.406  1.00  0.00    -0.550 OA
ENDBRANCH   1   2
BRANCH   1   5
ATOM      5  C   UNL     1       5.435 -10.783   3.648  1.00  0.00     0.059 C 
BRANCH   5   6
ATOM      6  C   UNL     1       5.615 -10.351   2.225  1.00  0.00     0.042 C 
ATOM      7  O   UNL     1       4.816 -10.746   1.336  1.00  0.00    -0.550 OA
ATOM      8  O   UNL     1       6.690  -9.543   1.874  1.00  0.00    -0.550 OA
ENDBRANCH   5   6
ENDBRANCH   1   5
TORSDOF 3
ENDMDL
MODEL 2
REMARK VINA RESULT:    -3.919      0.086      3.544
REMARK INTER + INTRA:          -4.743
REMARK INTER:                  -4.601
REMARK INTRA:                  -0.141
REMARK UNBOUND:                -0.137
REMARK SMILES O=C([O-])CCC(=O)[O-]
REMARK SMILES IDX 4 1 2 2 1 3 3 4 5 5 6 6 7 7 8 8
REMARK H PARENT
REMARK Flexibility Score: inf
ROOT
ATOM      1  C   UNL     1       5.386 -10.764   3.619  1.00  0.00     0.059 C 
ENDROOT
BRANCH   1   2
ATOM      2  C   UNL     1       5.605 -10.281   2.218  1.00  0.00     0.042 C 
ATOM      3  O   UNL     1       6.596  -9.553   1.945  1.00  0.00    -0.550 OA
ATOM      4  O   UNL     1       4.737 -10.668   1.205  1.00  0.00    -0.550 OA
ENDBRANCH   1   2
BRANCH   1   5
ATOM      5  C   UNL     1       4.946  -9.625   4.545  1.00  0.00     0.059 C 
BRANCH   5   6
ATOM      6  C   UNL     1       3.493  -9.304   4.373  1.00  0.00     0.042 C 
ATOM      7  O   UNL     1       2.660 -10.225   4.164  1.00  0.00    -0.550 OA
ATOM      8  O   UNL     1       3.063  -7.983   4.405  1.00  0.00    -0.550 OA
ENDBRANCH   5   6
ENDBRANCH   1   5
TORSDOF 3
ENDMDL
MODEL 3
REMARK VINA RESULT:    -3.816      0.944      3.505
REMARK INTER + INTRA:          -4.622
REMARK INTER:                  -4.485
REMARK INTRA:                  -0.137
REMARK UNBOUND:                -0.137
REMARK SMILES O=C([O-])CCC(=O)[O-]
REMARK SMILES IDX 4 1 2 2 1 3 3 4 5 5 6 6 7 7 8 8
REMARK H PARENT
REMARK Flexibility Score: inf
ROOT
ATOM      1  C   UNL     1       5.246 -11.092   3.297  1.00  0.00     0.059 C 
ENDROOT
BRANCH   1   2
ATOM      2  C   UNL     1       5.502 -10.407   1.989  1.00  0.00     0.042 C 
ATOM      3  O   UNL     1       4.715 -10.576   1.020  1.00  0.00    -0.550 OA
ATOM      4  O   UNL     1       6.587  -9.551   1.853  1.00  0.00    -0.550 OA
ENDBRANCH   1   2
BRANCH   1   5
ATOM      5  C   UNL     1       3.896 -10.680   3.894  1.00  0.00     0.059 C 
BRANCH   5   6
ATOM      6  C   UNL     1       3.869  -9.225   4.247  1.00  0.00     0.042 C 
ATOM      7  O   UNL     1       4.845  -8.699   4.846  1.00  0.00    -0.550 OA
ATOM      8  O   UNL     1       2.751  -8.456   3.950  1.00  0.00    -0.550 OA
ENDBRANCH   5   6
ENDBRANCH   1   5
TORSDOF 3
ENDMDL
MODEL 4
REMARK VINA RESULT:    -3.492      1.206      1.729
REMARK INTER + INTRA:          -4.241
REMARK INTER:                  -4.177
REMARK INTRA:                  -0.064
REMARK UNBOUND:                -0.137
REMARK SMILES O=C([O-])CCC(=O)[O-]
REMARK SMILES IDX 4 1 2 2 1 3 3 4 5 5 6 6 7 7 8 8
REMARK H PARENT
REMARK Flexibility Score: inf
ROOT
ATOM      1  C   UNL     1       6.062 -10.054   4.078  1.00  0.00     0.059 C 
ENDROOT
BRANCH   1   2
ATOM      2  C   UNL     1       4.569  -9.976   4.169  1.00  0.00     0.042 C 
ATOM      3  O   UNL     1       4.001  -8.866   4.345  1.00  0.00    -0.550 OA
ATOM      4  O   UNL     1       3.802 -11.125   4.021  1.00  0.00    -0.550 OA
ENDBRANCH   1   2
BRANCH   1   5
ATOM      5  C   UNL     1       6.510 -10.859   2.852  1.00  0.00     0.059 C 
BRANCH   5   6
ATOM      6  C   UNL     1       6.579 -10.002   1.625  1.00  0.00     0.042 C 
ATOM      7  O   UNL     1       5.525  -9.681   1.015  1.00  0.00    -0.550 OA
ATOM      8  O   UNL     1       7.811  -9.590   1.132  1.00  0.00    -0.550 OA
ENDBRANCH   5   6
ENDBRANCH   1   5
TORSDOF 3
ENDMDL
MODEL 5
REMARK VINA RESULT:    -3.278      2.224      2.906
REMARK INTER + INTRA:          -3.990
REMARK INTER:                  -3.956
REMARK INTRA:                  -0.034
REMARK UNBOUND:                -0.137
REMARK SMILES O=C([O-])CCC(=O)[O-]
REMARK SMILES IDX 4 1 2 2 1 3 3 4 5 5 6 6 7 7 8 8
REMARK H PARENT
REMARK Flexibility Score: inf
ROOT
ATOM      1  C   UNL     1       6.725 -10.808   2.722  1.00  0.00     0.059 C 
ENDROOT
BRANCH   1   2
ATOM      2  C   UNL     1       5.482 -10.577   3.526  1.00  0.00     0.042 C 
ATOM      3  O   UNL     1       5.395 -11.022   4.702  1.00  0.00    -0.550 OA
ATOM      4  O   UNL     1       4.436  -9.837   2.991  1.00  0.00    -0.550 OA
ENDBRANCH   1   2
BRANCH   1   5
ATOM      5  C   UNL     1       6.909  -9.729   1.648  1.00  0.00     0.059 C 
BRANCH   5   6
ATOM      6  C   UNL     1       8.178  -9.928   0.878  1.00  0.00     0.042 C 
ATOM      7  O   UNL     1       8.631 -11.088   0.689  1.00  0.00    -0.550 OA
ATOM      8  O   UNL     1       8.884  -8.830   0.402  1.00  0.00    -0.550 OA
ENDBRANCH   5   6
ENDBRANCH   1   5
TORSDOF 3
ENDMDL
MODEL 6
REMARK VINA RESULT:    -3.118      9.117     10.770
REMARK INTER + INTRA:          -3.802
REMARK INTER:                  -3.682
REMARK INTRA:                  -0.120
REMARK UNBOUND:                -0.137
REMARK SMILES O=C([O-])CCC(=O)[O-]
REMARK SMILES IDX 4 1 2 2 1 3 3 4 5 5 6 6 7 7 8 8
REMARK H PARENT
REMARK Flexibility Score: inf
ROOT
ATOM      1  C   UNL     1       7.584  -4.010  -4.764  1.00  0.00     0.059 C 
ENDROOT
BRANCH   1   2
ATOM      2  C   UNL     1       8.000  -3.822  -6.192  1.00  0.00     0.042 C 
ATOM      3  O   UNL     1       7.353  -3.046  -6.944  1.00  0.00    -0.550 OA
ATOM      4  O   UNL     1       9.125  -4.475  -6.679  1.00  0.00    -0.550 OA
ENDBRANCH   1   2
BRANCH   1   5
ATOM      5  C   UNL     1       8.782  -4.343  -3.868  1.00  0.00     0.059 C 
BRANCH   5   6
ATOM      6  C   UNL     1       8.729  -5.759  -3.380  1.00  0.00     0.042 C 
ATOM      7  O   UNL     1       9.067  -6.035  -2.199  1.00  0.00    -0.550 OA
ATOM      8  O   UNL     1       8.344  -6.778  -4.241  1.00  0.00    -0.550 OA
ENDBRANCH   5   6
ENDBRANCH   1   5
TORSDOF 3
ENDMDL
MODEL 7
REMARK VINA RESULT:    -3.079     10.520     11.459
REMARK INTER + INTRA:          -3.756
REMARK INTER:                  -3.616
REMARK INTRA:                  -0.140
REMARK UNBOUND:                -0.137
REMARK SMILES O=C([O-])CCC(=O)[O-]
REMARK SMILES IDX 4 1 2 2 1 3 3 4 5 5 6 6 7 7 8 8
REMARK H PARENT
REMARK Flexibility Score: inf
ROOT
ATOM      1  C   UNL     1       7.949  -3.793  -6.606  1.00  0.00     0.059 C 
ENDROOT
BRANCH   1   2
ATOM      2  C   UNL     1       7.780  -4.003  -5.132  1.00  0.00     0.042 C 
ATOM      3  O   UNL     1       6.656  -4.325  -4.662  1.00  0.00    -0.550 OA
ATOM      4  O   UNL     1       8.872  -3.883  -4.284  1.00  0.00    -0.550 OA
ENDBRANCH   1   2
BRANCH   1   5
ATOM      5  C   UNL     1       9.043  -4.698  -7.183  1.00  0.00     0.059 C 
BRANCH   5   6
ATOM      6  C   UNL     1       8.541  -6.089  -7.420  1.00  0.00     0.042 C 
ATOM      7  O   UNL     1       7.833  -6.345  -8.429  1.00  0.00    -0.550 OA
ATOM      8  O   UNL     1       8.821  -7.096  -6.504  1.00  0.00    -0.550 OA
ENDBRANCH   5   6
ENDBRANCH   1   5
TORSDOF 3
ENDMDL
MODEL 8
REMARK VINA RESULT:    -2.956      8.087      9.619
REMARK INTER + INTRA:          -3.611
REMARK INTER:                  -3.515
REMARK INTRA:                  -0.096
REMARK UNBOUND:                -0.137
REMARK SMILES O=C([O-])CCC(=O)[O-]
REMARK SMILES IDX 4 1 2 2 1 3 3 4 5 5 6 6 7 7 8 8
REMARK H PARENT
REMARK Flexibility Score: inf
ROOT
ATOM      1  C   UNL     1       8.518  -5.611  -3.244  1.00  0.00     0.059 C 
ENDROOT
BRANCH   1   2
ATOM      2  C   UNL     1       8.313  -7.096  -3.242  1.00  0.00     0.042 C 
ATOM      3  O   UNL     1       8.411  -7.751  -4.313  1.00  0.00    -0.550 OA
ATOM      4  O   UNL     1       8.052  -7.760  -2.050  1.00  0.00    -0.550 OA
ENDBRANCH   1   2
BRANCH   1   5
ATOM      5  C   UNL     1       8.749  -5.077  -4.662  1.00  0.00     0.059 C 
BRANCH   5   6
ATOM      6  C   UNL     1       7.526  -4.403  -5.204  1.00  0.00     0.042 C 
ATOM      7  O   UNL     1       6.505  -4.263  -4.480  1.00  0.00    -0.550 OA
ATOM      8  O   UNL     1       7.498  -3.967  -6.522  1.00  0.00    -0.550 OA
ENDBRANCH   5   6
ENDBRANCH   1   5
TORSDOF 3
ENDMDL
