MODEL 1
REMARK VINA RESULT:    -4.272      0.000      0.000
REMARK INTER + INTRA:          -6.975
REMARK INTER:                  -6.271
REMARK INTRA:                  -0.705
REMARK UNBOUND:                -0.705
REMARK SMILES O=C([O-])CCCCCCCC(=O)[O-]
REMARK SMILES IDX 7 1 6 2 5 3 4 4 2 5 1 6 3 7 8 8 9 9 10 10 11 11 12 12 13 13
REMARK H PARENT
REMARK Flexibility Score: inf
ROOT
ATOM      1  C   UNL     1     -36.608  20.385 -30.939  1.00  0.00     0.000 C 
ENDROOT
BRANCH   1   2
ATOM      2  C   UNL     1     -35.225  19.737 -30.756  1.00  0.00     0.000 C 
BRANCH   2   3
ATOM      3  C   UNL     1     -35.272  18.477 -29.873  1.00  0.00     0.006 C 
BRANCH   3   4
ATOM      4  C   UNL     1     -35.286  17.188 -30.705  1.00  0.00     0.053 C 
BRANCH   4   5
ATOM      5  C   UNL     1     -36.603  16.479 -30.614  1.00  0.00     0.041 C 
ATOM      6  O   UNL     1     -36.672  15.337 -30.087  1.00  0.00    -0.550 OA
ATOM      7  O   UNL     1     -37.747  17.066 -31.137  1.00  0.00    -0.550 OA
ENDBRANCH   4   5
ENDBRANCH   3   4
ENDBRANCH   2   3
ENDBRANCH   1   2
BRANCH   1   8
ATOM      8  C   UNL     1     -36.871  21.510 -29.923  1.00  0.00     0.000 C 
BRANCH   8   9
ATOM      9  C   UNL     1     -38.252  21.392 -29.250  1.00  0.00     0.006 C 
BRANCH   9  10
ATOM     10  C   UNL     1     -39.116  20.233 -29.773  1.00  0.00     0.053 C 
BRANCH  10  11
ATOM     11  C   UNL     1     -39.381  19.208 -28.714  1.00  0.00     0.041 C 
ATOM     12  O   UNL     1     -38.429  18.561 -28.204  1.00  0.00    -0.550 OA
ATOM     13  O   UNL     1     -40.679  18.989 -28.268  1.00  0.00    -0.550 OA
ENDBRANCH  10  11
ENDBRANCH   9  10
ENDBRANCH   8   9
ENDBRANCH   1   8
TORSDOF 8
ENDMDL
MODEL 2
REMARK VINA RESULT:    -4.271      0.633      4.045
REMARK INTER + INTRA:          -6.973
REMARK INTER:                  -6.239
REMARK INTRA:                  -0.734
REMARK UNBOUND:                -0.705
REMARK SMILES O=C([O-])CCCCCCCC(=O)[O-]
REMARK SMILES IDX 7 1 6 2 5 3 4 4 2 5 1 6 3 7 8 8 9 9 10 10 11 11 12 12 13 13
REMARK H PARENT
REMARK Flexibility Score: inf
ROOT
ATOM      1  C   UNL     1     -35.989  21.028 -29.013  1.00  0.00     0.000 C 
ENDROOT
BRANCH   1   2
ATOM      2  C   UNL     1     -37.109  21.865 -29.654  1.00  0.00     0.000 C 
BRANCH   2   3
ATOM      3  C   UNL     1     -38.486  21.597 -29.021  1.00  0.00     0.006 C 
BRANCH   3   4
ATOM      4  C   UNL     1     -39.206  20.413 -29.680  1.00  0.00     0.053 C 
BRANCH   4   5
ATOM      5  C   UNL     1     -39.481  19.312 -28.703  1.00  0.00     0.041 C 
ATOM      6  O   UNL     1     -40.667  19.031 -28.383  1.00  0.00    -0.550 OA
ATOM      7  O   UNL     1     -38.429  18.616 -28.123  1.00  0.00    -0.550 OA
ENDBRANCH   4   5
ENDBRANCH   3   4
ENDBRANCH   2   3
ENDBRANCH   1   2
BRANCH   1   8
ATOM      8  C   UNL     1     -35.085  20.352 -30.059  1.00  0.00     0.000 C 
BRANCH   8   9
ATOM      9  C   UNL     1     -35.791  19.200 -30.800  1.00  0.00     0.006 C 
BRANCH   9  10
ATOM     10  C   UNL     1     -35.679  17.835 -30.103  1.00  0.00     0.053 C 
BRANCH  10  11
ATOM     11  C   UNL     1     -36.738  16.881 -30.562  1.00  0.00     0.041 C 
ATOM     12  O   UNL     1     -36.631  15.650 -30.321  1.00  0.00    -0.550 OA
ATOM     13  O   UNL     1     -37.860  17.358 -31.228  1.00  0.00    -0.550 OA
ENDBRANCH  10  11
ENDBRANCH   9  10
ENDBRANCH   8   9
ENDBRANCH   1   8
TORSDOF 8
ENDMDL
MODEL 3
REMARK VINA RESULT:    -4.130      1.749      4.834
REMARK INTER + INTRA:          -6.766
REMARK INTER:                  -6.107
REMARK INTRA:                  -0.659
REMARK UNBOUND:                -0.705
REMARK SMILES O=C([O-])CCCCCCCC(=O)[O-]
REMARK SMILES IDX 7 1 6 2 5 3 4 4 2 5 1 6 3 7 8 8 9 9 10 10 11 11 12 12 13 13
REMARK H PARENT
REMARK Flexibility Score: inf
ROOT
ATOM      1  C   UNL     1     -36.541  19.921 -28.799  1.00  0.00     0.000 C 
ENDROOT
BRANCH   1   2
ATOM      2  C   UNL     1     -37.669  18.947 -28.419  1.00  0.00     0.000 C 
BRANCH   2   3
ATOM      3  C   UNL     1     -39.019  19.327 -29.055  1.00  0.00     0.006 C 
BRANCH   3   4
ATOM      4  C   UNL     1     -38.873  20.439 -30.101  1.00  0.00     0.053 C 
BRANCH   4   5
ATOM      5  C   UNL     1     -39.554  21.703 -29.672  1.00  0.00     0.041 C 
ATOM      6  O   UNL     1     -40.691  21.996 -30.128  1.00  0.00    -0.550 OA
ATOM      7  O   UNL     1     -38.921  22.570 -28.791  1.00  0.00    -0.550 OA
ENDBRANCH   4   5
ENDBRANCH   3   4
ENDBRANCH   2   3
ENDBRANCH   1   2
BRANCH   1   8
ATOM      8  C   UNL     1     -35.264  19.195 -29.254  1.00  0.00     0.000 C 
BRANCH   8   9
ATOM      9  C   UNL     1     -35.414  18.540 -30.641  1.00  0.00     0.006 C 
BRANCH   9  10
ATOM     10  C   UNL     1     -35.245  17.012 -30.642  1.00  0.00     0.053 C 
BRANCH  10  11
ATOM     11  C   UNL     1     -36.562  16.300 -30.645  1.00  0.00     0.041 C 
ATOM     12  O   UNL     1     -36.679  15.179 -30.085  1.00  0.00    -0.550 OA
ATOM     13  O   UNL     1     -37.670  16.892 -31.241  1.00  0.00    -0.550 OA
ENDBRANCH  10  11
ENDBRANCH   9  10
ENDBRANCH   8   9
ENDBRANCH   1   8
TORSDOF 8
ENDMDL
MODEL 4
REMARK VINA RESULT:    -4.118      2.339      3.456
REMARK INTER + INTRA:          -6.749
REMARK INTER:                  -5.958
REMARK INTRA:                  -0.791
REMARK UNBOUND:                -0.705
REMARK SMILES O=C([O-])CCCCCCCC(=O)[O-]
REMARK SMILES IDX 7 1 6 2 5 3 4 4 2 5 1 6 3 7 8 8 9 9 10 10 11 11 12 12 13 13
REMARK H PARENT
REMARK Flexibility Score: inf
ROOT
ATOM      1  C   UNL     1     -39.507  20.018 -29.161  1.00  0.00     0.000 C 
ENDROOT
BRANCH   1   2
ATOM      2  C   UNL     1     -38.926  18.772 -28.471  1.00  0.00     0.000 C 
BRANCH   2   3
ATOM      3  C   UNL     1     -37.388  18.737 -28.508  1.00  0.00     0.006 C 
BRANCH   3   4
ATOM      4  C   UNL     1     -36.848  17.322 -28.756  1.00  0.00     0.053 C 
BRANCH   4   5
ATOM      5  C   UNL     1     -36.592  17.069 -30.210  1.00  0.00     0.041 C 
ATOM      6  O   UNL     1     -35.412  17.011 -30.645  1.00  0.00    -0.550 OA
ATOM      7  O   UNL     1     -37.657  16.926 -31.090  1.00  0.00    -0.550 OA
ENDBRANCH   4   5
ENDBRANCH   3   4
ENDBRANCH   2   3
ENDBRANCH   1   2
BRANCH   1   8
ATOM      8  C   UNL     1     -38.416  20.922 -29.761  1.00  0.00     0.000 C 
BRANCH   8   9
ATOM      9  C   UNL     1     -38.382  20.871 -31.301  1.00  0.00     0.006 C 
BRANCH   9  10
ATOM     10  C   UNL     1     -37.078  20.306 -31.888  1.00  0.00     0.053 C 
BRANCH  10  11
ATOM     11  C   UNL     1     -35.868  20.988 -31.328  1.00  0.00     0.041 C 
ATOM     12  O   UNL     1     -34.939  20.310 -30.815  1.00  0.00    -0.550 OA
ATOM     13  O   UNL     1     -35.753  22.371 -31.401  1.00  0.00    -0.550 OA
ENDBRANCH  10  11
ENDBRANCH   9  10
ENDBRANCH   8   9
ENDBRANCH   1   8
TORSDOF 8
ENDMDL
MODEL 5
REMARK VINA RESULT:    -4.097      2.206      4.272
REMARK INTER + INTRA:          -6.718
REMARK INTER:                  -5.861
REMARK INTRA:                  -0.857
REMARK UNBOUND:                -0.705
REMARK SMILES O=C([O-])CCCCCCCC(=O)[O-]
REMARK SMILES IDX 7 1 6 2 5 3 4 4 2 5 1 6 3 7 8 8 9 9 10 10 11 11 12 12 13 13
REMARK H PARENT
REMARK Flexibility Score: inf
ROOT
ATOM      1  C   UNL     1     -35.632  18.315 -29.592  1.00  0.00     0.000 C 
ENDROOT
BRANCH   1   2
ATOM      2  C   UNL     1     -36.661  17.417 -30.299  1.00  0.00     0.000 C 
BRANCH   2   3
ATOM      3  C   UNL     1     -38.106  17.920 -30.126  1.00  0.00     0.006 C 
BRANCH   3   4
ATOM      4  C   UNL     1     -38.293  18.705 -28.821  1.00  0.00     0.053 C 
BRANCH   4   5
ATOM      5  C   UNL     1     -39.556  19.510 -28.831  1.00  0.00     0.041 C 
ATOM      6  O   UNL     1     -40.623  19.019 -28.375  1.00  0.00    -0.550 OA
ATOM      7  O   UNL     1     -39.562  20.790 -29.368  1.00  0.00    -0.550 OA
ENDBRANCH   4   5
ENDBRANCH   3   4
ENDBRANCH   2   3
ENDBRANCH   1   2
BRANCH   1   8
ATOM      8  C   UNL     1     -34.861  19.215 -30.573  1.00  0.00     0.000 C 
BRANCH   8   9
ATOM      9  C   UNL     1     -34.941  20.708 -30.200  1.00  0.00     0.006 C 
BRANCH   9  10
ATOM     10  C   UNL     1     -36.290  21.370 -30.522  1.00  0.00     0.053 C 
BRANCH  10  11
ATOM     11  C   UNL     1     -36.697  21.152 -31.946  1.00  0.00     0.041 C 
ATOM     12  O   UNL     1     -37.763  20.537 -32.214  1.00  0.00    -0.550 OA
ATOM     13  O   UNL     1     -35.915  21.656 -32.977  1.00  0.00    -0.550 OA
ENDBRANCH  10  11
ENDBRANCH   9  10
ENDBRANCH   8   9
ENDBRANCH   1   8
TORSDOF 8
ENDMDL
MODEL 6
REMARK VINA RESULT:    -4.072      2.196      3.544
REMARK INTER + INTRA:          -6.682
REMARK INTER:                  -5.987
REMARK INTRA:                  -0.695
REMARK UNBOUND:                -0.705
REMARK SMILES O=C([O-])CCCCCCCC(=O)[O-]
REMARK SMILES IDX 7 1 6 2 5 3 4 4 2 5 1 6 3 7 8 8 9 9 10 10 11 11 12 12 13 13
REMARK H PARENT
REMARK Flexibility Score: inf
ROOT
ATOM      1  C   UNL     1     -35.379  18.256 -29.575  1.00  0.00     0.000 C 
ENDROOT
BRANCH   1   2
ATOM      2  C   UNL     1     -35.164  19.299 -30.685  1.00  0.00     0.000 C 
BRANCH   2   3
ATOM      3  C   UNL     1     -35.173  20.743 -30.152  1.00  0.00     0.006 C 
BRANCH   3   4
ATOM      4  C   UNL     1     -36.414  21.521 -30.610  1.00  0.00     0.053 C 
BRANCH   4   5
ATOM      5  C   UNL     1     -36.799  21.180 -32.017  1.00  0.00     0.041 C 
ATOM      6  O   UNL     1     -36.079  21.557 -32.979  1.00  0.00    -0.550 OA
ATOM      7  O   UNL     1     -37.967  20.472 -32.267  1.00  0.00    -0.550 OA
ENDBRANCH   4   5
ENDBRANCH   3   4
ENDBRANCH   2   3
ENDBRANCH   1   2
BRANCH   1   8
ATOM      8  C   UNL     1     -36.518  17.274 -29.900  1.00  0.00     0.000 C 
BRANCH   8   9
ATOM      9  C   UNL     1     -37.901  17.954 -29.921  1.00  0.00     0.006 C 
BRANCH   9  10
ATOM     10  C   UNL     1     -38.262  18.697 -28.625  1.00  0.00     0.053 C 
BRANCH  10  11
ATOM     11  C   UNL     1     -39.539  19.468 -28.757  1.00  0.00     0.041 C 
ATOM     12  O   UNL     1     -40.624  18.971 -28.356  1.00  0.00    -0.550 OA
ATOM     13  O   UNL     1     -39.525  20.749 -29.295  1.00  0.00    -0.550 OA
ENDBRANCH  10  11
ENDBRANCH   9  10
ENDBRANCH   8   9
ENDBRANCH   1   8
TORSDOF 8
ENDMDL
MODEL 7
REMARK VINA RESULT:    -4.066      1.682      2.212
REMARK INTER + INTRA:          -6.672
REMARK INTER:                  -5.918
REMARK INTRA:                  -0.754
REMARK UNBOUND:                -0.705
REMARK SMILES O=C([O-])CCCCCCCC(=O)[O-]
REMARK SMILES IDX 7 1 6 2 5 3 4 4 2 5 1 6 3 7 8 8 9 9 10 10 11 11 12 12 13 13
REMARK H PARENT
REMARK Flexibility Score: inf
ROOT
ATOM      1  C   UNL     1     -35.825  19.810 -29.233  1.00  0.00     0.000 C 
ENDROOT
BRANCH   1   2
ATOM      2  C   UNL     1     -35.997  18.865 -28.032  1.00  0.00     0.000 C 
BRANCH   2   3
ATOM      3  C   UNL     1     -36.898  17.658 -28.352  1.00  0.00     0.006 C 
BRANCH   3   4
ATOM      4  C   UNL     1     -37.076  17.452 -29.862  1.00  0.00     0.053 C 
BRANCH   4   5
ATOM      5  C   UNL     1     -36.292  16.278 -30.362  1.00  0.00     0.041 C 
ATOM      6  O   UNL     1     -35.245  16.457 -31.037  1.00  0.00    -0.550 OA
ATOM      7  O   UNL     1     -36.734  14.987 -30.107  1.00  0.00    -0.550 OA
ENDBRANCH   4   5
ENDBRANCH   3   4
ENDBRANCH   2   3
ENDBRANCH   1   2
BRANCH   1   8
ATOM      8  C   UNL     1     -36.195  21.265 -28.897  1.00  0.00     0.000 C 
BRANCH   8   9
ATOM      9  C   UNL     1     -37.036  21.935 -30.001  1.00  0.00     0.006 C 
BRANCH   9  10
ATOM     10  C   UNL     1     -38.113  21.028 -30.616  1.00  0.00     0.053 C 
BRANCH  10  11
ATOM     11  C   UNL     1     -39.360  20.993 -29.787  1.00  0.00     0.041 C 
ATOM     12  O   UNL     1     -40.268  21.846 -29.971  1.00  0.00    -0.550 OA
ATOM     13  O   UNL     1     -39.532  19.999 -28.832  1.00  0.00    -0.550 OA
ENDBRANCH  10  11
ENDBRANCH   9  10
ENDBRANCH   8   9
ENDBRANCH   1   8
TORSDOF 8
ENDMDL
MODEL 8
REMARK VINA RESULT:    -4.064      2.727      3.707
REMARK INTER + INTRA:          -6.670
REMARK INTER:                  -5.744
REMARK INTRA:                  -0.926
REMARK UNBOUND:                -0.705
REMARK SMILES O=C([O-])CCCCCCCC(=O)[O-]
REMARK SMILES IDX 7 1 6 2 5 3 4 4 2 5 1 6 3 7 8 8 9 9 10 10 11 11 12 12 13 13
REMARK H PARENT
REMARK Flexibility Score: inf
ROOT
ATOM      1  C   UNL     1     -39.102  18.624 -29.572  1.00  0.00     0.000 C 
ENDROOT
BRANCH   1   2
ATOM      2  C   UNL     1     -38.269  18.629 -28.279  1.00  0.00     0.000 C 
BRANCH   2   3
ATOM      3  C   UNL     1     -36.991  17.779 -28.393  1.00  0.00     0.006 C 
BRANCH   3   4
ATOM      4  C   UNL     1     -35.736  18.563 -27.986  1.00  0.00     0.053 C 
BRANCH   4   5
ATOM      5  C   UNL     1     -34.884  18.907 -29.169  1.00  0.00     0.041 C 
ATOM      6  O   UNL     1     -34.797  18.109 -30.139  1.00  0.00    -0.550 OA
ATOM      7  O   UNL     1     -34.163  20.093 -29.187  1.00  0.00    -0.550 OA
ENDBRANCH   4   5
ENDBRANCH   3   4
ENDBRANCH   2   3
ENDBRANCH   1   2
BRANCH   1   8
ATOM      8  C   UNL     1     -38.280  18.199 -30.801  1.00  0.00     0.000 C 
BRANCH   8   9
ATOM      9  C   UNL     1     -37.796  19.400 -31.637  1.00  0.00     0.006 C 
BRANCH   9  10
ATOM     10  C   UNL     1     -38.249  20.768 -31.103  1.00  0.00     0.053 C 
BRANCH  10  11
ATOM     11  C   UNL     1     -37.113  21.546 -30.514  1.00  0.00     0.041 C 
ATOM     12  O   UNL     1     -36.161  21.929 -31.244  1.00  0.00    -0.550 OA
ATOM     13  O   UNL     1     -37.122  21.875 -29.164  1.00  0.00    -0.550 OA
ENDBRANCH  10  11
ENDBRANCH   9  10
ENDBRANCH   8   9
ENDBRANCH   1   8
TORSDOF 8
ENDMDL
MODEL 9
REMARK VINA RESULT:    -3.961      2.614      4.963
REMARK INTER + INTRA:          -6.518
REMARK INTER:                  -5.653
REMARK INTRA:                  -0.866
REMARK UNBOUND:                -0.705
REMARK SMILES O=C([O-])CCCCCCCC(=O)[O-]
REMARK SMILES IDX 7 1 6 2 5 3 4 4 2 5 1 6 3 7 8 8 9 9 10 10 11 11 12 12 13 13
REMARK H PARENT
REMARK Flexibility Score: inf
ROOT
ATOM      1  C   UNL     1     -39.117  18.626 -29.225  1.00  0.00     0.000 C 
ENDROOT
BRANCH   1   2
ATOM      2  C   UNL     1     -39.501  20.107 -29.072  1.00  0.00     0.000 C 
BRANCH   2   3
ATOM      3  C   UNL     1     -38.697  21.028 -30.008  1.00  0.00     0.006 C 
BRANCH   3   4
ATOM      4  C   UNL     1     -37.783  21.986 -29.233  1.00  0.00     0.053 C 
BRANCH   4   5
ATOM      5  C   UNL     1     -36.500  22.246 -29.961  1.00  0.00     0.041 C 
ATOM      6  O   UNL     1     -36.392  21.945 -31.180  1.00  0.00    -0.550 OA
ATOM      7  O   UNL     1     -35.416  22.792 -29.289  1.00  0.00    -0.550 OA
ENDBRANCH   4   5
ENDBRANCH   3   4
ENDBRANCH   2   3
ENDBRANCH   1   2
BRANCH   1   8
ATOM      8  C   UNL     1     -38.393  18.339 -30.552  1.00  0.00     0.000 C 
BRANCH   8   9
ATOM      9  C   UNL     1     -37.055  17.600 -30.352  1.00  0.00     0.006 C 
BRANCH   9  10
ATOM     10  C   UNL     1     -35.813  18.500 -30.446  1.00  0.00     0.053 C 
BRANCH  10  11
ATOM     11  C   UNL     1     -35.177  18.720 -29.108  1.00  0.00     0.041 C 
ATOM     12  O   UNL     1     -35.827  19.267 -28.179  1.00  0.00    -0.550 OA
ATOM     13  O   UNL     1     -33.875  18.292 -28.880  1.00  0.00    -0.550 OA
ENDBRANCH  10  11
ENDBRANCH   9  10
ENDBRANCH   8   9
ENDBRANCH   1   8
TORSDOF 8
ENDMDL
