MODEL 1
REMARK VINA RESULT:    -3.750      0.000      0.000
REMARK INTER + INTRA:          -6.290
REMARK INTER:                  -5.723
REMARK INTRA:                  -0.567
REMARK UNBOUND:                -0.567
REMARK SMILES CCCCCCCCCCC(=O)[O-]
REMARK SMILES IDX 7 1 8 2 9 3 10 4 11 5 12 6 13 7 6 8 5 9 4 10 3 11 2 12 1 13
REMARK H PARENT
REMARK Flexibility Score: inf
ROOT
ATOM      1  C   UNL     1       8.750  -6.710  -6.647  1.00  0.00     0.000 C 
ENDROOT
BRANCH   1   2
ATOM      2  C   UNL     1      10.043  -7.358  -6.119  1.00  0.00     0.000 C 
BRANCH   2   3
ATOM      3  C   UNL     1      11.283  -6.472  -6.338  1.00  0.00     0.006 C 
BRANCH   3   4
ATOM      4  C   UNL     1      11.986  -6.040  -5.041  1.00  0.00     0.053 C 
BRANCH   4   5
ATOM      5  C   UNL     1      11.206  -4.999  -4.300  1.00  0.00     0.041 C 
ATOM      6  O   UNL     1      11.094  -3.837  -4.770  1.00  0.00    -0.550 OA
ATOM      7  O   UNL     1      10.573  -5.322  -3.105  1.00  0.00    -0.550 OA
ENDBRANCH   4   5
ENDBRANCH   3   4
ENDBRANCH   2   3
ENDBRANCH   1   2
BRANCH   1   8
ATOM      8  C   UNL     1       8.990  -5.326  -7.269  1.00  0.00     0.000 C 
BRANCH   8   9
ATOM      9  C   UNL     1       7.703  -4.702  -7.835  1.00  0.00    -0.000 C 
BRANCH   9  10
ATOM     10  C   UNL     1       7.874  -4.203  -9.279  1.00  0.00    -0.000 C 
BRANCH  10  11
ATOM     11  C   UNL     1       6.536  -3.849  -9.947  1.00  0.00    -0.000 C 
BRANCH  11  12
ATOM     12  C   UNL     1       5.384  -3.916  -8.938  1.00  0.00    -0.003 C 
ATOM     13  C   UNL     1       4.045  -3.627  -9.608  1.00  0.00     0.004 C 
ENDBRANCH  11  12
ENDBRANCH  10  11
ENDBRANCH   9  10
ENDBRANCH   8   9
ENDBRANCH   1   8
TORSDOF 9
ENDMDL
MODEL 2
REMARK VINA RESULT:    -3.703      3.529      6.836
REMARK INTER + INTRA:          -6.218
REMARK INTER:                  -5.749
REMARK INTRA:                  -0.469
REMARK UNBOUND:                -0.567
REMARK SMILES CCCCCCCCCCC(=O)[O-]
REMARK SMILES IDX 7 1 8 2 9 3 10 4 11 5 12 6 13 7 6 8 5 9 4 10 3 11 2 12 1 13
REMARK H PARENT
REMARK Flexibility Score: inf
ROOT
ATOM      1  C   UNL     1       8.252  -4.873  -7.590  1.00  0.00     0.000 C 
ENDROOT
BRANCH   1   2
ATOM      2  C   UNL     1       6.826  -4.406  -7.931  1.00  0.00     0.000 C 
BRANCH   2   3
ATOM      3  C   UNL     1       6.556  -4.377  -9.446  1.00  0.00     0.006 C 
BRANCH   3   4
ATOM      4  C   UNL     1       5.668  -3.208  -9.906  1.00  0.00     0.053 C 
BRANCH   4   5
ATOM      5  C   UNL     1       4.280  -3.307  -9.354  1.00  0.00     0.041 C 
ATOM      6  O   UNL     1       3.873  -2.468  -8.509  1.00  0.00    -0.550 OA
ATOM      7  O   UNL     1       3.422  -4.306  -9.800  1.00  0.00    -0.550 OA
ENDBRANCH   4   5
ENDBRANCH   3   4
ENDBRANCH   2   3
ENDBRANCH   1   2
BRANCH   1   8
ATOM      8  C   UNL     1       8.272  -6.019  -6.567  1.00  0.00     0.000 C 
BRANCH   8   9
ATOM      9  C   UNL     1       9.701  -6.441  -6.181  1.00  0.00    -0.000 C 
BRANCH   9  10
ATOM     10  C   UNL     1      10.742  -5.354  -6.495  1.00  0.00    -0.000 C 
BRANCH  10  11
ATOM     11  C   UNL     1      11.801  -5.210  -5.391  1.00  0.00    -0.000 C 
BRANCH  11  12
ATOM     12  C   UNL     1      11.322  -4.256  -4.292  1.00  0.00    -0.003 C 
ATOM     13  C   UNL     1      11.093  -4.997  -2.978  1.00  0.00     0.004 C 
ENDBRANCH  11  12
ENDBRANCH  10  11
ENDBRANCH   9  10
ENDBRANCH   8   9
ENDBRANCH   1   8
TORSDOF 9
ENDMDL
MODEL 3
REMARK VINA RESULT:    -3.390      3.066      6.252
REMARK INTER + INTRA:          -5.741
REMARK INTER:                  -5.084
REMARK INTRA:                  -0.657
REMARK UNBOUND:                -0.567
REMARK SMILES CCCCCCCCCCC(=O)[O-]
REMARK SMILES IDX 7 1 8 2 9 3 10 4 11 5 12 6 13 7 6 8 5 9 4 10 3 11 2 12 1 13
REMARK H PARENT
REMARK Flexibility Score: inf
ROOT
ATOM      1  C   UNL     1       8.802  -6.836  -6.686  1.00  0.00     0.000 C 
ENDROOT
BRANCH   1   2
ATOM      2  C   UNL     1       8.852  -6.989  -8.217  1.00  0.00     0.000 C 
BRANCH   2   3
ATOM      3  C   UNL     1       8.544  -5.674  -8.956  1.00  0.00     0.006 C 
BRANCH   3   4
ATOM      4  C   UNL     1       7.635  -4.710  -8.175  1.00  0.00     0.053 C 
BRANCH   4   5
ATOM      5  C   UNL     1       6.637  -4.034  -9.064  1.00  0.00     0.041 C 
ATOM      6  O   UNL     1       5.414  -4.309  -8.966  1.00  0.00    -0.550 OA
ATOM      7  O   UNL     1       7.057  -3.074  -9.977  1.00  0.00    -0.550 OA
ENDBRANCH   4   5
ENDBRANCH   3   4
ENDBRANCH   2   3
ENDBRANCH   1   2
BRANCH   1   8
ATOM      8  C   UNL     1       9.998  -7.498  -5.985  1.00  0.00     0.000 C 
BRANCH   8   9
ATOM      9  C   UNL     1      11.145  -6.508  -5.715  1.00  0.00    -0.000 C 
BRANCH   9  10
ATOM     10  C   UNL     1      10.641  -5.082  -5.438  1.00  0.00    -0.000 C 
BRANCH  10  11
ATOM     11  C   UNL     1      11.450  -4.368  -4.345  1.00  0.00    -0.000 C 
BRANCH  11  12
ATOM     12  C   UNL     1      11.025  -4.841  -2.950  1.00  0.00    -0.003 C 
ATOM     13  C   UNL     1      12.124  -5.668  -2.290  1.00  0.00     0.004 C 
ENDBRANCH  11  12
ENDBRANCH  10  11
ENDBRANCH   9  10
ENDBRANCH   8   9
ENDBRANCH   1   8
TORSDOF 9
ENDMDL
MODEL 4
REMARK VINA RESULT:    -3.135      3.622      6.619
REMARK INTER + INTRA:          -5.352
REMARK INTER:                  -4.729
REMARK INTRA:                  -0.623
REMARK UNBOUND:                -0.567
REMARK SMILES CCCCCCCCCCC(=O)[O-]
REMARK SMILES IDX 7 1 8 2 9 3 10 4 11 5 12 6 13 7 6 8 5 9 4 10 3 11 2 12 1 13
REMARK H PARENT
REMARK Flexibility Score: inf
ROOT
ATOM      1  C   UNL     1       8.187  -5.272  -8.808  1.00  0.00     0.000 C 
ENDROOT
BRANCH   1   2
ATOM      2  C   UNL     1       8.136  -4.064  -9.762  1.00  0.00     0.000 C 
BRANCH   2   3
ATOM      3  C   UNL     1       6.747  -3.403  -9.810  1.00  0.00     0.006 C 
BRANCH   3   4
ATOM      4  C   UNL     1       5.650  -4.187  -9.071  1.00  0.00     0.053 C 
BRANCH   4   5
ATOM      5  C   UNL     1       4.286  -3.628  -9.335  1.00  0.00     0.041 C 
ATOM      6  O   UNL     1       3.503  -4.216 -10.125  1.00  0.00    -0.550 OA
ATOM      7  O   UNL     1       3.867  -2.476  -8.681  1.00  0.00    -0.550 OA
ENDBRANCH   4   5
ENDBRANCH   3   4
ENDBRANCH   2   3
ENDBRANCH   1   2
BRANCH   1   8
ATOM      8  C   UNL     1       9.203  -6.336  -9.252  1.00  0.00     0.000 C 
BRANCH   8   9
ATOM      9  C   UNL     1       9.214  -7.564  -8.325  1.00  0.00    -0.000 C 
BRANCH   9  10
ATOM     10  C   UNL     1       9.063  -7.185  -6.843  1.00  0.00    -0.000 C 
BRANCH  10  11
ATOM     11  C   UNL     1      10.219  -7.706  -5.975  1.00  0.00    -0.000 C 
BRANCH  11  12
ATOM     12  C   UNL     1      11.181  -6.572  -5.605  1.00  0.00    -0.003 C 
ATOM     13  C   UNL     1      10.505  -5.210  -5.733  1.00  0.00     0.004 C 
ENDBRANCH  11  12
ENDBRANCH  10  11
ENDBRANCH   9  10
ENDBRANCH   8   9
ENDBRANCH   1   8
TORSDOF 9
ENDMDL
MODEL 5
REMARK VINA RESULT:    -3.095     14.587     16.350
REMARK INTER + INTRA:          -5.291
REMARK INTER:                  -4.254
REMARK INTRA:                  -1.037
REMARK UNBOUND:                -0.567
REMARK SMILES CCCCCCCCCCC(=O)[O-]
REMARK SMILES IDX 7 1 8 2 9 3 10 4 11 5 12 6 13 7 6 8 5 9 4 10 3 11 2 12 1 13
REMARK H PARENT
REMARK Flexibility Score: inf
ROOT
ATOM      1  C   UNL     1      -7.242  -3.944  -5.148  1.00  0.00     0.000 C 
ENDROOT
BRANCH   1   2
ATOM      2  C   UNL     1      -8.123  -2.762  -5.591  1.00  0.00     0.000 C 
BRANCH   2   3
ATOM      3  C   UNL     1      -7.768  -2.252  -7.000  1.00  0.00     0.006 C 
BRANCH   3   4
ATOM      4  C   UNL     1      -6.480  -2.857  -7.583  1.00  0.00     0.053 C 
BRANCH   4   5
ATOM      5  C   UNL     1      -6.258  -2.442  -9.004  1.00  0.00     0.041 C 
ATOM      6  O   UNL     1      -5.204  -2.777  -9.604  1.00  0.00    -0.550 OA
ATOM      7  O   UNL     1      -7.232  -1.714  -9.678  1.00  0.00    -0.550 OA
ENDBRANCH   4   5
ENDBRANCH   3   4
ENDBRANCH   2   3
ENDBRANCH   1   2
BRANCH   1   8
ATOM      8  C   UNL     1      -8.001  -5.280  -5.144  1.00  0.00     0.000 C 
BRANCH   8   9
ATOM      9  C   UNL     1      -7.124  -6.457  -5.605  1.00  0.00    -0.000 C 
BRANCH   9  10
ATOM     10  C   UNL     1      -5.652  -6.056  -5.800  1.00  0.00    -0.000 C 
BRANCH  10  11
ATOM     11  C   UNL     1      -5.103  -6.465  -7.175  1.00  0.00    -0.000 C 
BRANCH  11  12
ATOM     12  C   UNL     1      -6.241  -6.831  -8.134  1.00  0.00    -0.003 C 
ATOM     13  C   UNL     1      -6.058  -6.159  -9.491  1.00  0.00     0.004 C 
ENDBRANCH  11  12
ENDBRANCH  10  11
ENDBRANCH   9  10
ENDBRANCH   8   9
ENDBRANCH   1   8
TORSDOF 9
ENDMDL
MODEL 6
REMARK VINA RESULT:    -3.071     14.531     16.372
REMARK INTER + INTRA:          -5.253
REMARK INTER:                  -4.391
REMARK INTRA:                  -0.863
REMARK UNBOUND:                -0.567
REMARK SMILES CCCCCCCCCCC(=O)[O-]
REMARK SMILES IDX 7 1 8 2 9 3 10 4 11 5 12 6 13 7 6 8 5 9 4 10 3 11 2 12 1 13
REMARK H PARENT
REMARK Flexibility Score: inf
ROOT
ATOM      1  C   UNL     1      -7.410  -2.205  -6.930  1.00  0.00     0.000 C 
ENDROOT
BRANCH   1   2
ATOM      2  C   UNL     1      -7.037  -2.176  -8.423  1.00  0.00     0.000 C 
BRANCH   2   3
ATOM      3  C   UNL     1      -5.810  -3.047  -8.746  1.00  0.00     0.006 C 
BRANCH   3   4
ATOM      4  C   UNL     1      -5.986  -3.953  -9.975  1.00  0.00     0.053 C 
BRANCH   4   5
ATOM      5  C   UNL     1      -6.536  -5.297  -9.609  1.00  0.00     0.041 C 
ATOM      6  O   UNL     1      -7.778  -5.465  -9.503  1.00  0.00    -0.550 OA
ATOM      7  O   UNL     1      -5.677  -6.373  -9.418  1.00  0.00    -0.550 OA
ENDBRANCH   4   5
ENDBRANCH   3   4
ENDBRANCH   2   3
ENDBRANCH   1   2
BRANCH   1   8
ATOM      8  C   UNL     1      -7.966  -3.566  -6.483  1.00  0.00     0.000 C 
BRANCH   8   9
ATOM      9  C   UNL     1      -7.724  -3.841  -4.989  1.00  0.00    -0.000 C 
BRANCH   9  10
ATOM     10  C   UNL     1      -6.471  -4.696  -4.741  1.00  0.00    -0.000 C 
BRANCH  10  11
ATOM     11  C   UNL     1      -6.041  -5.493  -5.982  1.00  0.00    -0.000 C 
BRANCH  11  12
ATOM     12  C   UNL     1      -4.853  -6.407  -5.662  1.00  0.00    -0.003 C 
ATOM     13  C   UNL     1      -5.317  -7.720  -5.040  1.00  0.00     0.004 C 
ENDBRANCH  11  12
ENDBRANCH  10  11
ENDBRANCH   9  10
ENDBRANCH   8   9
ENDBRANCH   1   8
TORSDOF 9
ENDMDL
MODEL 7
REMARK VINA RESULT:    -3.065     14.336     16.201
REMARK INTER + INTRA:          -5.245
REMARK INTER:                  -3.906
REMARK INTRA:                  -1.339
REMARK UNBOUND:                -0.567
REMARK SMILES CCCCCCCCCCC(=O)[O-]
REMARK SMILES IDX 7 1 8 2 9 3 10 4 11 5 12 6 13 7 6 8 5 9 4 10 3 11 2 12 1 13
REMARK H PARENT
REMARK Flexibility Score: inf
ROOT
ATOM      1  C   UNL     1      -6.237  -4.741  -5.012  1.00  0.00     0.000 C 
ENDROOT
BRANCH   1   2
ATOM      2  C   UNL     1      -7.753  -4.682  -5.275  1.00  0.00     0.000 C 
BRANCH   2   3
ATOM      3  C   UNL     1      -8.125  -3.679  -6.382  1.00  0.00     0.006 C 
BRANCH   3   4
ATOM      4  C   UNL     1      -7.056  -2.605  -6.646  1.00  0.00     0.053 C 
BRANCH   4   5
ATOM      5  C   UNL     1      -6.696  -2.515  -8.096  1.00  0.00     0.041 C 
ATOM      6  O   UNL     1      -7.347  -1.760  -8.864  1.00  0.00    -0.550 OA
ATOM      7  O   UNL     1      -5.618  -3.238  -8.592  1.00  0.00    -0.550 OA
ENDBRANCH   4   5
ENDBRANCH   3   4
ENDBRANCH   2   3
ENDBRANCH   1   2
BRANCH   1   8
ATOM      8  C   UNL     1      -5.636  -6.122  -5.317  1.00  0.00     0.000 C 
BRANCH   8   9
ATOM      9  C   UNL     1      -4.779  -6.123  -6.595  1.00  0.00    -0.000 C 
BRANCH   9  10
ATOM     10  C   UNL     1      -5.522  -6.715  -7.804  1.00  0.00    -0.000 C 
BRANCH  10  11
ATOM     11  C   UNL     1      -6.720  -7.586  -7.396  1.00  0.00    -0.000 C 
BRANCH  11  12
ATOM     12  C   UNL     1      -7.901  -7.375  -8.351  1.00  0.00    -0.003 C 
ATOM     13  C   UNL     1      -7.756  -6.071  -9.129  1.00  0.00     0.004 C 
ENDBRANCH  11  12
ENDBRANCH  10  11
ENDBRANCH   9  10
ENDBRANCH   8   9
ENDBRANCH   1   8
TORSDOF 9
ENDMDL
MODEL 8
REMARK VINA RESULT:    -2.974     14.577     16.113
REMARK INTER + INTRA:          -5.106
REMARK INTER:                  -4.313
REMARK INTRA:                  -0.793
REMARK UNBOUND:                -0.567
REMARK SMILES CCCCCCCCCCC(=O)[O-]
REMARK SMILES IDX 7 1 8 2 9 3 10 4 11 5 12 6 13 7 6 8 5 9 4 10 3 11 2 12 1 13
REMARK H PARENT
REMARK Flexibility Score: inf
ROOT
ATOM      1  C   UNL     1      -7.434  -2.843  -6.375  1.00  0.00     0.000 C 
ENDROOT
BRANCH   1   2
ATOM      2  C   UNL     1      -7.941  -3.603  -5.136  1.00  0.00     0.000 C 
BRANCH   2   3
ATOM      3  C   UNL     1      -7.573  -5.097  -5.164  1.00  0.00     0.006 C 
BRANCH   3   4
ATOM      4  C   UNL     1      -6.646  -5.496  -6.324  1.00  0.00     0.053 C 
BRANCH   4   5
ATOM      5  C   UNL     1      -5.542  -6.404  -5.876  1.00  0.00     0.041 C 
ATOM      6  O   UNL     1      -4.341  -6.079  -6.061  1.00  0.00    -0.550 OA
ATOM      7  O   UNL     1      -5.841  -7.592  -5.220  1.00  0.00    -0.550 OA
ENDBRANCH   4   5
ENDBRANCH   3   4
ENDBRANCH   2   3
ENDBRANCH   1   2
BRANCH   1   8
ATOM      8  C   UNL     1      -7.981  -1.409  -6.456  1.00  0.00     0.000 C 
BRANCH   8   9
ATOM      9  C   UNL     1      -8.125  -0.914  -7.906  1.00  0.00    -0.000 C 
BRANCH   9  10
ATOM     10  C   UNL     1      -8.055  -2.057  -8.930  1.00  0.00    -0.000 C 
BRANCH  10  11
ATOM     11  C   UNL     1      -7.056  -1.780 -10.063  1.00  0.00    -0.000 C 
BRANCH  11  12
ATOM     12  C   UNL     1      -5.735  -2.521  -9.824  1.00  0.00    -0.003 C 
ATOM     13  C   UNL     1      -5.961  -4.024  -9.697  1.00  0.00     0.004 C 
ENDBRANCH  11  12
ENDBRANCH  10  11
ENDBRANCH   9  10
ENDBRANCH   8   9
ENDBRANCH   1   8
TORSDOF 9
ENDMDL
MODEL 9
REMARK VINA RESULT:    -2.872     14.297     15.869
REMARK INTER + INTRA:          -4.950
REMARK INTER:                  -3.907
REMARK INTRA:                  -1.043
REMARK UNBOUND:                -0.567
REMARK SMILES CCCCCCCCCCC(=O)[O-]
REMARK SMILES IDX 7 1 8 2 9 3 10 4 11 5 12 6 13 7 6 8 5 9 4 10 3 11 2 12 1 13
REMARK H PARENT
REMARK Flexibility Score: inf
ROOT
ATOM      1  C   UNL     1      -8.042  -5.282  -4.967  1.00  0.00     0.000 C 
ENDROOT
BRANCH   1   2
ATOM      2  C   UNL     1      -8.017  -6.234  -6.176  1.00  0.00     0.000 C 
BRANCH   2   3
ATOM      3  C   UNL     1      -7.369  -7.592  -5.850  1.00  0.00     0.006 C 
BRANCH   3   4
ATOM      4  C   UNL     1      -5.886  -7.503  -5.453  1.00  0.00     0.053 C 
BRANCH   4   5
ATOM      5  C   UNL     1      -5.051  -6.886  -6.532  1.00  0.00     0.041 C 
ATOM      6  O   UNL     1      -4.334  -5.883  -6.282  1.00  0.00    -0.550 OA
ATOM      7  O   UNL     1      -5.039  -7.441  -7.806  1.00  0.00    -0.550 OA
ENDBRANCH   4   5
ENDBRANCH   3   4
ENDBRANCH   2   3
ENDBRANCH   1   2
BRANCH   1   8
ATOM      8  C   UNL     1      -7.200  -4.017  -5.191  1.00  0.00     0.000 C 
BRANCH   8   9
ATOM      9  C   UNL     1      -8.000  -2.887  -5.862  1.00  0.00    -0.000 C 
BRANCH   9  10
ATOM     10  C   UNL     1      -7.943  -2.954  -7.397  1.00  0.00    -0.000 C 
BRANCH  10  11
ATOM     11  C   UNL     1      -6.590  -2.495  -7.962  1.00  0.00    -0.000 C 
BRANCH  11  12
ATOM     12  C   UNL     1      -5.845  -3.663  -8.618  1.00  0.00    -0.003 C 
ATOM     13  C   UNL     1      -6.818  -4.657  -9.243  1.00  0.00     0.004 C 
ENDBRANCH  11  12
ENDBRANCH  10  11
ENDBRANCH   9  10
ENDBRANCH   8   9
ENDBRANCH   1   8
TORSDOF 9
ENDMDL
