MODEL 1
REMARK VINA RESULT:    -3.389      0.000      0.000
REMARK INTER + INTRA:          -3.797
REMARK INTER:                  -3.786
REMARK INTRA:                  -0.011
REMARK UNBOUND:                -0.011
REMARK SMILES CCCC(=O)[O-]
REMARK SMILES IDX 3 1 4 2 5 3 6 4 2 5 1 6
REMARK H PARENT
REMARK Flexibility Score: inf
ROOT
ATOM      1  C   UNL     1      -6.423  -6.114  -5.905  1.00  0.00     0.052 C 
ENDROOT
BRANCH   1   2
ATOM      2  C   UNL     1      -6.465  -5.433  -4.574  1.00  0.00     0.041 C 
ATOM      3  O   UNL     1      -6.275  -6.094  -3.518  1.00  0.00    -0.550 OA
ATOM      4  O   UNL     1      -6.666  -4.061  -4.500  1.00  0.00    -0.550 OA
ENDBRANCH   1   2
BRANCH   1   5
ATOM      5  C   UNL     1      -7.763  -5.954  -6.630  1.00  0.00     0.003 C 
ATOM      6  C   UNL     1      -8.323  -7.309  -7.055  1.00  0.00     0.004 C 
ENDBRANCH   1   5
TORSDOF 2
ENDMDL
MODEL 2
REMARK VINA RESULT:    -3.246     17.176     18.180
REMARK INTER + INTRA:          -3.637
REMARK INTER:                  -3.606
REMARK INTRA:                  -0.031
REMARK UNBOUND:                -0.011
REMARK SMILES CCCC(=O)[O-]
REMARK SMILES IDX 3 1 4 2 5 3 6 4 2 5 1 6
REMARK H PARENT
REMARK Flexibility Score: inf
ROOT
ATOM      1  C   UNL     1       6.887  -8.016   4.774  1.00  0.00     0.052 C 
ENDROOT
BRANCH   1   2
ATOM      2  C   UNL     1       7.799  -7.878   3.595  1.00  0.00     0.041 C 
ATOM      3  O   UNL     1       7.381  -7.356   2.528  1.00  0.00    -0.550 OA
ATOM      4  O   UNL     1       9.125  -8.280   3.691  1.00  0.00    -0.550 OA
ENDBRANCH   1   2
BRANCH   1   5
ATOM      5  C   UNL     1       7.347  -7.105   5.915  1.00  0.00     0.003 C 
ATOM      6  C   UNL     1       8.047  -7.906   7.010  1.00  0.00     0.004 C 
ENDBRANCH   1   5
TORSDOF 2
ENDMDL
MODEL 3
REMARK VINA RESULT:    -3.124      8.953      9.621
REMARK INTER + INTRA:          -3.500
REMARK INTER:                  -3.446
REMARK INTRA:                  -0.054
REMARK UNBOUND:                -0.011
REMARK SMILES CCCC(=O)[O-]
REMARK SMILES IDX 3 1 4 2 5 3 6 4 2 5 1 6
REMARK H PARENT
REMARK Flexibility Score: inf
ROOT
ATOM      1  C   UNL     1      -0.148  -0.853  -4.318  1.00  0.00     0.052 C 
ENDROOT
BRANCH   1   2
ATOM      2  C   UNL     1       1.038  -1.523  -4.937  1.00  0.00     0.041 C 
ATOM      3  O   UNL     1       2.049  -1.796  -4.237  1.00  0.00    -0.550 OA
ATOM      4  O   UNL     1       1.009  -1.891  -6.276  1.00  0.00    -0.550 OA
ENDBRANCH   1   2
BRANCH   1   5
ATOM      5  C   UNL     1       0.122   0.641  -4.125  1.00  0.00     0.003 C 
ATOM      6  C   UNL     1      -0.045   1.405  -5.437  1.00  0.00     0.004 C 
ENDBRANCH   1   5
TORSDOF 2
ENDMDL
MODEL 4
REMARK VINA RESULT:    -3.113      8.916      9.670
REMARK INTER + INTRA:          -3.488
REMARK INTER:                  -3.437
REMARK INTRA:                  -0.051
REMARK UNBOUND:                -0.011
REMARK SMILES CCCC(=O)[O-]
REMARK SMILES IDX 3 1 4 2 5 3 6 4 2 5 1 6
REMARK H PARENT
REMARK Flexibility Score: inf
ROOT
ATOM      1  C   UNL     1      -0.190  -0.838  -4.326  1.00  0.00     0.052 C 
ENDROOT
BRANCH   1   2
ATOM      2  C   UNL     1       0.983  -1.516  -4.960  1.00  0.00     0.041 C 
ATOM      3  O   UNL     1       0.945  -1.845  -6.175  1.00  0.00    -0.550 OA
ATOM      4  O   UNL     1       2.138  -1.743  -4.222  1.00  0.00    -0.550 OA
ENDBRANCH   1   2
BRANCH   1   5
ATOM      5  C   UNL     1       0.119   0.641  -4.075  1.00  0.00     0.003 C 
ATOM      6  C   UNL     1      -0.024   1.457  -5.358  1.00  0.00     0.004 C 
ENDBRANCH   1   5
TORSDOF 2
ENDMDL
MODEL 5
REMARK VINA RESULT:    -3.074      2.348      3.399
REMARK INTER + INTRA:          -3.445
REMARK INTER:                  -3.407
REMARK INTRA:                  -0.037
REMARK UNBOUND:                -0.011
REMARK SMILES CCCC(=O)[O-]
REMARK SMILES IDX 3 1 4 2 5 3 6 4 2 5 1 6
REMARK H PARENT
REMARK Flexibility Score: inf
ROOT
ATOM      1  C   UNL     1      -7.238  -6.130  -5.756  1.00  0.00     0.052 C 
ENDROOT
BRANCH   1   2
ATOM      2  C   UNL     1      -6.242  -6.840  -6.617  1.00  0.00     0.041 C 
ATOM      3  O   UNL     1      -5.118  -6.320  -6.848  1.00  0.00    -0.550 OA
ATOM      4  O   UNL     1      -6.535  -8.100  -7.125  1.00  0.00    -0.550 OA
ENDBRANCH   1   2
BRANCH   1   5
ATOM      5  C   UNL     1      -6.611  -5.756  -4.410  1.00  0.00     0.003 C 
ATOM      6  C   UNL     1      -6.648  -4.246  -4.186  1.00  0.00     0.004 C 
ENDBRANCH   1   5
TORSDOF 2
ENDMDL
MODEL 6
REMARK VINA RESULT:    -3.061     18.125     18.787
REMARK INTER + INTRA:          -3.430
REMARK INTER:                  -3.393
REMARK INTRA:                  -0.037
REMARK UNBOUND:                -0.011
REMARK SMILES CCCC(=O)[O-]
REMARK SMILES IDX 3 1 4 2 5 3 6 4 2 5 1 6
REMARK H PARENT
REMARK Flexibility Score: inf
ROOT
ATOM      1  C   UNL     1       7.332  -7.182   5.981  1.00  0.00     0.052 C 
ENDROOT
BRANCH   1   2
ATOM      2  C   UNL     1       7.970  -8.154   6.923  1.00  0.00     0.041 C 
ATOM      3  O   UNL     1       8.262  -7.802   8.096  1.00  0.00    -0.550 OA
ATOM      4  O   UNL     1       8.200  -9.464   6.520  1.00  0.00    -0.550 OA
ENDBRANCH   1   2
BRANCH   1   5
ATOM      5  C   UNL     1       6.859  -7.898   4.713  1.00  0.00     0.003 C 
ATOM      6  C   UNL     1       7.772  -7.584   3.531  1.00  0.00     0.004 C 
ENDBRANCH   1   5
TORSDOF 2
ENDMDL
MODEL 7
REMARK VINA RESULT:    -2.989      1.600      2.093
REMARK INTER + INTRA:          -3.349
REMARK INTER:                  -3.287
REMARK INTRA:                  -0.062
REMARK UNBOUND:                -0.011
REMARK SMILES CCCC(=O)[O-]
REMARK SMILES IDX 3 1 4 2 5 3 6 4 2 5 1 6
REMARK H PARENT
REMARK Flexibility Score: inf
ROOT
ATOM      1  C   UNL     1      -7.782  -6.468  -6.071  1.00  0.00     0.052 C 
ENDROOT
BRANCH   1   2
ATOM      2  C   UNL     1      -6.412  -6.097  -5.599  1.00  0.00     0.041 C 
ATOM      3  O   UNL     1      -5.436  -6.133  -6.393  1.00  0.00    -0.550 OA
ATOM      4  O   UNL     1      -6.220  -5.664  -4.293  1.00  0.00    -0.550 OA
ENDBRANCH   1   2
BRANCH   1   5
ATOM      5  C   UNL     1      -8.273  -5.472  -7.125  1.00  0.00     0.003 C 
ATOM      6  C   UNL     1      -8.797  -4.195  -6.473  1.00  0.00     0.004 C 
ENDBRANCH   1   5
TORSDOF 2
ENDMDL
MODEL 8
REMARK VINA RESULT:    -2.984      2.197      3.087
REMARK INTER + INTRA:          -3.344
REMARK INTER:                  -3.317
REMARK INTRA:                  -0.026
REMARK UNBOUND:                -0.011
REMARK SMILES CCCC(=O)[O-]
REMARK SMILES IDX 3 1 4 2 5 3 6 4 2 5 1 6
REMARK H PARENT
REMARK Flexibility Score: inf
ROOT
ATOM      1  C   UNL     1      -6.444  -5.964  -6.019  1.00  0.00     0.052 C 
ENDROOT
BRANCH   1   2
ATOM      2  C   UNL     1      -7.789  -6.121  -6.655  1.00  0.00     0.041 C 
ATOM      3  O   UNL     1      -8.298  -7.265  -6.788  1.00  0.00    -0.550 OA
ATOM      4  O   UNL     1      -8.504  -4.999  -7.057  1.00  0.00    -0.550 OA
ENDBRANCH   1   2
BRANCH   1   5
ATOM      5  C   UNL     1      -6.565  -5.212  -4.691  1.00  0.00     0.003 C 
ATOM      6  C   UNL     1      -6.335  -6.147  -3.506  1.00  0.00     0.004 C 
ENDBRANCH   1   5
TORSDOF 2
ENDMDL
MODEL 9
REMARK VINA RESULT:    -2.927     12.658     13.640
REMARK INTER + INTRA:          -3.280
REMARK INTER:                  -3.239
REMARK INTRA:                  -0.041
REMARK UNBOUND:                -0.011
REMARK SMILES CCCC(=O)[O-]
REMARK SMILES IDX 3 1 4 2 5 3 6 4 2 5 1 6
REMARK H PARENT
REMARK Flexibility Score: inf
ROOT
ATOM      1  C   UNL     1       5.266  -0.021  -2.950  1.00  0.00     0.052 C 
ENDROOT
BRANCH   1   2
ATOM      2  C   UNL     1       4.735  -1.017  -3.933  1.00  0.00     0.041 C 
ATOM      3  O   UNL     1       5.527  -1.729  -4.604  1.00  0.00    -0.550 OA
ATOM      4  O   UNL     1       3.364  -1.193  -4.072  1.00  0.00    -0.550 OA
ENDBRANCH   1   2
BRANCH   1   5
ATOM      5  C   UNL     1       5.832   1.201  -3.680  1.00  0.00     0.003 C 
ATOM      6  C   UNL     1       4.789   2.311  -3.782  1.00  0.00     0.004 C 
ENDBRANCH   1   5
TORSDOF 2
ENDMDL
