MODEL 1
REMARK VINA RESULT:    -3.447      0.000      0.000
REMARK INTER + INTRA:          -7.796
REMARK INTER:                  -5.865
REMARK INTRA:                  -1.931
REMARK UNBOUND:                -1.931
REMARK SMILES CCCCCCCCCCCCCC(=O)[O-]
REMARK SMILES IDX 8 1 9 2 10 3 11 4 12 5 13 6 14 7 15 8 16 9 7 10 6 11 5 12
REMARK SMILES IDX 4 13 3 14 2 15 1 16
REMARK H PARENT
REMARK Flexibility Score: inf
ROOT
ATOM      1  C   UNL     1      21.801  15.493 -16.520  1.00  0.00     0.000 C 
ENDROOT
BRANCH   1   2
ATOM      2  C   UNL     1      20.593  16.445 -16.620  1.00  0.00     0.000 C 
BRANCH   2   3
ATOM      3  C   UNL     1      20.095  16.712 -18.052  1.00  0.00     0.000 C 
BRANCH   3   4
ATOM      4  C   UNL     1      21.240  16.903 -19.058  1.00  0.00     0.000 C 
BRANCH   4   5
ATOM      5  C   UNL     1      20.702  16.986 -20.492  1.00  0.00     0.006 C 
BRANCH   5   6
ATOM      6  C   UNL     1      19.171  17.013 -20.504  1.00  0.00     0.053 C 
BRANCH   6   7
ATOM      7  C   UNL     1      18.672  17.926 -21.579  1.00  0.00     0.041 C 
ATOM      8  O   UNL     1      19.034  17.758 -22.772  1.00  0.00    -0.550 OA
ATOM      9  O   UNL     1      17.767  18.934 -21.270  1.00  0.00    -0.550 OA
ENDBRANCH   6   7
ENDBRANCH   5   6
ENDBRANCH   4   5
ENDBRANCH   3   4
ENDBRANCH   2   3
ENDBRANCH   1   2
BRANCH   1  10
ATOM     10  C   UNL     1      21.444  14.012 -16.292  1.00  0.00     0.000 C 
BRANCH  10  11
ATOM     11  C   UNL     1      20.032  13.798 -15.705  1.00  0.00    -0.000 C 
BRANCH  11  12
ATOM     12  C   UNL     1      19.274  12.656 -16.403  1.00  0.00    -0.000 C 
BRANCH  12  13
ATOM     13  C   UNL     1      18.210  13.160 -17.394  1.00  0.00    -0.000 C 
BRANCH  13  14
ATOM     14  C   UNL     1      18.734  13.482 -18.805  1.00  0.00    -0.000 C 
BRANCH  14  15
ATOM     15  C   UNL     1      19.853  12.532 -19.259  1.00  0.00    -0.003 C 
ATOM     16  C   UNL     1      20.979  13.299 -19.946  1.00  0.00     0.004 C 
ENDBRANCH  14  15
ENDBRANCH  13  14
ENDBRANCH  12  13
ENDBRANCH  11  12
ENDBRANCH  10  11
ENDBRANCH   1  10
TORSDOF 12
ENDMDL
MODEL 2
REMARK VINA RESULT:    -3.426      1.457      3.057
REMARK INTER + INTRA:          -7.760
REMARK INTER:                  -5.547
REMARK INTRA:                  -2.213
REMARK UNBOUND:                -1.931
REMARK SMILES CCCCCCCCCCCCCC(=O)[O-]
REMARK SMILES IDX 8 1 9 2 10 3 11 4 12 5 13 6 14 7 15 8 16 9 7 10 6 11 5 12
REMARK SMILES IDX 4 13 3 14 2 15 1 16
REMARK H PARENT
REMARK Flexibility Score: inf
ROOT
ATOM      1  C   UNL     1      22.078  13.489 -17.154  1.00  0.00     0.000 C 
ENDROOT
BRANCH   1   2
ATOM      2  C   UNL     1      21.076  13.598 -15.988  1.00  0.00     0.000 C 
BRANCH   2   3
ATOM      3  C   UNL     1      20.077  14.764 -16.099  1.00  0.00     0.000 C 
BRANCH   3   4
ATOM      4  C   UNL     1      20.758  16.109 -16.399  1.00  0.00     0.000 C 
BRANCH   4   5
ATOM      5  C   UNL     1      20.179  16.745 -17.669  1.00  0.00     0.006 C 
BRANCH   5   6
ATOM      6  C   UNL     1      21.246  16.854 -18.764  1.00  0.00     0.053 C 
BRANCH   6   7
ATOM      7  C   UNL     1      20.608  16.870 -20.117  1.00  0.00     0.041 C 
ATOM      8  O   UNL     1      19.397  17.191 -20.243  1.00  0.00    -0.550 OA
ATOM      9  O   UNL     1      21.364  16.579 -21.246  1.00  0.00    -0.550 OA
ENDBRANCH   6   7
ENDBRANCH   5   6
ENDBRANCH   4   5
ENDBRANCH   3   4
ENDBRANCH   2   3
ENDBRANCH   1   2
BRANCH   1  10
ATOM     10  C   UNL     1      21.661  12.526 -18.282  1.00  0.00     0.000 C 
BRANCH  10  11
ATOM     11  C   UNL     1      21.095  13.241 -19.528  1.00  0.00    -0.000 C 
BRANCH  11  12
ATOM     12  C   UNL     1      19.564  13.393 -19.472  1.00  0.00    -0.000 C 
BRANCH  12  13
ATOM     13  C   UNL     1      18.864  12.180 -18.833  1.00  0.00    -0.000 C 
BRANCH  13  14
ATOM     14  C   UNL     1      17.829  12.524 -17.747  1.00  0.00    -0.000 C 
BRANCH  14  15
ATOM     15  C   UNL     1      17.908  11.591 -16.529  1.00  0.00    -0.003 C 
ATOM     16  C   UNL     1      18.989  10.531 -16.717  1.00  0.00     0.004 C 
ENDBRANCH  14  15
ENDBRANCH  13  14
ENDBRANCH  12  13
ENDBRANCH  11  12
ENDBRANCH  10  11
ENDBRANCH   1  10
TORSDOF 12
ENDMDL
MODEL 3
REMARK VINA RESULT:    -3.408      2.284      3.638
REMARK INTER + INTRA:          -7.730
REMARK INTER:                  -6.508
REMARK INTRA:                  -1.222
REMARK UNBOUND:                -1.931
REMARK SMILES CCCCCCCCCCCCCC(=O)[O-]
REMARK SMILES IDX 8 1 9 2 10 3 11 4 12 5 13 6 14 7 15 8 16 9 7 10 6 11 5 12
REMARK SMILES IDX 4 13 3 14 2 15 1 16
REMARK H PARENT
REMARK Flexibility Score: inf
ROOT
ATOM      1  C   UNL     1      19.261  12.741 -15.598  1.00  0.00     0.000 C 
ENDROOT
BRANCH   1   2
ATOM      2  C   UNL     1      19.803  14.048 -16.209  1.00  0.00     0.000 C 
BRANCH   2   3
ATOM      3  C   UNL     1      21.338  14.129 -16.309  1.00  0.00     0.000 C 
BRANCH   3   4
ATOM      4  C   UNL     1      21.849  15.563 -16.516  1.00  0.00     0.000 C 
BRANCH   4   5
ATOM      5  C   UNL     1      20.716  16.489 -16.973  1.00  0.00     0.006 C 
BRANCH   5   6
ATOM      6  C   UNL     1      21.083  17.207 -18.276  1.00  0.00     0.053 C 
BRANCH   6   7
ATOM      7  C   UNL     1      20.254  16.692 -19.409  1.00  0.00     0.041 C 
ATOM      8  O   UNL     1      19.742  15.543 -19.349  1.00  0.00    -0.550 OA
ATOM      9  O   UNL     1      20.005  17.499 -20.512  1.00  0.00    -0.550 OA
ENDBRANCH   6   7
ENDBRANCH   5   6
ENDBRANCH   4   5
ENDBRANCH   3   4
ENDBRANCH   2   3
ENDBRANCH   1   2
BRANCH   1  10
ATOM     10  C   UNL     1      18.137  12.064 -16.404  1.00  0.00     0.000 C 
BRANCH  10  11
ATOM     11  C   UNL     1      18.120  12.459 -17.896  1.00  0.00    -0.000 C 
BRANCH  11  12
ATOM     12  C   UNL     1      19.024  11.554 -18.752  1.00  0.00    -0.000 C 
BRANCH  12  13
ATOM     13  C   UNL     1      18.285  10.325 -19.311  1.00  0.00    -0.000 C 
BRANCH  13  14
ATOM     14  C   UNL     1      18.670   8.983 -18.661  1.00  0.00    -0.000 C 
BRANCH  14  15
ATOM     15  C   UNL     1      19.876   9.100 -17.717  1.00  0.00    -0.003 C 
ATOM     16  C   UNL     1      19.550   8.539 -16.336  1.00  0.00     0.004 C 
ENDBRANCH  14  15
ENDBRANCH  13  14
ENDBRANCH  12  13
ENDBRANCH  11  12
ENDBRANCH  10  11
ENDBRANCH   1  10
TORSDOF 12
ENDMDL
MODEL 4
REMARK VINA RESULT:    -3.405      1.552      2.203
REMARK INTER + INTRA:          -7.724
REMARK INTER:                  -6.190
REMARK INTRA:                  -1.534
REMARK UNBOUND:                -1.931
REMARK SMILES CCCCCCCCCCCCCC(=O)[O-]
REMARK SMILES IDX 8 1 9 2 10 3 11 4 12 5 13 6 14 7 15 8 16 9 7 10 6 11 5 12
REMARK SMILES IDX 4 13 3 14 2 15 1 16
REMARK H PARENT
REMARK Flexibility Score: inf
ROOT
ATOM      1  C   UNL     1      21.988  13.790 -17.478  1.00  0.00     0.000 C 
ENDROOT
BRANCH   1   2
ATOM      2  C   UNL     1      22.603  15.142 -17.066  1.00  0.00     0.000 C 
BRANCH   2   3
ATOM      3  C   UNL     1      22.184  16.339 -17.940  1.00  0.00     0.000 C 
BRANCH   3   4
ATOM      4  C   UNL     1      20.901  17.022 -17.443  1.00  0.00     0.000 C 
BRANCH   4   5
ATOM      5  C   UNL     1      19.738  16.777 -18.413  1.00  0.00     0.006 C 
BRANCH   5   6
ATOM      6  C   UNL     1      20.254  16.410 -19.808  1.00  0.00     0.053 C 
BRANCH   6   7
ATOM      7  C   UNL     1      19.692  17.341 -20.835  1.00  0.00     0.041 C 
ATOM      8  O   UNL     1      20.407  17.731 -21.795  1.00  0.00    -0.550 OA
ATOM      9  O   UNL     1      18.364  17.740 -20.760  1.00  0.00    -0.550 OA
ENDBRANCH   6   7
ENDBRANCH   5   6
ENDBRANCH   4   5
ENDBRANCH   3   4
ENDBRANCH   2   3
ENDBRANCH   1   2
BRANCH   1  10
ATOM     10  C   UNL     1      21.188  13.076 -16.372  1.00  0.00     0.000 C 
BRANCH  10  11
ATOM     11  C   UNL     1      19.817  13.724 -16.082  1.00  0.00    -0.000 C 
BRANCH  11  12
ATOM     12  C   UNL     1      18.784  13.427 -17.184  1.00  0.00    -0.000 C 
BRANCH  12  13
ATOM     13  C   UNL     1      17.999  12.127 -16.935  1.00  0.00    -0.000 C 
BRANCH  13  14
ATOM     14  C   UNL     1      18.123  11.069 -18.047  1.00  0.00    -0.000 C 
BRANCH  14  15
ATOM     15  C   UNL     1      19.397  10.220 -17.925  1.00  0.00    -0.003 C 
ATOM     16  C   UNL     1      19.409   9.432 -16.618  1.00  0.00     0.004 C 
ENDBRANCH  14  15
ENDBRANCH  13  14
ENDBRANCH  12  13
ENDBRANCH  11  12
ENDBRANCH  10  11
ENDBRANCH   1  10
TORSDOF 12
ENDMDL
MODEL 5
REMARK VINA RESULT:    -3.356      4.086      6.188
REMARK INTER + INTRA:          -7.642
REMARK INTER:                  -5.860
REMARK INTRA:                  -1.782
REMARK UNBOUND:                -1.931
REMARK SMILES CCCCCCCCCCCCCC(=O)[O-]
REMARK SMILES IDX 8 1 9 2 10 3 11 4 12 5 13 6 14 7 15 8 16 9 7 10 6 11 5 12
REMARK SMILES IDX 4 13 3 14 2 15 1 16
REMARK H PARENT
REMARK Flexibility Score: inf
ROOT
ATOM      1  C   UNL     1      21.288  13.105 -17.834  1.00  0.00     0.000 C 
ENDROOT
BRANCH   1   2
ATOM      2  C   UNL     1      19.849  13.020 -18.378  1.00  0.00     0.000 C 
BRANCH   2   3
ATOM      3  C   UNL     1      18.748  13.349 -17.353  1.00  0.00     0.000 C 
BRANCH   3   4
ATOM      4  C   UNL     1      18.076  12.095 -16.774  1.00  0.00     0.000 C 
BRANCH   4   5
ATOM      5  C   UNL     1      18.487  10.842 -17.555  1.00  0.00     0.006 C 
BRANCH   5   6
ATOM      6  C   UNL     1      19.139   9.808 -16.631  1.00  0.00     0.053 C 
BRANCH   6   7
ATOM      7  C   UNL     1      20.163   9.012 -17.376  1.00  0.00     0.041 C 
ATOM      8  O   UNL     1      20.805   9.534 -18.325  1.00  0.00    -0.550 OA
ATOM      9  O   UNL     1      20.445   7.707 -16.991  1.00  0.00    -0.550 OA
ENDBRANCH   6   7
ENDBRANCH   5   6
ENDBRANCH   4   5
ENDBRANCH   3   4
ENDBRANCH   2   3
ENDBRANCH   1   2
BRANCH   1  10
ATOM     10  C   UNL     1      21.418  13.740 -16.436  1.00  0.00     0.000 C 
BRANCH  10  11
ATOM     11  C   UNL     1      21.871  15.216 -16.465  1.00  0.00    -0.000 C 
BRANCH  11  12
ATOM     12  C   UNL     1      20.693  16.193 -16.307  1.00  0.00    -0.000 C 
BRANCH  12  13
ATOM     13  C   UNL     1      20.215  16.779 -17.648  1.00  0.00    -0.000 C 
BRANCH  13  14
ATOM     14  C   UNL     1      21.305  16.908 -18.728  1.00  0.00    -0.000 C 
BRANCH  14  15
ATOM     15  C   UNL     1      20.909  16.254 -20.059  1.00  0.00    -0.003 C 
ATOM     16  C   UNL     1      22.061  15.434 -20.633  1.00  0.00     0.004 C 
ENDBRANCH  14  15
ENDBRANCH  13  14
ENDBRANCH  12  13
ENDBRANCH  11  12
ENDBRANCH  10  11
ENDBRANCH   1  10
TORSDOF 12
ENDMDL
MODEL 6
REMARK VINA RESULT:    -3.353      3.958      5.965
REMARK INTER + INTRA:          -7.636
REMARK INTER:                  -5.753
REMARK INTRA:                  -1.882
REMARK UNBOUND:                -1.931
REMARK SMILES CCCCCCCCCCCCCC(=O)[O-]
REMARK SMILES IDX 8 1 9 2 10 3 11 4 12 5 13 6 14 7 15 8 16 9 7 10 6 11 5 12
REMARK SMILES IDX 4 13 3 14 2 15 1 16
REMARK H PARENT
REMARK Flexibility Score: inf
ROOT
ATOM      1  C   UNL     1      21.002  15.061 -16.058  1.00  0.00     0.000 C 
ENDROOT
BRANCH   1   2
ATOM      2  C   UNL     1      19.864  14.222 -15.446  1.00  0.00     0.000 C 
BRANCH   2   3
ATOM      3  C   UNL     1      19.781  12.771 -15.957  1.00  0.00     0.000 C 
BRANCH   3   4
ATOM      4  C   UNL     1      18.474  12.475 -16.708  1.00  0.00     0.000 C 
BRANCH   4   5
ATOM      5  C   UNL     1      18.572  11.152 -17.478  1.00  0.00     0.006 C 
BRANCH   5   6
ATOM      6  C   UNL     1      19.279  10.081 -16.643  1.00  0.00     0.053 C 
BRANCH   6   7
ATOM      7  C   UNL     1      20.000   9.116 -17.530  1.00  0.00     0.041 C 
ATOM      8  O   UNL     1      19.587   7.933 -17.647  1.00  0.00    -0.550 OA
ATOM      9  O   UNL     1      21.100   9.537 -18.266  1.00  0.00    -0.550 OA
ENDBRANCH   6   7
ENDBRANCH   5   6
ENDBRANCH   4   5
ENDBRANCH   3   4
ENDBRANCH   2   3
ENDBRANCH   1   2
BRANCH   1  10
ATOM     10  C   UNL     1      20.578  16.445 -16.585  1.00  0.00     0.000 C 
BRANCH  10  11
ATOM     11  C   UNL     1      19.779  16.387 -17.905  1.00  0.00    -0.000 C 
BRANCH  11  12
ATOM     12  C   UNL     1      20.658  16.681 -19.134  1.00  0.00    -0.000 C 
BRANCH  12  13
ATOM     13  C   UNL     1      20.863  15.448 -20.033  1.00  0.00    -0.000 C 
BRANCH  13  14
ATOM     14  C   UNL     1      20.116  14.181 -19.580  1.00  0.00    -0.000 C 
BRANCH  14  15
ATOM     15  C   UNL     1      20.956  12.904 -19.735  1.00  0.00    -0.003 C 
ATOM     16  C   UNL     1      22.164  12.925 -18.804  1.00  0.00     0.004 C 
ENDBRANCH  14  15
ENDBRANCH  13  14
ENDBRANCH  12  13
ENDBRANCH  11  12
ENDBRANCH  10  11
ENDBRANCH   1  10
TORSDOF 12
ENDMDL
MODEL 7
REMARK VINA RESULT:    -3.348      3.912      5.771
REMARK INTER + INTRA:          -7.627
REMARK INTER:                  -6.143
REMARK INTRA:                  -1.484
REMARK UNBOUND:                -1.931
REMARK SMILES CCCCCCCCCCCCCC(=O)[O-]
REMARK SMILES IDX 8 1 9 2 10 3 11 4 12 5 13 6 14 7 15 8 16 9 7 10 6 11 5 12
REMARK SMILES IDX 4 13 3 14 2 15 1 16
REMARK H PARENT
REMARK Flexibility Score: inf
ROOT
ATOM      1  C   UNL     1      17.701  11.746 -19.042  1.00  0.00     0.000 C 
ENDROOT
BRANCH   1   2
ATOM      2  C   UNL     1      17.931  12.729 -17.877  1.00  0.00     0.000 C 
BRANCH   2   3
ATOM      3  C   UNL     1      18.003  12.078 -16.484  1.00  0.00     0.000 C 
BRANCH   3   4
ATOM      4  C   UNL     1      19.316  12.384 -15.747  1.00  0.00     0.000 C 
BRANCH   4   5
ATOM      5  C   UNL     1      20.134  13.440 -16.500  1.00  0.00     0.006 C 
BRANCH   5   6
ATOM      6  C   UNL     1      20.198  14.751 -15.711  1.00  0.00     0.053 C 
BRANCH   6   7
ATOM      7  C   UNL     1      21.108  15.726 -16.388  1.00  0.00     0.041 C 
ATOM      8  O   UNL     1      22.327  15.455 -16.540  1.00  0.00    -0.550 OA
ATOM      9  O   UNL     1      20.599  16.915 -16.896  1.00  0.00    -0.550 OA
ENDBRANCH   6   7
ENDBRANCH   5   6
ENDBRANCH   4   5
ENDBRANCH   3   4
ENDBRANCH   2   3
ENDBRANCH   1   2
BRANCH   1  10
ATOM     10  C   UNL     1      18.302  10.343 -18.835  1.00  0.00     0.000 C 
BRANCH  10  11
ATOM     11  C   UNL     1      19.836  10.295 -19.000  1.00  0.00    -0.000 C 
BRANCH  11  12
ATOM     12  C   UNL     1      20.512   9.410 -17.938  1.00  0.00    -0.000 C 
BRANCH  12  13
ATOM     13  C   UNL     1      19.502   8.673 -17.041  1.00  0.00    -0.000 C 
BRANCH  13  14
ATOM     14  C   UNL     1      19.537   7.137 -17.145  1.00  0.00    -0.000 C 
BRANCH  14  15
ATOM     15  C   UNL     1      18.192   6.536 -17.578  1.00  0.00    -0.003 C 
ATOM     16  C   UNL     1      17.974   6.700 -19.079  1.00  0.00     0.004 C 
ENDBRANCH  14  15
ENDBRANCH  13  14
ENDBRANCH  12  13
ENDBRANCH  11  12
ENDBRANCH  10  11
ENDBRANCH   1  10
TORSDOF 12
ENDMDL
MODEL 8
REMARK VINA RESULT:    -3.338      3.504      5.389
REMARK INTER + INTRA:          -7.611
REMARK INTER:                  -5.472
REMARK INTRA:                  -2.139
REMARK UNBOUND:                -1.931
REMARK SMILES CCCCCCCCCCCCCC(=O)[O-]
REMARK SMILES IDX 8 1 9 2 10 3 11 4 12 5 13 6 14 7 15 8 16 9 7 10 6 11 5 12
REMARK SMILES IDX 4 13 3 14 2 15 1 16
REMARK H PARENT
REMARK Flexibility Score: inf
ROOT
ATOM      1  C   UNL     1      23.352  14.219 -18.296  1.00  0.00     0.000 C 
ENDROOT
BRANCH   1   2
ATOM      2  C   UNL     1      22.187  13.794 -19.212  1.00  0.00     0.000 C 
BRANCH   2   3
ATOM      3  C   UNL     1      21.249  12.728 -18.616  1.00  0.00     0.000 C 
BRANCH   3   4
ATOM      4  C   UNL     1      19.769  12.985 -18.936  1.00  0.00     0.000 C 
BRANCH   4   5
ATOM      5  C   UNL     1      19.035  13.554 -17.715  1.00  0.00     0.006 C 
BRANCH   5   6
ATOM      6  C   UNL     1      19.389  12.771 -16.447  1.00  0.00     0.053 C 
BRANCH   6   7
ATOM      7  C   UNL     1      18.640  11.477 -16.404  1.00  0.00     0.041 C 
ATOM      8  O   UNL     1      17.386  11.474 -16.296  1.00  0.00    -0.550 OA
ATOM      9  O   UNL     1      19.323  10.274 -16.533  1.00  0.00    -0.550 OA
ENDBRANCH   6   7
ENDBRANCH   5   6
ENDBRANCH   4   5
ENDBRANCH   3   4
ENDBRANCH   2   3
ENDBRANCH   1   2
BRANCH   1  10
ATOM     10  C   UNL     1      23.104  15.504 -17.484  1.00  0.00     0.000 C 
BRANCH  10  11
ATOM     11  C   UNL     1      22.077  15.329 -16.345  1.00  0.00    -0.000 C 
BRANCH  11  12
ATOM     12  C   UNL     1      20.898  16.311 -16.463  1.00  0.00    -0.000 C 
BRANCH  12  13
ATOM     13  C   UNL     1      20.965  17.180 -17.732  1.00  0.00    -0.000 C 
BRANCH  13  14
ATOM     14  C   UNL     1      19.902  16.859 -18.798  1.00  0.00    -0.000 C 
BRANCH  14  15
ATOM     15  C   UNL     1      20.473  16.829 -20.223  1.00  0.00    -0.003 C 
ATOM     16  C   UNL     1      19.554  16.060 -21.168  1.00  0.00     0.004 C 
ENDBRANCH  14  15
ENDBRANCH  13  14
ENDBRANCH  12  13
ENDBRANCH  11  12
ENDBRANCH  10  11
ENDBRANCH   1  10
TORSDOF 12
ENDMDL
MODEL 9
REMARK VINA RESULT:    -3.329      2.660      3.399
REMARK INTER + INTRA:          -7.596
REMARK INTER:                  -6.336
REMARK INTRA:                  -1.260
REMARK UNBOUND:                -1.931
REMARK SMILES CCCCCCCCCCCCCC(=O)[O-]
REMARK SMILES IDX 8 1 9 2 10 3 11 4 12 5 13 6 14 7 15 8 16 9 7 10 6 11 5 12
REMARK SMILES IDX 4 13 3 14 2 15 1 16
REMARK H PARENT
REMARK Flexibility Score: inf
ROOT
ATOM      1  C   UNL     1      21.230  13.932 -16.378  1.00  0.00     0.000 C 
ENDROOT
BRANCH   1   2
ATOM      2  C   UNL     1      21.774  15.374 -16.379  1.00  0.00     0.000 C 
BRANCH   2   3
ATOM      3  C   UNL     1      20.725  16.463 -16.672  1.00  0.00     0.000 C 
BRANCH   3   4
ATOM      4  C   UNL     1      21.037  17.268 -17.942  1.00  0.00     0.000 C 
BRANCH   4   5
ATOM      5  C   UNL     1      20.165  16.803 -19.115  1.00  0.00     0.006 C 
BRANCH   5   6
ATOM      6  C   UNL     1      21.026  16.260 -20.259  1.00  0.00     0.053 C 
BRANCH   6   7
ATOM      7  C   UNL     1      21.332  14.811 -20.042  1.00  0.00     0.041 C 
ATOM      8  O   UNL     1      22.518  14.436 -19.851  1.00  0.00    -0.550 OA
ATOM      9  O   UNL     1      20.300  13.882 -20.003  1.00  0.00    -0.550 OA
ENDBRANCH   6   7
ENDBRANCH   5   6
ENDBRANCH   4   5
ENDBRANCH   3   4
ENDBRANCH   2   3
ENDBRANCH   1   2
BRANCH   1  10
ATOM     10  C   UNL     1      19.702  13.814 -16.538  1.00  0.00     0.000 C 
BRANCH  10  11
ATOM     11  C   UNL     1      19.067  12.730 -15.641  1.00  0.00    -0.000 C 
BRANCH  11  12
ATOM     12  C   UNL     1      18.116  11.806 -16.423  1.00  0.00    -0.000 C 
BRANCH  12  13
ATOM     13  C   UNL     1      18.716  11.315 -17.752  1.00  0.00    -0.000 C 
BRANCH  13  14
ATOM     14  C   UNL     1      19.724  10.158 -17.624  1.00  0.00    -0.000 C 
BRANCH  14  15
ATOM     15  C   UNL     1      19.361   9.170 -16.506  1.00  0.00    -0.003 C 
ATOM     16  C   UNL     1      19.958   7.792 -16.775  1.00  0.00     0.004 C 
ENDBRANCH  14  15
ENDBRANCH  13  14
ENDBRANCH  12  13
ENDBRANCH  11  12
ENDBRANCH  10  11
ENDBRANCH   1  10
TORSDOF 12
ENDMDL
