MODEL 1
REMARK VINA RESULT:    -1.836      0.000      0.000
REMARK INTER + INTRA:          -2.741
REMARK INTER:                  -2.480
REMARK INTRA:                  -0.261
REMARK UNBOUND:                -0.261
REMARK SMILES CCCCCCCC(=O)[O-]
REMARK SMILES IDX 5 1 6 2 7 3 8 4 9 5 10 6 4 7 3 8 2 9 1 10
REMARK H PARENT
REMARK Flexibility Score: inf
ROOT
ATOM      1  C   UNL     1      15.875  -7.456  27.739  1.00  0.00     0.000 C 
ENDROOT
BRANCH   1   2
ATOM      2  C   UNL     1      15.890  -7.753  29.246  1.00  0.00     0.006 C 
BRANCH   2   3
ATOM      3  C   UNL     1      17.292  -8.123  29.750  1.00  0.00     0.053 C 
BRANCH   3   4
ATOM      4  C   UNL     1      17.463  -9.605  29.888  1.00  0.00     0.041 C 
ATOM      5  O   UNL     1      18.603 -10.126  29.761  1.00  0.00    -0.550 OA
ATOM      6  O   UNL     1      16.360 -10.415  30.125  1.00  0.00    -0.550 OA
ENDBRANCH   3   4
ENDBRANCH   2   3
ENDBRANCH   1   2
BRANCH   1   7
ATOM      7  C   UNL     1      15.908  -8.731  26.877  1.00  0.00     0.000 C 
BRANCH   7   8
ATOM      8  C   UNL     1      17.220  -8.965  26.102  1.00  0.00    -0.000 C 
BRANCH   8   9
ATOM      9  C   UNL     1      17.377  -8.125  24.822  1.00  0.00    -0.003 C 
ATOM     10  C   UNL     1      18.838  -7.929  24.414  1.00  0.00     0.004 C 
ENDBRANCH   8   9
ENDBRANCH   7   8
ENDBRANCH   1   7
TORSDOF 6
ENDMDL
MODEL 2
REMARK VINA RESULT:    -1.540      1.677      2.000
REMARK INTER + INTRA:          -2.341
REMARK INTER:                  -2.462
REMARK INTRA:                   0.121
REMARK UNBOUND:                -0.261
REMARK SMILES CCCCCCCC(=O)[O-]
REMARK SMILES IDX 5 1 6 2 7 3 8 4 9 5 10 6 4 7 3 8 2 9 1 10
REMARK H PARENT
REMARK Flexibility Score: inf
ROOT
ATOM      1  C   UNL     1      16.889  -9.038  27.717  1.00  0.00     0.000 C 
ENDROOT
BRANCH   1   2
ATOM      2  C   UNL     1      15.999  -9.654  28.809  1.00  0.00     0.006 C 
BRANCH   2   3
ATOM      3  C   UNL     1      16.036  -8.844  30.112  1.00  0.00     0.053 C 
BRANCH   3   4
ATOM      4  C   UNL     1      17.164  -7.859  30.125  1.00  0.00     0.041 C 
ATOM      5  O   UNL     1      16.925  -6.622  30.116  1.00  0.00    -0.550 OA
ATOM      6  O   UNL     1      18.480  -8.304  30.115  1.00  0.00    -0.550 OA
ENDBRANCH   3   4
ENDBRANCH   2   3
ENDBRANCH   1   2
BRANCH   1   7
ATOM      7  C   UNL     1      16.091  -8.219  26.687  1.00  0.00     0.000 C 
BRANCH   7   8
ATOM      8  C   UNL     1      16.405  -8.536  25.212  1.00  0.00    -0.000 C 
BRANCH   8   9
ATOM      9  C   UNL     1      17.902  -8.627  24.870  1.00  0.00    -0.003 C 
ATOM     10  C   UNL     1      18.523  -7.266  24.555  1.00  0.00     0.004 C 
ENDBRANCH   8   9
ENDBRANCH   7   8
ENDBRANCH   1   7
TORSDOF 6
ENDMDL
