MODEL 1
REMARK VINA RESULT:    -1.410      0.000      0.000
REMARK INTER + INTRA:          -1.354
REMARK INTER:                  -1.987
REMARK INTRA:                   0.632
REMARK UNBOUND:                 0.632
REMARK SMILES CC1=CCC(=C(C)C)C(=O)CC(C)=CCC1
REMARK SMILES IDX 12 1 14 2 13 3 15 4 16 5 2 6 1 7 3 8 11 10 9 11 10 12 5 13
REMARK SMILES IDX 6 14 7 15 8 16 4 17
REMARK H PARENT
REMARK Flexibility Score: 60.00
ROOT
ATOM      1  C   UNL     1      -7.365  -6.581  -5.144  1.00  0.00    -0.070 C 
ATOM      2  C   UNL     1      -7.939  -6.088  -6.264  1.00  0.00    -0.027 C 
ATOM      3  C   UNL     1      -6.124  -7.425  -5.299  1.00  0.00     0.039 C 
ENDROOT
BRANCH   2   4
ATOM      4  C   UNL     1      -9.123  -5.148  -6.308  1.00  0.00     0.032 C 
BRANCH   4   5
ATOM      5  C   UNL     1      -8.904  -3.867  -7.139  1.00  0.00     0.034 C 
BRANCH   5   6
ATOM      6  C   UNL     1      -8.014  -2.852  -6.446  1.00  0.00    -0.077 C 
ATOM      7  C   UNL     1      -7.031  -2.085  -7.295  1.00  0.00     0.039 C 
ATOM      8  C   UNL     1      -8.092  -2.538  -5.129  1.00  0.00    -0.023 CG0
ATOM      9  G   UNL     1      -8.984  -3.184  -4.087  1.00  0.00     0.000 G0
ENDBRANCH   5   6
ENDBRANCH   4   5
ENDBRANCH   2   4
BRANCH   1  10
ATOM     10  C   UNL     1      -7.851  -6.254  -3.747  1.00  0.00     0.111 C 
BRANCH  10  11
ATOM     11  C   UNL     1      -7.298  -4.940  -3.259  1.00  0.00     0.163 C 
ATOM     12  O   UNL     1      -6.046  -4.813  -3.184  1.00  0.00    -0.294 OA
BRANCH  11  13
ATOM     13  C   UNL     1      -8.173  -3.778  -2.922  1.00  0.00    -0.002 C 
ATOM     14  C   UNL     1      -8.183  -3.252  -1.661  1.00  0.00    -0.069 C 
ATOM     15  C   UNL     1      -8.934  -1.981  -1.330  1.00  0.00     0.039 C 
ATOM     16  C   UNL     1      -7.433  -3.917  -0.528  1.00  0.00     0.039 C 
BRANCH  13  17
ATOM     17  C   UNL     1      -8.970  -3.156  -4.059  1.00  0.00     0.066 CG0
ATOM     18  G   UNL     1      -8.077  -2.544  -5.120  1.00  0.00     0.000 G0
ENDBRANCH  13  17
ENDBRANCH  11  13
ENDBRANCH  10  11
ENDBRANCH   1  10
TORSDOF 0
ENDMDL
MODEL 2
REMARK VINA RESULT:    -1.097     16.342     17.770
REMARK INTER + INTRA:          -0.913
REMARK INTER:                  -2.181
REMARK INTRA:                   1.267
REMARK UNBOUND:                 0.632
REMARK SMILES CC1=CCC(=C(C)C)C(=O)CC(C)=CCC1
REMARK SMILES IDX 12 1 14 2 13 3 15 4 16 5 2 6 1 7 3 8 11 10 9 11 10 12 5 13
REMARK SMILES IDX 6 14 7 15 8 16 4 17
REMARK H PARENT
REMARK Flexibility Score: 60.00
ROOT
ATOM      1  C   UNL     1      10.885  -5.135  -3.478  1.00  0.00    -0.070 C 
ATOM      2  C   UNL     1      10.705  -6.443  -3.190  1.00  0.00    -0.027 C 
ATOM      3  C   UNL     1      10.757  -4.705  -4.919  1.00  0.00     0.039 C 
ENDROOT
BRANCH   2   4
ATOM      4  C   UNL     1      10.697  -7.048  -1.803  1.00  0.00     0.032 C 
BRANCH   4   5
ATOM      5  C   UNL     1      10.414  -6.049  -0.662  1.00  0.00     0.034 C 
BRANCH   5   6
ATOM      6  C   UNL     1       8.952  -6.002  -0.259  1.00  0.00    -0.077 C 
ATOM      7  C   UNL     1       8.277  -7.307   0.086  1.00  0.00     0.039 C 
ATOM      8  C   UNL     1       8.232  -4.862  -0.121  1.00  0.00    -0.023 CG0
ATOM      9  G   UNL     1       8.690  -3.449  -0.428  1.00  0.00     0.000 G0
ENDBRANCH   5   6
ENDBRANCH   4   5
ENDBRANCH   2   4
BRANCH   1  10
ATOM     10  C   UNL     1      11.117  -4.074  -2.422  1.00  0.00     0.111 C 
BRANCH  10  11
ATOM     11  C   UNL     1      10.089  -2.975  -2.501  1.00  0.00     0.163 C 
ATOM     12  O   UNL     1      10.381  -1.937  -3.156  1.00  0.00    -0.294 OA
BRANCH  11  13
ATOM     13  C   UNL     1       8.734  -3.099  -1.889  1.00  0.00    -0.002 C 
ATOM     14  C   UNL     1       7.608  -3.000  -2.657  1.00  0.00    -0.069 C 
ATOM     15  C   UNL     1       6.230  -3.279  -2.097  1.00  0.00     0.039 C 
ATOM     16  C   UNL     1       7.686  -2.608  -4.116  1.00  0.00     0.039 C 
BRANCH  13  17
ATOM     17  C   UNL     1       8.669  -3.432  -0.407  1.00  0.00     0.066 CG0
ATOM     18  G   UNL     1       8.226  -4.861  -0.157  1.00  0.00     0.000 G0
ENDBRANCH  13  17
ENDBRANCH  11  13
ENDBRANCH  10  11
ENDBRANCH   1  10
TORSDOF 0
ENDMDL
MODEL 3
REMARK VINA RESULT:    -0.759     15.982     17.230
REMARK INTER + INTRA:          -0.437
REMARK INTER:                  -1.707
REMARK INTRA:                   1.271
REMARK UNBOUND:                 0.632
REMARK SMILES CC1=CCC(=C(C)C)C(=O)CC(C)=CCC1
REMARK SMILES IDX 12 1 14 2 13 3 15 4 16 5 2 6 1 7 3 8 11 10 9 11 10 12 5 13
REMARK SMILES IDX 6 14 7 15 8 16 4 17
REMARK H PARENT
REMARK Flexibility Score: 60.00
ROOT
ATOM      1  C   UNL     1       8.041  -2.856  -3.441  1.00  0.00    -0.070 C 
ATOM      2  C   UNL     1       9.222  -3.284  -3.940  1.00  0.00    -0.027 C 
ATOM      3  C   UNL     1       6.776  -3.423  -4.034  1.00  0.00     0.039 C 
ENDROOT
BRANCH   2   4
ATOM      4  C   UNL     1      10.590  -2.909  -3.416  1.00  0.00     0.032 C 
BRANCH   4   5
ATOM      5  C   UNL     1      11.095  -3.775  -2.243  1.00  0.00     0.034 C 
BRANCH   5   6
ATOM      6  C   UNL     1      10.484  -5.164  -2.220  1.00  0.00    -0.077 C 
ATOM      7  C   UNL     1      10.894  -6.128  -3.305  1.00  0.00     0.039 C 
ATOM      8  C   UNL     1       9.650  -5.616  -1.253  1.00  0.00    -0.023 CG0
ATOM      9  G   UNL     1       9.090  -4.827  -0.084  1.00  0.00     0.000 G0
ENDBRANCH   5   6
ENDBRANCH   4   5
ENDBRANCH   2   4
BRANCH   1  10
ATOM     10  C   UNL     1       7.931  -1.911  -2.262  1.00  0.00     0.111 C 
BRANCH  10  11
ATOM     11  C   UNL     1       8.465  -2.532  -0.997  1.00  0.00     0.163 C 
ATOM     12  O   UNL     1       9.301  -1.875  -0.320  1.00  0.00    -0.294 OA
BRANCH  11  13
ATOM     13  C   UNL     1       7.996  -3.858  -0.497  1.00  0.00    -0.002 C 
ATOM     14  C   UNL     1       6.668  -4.181  -0.509  1.00  0.00    -0.069 C 
ATOM     15  C   UNL     1       6.178  -5.569  -0.160  1.00  0.00     0.039 C 
ATOM     16  C   UNL     1       5.617  -3.158  -0.879  1.00  0.00     0.039 C 
BRANCH  13  17
ATOM     17  C   UNL     1       9.062  -4.856  -0.069  1.00  0.00     0.066 CG0
ATOM     18  G   UNL     1       9.660  -5.600  -1.247  1.00  0.00     0.000 G0
ENDBRANCH  13  17
ENDBRANCH  11  13
ENDBRANCH  10  11
ENDBRANCH   1  10
TORSDOF 0
ENDMDL
MODEL 4
REMARK VINA RESULT:    -0.547     15.773     16.962
REMARK INTER + INTRA:          -0.139
REMARK INTER:                  -2.090
REMARK INTRA:                   1.951
REMARK UNBOUND:                 0.632
REMARK SMILES CC1=CCC(=C(C)C)C(=O)CC(C)=CCC1
REMARK SMILES IDX 12 1 14 2 13 3 15 4 16 5 2 6 1 7 3 8 11 10 9 11 10 12 5 13
REMARK SMILES IDX 6 14 7 15 8 16 4 17
REMARK H PARENT
REMARK Flexibility Score: 60.00
ROOT
ATOM      1  C   UNL     1       6.134  -2.020  -2.540  1.00  0.00    -0.070 C 
ATOM      2  C   UNL     1       6.704  -1.999  -3.765  1.00  0.00    -0.027 C 
ATOM      3  C   UNL     1       4.627  -1.984  -2.461  1.00  0.00     0.039 C 
ENDROOT
BRANCH   2   4
ATOM      4  C   UNL     1       8.184  -2.125  -4.051  1.00  0.00     0.032 C 
BRANCH   4   5
ATOM      5  C   UNL     1       8.625  -3.500  -4.593  1.00  0.00     0.034 C 
BRANCH   5   6
ATOM      6  C   UNL     1      10.015  -3.904  -4.138  1.00  0.00    -0.077 C 
ATOM      7  C   UNL     1      10.930  -4.537  -5.156  1.00  0.00     0.039 C 
ATOM      8  C   UNL     1      10.512  -3.671  -2.899  1.00  0.00    -0.023 CG0
ATOM      9  G   UNL     1       9.777  -3.070  -1.717  1.00  0.00     0.000 G0
ENDBRANCH   5   6
ENDBRANCH   4   5
ENDBRANCH   2   4
BRANCH   1  10
ATOM     10  C   UNL     1       6.925  -2.170  -1.257  1.00  0.00     0.111 C 
BRANCH  10  11
ATOM     11  C   UNL     1       7.359  -3.596  -1.033  1.00  0.00     0.163 C 
ATOM     12  O   UNL     1       6.465  -4.471  -0.878  1.00  0.00    -0.294 OA
BRANCH  11  13
ATOM     13  C   UNL     1       8.793  -4.008  -1.049  1.00  0.00    -0.002 C 
ATOM     14  C   UNL     1       9.175  -5.231  -0.573  1.00  0.00    -0.069 C 
ATOM     15  C   UNL     1      10.592  -5.742  -0.721  1.00  0.00     0.039 C 
ATOM     16  C   UNL     1       8.190  -6.143   0.125  1.00  0.00     0.039 C 
BRANCH  13  17
ATOM     17  C   UNL     1       9.784  -3.054  -1.699  1.00  0.00     0.066 CG0
ATOM     18  G   UNL     1      10.483  -3.675  -2.892  1.00  0.00     0.000 G0
ENDBRANCH  13  17
ENDBRANCH  11  13
ENDBRANCH  10  11
ENDBRANCH   1  10
TORSDOF 0
ENDMDL
MODEL 5
REMARK VINA RESULT:    -0.049     15.942     17.367
REMARK INTER + INTRA:           0.564
REMARK INTER:                  -0.308
REMARK INTRA:                   0.871
REMARK UNBOUND:                 0.632
REMARK SMILES CC1=CCC(=C(C)C)C(=O)CC(C)=CCC1
REMARK SMILES IDX 12 1 14 2 13 3 15 4 16 5 2 6 1 7 3 8 11 10 9 11 10 12 5 13
REMARK SMILES IDX 6 14 7 15 8 16 4 17
REMARK H PARENT
REMARK Flexibility Score: 60.00
ROOT
ATOM      1  C   UNL     1      10.453  -5.207  -2.308  1.00  0.00    -0.070 C 
ATOM      2  C   UNL     1       9.868  -5.777  -1.230  1.00  0.00    -0.027 C 
ATOM      3  C   UNL     1      10.481  -5.994  -3.595  1.00  0.00     0.039 C 
ENDROOT
BRANCH   2   4
ATOM      4  C   UNL     1       9.657  -5.114   0.113  1.00  0.00     0.032 C 
BRANCH   4   5
ATOM      5  C   UNL     1       8.861  -3.794   0.066  1.00  0.00     0.034 C 
BRANCH   5   6
ATOM      6  C   UNL     1       7.530  -3.924  -0.652  1.00  0.00    -0.077 C 
ATOM      7  C   UNL     1       6.501  -4.854  -0.059  1.00  0.00     0.039 C 
ATOM      8  C   UNL     1       7.180  -3.210  -1.750  1.00  0.00    -0.023 CG0
ATOM      9  G   UNL     1       8.049  -2.239  -2.524  1.00  0.00     0.000 G0
ENDBRANCH   5   6
ENDBRANCH   4   5
ENDBRANCH   2   4
BRANCH   1  10
ATOM     10  C   UNL     1      10.996  -3.793  -2.308  1.00  0.00     0.111 C 
BRANCH  10  11
ATOM     11  C   UNL     1      10.364  -2.954  -3.388  1.00  0.00     0.163 C 
ATOM     12  O   UNL     1      11.125  -2.313  -4.163  1.00  0.00    -0.294 OA
BRANCH  11  13
ATOM     13  C   UNL     1       8.888  -2.906  -3.605  1.00  0.00    -0.002 C 
ATOM     14  C   UNL     1       8.319  -3.519  -4.686  1.00  0.00    -0.069 C 
ATOM     15  C   UNL     1       6.818  -3.625  -4.848  1.00  0.00     0.039 C 
ATOM     16  C   UNL     1       9.169  -4.129  -5.778  1.00  0.00     0.039 C 
BRANCH  13  17
ATOM     17  C   UNL     1       8.049  -2.234  -2.528  1.00  0.00     0.066 CG0
ATOM     18  G   UNL     1       7.182  -3.223  -1.774  1.00  0.00     0.000 G0
ENDBRANCH  13  17
ENDBRANCH  11  13
ENDBRANCH  10  11
ENDBRANCH   1  10
TORSDOF 0
ENDMDL
MODEL 6
REMARK VINA RESULT:     0.135     16.533     17.907
REMARK INTER + INTRA:           0.822
REMARK INTER:                  -0.477
REMARK INTRA:                   1.300
REMARK UNBOUND:                 0.632
REMARK SMILES CC1=CCC(=C(C)C)C(=O)CC(C)=CCC1
REMARK SMILES IDX 12 1 14 2 13 3 15 4 16 5 2 6 1 7 3 8 11 10 9 11 10 12 5 13
REMARK SMILES IDX 6 14 7 15 8 16 4 17
REMARK H PARENT
REMARK Flexibility Score: 60.00
ROOT
ATOM      1  C   UNL     1       8.003  -2.660  -4.233  1.00  0.00    -0.070 C 
ATOM      2  C   UNL     1       9.213  -2.191  -4.611  1.00  0.00    -0.027 C 
ATOM      3  C   UNL     1       6.777  -1.964  -4.771  1.00  0.00     0.039 C 
ENDROOT
BRANCH   2   4
ATOM      4  C   UNL     1      10.548  -2.808  -4.258  1.00  0.00     0.032 C 
BRANCH   4   5
ATOM      5  C   UNL     1      11.080  -3.832  -5.282  1.00  0.00     0.034 C 
BRANCH   5   6
ATOM      6  C   UNL     1      10.860  -5.272  -4.856  1.00  0.00    -0.077 C 
ATOM      7  C   UNL     1      10.751  -6.315  -5.939  1.00  0.00     0.039 C 
ATOM      8  C   UNL     1      10.824  -5.691  -3.567  1.00  0.00    -0.023 CG0
ATOM      9  G   UNL     1      10.893  -4.828  -2.322  1.00  0.00     0.000 G0
ENDBRANCH   5   6
ENDBRANCH   4   5
ENDBRANCH   2   4
BRANCH   1  10
ATOM     10  C   UNL     1       7.821  -3.895  -3.376  1.00  0.00     0.111 C 
BRANCH  10  11
ATOM     11  C   UNL     1       8.547  -3.774  -2.062  1.00  0.00     0.163 C 
ATOM     12  O   UNL     1       8.261  -2.800  -1.314  1.00  0.00    -0.294 OA
BRANCH  11  13
ATOM     13  C   UNL     1       9.537  -4.789  -1.596  1.00  0.00    -0.002 C 
ATOM     14  C   UNL     1       9.209  -5.692  -0.624  1.00  0.00    -0.069 C 
ATOM     15  C   UNL     1      10.130  -6.830  -0.244  1.00  0.00     0.039 C 
ATOM     16  C   UNL     1       7.897  -5.597   0.123  1.00  0.00     0.039 C 
BRANCH  13  17
ATOM     17  C   UNL     1      10.877  -4.833  -2.314  1.00  0.00     0.066 CG0
ATOM     18  G   UNL     1      10.837  -5.702  -3.556  1.00  0.00     0.000 G0
ENDBRANCH  13  17
ENDBRANCH  11  13
ENDBRANCH  10  11
ENDBRANCH   1  10
TORSDOF 0
ENDMDL
MODEL 7
REMARK VINA RESULT:     1.299     16.186     17.382
REMARK INTER + INTRA:           2.463
REMARK INTER:                  -0.777
REMARK INTRA:                   3.240
REMARK UNBOUND:                 0.632
REMARK SMILES CC1=CCC(=C(C)C)C(=O)CC(C)=CCC1
REMARK SMILES IDX 12 1 14 2 13 3 15 4 16 5 2 6 1 7 3 8 11 10 9 11 10 12 5 13
REMARK SMILES IDX 6 14 7 15 8 16 4 17
REMARK H PARENT
REMARK Flexibility Score: 60.00
ROOT
ATOM      1  C   UNL     1       6.810  -3.378  -2.227  1.00  0.00    -0.070 C 
ATOM      2  C   UNL     1       6.794  -2.914  -3.497  1.00  0.00    -0.027 C 
ATOM      3  C   UNL     1       5.855  -4.490  -1.869  1.00  0.00     0.039 C 
ENDROOT
BRANCH   2   4
ATOM      4  C   UNL     1       7.734  -1.877  -4.069  1.00  0.00     0.032 C 
BRANCH   4   5
ATOM      5  C   UNL     1       8.133  -2.107  -5.542  1.00  0.00     0.034 C 
BRANCH   5   6
ATOM      6  C   UNL     1       9.575  -2.551  -5.708  1.00  0.00    -0.077 C 
ATOM      7  C   UNL     1      10.077  -2.796  -7.109  1.00  0.00     0.039 C 
ATOM      8  C   UNL     1      10.459  -2.675  -4.688  1.00  0.00    -0.023 CG0
ATOM      9  G   UNL     1      10.179  -2.500  -3.208  1.00  0.00     0.000 G0
ENDBRANCH   5   6
ENDBRANCH   4   5
ENDBRANCH   2   4
BRANCH   1  10
ATOM     10  C   UNL     1       7.796  -2.902  -1.180  1.00  0.00     0.111 C 
BRANCH  10  11
ATOM     11  C   UNL     1       9.075  -3.697  -1.217  1.00  0.00     0.163 C 
ATOM     12  O   UNL     1       9.397  -4.351  -0.188  1.00  0.00    -0.294 OA
BRANCH  11  13
ATOM     13  C   UNL     1       9.931  -3.783  -2.437  1.00  0.00    -0.002 C 
ATOM     14  C   UNL     1      10.361  -4.992  -2.906  1.00  0.00    -0.069 C 
ATOM     15  C   UNL     1      11.092  -5.126  -4.224  1.00  0.00     0.039 C 
ATOM     16  C   UNL     1      10.122  -6.266  -2.126  1.00  0.00     0.039 C 
BRANCH  13  17
ATOM     17  C   UNL     1      10.216  -2.486  -3.178  1.00  0.00     0.066 CG0
ATOM     18  G   UNL     1      10.427  -2.706  -4.664  1.00  0.00     0.000 G0
ENDBRANCH  13  17
ENDBRANCH  11  13
ENDBRANCH  10  11
ENDBRANCH   1  10
TORSDOF 0
ENDMDL
