MODEL 1
REMARK VINA RESULT:    -3.885      0.000      0.000
REMARK INTER + INTRA:          -8.201
REMARK INTER:                  -7.064
REMARK INTRA:                  -1.137
REMARK UNBOUND:                -1.137
REMARK SMILES CCCCCCCCCCCCCCCC(=O)[O-]
REMARK SMILES IDX 9 1 10 2 11 3 12 4 13 5 14 6 15 7 16 8 17 9 18 10 8 11 7 12
REMARK SMILES IDX 6 13 5 14 4 15 3 16 2 17 1 18
REMARK H PARENT
REMARK Flexibility Score: inf
ROOT
ATOM      1  C   UNL     1      12.581   1.647 -18.922  1.00  0.00     0.000 C 
ENDROOT
BRANCH   1   2
ATOM      2  C   UNL     1      12.993   3.130 -18.988  1.00  0.00     0.000 C 
BRANCH   2   3
ATOM      3  C   UNL     1      13.309   3.654 -20.400  1.00  0.00     0.000 C 
BRANCH   3   4
ATOM      4  C   UNL     1      13.417   5.187 -20.456  1.00  0.00     0.000 C 
BRANCH   4   5
ATOM      5  C   UNL     1      14.874   5.677 -20.471  1.00  0.00     0.000 C 
BRANCH   5   6
ATOM      6  C   UNL     1      15.599   5.347 -21.785  1.00  0.00     0.006 C 
BRANCH   6   7
ATOM      7  C   UNL     1      17.107   5.579 -21.653  1.00  0.00     0.053 C 
BRANCH   7   8
ATOM      8  C   UNL     1      17.804   5.229 -22.929  1.00  0.00     0.041 C 
ATOM      9  O   UNL     1      19.058   5.317 -23.011  1.00  0.00    -0.550 OA
ATOM     10  O   UNL     1      17.075   4.748 -24.010  1.00  0.00    -0.550 OA
ENDBRANCH   7   8
ENDBRANCH   6   7
ENDBRANCH   5   6
ENDBRANCH   4   5
ENDBRANCH   3   4
ENDBRANCH   2   3
ENDBRANCH   1   2
BRANCH   1  11
ATOM     11  C   UNL     1      12.411   1.113 -17.484  1.00  0.00     0.000 C 
BRANCH  11  12
ATOM     12  C   UNL     1      11.260   0.097 -17.372  1.00  0.00    -0.000 C 
BRANCH  12  13
ATOM     13  C   UNL     1      10.289   0.171 -18.561  1.00  0.00    -0.000 C 
BRANCH  13  14
ATOM     14  C   UNL     1      10.015  -1.206 -19.187  1.00  0.00    -0.000 C 
BRANCH  14  15
ATOM     15  C   UNL     1      11.239  -1.783 -19.923  1.00  0.00    -0.000 C 
BRANCH  15  16
ATOM     16  C   UNL     1      11.263  -1.525 -21.440  1.00  0.00    -0.000 C 
BRANCH  16  17
ATOM     17  C   UNL     1      12.625  -1.023 -21.941  1.00  0.00    -0.003 C 
ATOM     18  C   UNL     1      13.687  -1.141 -20.852  1.00  0.00     0.004 C 
ENDBRANCH  16  17
ENDBRANCH  15  16
ENDBRANCH  14  15
ENDBRANCH  13  14
ENDBRANCH  12  13
ENDBRANCH  11  12
ENDBRANCH   1  11
TORSDOF 14
ENDMDL
MODEL 2
REMARK VINA RESULT:    -3.726      2.459      7.092
REMARK INTER + INTRA:          -7.912
REMARK INTER:                  -7.004
REMARK INTRA:                  -0.909
REMARK UNBOUND:                -1.137
REMARK SMILES CCCCCCCCCCCCCCCC(=O)[O-]
REMARK SMILES IDX 9 1 10 2 11 3 12 4 13 5 14 6 15 7 16 8 17 9 18 10 8 11 7 12
REMARK SMILES IDX 6 13 5 14 4 15 3 16 2 17 1 18
REMARK H PARENT
REMARK Flexibility Score: inf
ROOT
ATOM      1  C   UNL     1      12.742   1.602 -18.760  1.00  0.00     0.000 C 
ENDROOT
BRANCH   1   2
ATOM      2  C   UNL     1      12.437   1.133 -17.324  1.00  0.00     0.000 C 
BRANCH   2   3
ATOM      3  C   UNL     1      11.237   0.179 -17.193  1.00  0.00     0.000 C 
BRANCH   3   4
ATOM      4  C   UNL     1      10.359   0.151 -18.456  1.00  0.00     0.000 C 
BRANCH   4   5
ATOM      5  C   UNL     1      10.098  -1.277 -18.962  1.00  0.00     0.000 C 
BRANCH   5   6
ATOM      6  C   UNL     1      10.738  -1.549 -20.331  1.00  0.00     0.006 C 
BRANCH   6   7
ATOM      7  C   UNL     1      12.255  -1.721 -20.204  1.00  0.00     0.053 C 
BRANCH   7   8
ATOM      8  C   UNL     1      12.952  -1.104 -21.375  1.00  0.00     0.041 C 
ATOM      9  O   UNL     1      13.884  -0.277 -21.195  1.00  0.00    -0.550 OA
ATOM     10  O   UNL     1      12.611  -1.488 -22.667  1.00  0.00    -0.550 OA
ENDBRANCH   7   8
ENDBRANCH   6   7
ENDBRANCH   5   6
ENDBRANCH   4   5
ENDBRANCH   3   4
ENDBRANCH   2   3
ENDBRANCH   1   2
BRANCH   1  11
ATOM     11  C   UNL     1      12.878   3.133 -18.897  1.00  0.00     0.000 C 
BRANCH  11  12
ATOM     12  C   UNL     1      13.289   3.555 -20.320  1.00  0.00    -0.000 C 
BRANCH  12  13
ATOM     13  C   UNL     1      13.364   5.081 -20.485  1.00  0.00    -0.000 C 
BRANCH  13  14
ATOM     14  C   UNL     1      14.798   5.621 -20.348  1.00  0.00    -0.000 C 
BRANCH  14  15
ATOM     15  C   UNL     1      15.542   5.688 -21.695  1.00  0.00    -0.000 C 
BRANCH  15  16
ATOM     16  C   UNL     1      17.077   5.634 -21.590  1.00  0.00    -0.000 C 
BRANCH  16  17
ATOM     17  C   UNL     1      17.753   5.207 -22.901  1.00  0.00    -0.003 C 
ATOM     18  C   UNL     1      16.741   4.600 -23.867  1.00  0.00     0.004 C 
ENDBRANCH  16  17
ENDBRANCH  15  16
ENDBRANCH  14  15
ENDBRANCH  13  14
ENDBRANCH  12  13
ENDBRANCH  11  12
ENDBRANCH   1  11
TORSDOF 14
ENDMDL
MODEL 3
REMARK VINA RESULT:    -3.648      0.820      2.505
REMARK INTER + INTRA:          -7.771
REMARK INTER:                  -6.457
REMARK INTRA:                  -1.314
REMARK UNBOUND:                -1.137
REMARK SMILES CCCCCCCCCCCCCCCC(=O)[O-]
REMARK SMILES IDX 9 1 10 2 11 3 12 4 13 5 14 6 15 7 16 8 17 9 18 10 8 11 7 12
REMARK SMILES IDX 6 13 5 14 4 15 3 16 2 17 1 18
REMARK H PARENT
REMARK Flexibility Score: inf
ROOT
ATOM      1  C   UNL     1      12.786   1.155 -20.956  1.00  0.00     0.000 C 
ENDROOT
BRANCH   1   2
ATOM      2  C   UNL     1      13.542   2.495 -21.043  1.00  0.00     0.000 C 
BRANCH   2   3
ATOM      3  C   UNL     1      13.112   3.552 -20.010  1.00  0.00     0.000 C 
BRANCH   3   4
ATOM      4  C   UNL     1      13.278   4.992 -20.527  1.00  0.00     0.000 C 
BRANCH   4   5
ATOM      5  C   UNL     1      14.696   5.540 -20.303  1.00  0.00     0.000 C 
BRANCH   5   6
ATOM      6  C   UNL     1      15.405   5.910 -21.615  1.00  0.00     0.006 C 
BRANCH   6   7
ATOM      7  C   UNL     1      16.915   5.684 -21.506  1.00  0.00     0.053 C 
BRANCH   7   8
ATOM      8  C   UNL     1      17.448   5.089 -22.771  1.00  0.00     0.041 C 
ATOM      9  O   UNL     1      18.650   5.273 -23.100  1.00  0.00    -0.550 OA
ATOM     10  O   UNL     1      16.634   4.282 -23.556  1.00  0.00    -0.550 OA
ENDBRANCH   7   8
ENDBRANCH   6   7
ENDBRANCH   5   6
ENDBRANCH   4   5
ENDBRANCH   3   4
ENDBRANCH   2   3
ENDBRANCH   1   2
BRANCH   1  11
ATOM     11  C   UNL     1      13.713  -0.076 -20.872  1.00  0.00     0.000 C 
BRANCH  11  12
ATOM     12  C   UNL     1      12.923  -1.397 -20.850  1.00  0.00    -0.000 C 
BRANCH  12  13
ATOM     13  C   UNL     1      11.579  -1.295 -21.587  1.00  0.00    -0.000 C 
BRANCH  13  14
ATOM     14  C   UNL     1      10.392  -1.744 -20.719  1.00  0.00    -0.000 C 
BRANCH  14  15
ATOM     15  C   UNL     1      10.640  -1.534 -19.213  1.00  0.00    -0.000 C 
BRANCH  15  16
ATOM     16  C   UNL     1      10.261  -0.139 -18.684  1.00  0.00    -0.000 C 
BRANCH  16  17
ATOM     17  C   UNL     1      10.907   0.183 -17.328  1.00  0.00    -0.003 C 
ATOM     18  C   UNL     1      12.256   0.872 -17.514  1.00  0.00     0.004 C 
ENDBRANCH  16  17
ENDBRANCH  15  16
ENDBRANCH  14  15
ENDBRANCH  13  14
ENDBRANCH  12  13
ENDBRANCH  11  12
ENDBRANCH   1  11
TORSDOF 14
ENDMDL
MODEL 4
REMARK VINA RESULT:    -3.614      3.310      7.297
REMARK INTER + INTRA:          -7.708
REMARK INTER:                  -6.933
REMARK INTRA:                  -0.775
REMARK UNBOUND:                -1.137
REMARK SMILES CCCCCCCCCCCCCCCC(=O)[O-]
REMARK SMILES IDX 9 1 10 2 11 3 12 4 13 5 14 6 15 7 16 8 17 9 18 10 8 11 7 12
REMARK SMILES IDX 6 13 5 14 4 15 3 16 2 17 1 18
REMARK H PARENT
REMARK Flexibility Score: inf
ROOT
ATOM      1  C   UNL     1      13.714   0.048 -20.944  1.00  0.00     0.000 C 
ENDROOT
BRANCH   1   2
ATOM      2  C   UNL     1      13.066  -1.217 -21.539  1.00  0.00     0.000 C 
BRANCH   2   3
ATOM      3  C   UNL     1      11.564  -1.378 -21.244  1.00  0.00     0.000 C 
BRANCH   3   4
ATOM      4  C   UNL     1      11.279  -1.709 -19.769  1.00  0.00     0.000 C 
BRANCH   4   5
ATOM      5  C   UNL     1      10.060  -0.951 -19.219  1.00  0.00     0.000 C 
BRANCH   5   6
ATOM      6  C   UNL     1      10.396  -0.102 -17.983  1.00  0.00     0.006 C 
BRANCH   6   7
ATOM      7  C   UNL     1      11.596   0.810 -18.253  1.00  0.00     0.053 C 
BRANCH   7   8
ATOM      8  C   UNL     1      12.391   1.012 -17.002  1.00  0.00     0.041 C 
ATOM      9  O   UNL     1      13.210   1.965 -16.919  1.00  0.00    -0.550 OA
ATOM     10  O   UNL     1      12.185   0.183 -15.906  1.00  0.00    -0.550 OA
ENDBRANCH   7   8
ENDBRANCH   6   7
ENDBRANCH   5   6
ENDBRANCH   4   5
ENDBRANCH   3   4
ENDBRANCH   2   3
ENDBRANCH   1   2
BRANCH   1  11
ATOM     11  C   UNL     1      12.800   1.290 -20.982  1.00  0.00     0.000 C 
BRANCH  11  12
ATOM     12  C   UNL     1      13.602   2.599 -21.104  1.00  0.00    -0.000 C 
BRANCH  12  13
ATOM     13  C   UNL     1      13.197   3.641 -20.050  1.00  0.00    -0.000 C 
BRANCH  13  14
ATOM     14  C   UNL     1      13.399   5.085 -20.538  1.00  0.00    -0.000 C 
BRANCH  14  15
ATOM     15  C   UNL     1      14.873   5.531 -20.490  1.00  0.00    -0.000 C 
BRANCH  15  16
ATOM     16  C   UNL     1      15.429   6.070 -21.821  1.00  0.00    -0.000 C 
BRANCH  16  17
ATOM     17  C   UNL     1      16.718   5.360 -22.263  1.00  0.00    -0.003 C 
ATOM     18  C   UNL     1      16.548   4.722 -23.638  1.00  0.00     0.004 C 
ENDBRANCH  16  17
ENDBRANCH  15  16
ENDBRANCH  14  15
ENDBRANCH  13  14
ENDBRANCH  12  13
ENDBRANCH  11  12
ENDBRANCH   1  11
TORSDOF 14
ENDMDL
MODEL 5
REMARK VINA RESULT:    -3.563      3.038      7.489
REMARK INTER + INTRA:          -7.616
REMARK INTER:                  -6.721
REMARK INTRA:                  -0.894
REMARK UNBOUND:                -1.137
REMARK SMILES CCCCCCCCCCCCCCCC(=O)[O-]
REMARK SMILES IDX 9 1 10 2 11 3 12 4 13 5 14 6 15 7 16 8 17 9 18 10 8 11 7 12
REMARK SMILES IDX 6 13 5 14 4 15 3 16 2 17 1 18
REMARK H PARENT
REMARK Flexibility Score: inf
ROOT
ATOM      1  C   UNL     1      12.444   1.797 -19.044  1.00  0.00     0.000 C 
ENDROOT
BRANCH   1   2
ATOM      2  C   UNL     1      12.417   1.155 -17.643  1.00  0.00     0.000 C 
BRANCH   2   3
ATOM      3  C   UNL     1      11.255   0.176 -17.400  1.00  0.00     0.000 C 
BRANCH   3   4
ATOM      4  C   UNL     1      10.283   0.099 -18.590  1.00  0.00     0.000 C 
BRANCH   4   5
ATOM      5  C   UNL     1      10.149  -1.326 -19.150  1.00  0.00     0.000 C 
BRANCH   5   6
ATOM      6  C   UNL     1      11.344  -1.735 -20.025  1.00  0.00     0.006 C 
BRANCH   6   7
ATOM      7  C   UNL     1      11.409  -0.886 -21.298  1.00  0.00     0.053 C 
BRANCH   7   8
ATOM      8  C   UNL     1      11.413  -1.760 -22.511  1.00  0.00     0.041 C 
ATOM      9  O   UNL     1      10.386  -2.422 -22.819  1.00  0.00    -0.550 OA
ATOM     10  O   UNL     1      12.531  -1.800 -23.336  1.00  0.00    -0.550 OA
ENDBRANCH   7   8
ENDBRANCH   6   7
ENDBRANCH   5   6
ENDBRANCH   4   5
ENDBRANCH   3   4
ENDBRANCH   2   3
ENDBRANCH   1   2
BRANCH   1  11
ATOM     11  C   UNL     1      13.183   3.151 -19.091  1.00  0.00     0.000 C 
BRANCH  11  12
ATOM     12  C   UNL     1      13.209   3.750 -20.510  1.00  0.00    -0.000 C 
BRANCH  12  13
ATOM     13  C   UNL     1      13.338   5.281 -20.504  1.00  0.00    -0.000 C 
BRANCH  13  14
ATOM     14  C   UNL     1      14.797   5.751 -20.379  1.00  0.00    -0.000 C 
BRANCH  14  15
ATOM     15  C   UNL     1      15.525   5.806 -21.735  1.00  0.00    -0.000 C 
BRANCH  15  16
ATOM     16  C   UNL     1      17.058   5.688 -21.652  1.00  0.00    -0.000 C 
BRANCH  16  17
ATOM     17  C   UNL     1      17.662   4.899 -22.822  1.00  0.00    -0.003 C 
ATOM     18  C   UNL     1      16.829   5.072 -24.088  1.00  0.00     0.004 C 
ENDBRANCH  16  17
ENDBRANCH  15  16
ENDBRANCH  14  15
ENDBRANCH  13  14
ENDBRANCH  12  13
ENDBRANCH  11  12
ENDBRANCH   1  11
TORSDOF 14
ENDMDL
MODEL 6
REMARK VINA RESULT:    -3.538      0.978      2.725
REMARK INTER + INTRA:          -7.571
REMARK INTER:                  -6.414
REMARK INTRA:                  -1.157
REMARK UNBOUND:                -1.137
REMARK SMILES CCCCCCCCCCCCCCCC(=O)[O-]
REMARK SMILES IDX 9 1 10 2 11 3 12 4 13 5 14 6 15 7 16 8 17 9 18 10 8 11 7 12
REMARK SMILES IDX 6 13 5 14 4 15 3 16 2 17 1 18
REMARK H PARENT
REMARK Flexibility Score: inf
ROOT
ATOM      1  C   UNL     1      12.911   2.004 -21.036  1.00  0.00     0.000 C 
ENDROOT
BRANCH   1   2
ATOM      2  C   UNL     1      13.207   3.061 -19.954  1.00  0.00     0.000 C 
BRANCH   2   3
ATOM      3  C   UNL     1      13.130   4.521 -20.435  1.00  0.00     0.000 C 
BRANCH   3   4
ATOM      4  C   UNL     1      14.451   5.284 -20.235  1.00  0.00     0.000 C 
BRANCH   4   5
ATOM      5  C   UNL     1      14.863   6.087 -21.478  1.00  0.00     0.000 C 
BRANCH   5   6
ATOM      6  C   UNL     1      16.318   5.829 -21.898  1.00  0.00     0.006 C 
BRANCH   6   7
ATOM      7  C   UNL     1      16.382   5.187 -23.287  1.00  0.00     0.053 C 
BRANCH   7   8
ATOM      8  C   UNL     1      17.723   5.419 -23.909  1.00  0.00     0.041 C 
ATOM      9  O   UNL     1      17.811   5.730 -25.126  1.00  0.00    -0.550 OA
ATOM     10  O   UNL     1      18.871   5.350 -23.130  1.00  0.00    -0.550 OA
ENDBRANCH   7   8
ENDBRANCH   6   7
ENDBRANCH   5   6
ENDBRANCH   4   5
ENDBRANCH   3   4
ENDBRANCH   2   3
ENDBRANCH   1   2
BRANCH   1  11
ATOM     11  C   UNL     1      13.218   0.558 -20.591  1.00  0.00     0.000 C 
BRANCH  11  12
ATOM     12  C   UNL     1      12.781  -0.478 -21.642  1.00  0.00    -0.000 C 
BRANCH  12  13
ATOM     13  C   UNL     1      11.496  -1.221 -21.243  1.00  0.00    -0.000 C 
BRANCH  13  14
ATOM     14  C   UNL     1      11.471  -1.598 -19.752  1.00  0.00    -0.000 C 
BRANCH  14  15
ATOM     15  C   UNL     1      10.249  -1.025 -19.011  1.00  0.00    -0.000 C 
BRANCH  15  16
ATOM     16  C   UNL     1      10.500   0.309 -18.285  1.00  0.00    -0.000 C 
BRANCH  16  17
ATOM     17  C   UNL     1      11.309   0.143 -16.990  1.00  0.00    -0.003 C 
ATOM     18  C   UNL     1      12.566   1.007 -17.015  1.00  0.00     0.004 C 
ENDBRANCH  16  17
ENDBRANCH  15  16
ENDBRANCH  14  15
ENDBRANCH  13  14
ENDBRANCH  12  13
ENDBRANCH  11  12
ENDBRANCH   1  11
TORSDOF 14
ENDMDL
MODEL 7
REMARK VINA RESULT:    -3.183      2.423      4.713
REMARK INTER + INTRA:          -6.925
REMARK INTER:                  -5.700
REMARK INTRA:                  -1.224
REMARK UNBOUND:                -1.137
REMARK SMILES CCCCCCCCCCCCCCCC(=O)[O-]
REMARK SMILES IDX 9 1 10 2 11 3 12 4 13 5 14 6 15 7 16 8 17 9 18 10 8 11 7 12
REMARK SMILES IDX 6 13 5 14 4 15 3 16 2 17 1 18
REMARK H PARENT
REMARK Flexibility Score: inf
ROOT
ATOM      1  C   UNL     1      11.161  -1.177 -22.081  1.00  0.00     0.000 C 
ENDROOT
BRANCH   1   2
ATOM      2  C   UNL     1      12.685  -1.366 -22.207  1.00  0.00     0.000 C 
BRANCH   2   3
ATOM      3  C   UNL     1      13.450  -1.386 -20.871  1.00  0.00     0.000 C 
BRANCH   3   4
ATOM      4  C   UNL     1      13.821   0.022 -20.376  1.00  0.00     0.000 C 
BRANCH   4   5
ATOM      5  C   UNL     1      12.893   1.110 -20.940  1.00  0.00     0.000 C 
BRANCH   5   6
ATOM      6  C   UNL     1      13.577   2.482 -21.040  1.00  0.00     0.006 C 
BRANCH   6   7
ATOM      7  C   UNL     1      12.915   3.494 -20.101  1.00  0.00     0.053 C 
BRANCH   7   8
ATOM      8  C   UNL     1      13.407   4.877 -20.391  1.00  0.00     0.041 C 
ATOM      9  O   UNL     1      14.637   5.089 -20.558  1.00  0.00    -0.550 OA
ATOM     10  O   UNL     1      12.502   5.921 -20.536  1.00  0.00    -0.550 OA
ENDBRANCH   7   8
ENDBRANCH   6   7
ENDBRANCH   5   6
ENDBRANCH   4   5
ENDBRANCH   3   4
ENDBRANCH   2   3
ENDBRANCH   1   2
BRANCH   1  11
ATOM     11  C   UNL     1      10.429  -2.407 -21.503  1.00  0.00     0.000 C 
BRANCH  11  12
ATOM     12  C   UNL     1       9.511  -2.036 -20.325  1.00  0.00    -0.000 C 
BRANCH  12  13
ATOM     13  C   UNL     1      10.296  -1.609 -19.075  1.00  0.00    -0.000 C 
BRANCH  13  14
ATOM     14  C   UNL     1       9.969  -0.172 -18.634  1.00  0.00    -0.000 C 
BRANCH  14  15
ATOM     15  C   UNL     1      11.199   0.583 -18.097  1.00  0.00    -0.000 C 
BRANCH  15  16
ATOM     16  C   UNL     1      11.642   0.172 -16.681  1.00  0.00    -0.000 C 
BRANCH  16  17
ATOM     17  C   UNL     1      12.897   0.920 -16.206  1.00  0.00    -0.003 C 
ATOM     18  C   UNL     1      13.283   2.022 -17.187  1.00  0.00     0.004 C 
ENDBRANCH  16  17
ENDBRANCH  15  16
ENDBRANCH  14  15
ENDBRANCH  13  14
ENDBRANCH  12  13
ENDBRANCH  11  12
ENDBRANCH   1  11
TORSDOF 14
ENDMDL
MODEL 8
REMARK VINA RESULT:    -3.094      3.271      7.079
REMARK INTER + INTRA:          -6.763
REMARK INTER:                  -5.539
REMARK INTRA:                  -1.224
REMARK UNBOUND:                -1.137
REMARK SMILES CCCCCCCCCCCCCCCC(=O)[O-]
REMARK SMILES IDX 9 1 10 2 11 3 12 4 13 5 14 6 15 7 16 8 17 9 18 10 8 11 7 12
REMARK SMILES IDX 6 13 5 14 4 15 3 16 2 17 1 18
REMARK H PARENT
REMARK Flexibility Score: inf
ROOT
ATOM      1  C   UNL     1      12.410  -1.393 -22.205  1.00  0.00     0.000 C 
ENDROOT
BRANCH   1   2
ATOM      2  C   UNL     1      11.026  -1.067 -21.612  1.00  0.00     0.000 C 
BRANCH   2   3
ATOM      3  C   UNL     1      10.298  -2.261 -20.969  1.00  0.00     0.000 C 
BRANCH   3   4
ATOM      4  C   UNL     1       9.867  -1.985 -19.519  1.00  0.00     0.000 C 
BRANCH   4   5
ATOM      5  C   UNL     1       9.944  -0.495 -19.153  1.00  0.00     0.000 C 
BRANCH   5   6
ATOM      6  C   UNL     1      10.702  -0.242 -17.841  1.00  0.00     0.006 C 
BRANCH   6   7
ATOM      7  C   UNL     1      11.519   1.051 -17.919  1.00  0.00     0.053 C 
BRANCH   7   8
ATOM      8  C   UNL     1      12.539   1.093 -16.825  1.00  0.00     0.041 C 
ATOM      9  O   UNL     1      12.431   0.331 -15.828  1.00  0.00    -0.550 OA
ATOM     10  O   UNL     1      13.642   1.931 -16.935  1.00  0.00    -0.550 OA
ENDBRANCH   7   8
ENDBRANCH   6   7
ENDBRANCH   5   6
ENDBRANCH   4   5
ENDBRANCH   3   4
ENDBRANCH   2   3
ENDBRANCH   1   2
BRANCH   1  11
ATOM     11  C   UNL     1      13.588  -0.974 -21.299  1.00  0.00     0.000 C 
BRANCH  11  12
ATOM     12  C   UNL     1      13.249   0.256 -20.437  1.00  0.00    -0.000 C 
BRANCH  12  13
ATOM     13  C   UNL     1      13.613   1.580 -21.127  1.00  0.00    -0.000 C 
BRANCH  13  14
ATOM     14  C   UNL     1      12.775   2.764 -20.613  1.00  0.00    -0.000 C 
BRANCH  14  15
ATOM     15  C   UNL     1      13.630   3.848 -19.931  1.00  0.00    -0.000 C 
BRANCH  15  16
ATOM     16  C   UNL     1      13.588   5.228 -20.613  1.00  0.00    -0.000 C 
BRANCH  16  17
ATOM     17  C   UNL     1      14.947   5.944 -20.601  1.00  0.00    -0.003 C 
ATOM     18  C   UNL     1      15.870   5.385 -21.679  1.00  0.00     0.004 C 
ENDBRANCH  16  17
ENDBRANCH  15  16
ENDBRANCH  14  15
ENDBRANCH  13  14
ENDBRANCH  12  13
ENDBRANCH  11  12
ENDBRANCH   1  11
TORSDOF 14
ENDMDL
MODEL 9
REMARK VINA RESULT:    -2.821      3.777      7.858
REMARK INTER + INTRA:          -6.266
REMARK INTER:                  -5.536
REMARK INTRA:                  -0.730
REMARK UNBOUND:                -1.137
REMARK SMILES CCCCCCCCCCCCCCCC(=O)[O-]
REMARK SMILES IDX 9 1 10 2 11 3 12 4 13 5 14 6 15 7 16 8 17 9 18 10 8 11 7 12
REMARK SMILES IDX 6 13 5 14 4 15 3 16 2 17 1 18
REMARK H PARENT
REMARK Flexibility Score: inf
ROOT
ATOM      1  C   UNL     1      12.293   1.420 -18.900  1.00  0.00     0.000 C 
ENDROOT
BRANCH   1   2
ATOM      2  C   UNL     1      13.276   0.314 -19.329  1.00  0.00     0.000 C 
BRANCH   2   3
ATOM      3  C   UNL     1      13.445   0.149 -20.850  1.00  0.00     0.000 C 
BRANCH   3   4
ATOM      4  C   UNL     1      13.420  -1.323 -21.295  1.00  0.00     0.000 C 
BRANCH   4   5
ATOM      5  C   UNL     1      12.311  -1.610 -22.320  1.00  0.00     0.000 C 
BRANCH   5   6
ATOM      6  C   UNL     1      10.936  -1.093 -21.870  1.00  0.00     0.006 C 
BRANCH   6   7
ATOM      7  C   UNL     1      10.143  -2.194 -21.158  1.00  0.00     0.053 C 
BRANCH   7   8
ATOM      8  C   UNL     1       9.887  -1.816 -19.734  1.00  0.00     0.041 C 
ATOM      9  O   UNL     1       9.926  -0.608 -19.381  1.00  0.00    -0.550 OA
ATOM     10  O   UNL     1       9.546  -2.794 -18.807  1.00  0.00    -0.550 OA
ENDBRANCH   7   8
ENDBRANCH   6   7
ENDBRANCH   5   6
ENDBRANCH   4   5
ENDBRANCH   3   4
ENDBRANCH   2   3
ENDBRANCH   1   2
BRANCH   1  11
ATOM     11  C   UNL     1      12.950   2.807 -18.739  1.00  0.00     0.000 C 
BRANCH  11  12
ATOM     12  C   UNL     1      13.252   3.468 -20.097  1.00  0.00    -0.000 C 
BRANCH  12  13
ATOM     13  C   UNL     1      13.543   4.971 -19.971  1.00  0.00    -0.000 C 
BRANCH  13  14
ATOM     14  C   UNL     1      14.384   5.511 -21.140  1.00  0.00    -0.000 C 
BRANCH  14  15
ATOM     15  C   UNL     1      15.781   5.988 -20.701  1.00  0.00    -0.000 C 
BRANCH  15  16
ATOM     16  C   UNL     1      16.849   5.968 -21.809  1.00  0.00    -0.000 C 
BRANCH  16  17
ATOM     17  C   UNL     1      16.575   4.909 -22.886  1.00  0.00    -0.003 C 
ATOM     18  C   UNL     1      16.891   5.448 -24.278  1.00  0.00     0.004 C 
ENDBRANCH  16  17
ENDBRANCH  15  16
ENDBRANCH  14  15
ENDBRANCH  13  14
ENDBRANCH  12  13
ENDBRANCH  11  12
ENDBRANCH   1  11
TORSDOF 14
ENDMDL
