MODEL 1
REMARK VINA RESULT:     6.632      0.000      0.000
REMARK INTER + INTRA:          11.133
REMARK INTER:                  12.060
REMARK INTRA:                  -0.926
REMARK UNBOUND:                -0.926
REMARK SMILES CCCCCCCCCCCCCCCC(=O)[O-]
REMARK SMILES IDX 9 1 10 2 11 3 12 4 13 5 14 6 15 7 16 8 17 9 18 10 8 11 7 12
REMARK SMILES IDX 6 13 5 14 4 15 3 16 2 17 1 18
REMARK H PARENT
REMARK Flexibility Score: inf
ROOT
ATOM      1  C   UNL     1     -16.563   5.914 -17.043  1.00  0.00     0.000 C 
ENDROOT
BRANCH   1   2
ATOM      2  C   UNL     1     -16.028   5.779 -18.479  1.00  0.00     0.000 C 
BRANCH   2   3
ATOM      3  C   UNL     1     -14.984   6.854 -18.820  1.00  0.00     0.000 C 
BRANCH   3   4
ATOM      4  C   UNL     1     -13.990   7.096 -17.671  1.00  0.00     0.000 C 
BRANCH   4   5
ATOM      5  C   UNL     1     -12.529   6.891 -18.100  1.00  0.00     0.000 C 
BRANCH   5   6
ATOM      6  C   UNL     1     -11.538   7.118 -16.949  1.00  0.00     0.006 C 
BRANCH   6   7
ATOM      7  C   UNL     1     -11.598   5.966 -15.941  1.00  0.00     0.053 C 
BRANCH   7   8
ATOM      8  C   UNL     1     -11.385   6.475 -14.550  1.00  0.00     0.041 C 
ATOM      9  O   UNL     1     -12.342   6.983 -13.908  1.00  0.00    -0.550 OA
ATOM     10  O   UNL     1     -10.119   6.433 -13.981  1.00  0.00    -0.550 OA
ENDBRANCH   7   8
ENDBRANCH   6   7
ENDBRANCH   5   6
ENDBRANCH   4   5
ENDBRANCH   3   4
ENDBRANCH   2   3
ENDBRANCH   1   2
BRANCH   1  11
ATOM     11  C   UNL     1     -17.601   7.040 -16.897  1.00  0.00     0.000 C 
BRANCH  11  12
ATOM     12  C   UNL     1     -18.825   6.639 -16.048  1.00  0.00    -0.000 C 
BRANCH  12  13
ATOM     13  C   UNL     1     -18.435   5.757 -14.848  1.00  0.00    -0.000 C 
BRANCH  13  14
ATOM     14  C   UNL     1     -19.424   4.602 -14.623  1.00  0.00    -0.000 C 
BRANCH  14  15
ATOM     15  C   UNL     1     -19.805   3.898 -15.935  1.00  0.00    -0.000 C 
BRANCH  15  16
ATOM     16  C   UNL     1     -19.597   2.380 -15.826  1.00  0.00    -0.000 C 
BRANCH  16  17
ATOM     17  C   UNL     1     -19.676   1.877 -14.376  1.00  0.00    -0.003 C 
ATOM     18  C   UNL     1     -19.242   0.420 -14.230  1.00  0.00     0.004 C 
ENDBRANCH  16  17
ENDBRANCH  15  16
ENDBRANCH  14  15
ENDBRANCH  13  14
ENDBRANCH  12  13
ENDBRANCH  11  12
ENDBRANCH   1  11
TORSDOF 14
ENDMDL
MODEL 2
REMARK VINA RESULT:     7.728      1.627      2.563
REMARK INTER + INTRA:          13.126
REMARK INTER:                  11.213
REMARK INTRA:                   1.914
REMARK UNBOUND:                -0.926
REMARK SMILES CCCCCCCCCCCCCCCC(=O)[O-]
REMARK SMILES IDX 9 1 10 2 11 3 12 4 13 5 14 6 15 7 16 8 17 9 18 10 8 11 7 12
REMARK SMILES IDX 6 13 5 14 4 15 3 16 2 17 1 18
REMARK H PARENT
REMARK Flexibility Score: inf
ROOT
ATOM      1  C   UNL     1     -16.512   5.827 -17.029  1.00  0.00     0.000 C 
ENDROOT
BRANCH   1   2
ATOM      2  C   UNL     1     -15.950   5.829 -18.460  1.00  0.00     0.000 C 
BRANCH   2   3
ATOM      3  C   UNL     1     -14.967   6.986 -18.704  1.00  0.00     0.000 C 
BRANCH   3   4
ATOM      4  C   UNL     1     -13.931   7.125 -17.576  1.00  0.00     0.000 C 
BRANCH   4   5
ATOM      5  C   UNL     1     -12.491   6.896 -18.062  1.00  0.00     0.000 C 
BRANCH   5   6
ATOM      6  C   UNL     1     -11.454   7.080 -16.945  1.00  0.00     0.006 C 
BRANCH   6   7
ATOM      7  C   UNL     1     -10.030   7.042 -17.509  1.00  0.00     0.053 C 
BRANCH   7   8
ATOM      8  C   UNL     1      -9.046   6.732 -16.426  1.00  0.00     0.041 C 
ATOM      9  O   UNL     1      -7.820   6.967 -16.597  1.00  0.00    -0.550 OA
ATOM     10  O   UNL     1      -9.475   6.137 -15.247  1.00  0.00    -0.550 OA
ENDBRANCH   7   8
ENDBRANCH   6   7
ENDBRANCH   5   6
ENDBRANCH   4   5
ENDBRANCH   3   4
ENDBRANCH   2   3
ENDBRANCH   1   2
BRANCH   1  11
ATOM     11  C   UNL     1     -17.359   7.073 -16.719  1.00  0.00     0.000 C 
BRANCH  11  12
ATOM     12  C   UNL     1     -18.477   6.813 -15.687  1.00  0.00    -0.000 C 
BRANCH  12  13
ATOM     13  C   UNL     1     -17.971   6.013 -14.473  1.00  0.00    -0.000 C 
BRANCH  13  14
ATOM     14  C   UNL     1     -18.962   4.923 -14.034  1.00  0.00    -0.000 C 
BRANCH  14  15
ATOM     15  C   UNL     1     -19.542   4.148 -15.228  1.00  0.00    -0.000 C 
BRANCH  15  16
ATOM     16  C   UNL     1     -19.919   5.102 -16.372  1.00  0.00    -0.000 C 
BRANCH  16  17
ATOM     17  C   UNL     1     -19.777   4.449 -17.755  1.00  0.00    -0.003 C 
ATOM     18  C   UNL     1     -19.132   5.377 -18.784  1.00  0.00     0.004 C 
ENDBRANCH  16  17
ENDBRANCH  15  16
ENDBRANCH  14  15
ENDBRANCH  13  14
ENDBRANCH  12  13
ENDBRANCH  11  12
ENDBRANCH   1  11
TORSDOF 14
ENDMDL
