MODEL 1
REMARK VINA RESULT:    -4.604      0.000      0.000
REMARK INTER + INTRA:          -5.008
REMARK INTER:                  -5.008
REMARK INTRA:                   0.000
REMARK UNBOUND:                 0.000
REMARK SMILES Cc1cc(O)c2c(c1)C(=O)c1cc(O)cc(O)c1C2=O
REMARK SMILES IDX 1 1 2 2 8 3 7 4 6 5 4 6 3 7 19 8 20 9 18 10 11 11 9 12 10 13
REMARK SMILES IDX 12 14 13 15 15 16 16 17 5 18 17 20 14 22
REMARK H PARENT 5 19 17 21 14 23
REMARK Flexibility Score: inf
ROOT
ATOM      1  C   UNL     1       6.093 -38.113  12.875  1.00  0.00     0.044 C 
ATOM      2  C   UNL     1       6.489 -37.395  14.131  1.00  0.00    -0.047 A 
ATOM      3  C   UNL     1       7.243 -36.216  14.060  1.00  0.00     0.016 A 
ATOM      4  C   UNL     1       7.588 -35.514  15.228  1.00  0.00     0.038 A 
ATOM      5  C   UNL     1       7.165 -35.995  16.485  1.00  0.00     0.076 A 
ATOM      6  C   UNL     1       6.381 -37.169  16.551  1.00  0.00     0.127 A 
ATOM      7  C   UNL     1       6.047 -37.854  15.375  1.00  0.00     0.050 A 
ATOM      8  C   UNL     1       7.572 -35.264  17.714  1.00  0.00     0.201 C 
ATOM      9  O   UNL     1       7.527 -35.850  18.828  1.00  0.00    -0.288 OA
ATOM     10  C   UNL     1       8.139 -33.889  17.615  1.00  0.00     0.076 A 
ATOM     11  C   UNL     1       8.612 -33.448  16.356  1.00  0.00     0.041 A 
ATOM     12  C   UNL     1       8.392 -34.274  15.145  1.00  0.00     0.194 C 
ATOM     13  O   UNL     1       8.874 -33.910  14.037  1.00  0.00    -0.289 OA
ATOM     14  C   UNL     1       9.284 -32.217  16.253  1.00  0.00     0.059 A 
ATOM     15  C   UNL     1       9.477 -31.417  17.382  1.00  0.00     0.120 A 
ATOM     16  C   UNL     1       8.972 -31.824  18.614  1.00  0.00     0.093 A 
ATOM     17  C   UNL     1       8.275 -33.031  18.740  1.00  0.00     0.131 A 
ENDROOT
BRANCH   6  18
ATOM     18  O   UNL     1       5.922 -37.651  17.777  1.00  0.00    -0.507 OA
ATOM     19  H   UNL     1       4.961 -37.522  18.074  1.00  0.00     0.293 HD
ENDBRANCH   6  18
BRANCH  17  20
ATOM     20  O   UNL     1       7.709 -33.313  19.985  1.00  0.00    -0.507 OA
ATOM     21  H   UNL     1       7.338 -34.217  20.242  1.00  0.00     0.293 HD
ENDBRANCH  17  20
BRANCH  15  22
ATOM     22  O   UNL     1      10.157 -30.205  17.285  1.00  0.00    -0.508 OA
ATOM     23  H   UNL     1       9.851 -29.383  17.793  1.00  0.00     0.293 HD
ENDBRANCH  15  22
TORSDOF 3
ENDMDL
MODEL 2
REMARK VINA RESULT:    -3.790      1.467      3.425
REMARK INTER + INTRA:          -4.123
REMARK INTER:                  -4.123
REMARK INTRA:                   0.000
REMARK UNBOUND:                 0.000
REMARK SMILES Cc1cc(O)c2c(c1)C(=O)c1cc(O)cc(O)c1C2=O
REMARK SMILES IDX 1 1 2 2 8 3 7 4 6 5 4 6 3 7 19 8 20 9 18 10 11 11 9 12 10 13
REMARK SMILES IDX 12 14 13 15 15 16 16 17 5 18 17 20 14 22
REMARK H PARENT 5 19 17 21 14 23
REMARK Flexibility Score: inf
ROOT
ATOM      1  C   UNL     1       6.003 -38.091  15.128  1.00  0.00     0.044 C 
ATOM      2  C   UNL     1       6.796 -36.817  15.127  1.00  0.00    -0.047 A 
ATOM      3  C   UNL     1       6.839 -36.014  16.273  1.00  0.00     0.016 A 
ATOM      4  C   UNL     1       7.610 -34.838  16.296  1.00  0.00     0.038 A 
ATOM      5  C   UNL     1       8.354 -34.465  15.156  1.00  0.00     0.076 A 
ATOM      6  C   UNL     1       8.330 -35.294  14.011  1.00  0.00     0.127 A 
ATOM      7  C   UNL     1       7.557 -36.462  14.008  1.00  0.00     0.050 A 
ATOM      8  C   UNL     1       9.131 -33.198  15.182  1.00  0.00     0.201 C 
ATOM      9  O   UNL     1       9.492 -32.670  14.096  1.00  0.00    -0.288 OA
ATOM     10  C   UNL     1       9.380 -32.498  16.473  1.00  0.00     0.076 A 
ATOM     11  C   UNL     1       8.582 -32.845  17.590  1.00  0.00     0.041 A 
ATOM     12  C   UNL     1       7.644 -33.989  17.509  1.00  0.00     0.194 C 
ATOM     13  O   UNL     1       6.885 -34.253  18.482  1.00  0.00    -0.289 OA
ATOM     14  C   UNL     1       8.688 -32.107  18.782  1.00  0.00     0.059 A 
ATOM     15  C   UNL     1       9.586 -31.043  18.880  1.00  0.00     0.120 A 
ATOM     16  C   UNL     1      10.408 -30.727  17.801  1.00  0.00     0.093 A 
ATOM     17  C   UNL     1      10.343 -31.461  16.612  1.00  0.00     0.131 A 
ENDROOT
BRANCH   6  18
ATOM     18  O   UNL     1       9.081 -34.968  12.882  1.00  0.00    -0.507 OA
ATOM     19  H   UNL     1       9.595 -34.097  12.817  1.00  0.00     0.293 HD
ENDBRANCH   6  18
BRANCH  17  20
ATOM     20  O   UNL     1      11.274 -31.149  15.619  1.00  0.00    -0.507 OA
ATOM     21  H   UNL     1      11.035 -31.016  14.647  1.00  0.00     0.293 HD
ENDBRANCH  17  20
BRANCH  15  22
ATOM     22  O   UNL     1       9.681 -30.299  20.055  1.00  0.00    -0.508 OA
ATOM     23  H   UNL     1       9.865 -30.740  20.949  1.00  0.00     0.293 HD
ENDBRANCH  15  22
TORSDOF 3
ENDMDL
MODEL 3
REMARK VINA RESULT:    -2.989      1.338      5.524
REMARK INTER + INTRA:          -3.251
REMARK INTER:                  -3.251
REMARK INTRA:                   0.000
REMARK UNBOUND:                 0.000
REMARK SMILES Cc1cc(O)c2c(c1)C(=O)c1cc(O)cc(O)c1C2=O
REMARK SMILES IDX 1 1 2 2 8 3 7 4 6 5 4 6 3 7 19 8 20 9 18 10 11 11 9 12 10 13
REMARK SMILES IDX 12 14 13 15 15 16 16 17 5 18 17 20 14 22
REMARK H PARENT 5 19 17 21 14 23
REMARK Flexibility Score: inf
ROOT
ATOM      1  C   UNL     1      10.925 -29.886  17.002  1.00  0.00     0.044 C 
ATOM      2  C   UNL     1      10.009 -31.070  17.103  1.00  0.00    -0.047 A 
ATOM      3  C   UNL     1       9.756 -31.862  15.976  1.00  0.00     0.016 A 
ATOM      4  C   UNL     1       8.931 -32.996  16.068  1.00  0.00     0.038 A 
ATOM      5  C   UNL     1       8.356 -33.346  17.308  1.00  0.00     0.076 A 
ATOM      6  C   UNL     1       8.637 -32.560  18.449  1.00  0.00     0.127 A 
ATOM      7  C   UNL     1       9.463 -31.435  18.337  1.00  0.00     0.050 A 
ATOM      8  C   UNL     1       7.452 -34.525  17.380  1.00  0.00     0.201 C 
ATOM      9  O   UNL     1       6.660 -34.640  18.352  1.00  0.00    -0.288 OA
ATOM     10  C   UNL     1       7.401 -35.499  16.254  1.00  0.00     0.076 A 
ATOM     11  C   UNL     1       7.931 -35.107  15.001  1.00  0.00     0.041 A 
ATOM     12  C   UNL     1       8.661 -33.824  14.870  1.00  0.00     0.194 C 
ATOM     13  O   UNL     1       9.071 -33.444  13.738  1.00  0.00    -0.289 OA
ATOM     14  C   UNL     1       7.770 -35.941  13.881  1.00  0.00     0.059 A 
ATOM     15  C   UNL     1       7.106 -37.164  13.996  1.00  0.00     0.120 A 
ATOM     16  C   UNL     1       6.625 -37.577  15.236  1.00  0.00     0.093 A 
ATOM     17  C   UNL     1       6.794 -36.780  16.373  1.00  0.00     0.131 A 
ENDROOT
BRANCH   6  18
ATOM     18  O   UNL     1       8.109 -32.901  19.694  1.00  0.00    -0.507 OA
ATOM     19  H   UNL     1       8.017 -32.219  20.438  1.00  0.00     0.293 HD
ENDBRANCH   6  18
BRANCH  17  20
ATOM     20  O   UNL     1       6.380 -37.315  17.594  1.00  0.00    -0.507 OA
ATOM     21  H   UNL     1       7.002 -37.492  18.370  1.00  0.00     0.293 HD
ENDBRANCH  17  20
BRANCH  15  22
ATOM     22  O   UNL     1       6.930 -37.984  12.883  1.00  0.00    -0.508 OA
ATOM     23  H   UNL     1       7.536 -37.918  12.074  1.00  0.00     0.293 HD
ENDBRANCH  15  22
TORSDOF 3
ENDMDL
MODEL 4
REMARK VINA RESULT:    -2.094      1.876      2.606
REMARK INTER + INTRA:          -2.278
REMARK INTER:                  -2.278
REMARK INTRA:                   0.000
REMARK UNBOUND:                 0.000
REMARK SMILES Cc1cc(O)c2c(c1)C(=O)c1cc(O)cc(O)c1C2=O
REMARK SMILES IDX 1 1 2 2 8 3 7 4 6 5 4 6 3 7 19 8 20 9 18 10 11 11 9 12 10 13
REMARK SMILES IDX 12 14 13 15 15 16 16 17 5 18 17 20 14 22
REMARK H PARENT 5 19 17 21 14 23
REMARK Flexibility Score: inf
ROOT
ATOM      1  C   UNL     1       5.875 -37.968  13.996  1.00  0.00     0.044 C 
ATOM      2  C   UNL     1       6.611 -36.855  14.682  1.00  0.00    -0.047 A 
ATOM      3  C   UNL     1       7.670 -36.207  14.034  1.00  0.00     0.016 A 
ATOM      4  C   UNL     1       8.341 -35.137  14.653  1.00  0.00     0.038 A 
ATOM      5  C   UNL     1       7.942 -34.706  15.935  1.00  0.00     0.076 A 
ATOM      6  C   UNL     1       6.854 -35.345  16.574  1.00  0.00     0.127 A 
ATOM      7  C   UNL     1       6.197 -36.408  15.941  1.00  0.00     0.050 A 
ATOM      8  C   UNL     1       8.688 -33.601  16.593  1.00  0.00     0.201 C 
ATOM      9  O   UNL     1       8.597 -33.448  17.840  1.00  0.00    -0.288 OA
ATOM     10  C   UNL     1       9.626 -32.756  15.801  1.00  0.00     0.076 A 
ATOM     11  C   UNL     1      10.061 -33.234  14.542  1.00  0.00     0.041 A 
ATOM     12  C   UNL     1       9.465 -34.462  13.965  1.00  0.00     0.194 C 
ATOM     13  O   UNL     1       9.904 -34.924  12.875  1.00  0.00    -0.289 OA
ATOM     14  C   UNL     1      11.055 -32.535  13.834  1.00  0.00     0.059 A 
ATOM     15  C   UNL     1      11.607 -31.364  14.355  1.00  0.00     0.120 A 
ATOM     16  C   UNL     1      11.148 -30.863  15.570  1.00  0.00     0.093 A 
ATOM     17  C   UNL     1      10.141 -31.521  16.284  1.00  0.00     0.131 A 
ENDROOT
BRANCH   6  18
ATOM     18  O   UNL     1       6.416 -34.920  17.828  1.00  0.00    -0.507 OA
ATOM     19  H   UNL     1       6.931 -35.136  18.674  1.00  0.00     0.293 HD
ENDBRANCH   6  18
BRANCH  17  20
ATOM     20  O   UNL     1       9.664 -30.896  17.438  1.00  0.00    -0.507 OA
ATOM     21  H   UNL     1       9.746 -29.905  17.614  1.00  0.00     0.293 HD
ENDBRANCH  17  20
BRANCH  15  22
ATOM     22  O   UNL     1      12.604 -30.679  13.662  1.00  0.00    -0.508 OA
ATOM     23  H   UNL     1      13.358 -31.170  13.195  1.00  0.00     0.293 HD
ENDBRANCH  15  22
TORSDOF 3
ENDMDL
