MODEL 1
REMARK VINA RESULT:    -2.555      0.000      0.000
REMARK INTER + INTRA:          -2.779
REMARK INTER:                  -2.779
REMARK INTRA:                   0.000
REMARK UNBOUND:                 0.000
REMARK SMILES [NH3+]CC(=O)[O-]
REMARK SMILES IDX 2 1 1 2 3 6 4 7 5 8
REMARK H PARENT 1 3 1 4 1 5
REMARK Flexibility Score: inf
ROOT
ATOM      1  C   UNL     1       2.004  16.586  -6.290  1.00  0.00     0.312 C 
ENDROOT
BRANCH   1   2
ATOM      2  N   UNL     1       2.380  17.999  -6.271  1.00  0.00    -0.353 N 
ATOM      3  H   UNL     1       1.868  18.500  -7.032  1.00  0.00     0.344 HD
ATOM      4  H   UNL     1       2.124  18.426  -5.351  1.00  0.00     0.344 HD
ATOM      5  H   UNL     1       3.409  18.099  -6.433  1.00  0.00     0.344 HD
ENDBRANCH   1   2
BRANCH   1   6
ATOM      6  C   UNL     1       2.552  15.910  -7.510  1.00  0.00     0.096 C 
ATOM      7  O   UNL     1       3.125  14.794  -7.411  1.00  0.00    -0.544 OA
ATOM      8  O   UNL     1       2.384  16.492  -8.760  1.00  0.00    -0.544 OA
ENDBRANCH   1   6
TORSDOF 2
ENDMDL
MODEL 2
REMARK VINA RESULT:    -2.530      8.769      9.108
REMARK INTER + INTRA:          -2.752
REMARK INTER:                  -2.752
REMARK INTRA:                   0.000
REMARK UNBOUND:                 0.000
REMARK SMILES [NH3+]CC(=O)[O-]
REMARK SMILES IDX 2 1 1 2 3 6 4 7 5 8
REMARK H PARENT 1 3 1 4 1 5
REMARK Flexibility Score: inf
ROOT
ATOM      1  C   UNL     1      -2.390  24.057 -11.153  1.00  0.00     0.312 C 
ENDROOT
BRANCH   1   2
ATOM      2  N   UNL     1      -1.481  24.864 -11.966  1.00  0.00    -0.353 N 
ATOM      3  H   UNL     1      -1.468  25.842 -11.597  1.00  0.00     0.344 HD
ATOM      4  H   UNL     1      -0.512  24.471 -11.918  1.00  0.00     0.344 HD
ATOM      5  H   UNL     1      -1.806  24.881 -12.960  1.00  0.00     0.344 HD
ENDBRANCH   1   2
BRANCH   1   6
ATOM      6  C   UNL     1      -1.877  22.656 -11.020  1.00  0.00     0.096 C 
ATOM      7  O   UNL     1      -1.019  22.216 -11.829  1.00  0.00    -0.544 OA
ATOM      8  O   UNL     1      -2.312  21.855  -9.972  1.00  0.00    -0.544 OA
ENDBRANCH   1   6
TORSDOF 2
ENDMDL
MODEL 3
REMARK VINA RESULT:    -2.212      1.845      2.074
REMARK INTER + INTRA:          -2.406
REMARK INTER:                  -2.406
REMARK INTRA:                   0.000
REMARK UNBOUND:                 0.000
REMARK SMILES [NH3+]CC(=O)[O-]
REMARK SMILES IDX 2 1 1 2 3 6 4 7 5 8
REMARK H PARENT 1 3 1 4 1 5
REMARK Flexibility Score: inf
ROOT
ATOM      1  C   UNL     1       2.706  16.246  -8.802  1.00  0.00     0.312 C 
ENDROOT
BRANCH   1   2
ATOM      2  N   UNL     1       1.633  17.219  -9.000  1.00  0.00    -0.353 N 
ATOM      3  H   UNL     1       1.676  17.581  -9.980  1.00  0.00     0.344 HD
ATOM      4  H   UNL     1       0.703  16.764  -8.848  1.00  0.00     0.344 HD
ATOM      5  H   UNL     1       1.748  18.021  -8.337  1.00  0.00     0.344 HD
ENDBRANCH   1   2
BRANCH   1   6
ATOM      6  C   UNL     1       2.710  15.745  -7.390  1.00  0.00     0.096 C 
ATOM      7  O   UNL     1       3.125  14.585  -7.131  1.00  0.00    -0.544 OA
ATOM      8  O   UNL     1       2.304  16.579  -6.356  1.00  0.00    -0.544 OA
ENDBRANCH   1   6
TORSDOF 2
ENDMDL
MODEL 4
REMARK VINA RESULT:    -2.163     14.136     14.570
REMARK INTER + INTRA:          -2.352
REMARK INTER:                  -2.352
REMARK INTRA:                   0.000
REMARK UNBOUND:                 0.000
REMARK SMILES [NH3+]CC(=O)[O-]
REMARK SMILES IDX 2 1 1 2 3 6 4 7 5 8
REMARK H PARENT 1 3 1 4 1 5
REMARK Flexibility Score: inf
ROOT
ATOM      1  C   UNL     1       0.382  29.331 -14.700  1.00  0.00     0.312 C 
ENDROOT
BRANCH   1   2
ATOM      2  N   UNL     1       0.559  28.020 -15.322  1.00  0.00    -0.353 N 
ATOM      3  H   UNL     1      -0.182  27.371 -14.969  1.00  0.00     0.344 HD
ATOM      4  H   UNL     1       0.471  28.101 -16.361  1.00  0.00     0.344 HD
ATOM      5  H   UNL     1       1.497  27.629 -15.075  1.00  0.00     0.344 HD
ENDBRANCH   1   2
BRANCH   1   6
ATOM      6  C   UNL     1       0.836  29.305 -13.272  1.00  0.00     0.096 C 
ATOM      7  O   UNL     1       0.452  28.386 -12.503  1.00  0.00    -0.544 OA
ATOM      8  O   UNL     1       1.724  30.267 -12.808  1.00  0.00    -0.544 OA
ENDBRANCH   1   6
TORSDOF 2
ENDMDL
MODEL 5
REMARK VINA RESULT:    -2.153     17.499     17.594
REMARK INTER + INTRA:          -2.342
REMARK INTER:                  -2.342
REMARK INTRA:                   0.000
REMARK UNBOUND:                 0.000
REMARK SMILES [NH3+]CC(=O)[O-]
REMARK SMILES IDX 2 1 1 2 3 6 4 7 5 8
REMARK H PARENT 1 3 1 4 1 5
REMARK Flexibility Score: inf
ROOT
ATOM      1  C   UNL     1     -13.746  13.087 -10.197  1.00  0.00     0.312 C 
ENDROOT
BRANCH   1   2
ATOM      2  N   UNL     1     -13.394  13.126 -11.615  1.00  0.00    -0.353 N 
ATOM      3  H   UNL     1     -13.530  14.098 -11.975  1.00  0.00     0.344 HD
ATOM      4  H   UNL     1     -12.392  12.854 -11.743  1.00  0.00     0.344 HD
ATOM      5  H   UNL     1     -14.009  12.474 -12.156  1.00  0.00     0.344 HD
ENDBRANCH   1   2
BRANCH   1   6
ATOM      6  C   UNL     1     -14.427  11.797  -9.856  1.00  0.00     0.096 C 
ATOM      7  O   UNL     1     -13.787  10.875  -9.286  1.00  0.00    -0.544 OA
ATOM      8  O   UNL     1     -15.780  11.634 -10.123  1.00  0.00    -0.544 OA
ENDBRANCH   1   6
TORSDOF 2
ENDMDL
MODEL 6
REMARK VINA RESULT:    -2.126      7.122      7.641
REMARK INTER + INTRA:          -2.312
REMARK INTER:                  -2.312
REMARK INTRA:                   0.000
REMARK UNBOUND:                 0.000
REMARK SMILES [NH3+]CC(=O)[O-]
REMARK SMILES IDX 2 1 1 2 3 6 4 7 5 8
REMARK H PARENT 1 3 1 4 1 5
REMARK Flexibility Score: inf
ROOT
ATOM      1  C   UNL     1      -1.827  21.353  -9.457  1.00  0.00     0.312 C 
ENDROOT
BRANCH   1   2
ATOM      2  N   UNL     1      -0.610  20.651  -9.054  1.00  0.00    -0.353 N 
ATOM      3  H   UNL     1      -0.809  19.626  -8.996  1.00  0.00     0.344 HD
ATOM      4  H   UNL     1       0.146  20.810  -9.760  1.00  0.00     0.344 HD
ATOM      5  H   UNL     1      -0.294  20.989  -8.115  1.00  0.00     0.344 HD
ENDBRANCH   1   2
BRANCH   1   6
ATOM      6  C   UNL     1      -1.583  22.172 -10.687  1.00  0.00     0.096 C 
ATOM      7  O   UNL     1      -0.692  21.830 -11.508  1.00  0.00    -0.544 OA
ATOM      8  O   UNL     1      -2.373  23.283 -10.950  1.00  0.00    -0.544 OA
ENDBRANCH   1   6
TORSDOF 2
ENDMDL
MODEL 7
REMARK VINA RESULT:    -2.054     20.068     20.383
REMARK INTER + INTRA:          -2.235
REMARK INTER:                  -2.235
REMARK INTRA:                   0.000
REMARK UNBOUND:                 0.000
REMARK SMILES [NH3+]CC(=O)[O-]
REMARK SMILES IDX 2 1 1 2 3 6 4 7 5 8
REMARK H PARENT 1 3 1 4 1 5
REMARK Flexibility Score: inf
ROOT
ATOM      1  C   UNL     1     -10.021  29.864 -13.422  1.00  0.00     0.312 C 
ENDROOT
BRANCH   1   2
ATOM      2  N   UNL     1     -10.408  29.912 -12.013  1.00  0.00    -0.353 N 
ATOM      3  H   UNL     1     -10.641  30.899 -11.756  1.00  0.00     0.344 HD
ATOM      4  H   UNL     1     -11.249  29.311 -11.851  1.00  0.00     0.344 HD
ATOM      5  H   UNL     1      -9.617  29.584 -11.412  1.00  0.00     0.344 HD
ENDBRANCH   1   2
BRANCH   1   6
ATOM      6  C   UNL     1     -11.221  30.024 -14.305  1.00  0.00     0.096 C 
ATOM      7  O   UNL     1     -11.082  30.112 -15.553  1.00  0.00    -0.544 OA
ATOM      8  O   UNL     1     -12.495  30.023 -13.751  1.00  0.00    -0.544 OA
ENDBRANCH   1   6
TORSDOF 2
ENDMDL
MODEL 8
REMARK VINA RESULT:    -1.895     14.415     14.817
REMARK INTER + INTRA:          -2.061
REMARK INTER:                  -2.061
REMARK INTRA:                   0.000
REMARK UNBOUND:                 0.000
REMARK SMILES [NH3+]CC(=O)[O-]
REMARK SMILES IDX 2 1 1 2 3 6 4 7 5 8
REMARK H PARENT 1 3 1 4 1 5
REMARK Flexibility Score: inf
ROOT
ATOM      1  C   UNL     1       0.717  29.847 -13.082  1.00  0.00     0.312 C 
ENDROOT
BRANCH   1   2
ATOM      2  N   UNL     1       0.495  28.583 -12.382  1.00  0.00    -0.353 N 
ATOM      3  H   UNL     1      -0.439  28.200 -12.655  1.00  0.00     0.344 HD
ATOM      4  H   UNL     1       1.235  27.892 -12.647  1.00  0.00     0.344 HD
ATOM      5  H   UNL     1       0.509  28.737 -11.347  1.00  0.00     0.344 HD
ENDBRANCH   1   2
BRANCH   1   6
ATOM      6  C   UNL     1       2.173  30.044 -13.370  1.00  0.00     0.096 C 
ATOM      7  O   UNL     1       2.538  30.595 -14.441  1.00  0.00    -0.544 OA
ATOM      8  O   UNL     1       3.124  29.662 -12.432  1.00  0.00    -0.544 OA
ENDBRANCH   1   6
TORSDOF 2
ENDMDL
