MODEL 1
REMARK VINA RESULT:    -4.542      0.000      0.000
REMARK INTER + INTRA:          -5.251
REMARK INTER:                  -5.205
REMARK INTRA:                  -0.045
REMARK UNBOUND:                -0.045
REMARK SMILES O=C([O-])c1cc(O)c(O)c(O)c1
REMARK SMILES IDX 4 1 5 2 12 3 6 4 10 5 8 6 2 7 1 8 3 9 7 10 11 12 9 14
REMARK H PARENT 7 11 11 13 9 15
REMARK Flexibility Score: inf
ROOT
ATOM      1  C   UNL     1       4.471   8.467  13.207  1.00  0.00     0.005 A 
ATOM      2  C   UNL     1       5.666   8.580  13.936  1.00  0.00     0.060 A 
ATOM      3  C   UNL     1       4.124   7.222  12.655  1.00  0.00     0.060 A 
ATOM      4  C   UNL     1       6.501   7.468  14.113  1.00  0.00     0.162 A 
ATOM      5  C   UNL     1       4.956   6.106  12.829  1.00  0.00     0.162 A 
ATOM      6  C   UNL     1       6.148   6.231  13.560  1.00  0.00     0.200 A 
ENDROOT
BRANCH   1   7
ATOM      7  C   UNL     1       3.594   9.644  13.024  1.00  0.00     0.072 C 
ATOM      8  O   UNL     1       2.902  10.083  13.981  1.00  0.00    -0.545 OA
ATOM      9  O   UNL     1       3.520  10.284  11.792  1.00  0.00    -0.545 OA
ENDBRANCH   1   7
BRANCH   4  10
ATOM     10  O   UNL     1       7.686   7.586  14.837  1.00  0.00    -0.504 OA
ATOM     11  H   UNL     1       8.413   6.883  14.783  1.00  0.00     0.293 HD
ENDBRANCH   4  10
BRANCH   5  12
ATOM     12  O   UNL     1       4.601   4.876  12.278  1.00  0.00    -0.504 OA
ATOM     13  H   UNL     1       4.893   4.001  12.698  1.00  0.00     0.293 HD
ENDBRANCH   5  12
BRANCH   6  14
ATOM     14  O   UNL     1       6.993   5.135  13.746  1.00  0.00    -0.502 OA
ATOM     15  H   UNL     1       7.177   4.466  13.010  1.00  0.00     0.293 HD
ENDBRANCH   6  14
TORSDOF 4
ENDMDL
MODEL 2
REMARK VINA RESULT:    -4.537      0.070      2.422
REMARK INTER + INTRA:          -5.245
REMARK INTER:                  -5.200
REMARK INTRA:                  -0.045
REMARK UNBOUND:                -0.045
REMARK SMILES O=C([O-])c1cc(O)c(O)c(O)c1
REMARK SMILES IDX 4 1 5 2 12 3 6 4 10 5 8 6 2 7 1 8 3 9 7 10 11 12 9 14
REMARK H PARENT 7 11 11 13 9 15
REMARK Flexibility Score: inf
ROOT
ATOM      1  C   UNL     1       4.513   8.455  13.224  1.00  0.00     0.005 A 
ATOM      2  C   UNL     1       4.186   7.209  12.663  1.00  0.00     0.060 A 
ATOM      3  C   UNL     1       5.708   8.582  13.953  1.00  0.00     0.060 A 
ATOM      4  C   UNL     1       5.038   6.108  12.826  1.00  0.00     0.162 A 
ATOM      5  C   UNL     1       6.564   7.483  14.119  1.00  0.00     0.162 A 
ATOM      6  C   UNL     1       6.227   6.243  13.553  1.00  0.00     0.200 A 
ENDROOT
BRANCH   1   7
ATOM      7  C   UNL     1       3.610   9.613  13.048  1.00  0.00     0.072 C 
ATOM      8  O   UNL     1       2.890  10.015  14.001  1.00  0.00    -0.545 OA
ATOM      9  O   UNL     1       3.542  10.276  11.828  1.00  0.00    -0.545 OA
ENDBRANCH   1   7
BRANCH   4  10
ATOM     10  O   UNL     1       4.709   4.875  12.267  1.00  0.00    -0.504 OA
ATOM     11  H   UNL     1       4.002   4.277  12.678  1.00  0.00     0.293 HD
ENDBRANCH   4  10
BRANCH   5  12
ATOM     12  O   UNL     1       7.747   7.622  14.843  1.00  0.00    -0.504 OA
ATOM     13  H   UNL     1       8.501   6.949  14.763  1.00  0.00     0.293 HD
ENDBRANCH   5  12
BRANCH   6  14
ATOM     14  O   UNL     1       7.063   5.135  13.705  1.00  0.00    -0.502 OA
ATOM     15  H   UNL     1       8.023   5.223  14.013  1.00  0.00     0.293 HD
ENDBRANCH   6  14
TORSDOF 4
ENDMDL
MODEL 3
REMARK VINA RESULT:    -4.471      1.449      4.287
REMARK INTER + INTRA:          -5.170
REMARK INTER:                  -5.125
REMARK INTRA:                  -0.045
REMARK UNBOUND:                -0.045
REMARK SMILES O=C([O-])c1cc(O)c(O)c(O)c1
REMARK SMILES IDX 4 1 5 2 12 3 6 4 10 5 8 6 2 7 1 8 3 9 7 10 11 12 9 14
REMARK H PARENT 7 11 11 13 9 15
REMARK Flexibility Score: inf
ROOT
ATOM      1  C   UNL     1       5.415   7.193  12.658  1.00  0.00     0.005 A 
ATOM      2  C   UNL     1       5.093   7.505  13.989  1.00  0.00     0.060 A 
ATOM      3  C   UNL     1       4.870   7.973  11.623  1.00  0.00     0.060 A 
ATOM      4  C   UNL     1       4.241   8.578  14.284  1.00  0.00     0.162 A 
ATOM      5  C   UNL     1       4.016   9.048  11.913  1.00  0.00     0.162 A 
ATOM      6  C   UNL     1       3.702   9.351  13.248  1.00  0.00     0.200 A 
ENDROOT
BRANCH   1   7
ATOM      7  C   UNL     1       6.315   6.060  12.353  1.00  0.00     0.072 C 
ATOM      8  O   UNL     1       5.886   4.875  12.375  1.00  0.00    -0.545 OA
ATOM      9  O   UNL     1       7.650   6.284  12.036  1.00  0.00    -0.545 OA
ENDBRANCH   1   7
BRANCH   4  10
ATOM     10  O   UNL     1       3.925   8.883  15.606  1.00  0.00    -0.504 OA
ATOM     11  H   UNL     1       3.323   9.662  15.842  1.00  0.00     0.293 HD
ENDBRANCH   4  10
BRANCH   5  12
ATOM     12  O   UNL     1       3.482   9.816  10.879  1.00  0.00    -0.504 OA
ATOM     13  H   UNL     1       2.508   9.739  10.609  1.00  0.00     0.293 HD
ENDBRANCH   5  12
BRANCH   6  14
ATOM     14  O   UNL     1       2.855  10.415  13.561  1.00  0.00    -0.502 OA
ATOM     15  H   UNL     1       2.166  10.356  14.300  1.00  0.00     0.293 HD
ENDBRANCH   6  14
TORSDOF 4
ENDMDL
MODEL 4
REMARK VINA RESULT:    -3.705      1.833      3.018
REMARK INTER + INTRA:          -4.291
REMARK INTER:                  -4.247
REMARK INTRA:                  -0.045
REMARK UNBOUND:                -0.045
REMARK SMILES O=C([O-])c1cc(O)c(O)c(O)c1
REMARK SMILES IDX 4 1 5 2 12 3 6 4 10 5 8 6 2 7 1 8 3 9 7 10 11 12 9 14
REMARK H PARENT 7 11 11 13 9 15
REMARK Flexibility Score: inf
ROOT
ATOM      1  C   UNL     1       3.592   9.835  11.982  1.00  0.00     0.005 A 
ATOM      2  C   UNL     1       4.376   8.894  11.294  1.00  0.00     0.060 A 
ATOM      3  C   UNL     1       3.478   9.736  13.380  1.00  0.00     0.060 A 
ATOM      4  C   UNL     1       5.036   7.872  11.988  1.00  0.00     0.162 A 
ATOM      5  C   UNL     1       4.137   8.714  14.079  1.00  0.00     0.162 A 
ATOM      6  C   UNL     1       4.918   7.780  13.380  1.00  0.00     0.200 A 
ENDROOT
BRANCH   1   7
ATOM      7  C   UNL     1       2.898  10.913  11.244  1.00  0.00     0.072 C 
ATOM      8  O   UNL     1       3.522  11.943  10.875  1.00  0.00    -0.545 OA
ATOM      9  O   UNL     1       1.545  10.804  10.945  1.00  0.00    -0.545 OA
ENDBRANCH   1   7
BRANCH   4  10
ATOM     10  O   UNL     1       5.812   6.942  11.300  1.00  0.00    -0.504 OA
ATOM     11  H   UNL     1       5.851   6.927  10.288  1.00  0.00     0.293 HD
ENDBRANCH   4  10
BRANCH   5  12
ATOM     12  O   UNL     1       4.017   8.626  15.466  1.00  0.00    -0.504 OA
ATOM     13  H   UNL     1       4.012   9.453  16.052  1.00  0.00     0.293 HD
ENDBRANCH   5  12
BRANCH   6  14
ATOM     14  O   UNL     1       5.582   6.754  14.055  1.00  0.00    -0.502 OA
ATOM     15  H   UNL     1       5.723   6.771  15.057  1.00  0.00     0.293 HD
ENDBRANCH   6  14
TORSDOF 4
ENDMDL
MODEL 5
REMARK VINA RESULT:    -3.586      1.792      2.413
REMARK INTER + INTRA:          -4.156
REMARK INTER:                  -4.111
REMARK INTRA:                  -0.045
REMARK UNBOUND:                -0.045
REMARK SMILES O=C([O-])c1cc(O)c(O)c(O)c1
REMARK SMILES IDX 4 1 5 2 12 3 6 4 10 5 8 6 2 7 1 8 3 9 7 10 11 12 9 14
REMARK H PARENT 7 11 11 13 9 15
REMARK Flexibility Score: inf
ROOT
ATOM      1  C   UNL     1       3.636   9.699  12.088  1.00  0.00     0.005 A 
ATOM      2  C   UNL     1       3.544   9.662  13.489  1.00  0.00     0.060 A 
ATOM      3  C   UNL     1       4.426   8.740  11.430  1.00  0.00     0.060 A 
ATOM      4  C   UNL     1       4.228   8.683  14.223  1.00  0.00     0.162 A 
ATOM      5  C   UNL     1       5.112   7.758  12.159  1.00  0.00     0.162 A 
ATOM      6  C   UNL     1       5.012   7.730  13.560  1.00  0.00     0.200 A 
ENDROOT
BRANCH   1   7
ATOM      7  C   UNL     1       2.911  10.735  11.319  1.00  0.00     0.072 C 
ATOM      8  O   UNL     1       1.686  10.599  11.056  1.00  0.00    -0.545 OA
ATOM      9  O   UNL     1       3.572  11.874  10.875  1.00  0.00    -0.545 OA
ENDBRANCH   1   7
BRANCH   4  10
ATOM     10  O   UNL     1       4.134   8.650  15.612  1.00  0.00    -0.504 OA
ATOM     11  H   UNL     1       4.565   7.913  16.157  1.00  0.00     0.293 HD
ENDBRANCH   4  10
BRANCH   5  12
ATOM     12  O   UNL     1       5.892   6.811  11.496  1.00  0.00    -0.504 OA
ATOM     13  H   UNL     1       6.362   6.066  11.997  1.00  0.00     0.293 HD
ENDBRANCH   5  12
BRANCH   6  14
ATOM     14  O   UNL     1       5.687   6.763  14.307  1.00  0.00    -0.502 OA
ATOM     15  H   UNL     1       5.526   6.639  15.299  1.00  0.00     0.293 HD
ENDBRANCH   6  14
TORSDOF 4
ENDMDL
MODEL 6
REMARK VINA RESULT:    -2.457      1.983      3.435
REMARK INTER + INTRA:          -2.861
REMARK INTER:                  -2.810
REMARK INTRA:                  -0.051
REMARK UNBOUND:                -0.045
REMARK SMILES O=C([O-])c1cc(O)c(O)c(O)c1
REMARK SMILES IDX 4 1 5 2 12 3 6 4 10 5 8 6 2 7 1 8 3 9 7 10 11 12 9 14
REMARK H PARENT 7 11 11 13 9 15
REMARK Flexibility Score: inf
ROOT
ATOM      1  C   UNL     1       5.367   7.000  13.373  1.00  0.00     0.005 A 
ATOM      2  C   UNL     1       6.254   6.424  12.449  1.00  0.00     0.060 A 
ATOM      3  C   UNL     1       5.874   7.867  14.357  1.00  0.00     0.060 A 
ATOM      4  C   UNL     1       7.625   6.708  12.504  1.00  0.00     0.162 A 
ATOM      5  C   UNL     1       7.245   8.154  14.417  1.00  0.00     0.162 A 
ATOM      6  C   UNL     1       8.123   7.573  13.487  1.00  0.00     0.200 A 
ENDROOT
BRANCH   1   7
ATOM      7  C   UNL     1       3.920   6.697  13.309  1.00  0.00     0.072 C 
ATOM      8  O   UNL     1       3.074   7.505  13.775  1.00  0.00    -0.545 OA
ATOM      9  O   UNL     1       3.473   5.514  12.732  1.00  0.00    -0.545 OA
ENDBRANCH   1   7
BRANCH   4  10
ATOM     10  O   UNL     1       8.500   6.134  11.585  1.00  0.00    -0.504 OA
ATOM     11  H   UNL     1       8.174   5.764  10.700  1.00  0.00     0.293 HD
ENDBRANCH   4  10
BRANCH   5  12
ATOM     12  O   UNL     1       7.737   9.016  15.396  1.00  0.00    -0.504 OA
ATOM     13  H   UNL     1       8.606   9.522  15.270  1.00  0.00     0.293 HD
ENDBRANCH   5  12
BRANCH   6  14
ATOM     14  O   UNL     1       9.492   7.843  13.528  1.00  0.00    -0.502 OA
ATOM     15  H   UNL     1      10.180   7.195  13.166  1.00  0.00     0.293 HD
ENDBRANCH   6  14
TORSDOF 4
ENDMDL
MODEL 7
REMARK VINA RESULT:    -2.453      1.960      2.862
REMARK INTER + INTRA:          -2.857
REMARK INTER:                  -2.806
REMARK INTRA:                  -0.051
REMARK UNBOUND:                -0.045
REMARK SMILES O=C([O-])c1cc(O)c(O)c(O)c1
REMARK SMILES IDX 4 1 5 2 12 3 6 4 10 5 8 6 2 7 1 8 3 9 7 10 11 12 9 14
REMARK H PARENT 7 11 11 13 9 15
REMARK Flexibility Score: inf
ROOT
ATOM      1  C   UNL     1       5.406   7.039  13.378  1.00  0.00     0.005 A 
ATOM      2  C   UNL     1       5.939   7.894  14.357  1.00  0.00     0.060 A 
ATOM      3  C   UNL     1       6.273   6.453  12.438  1.00  0.00     0.060 A 
ATOM      4  C   UNL     1       7.314   8.160  14.399  1.00  0.00     0.162 A 
ATOM      5  C   UNL     1       7.650   6.717  12.476  1.00  0.00     0.162 A 
ATOM      6  C   UNL     1       8.171   7.573  13.460  1.00  0.00     0.200 A 
ENDROOT
BRANCH   1   7
ATOM      7  C   UNL     1       3.953   6.761  13.339  1.00  0.00     0.072 C 
ATOM      8  O   UNL     1       3.515   5.708  12.805  1.00  0.00    -0.545 OA
ATOM      9  O   UNL     1       3.049   7.660  13.893  1.00  0.00    -0.545 OA
ENDBRANCH   1   7
BRANCH   4  10
ATOM     10  O   UNL     1       7.837   9.009  15.372  1.00  0.00    -0.504 OA
ATOM     11  H   UNL     1       8.835   9.149  15.474  1.00  0.00     0.293 HD
ENDBRANCH   4  10
BRANCH   5  12
ATOM     12  O   UNL     1       8.500   6.130  11.540  1.00  0.00    -0.504 OA
ATOM     13  H   UNL     1       8.909   6.667  10.784  1.00  0.00     0.293 HD
ENDBRANCH   5  12
BRANCH   6  14
ATOM     14  O   UNL     1       9.538   7.850  13.517  1.00  0.00    -0.502 OA
ATOM     15  H   UNL     1      10.237   7.119  13.503  1.00  0.00     0.293 HD
ENDBRANCH   6  14
TORSDOF 4
ENDMDL
MODEL 8
REMARK VINA RESULT:    -2.221      2.319      5.525
REMARK INTER + INTRA:          -2.591
REMARK INTER:                  -2.546
REMARK INTRA:                  -0.046
REMARK UNBOUND:                -0.045
REMARK SMILES O=C([O-])c1cc(O)c(O)c(O)c1
REMARK SMILES IDX 4 1 5 2 12 3 6 4 10 5 8 6 2 7 1 8 3 9 7 10 11 12 9 14
REMARK H PARENT 7 11 11 13 9 15
REMARK Flexibility Score: inf
ROOT
ATOM      1  C   UNL     1       3.502   9.280  13.435  1.00  0.00     0.005 A 
ATOM      2  C   UNL     1       2.103   9.268  13.559  1.00  0.00     0.060 A 
ATOM      3  C   UNL     1       4.100  10.179  12.534  1.00  0.00     0.060 A 
ATOM      4  C   UNL     1       1.312  10.139  12.798  1.00  0.00     0.162 A 
ATOM      5  C   UNL     1       3.312  11.052  11.769  1.00  0.00     0.162 A 
ATOM      6  C   UNL     1       1.914  11.032  11.903  1.00  0.00     0.200 A 
ENDROOT
BRANCH   1   7
ATOM      7  C   UNL     1       4.332   8.358  14.242  1.00  0.00     0.072 C 
ATOM      8  O   UNL     1       4.421   8.502  15.490  1.00  0.00    -0.545 OA
ATOM      9  O   UNL     1       5.026   7.320  13.633  1.00  0.00    -0.545 OA
ENDBRANCH   1   7
BRANCH   4  10
ATOM     10  O   UNL     1      -0.075  10.123  12.925  1.00  0.00    -0.504 OA
ATOM     11  H   UNL     1      -0.581  10.904  13.326  1.00  0.00     0.293 HD
ENDBRANCH   4  10
BRANCH   5  12
ATOM     12  O   UNL     1       3.915  11.940  10.879  1.00  0.00    -0.504 OA
ATOM     13  H   UNL     1       4.157  11.663   9.935  1.00  0.00     0.293 HD
ENDBRANCH   5  12
BRANCH   6  14
ATOM     14  O   UNL     1       1.110  11.891  11.152  1.00  0.00    -0.502 OA
ATOM     15  H   UNL     1       0.109  11.947  11.287  1.00  0.00     0.293 HD
ENDBRANCH   6  14
TORSDOF 4
ENDMDL
