MODEL 1
REMARK VINA RESULT:    -2.350      0.000      0.000
REMARK INTER + INTRA:          -2.350
REMARK INTER:                  -2.350
REMARK INTRA:                   0.000
REMARK UNBOUND:                 0.000
REMARK SMILES CC(=O)[O-]
REMARK SMILES IDX 1 1 2 2 3 3 4 4
REMARK H PARENT
REMARK Flexibility Score: inf
ROOT
ATOM      1  C   UNL     1      18.053   1.757  13.976  1.00  0.00     0.063 C 
ATOM      2  C   UNL     1      18.722   1.203  15.187  1.00  0.00     0.038 C 
ATOM      3  O   UNL     1      19.474   1.932  15.884  1.00  0.00    -0.550 OA
ATOM      4  O   UNL     1      18.474  -0.106  15.581  1.00  0.00    -0.550 OA
ENDROOT
TORSDOF 0
ENDMDL
MODEL 2
REMARK VINA RESULT:    -2.313      4.410      4.770
REMARK INTER + INTRA:          -2.313
REMARK INTER:                  -2.313
REMARK INTRA:                   0.000
REMARK UNBOUND:                 0.000
REMARK SMILES CC(=O)[O-]
REMARK SMILES IDX 1 1 2 2 3 3 4 4
REMARK H PARENT
REMARK Flexibility Score: inf
ROOT
ATOM      1  C   UNL     1      16.553  -1.544  17.919  1.00  0.00     0.063 C 
ATOM      2  C   UNL     1      17.211  -0.820  19.043  1.00  0.00     0.038 C 
ATOM      3  O   UNL     1      18.335  -0.278  18.875  1.00  0.00    -0.550 OA
ATOM      4  O   UNL     1      16.562  -0.693  20.265  1.00  0.00    -0.550 OA
ENDROOT
TORSDOF 0
ENDMDL
MODEL 3
REMARK VINA RESULT:    -2.308     10.338     10.630
REMARK INTER + INTRA:          -2.308
REMARK INTER:                  -2.308
REMARK INTRA:                   0.000
REMARK UNBOUND:                 0.000
REMARK SMILES CC(=O)[O-]
REMARK SMILES IDX 1 1 2 2 3 3 4 4
REMARK H PARENT
REMARK Flexibility Score: inf
ROOT
ATOM      1  C   UNL     1      13.468   4.167  24.138  1.00  0.00     0.063 C 
ATOM      2  C   UNL     1      14.557   5.168  23.962  1.00  0.00     0.038 C 
ATOM      3  O   UNL     1      14.278   6.365  23.686  1.00  0.00    -0.550 OA
ATOM      4  O   UNL     1      15.882   4.798  24.156  1.00  0.00    -0.550 OA
ENDROOT
TORSDOF 0
ENDMDL
MODEL 4
REMARK VINA RESULT:    -2.291      7.620      7.854
REMARK INTER + INTRA:          -2.291
REMARK INTER:                  -2.291
REMARK INTRA:                   0.000
REMARK UNBOUND:                 0.000
REMARK SMILES CC(=O)[O-]
REMARK SMILES IDX 1 1 2 2 3 3 4 4
REMARK H PARENT
REMARK Flexibility Score: inf
ROOT
ATOM      1  C   UNL     1      16.673   9.613  15.455  1.00  0.00     0.063 C 
ATOM      2  C   UNL     1      17.961   8.901  15.218  1.00  0.00     0.038 C 
ATOM      3  O   UNL     1      18.795   8.773  16.153  1.00  0.00    -0.550 OA
ATOM      4  O   UNL     1      18.222   8.328  13.980  1.00  0.00    -0.550 OA
ENDROOT
TORSDOF 0
ENDMDL
MODEL 5
REMARK VINA RESULT:    -2.275     10.756     11.132
REMARK INTER + INTRA:          -2.275
REMARK INTER:                  -2.275
REMARK INTRA:                   0.000
REMARK UNBOUND:                 0.000
REMARK SMILES CC(=O)[O-]
REMARK SMILES IDX 1 1 2 2 3 3 4 4
REMARK H PARENT
REMARK Flexibility Score: inf
ROOT
ATOM      1  C   UNL     1      14.151   8.162  22.535  1.00  0.00     0.063 C 
ATOM      2  C   UNL     1      15.308   8.993  22.095  1.00  0.00     0.038 C 
ATOM      3  O   UNL     1      16.484   8.568  22.239  1.00  0.00    -0.550 OA
ATOM      4  O   UNL     1      15.090  10.217  21.473  1.00  0.00    -0.550 OA
ENDROOT
TORSDOF 0
ENDMDL
MODEL 6
REMARK VINA RESULT:    -2.259      7.705      7.948
REMARK INTER + INTRA:          -2.259
REMARK INTER:                  -2.259
REMARK INTRA:                   0.000
REMARK UNBOUND:                 0.000
REMARK SMILES CC(=O)[O-]
REMARK SMILES IDX 1 1 2 2 3 3 4 4
REMARK H PARENT
REMARK Flexibility Score: inf
ROOT
ATOM      1  C   UNL     1      15.242   0.459  21.596  1.00  0.00     0.063 C 
ATOM      2  C   UNL     1      16.099   1.218  22.550  1.00  0.00     0.038 C 
ATOM      3  O   UNL     1      17.308   1.441  22.275  1.00  0.00    -0.550 OA
ATOM      4  O   UNL     1      15.554   1.730  23.721  1.00  0.00    -0.550 OA
ENDROOT
TORSDOF 0
ENDMDL
MODEL 7
REMARK VINA RESULT:    -2.209      1.259      2.293
REMARK INTER + INTRA:          -2.209
REMARK INTER:                  -2.209
REMARK INTRA:                   0.000
REMARK UNBOUND:                 0.000
REMARK SMILES CC(=O)[O-]
REMARK SMILES IDX 1 1 2 2 3 3 4 4
REMARK H PARENT
REMARK Flexibility Score: inf
ROOT
ATOM      1  C   UNL     1      19.251   1.788  16.964  1.00  0.00     0.063 C 
ATOM      2  C   UNL     1      18.882   1.182  15.653  1.00  0.00     0.038 C 
ATOM      3  O   UNL     1      18.514  -0.020  15.593  1.00  0.00    -0.550 OA
ATOM      4  O   UNL     1      18.889   1.958  14.501  1.00  0.00    -0.550 OA
ENDROOT
TORSDOF 0
ENDMDL
MODEL 8
REMARK VINA RESULT:    -2.205     10.173     10.365
REMARK INTER + INTRA:          -2.205
REMARK INTER:                  -2.205
REMARK INTRA:                   0.000
REMARK UNBOUND:                 0.000
REMARK SMILES CC(=O)[O-]
REMARK SMILES IDX 1 1 2 2 3 3 4 4
REMARK H PARENT
REMARK Flexibility Score: inf
ROOT
ATOM      1  C   UNL     1      12.981   3.092  24.790  1.00  0.00     0.063 C 
ATOM      2  C   UNL     1      13.668   2.004  24.039  1.00  0.00     0.038 C 
ATOM      3  O   UNL     1      14.833   1.651  24.362  1.00  0.00    -0.550 OA
ATOM      4  O   UNL     1      13.006   1.339  23.015  1.00  0.00    -0.550 OA
ENDROOT
TORSDOF 0
ENDMDL
MODEL 9
REMARK VINA RESULT:    -2.196     10.357     10.607
REMARK INTER + INTRA:          -2.196
REMARK INTER:                  -2.196
REMARK INTRA:                   0.000
REMARK UNBOUND:                 0.000
REMARK SMILES CC(=O)[O-]
REMARK SMILES IDX 1 1 2 2 3 3 4 4
REMARK H PARENT
REMARK Flexibility Score: inf
ROOT
ATOM      1  C   UNL     1      12.860   3.252  24.836  1.00  0.00     0.063 C 
ATOM      2  C   UNL     1      13.442   2.074  24.132  1.00  0.00     0.038 C 
ATOM      3  O   UNL     1      12.789   1.492  23.227  1.00  0.00    -0.550 OA
ATOM      4  O   UNL     1      14.730   1.648  24.434  1.00  0.00    -0.550 OA
ENDROOT
TORSDOF 0
ENDMDL
