MODEL 1
REMARK VINA RESULT:    -3.390      0.000      0.000
REMARK INTER + INTRA:         -12.824
REMARK INTER:                  -8.938
REMARK INTRA:                  -3.886
REMARK UNBOUND:                -3.886
REMARK SMILES CCCCCCCCCCCCCCCCCCCCCCCCCCCCCC(=O)[O-]
REMARK SMILES IDX 16 1 17 2 18 3 19 4 20 5 21 6 22 7 23 8 24 9 25 10 26 11
REMARK SMILES IDX 27 12 28 13 29 14 30 15 31 16 32 17 15 18 14 19 13 20 12 21
REMARK SMILES IDX 11 22 10 23 9 24 8 25 7 26 6 27 5 28 4 29 3 30 2 31 1 32
REMARK H PARENT
REMARK Flexibility Score: inf
ROOT
ATOM      1  C   UNL     1       7.941  -5.369  -2.881  1.00  0.00     0.000 C 
ENDROOT
BRANCH   1   2
ATOM      2  C   UNL     1       8.448  -4.138  -2.111  1.00  0.00     0.000 C 
BRANCH   2   3
ATOM      3  C   UNL     1       8.347  -2.843  -2.933  1.00  0.00     0.000 C 
BRANCH   3   4
ATOM      4  C   UNL     1       7.993  -1.619  -2.070  1.00  0.00     0.000 C 
BRANCH   4   5
ATOM      5  C   UNL     1       7.380  -0.476  -2.897  1.00  0.00     0.000 C 
BRANCH   5   6
ATOM      6  C   UNL     1       7.374   0.863  -2.144  1.00  0.00     0.000 C 
BRANCH   6   7
ATOM      7  C   UNL     1       6.846   1.995  -3.040  1.00  0.00     0.000 C 
BRANCH   7   8
ATOM      8  C   UNL     1       5.771   1.519  -4.037  1.00  0.00     0.000 C 
BRANCH   8   9
ATOM      9  C   UNL     1       4.783   2.604  -4.504  1.00  0.00     0.000 C 
BRANCH   9  10
ATOM     10  C   UNL     1       4.024   3.346  -3.385  1.00  0.00     0.000 C 
BRANCH  10  11
ATOM     11  C   UNL     1       2.494   3.130  -3.396  1.00  0.00     0.000 C 
BRANCH  11  12
ATOM     12  C   UNL     1       1.735   3.817  -2.248  1.00  0.00     0.000 C 
BRANCH  12  13
ATOM     13  C   UNL     1       0.904   2.838  -1.401  1.00  0.00     0.006 C 
BRANCH  13  14
ATOM     14  C   UNL     1       0.476   1.601  -2.203  1.00  0.00     0.053 C 
BRANCH  14  15
ATOM     15  C   UNL     1      -1.001   1.352  -2.097  1.00  0.00     0.041 C 
ATOM     16  O   UNL     1      -1.702   1.240  -3.137  1.00  0.00    -0.550 OA
ATOM     17  O   UNL     1      -1.595   1.205  -0.850  1.00  0.00    -0.550 OA
ENDBRANCH  14  15
ENDBRANCH  13  14
ENDBRANCH  12  13
ENDBRANCH  11  12
ENDBRANCH  10  11
ENDBRANCH   9  10
ENDBRANCH   8   9
ENDBRANCH   7   8
ENDBRANCH   6   7
ENDBRANCH   5   6
ENDBRANCH   4   5
ENDBRANCH   3   4
ENDBRANCH   2   3
ENDBRANCH   1   2
BRANCH   1  18
ATOM     18  C   UNL     1       7.374  -5.014  -4.270  1.00  0.00     0.000 C 
BRANCH  18  19
ATOM     19  C   UNL     1       5.865  -5.269  -4.452  1.00  0.00     0.000 C 
BRANCH  19  20
ATOM     20  C   UNL     1       5.205  -4.292  -5.440  1.00  0.00     0.000 C 
BRANCH  20  21
ATOM     21  C   UNL     1       5.515  -2.819  -5.122  1.00  0.00     0.000 C 
BRANCH  21  22
ATOM     22  C   UNL     1       5.420  -1.849  -6.318  1.00  0.00     0.000 C 
BRANCH  22  23
ATOM     23  C   UNL     1       4.091  -1.083  -6.444  1.00  0.00     0.000 C 
BRANCH  23  24
ATOM     24  C   UNL     1       3.472  -0.729  -5.080  1.00  0.00    -0.000 C 
BRANCH  24  25
ATOM     25  C   UNL     1       2.107  -0.031  -5.207  1.00  0.00    -0.000 C 
BRANCH  25  26
ATOM     26  C   UNL     1       0.887  -0.896  -4.831  1.00  0.00    -0.000 C 
BRANCH  26  27
ATOM     27  C   UNL     1       0.404  -1.862  -5.927  1.00  0.00    -0.000 C 
BRANCH  27  28
ATOM     28  C   UNL     1       0.252  -3.331  -5.487  1.00  0.00    -0.000 C 
BRANCH  28  29
ATOM     29  C   UNL     1       1.540  -3.951  -4.909  1.00  0.00    -0.000 C 
BRANCH  29  30
ATOM     30  C   UNL     1       1.454  -5.482  -4.770  1.00  0.00    -0.000 C 
BRANCH  30  31
ATOM     31  C   UNL     1       2.375  -6.026  -3.668  1.00  0.00    -0.003 C 
ATOM     32  C   UNL     1       2.909  -7.425  -3.981  1.00  0.00     0.004 C 
ENDBRANCH  30  31
ENDBRANCH  29  30
ENDBRANCH  28  29
ENDBRANCH  27  28
ENDBRANCH  26  27
ENDBRANCH  25  26
ENDBRANCH  24  25
ENDBRANCH  23  24
ENDBRANCH  22  23
ENDBRANCH  21  22
ENDBRANCH  20  21
ENDBRANCH  19  20
ENDBRANCH  18  19
ENDBRANCH   1  18
TORSDOF 28
ENDMDL
MODEL 2
REMARK VINA RESULT:    -3.314      4.680      7.174
REMARK INTER + INTRA:         -12.625
REMARK INTER:                  -6.919
REMARK INTRA:                  -5.706
REMARK UNBOUND:                -3.886
REMARK SMILES CCCCCCCCCCCCCCCCCCCCCCCCCCCCCC(=O)[O-]
REMARK SMILES IDX 16 1 17 2 18 3 19 4 20 5 21 6 22 7 23 8 24 9 25 10 26 11
REMARK SMILES IDX 27 12 28 13 29 14 30 15 31 16 32 17 15 18 14 19 13 20 12 21
REMARK SMILES IDX 11 22 10 23 9 24 8 25 7 26 6 27 5 28 4 29 3 30 2 31 1 32
REMARK H PARENT
REMARK Flexibility Score: inf
ROOT
ATOM      1  C   UNL     1      10.281   0.129  -2.783  1.00  0.00     0.000 C 
ENDROOT
BRANCH   1   2
ATOM      2  C   UNL     1      11.555  -0.437  -2.134  1.00  0.00     0.000 C 
BRANCH   2   3
ATOM      3  C   UNL     1      11.594  -1.974  -2.151  1.00  0.00     0.000 C 
BRANCH   3   4
ATOM      4  C   UNL     1      10.614  -2.582  -3.170  1.00  0.00     0.000 C 
BRANCH   4   5
ATOM      5  C   UNL     1      10.060  -3.941  -2.711  1.00  0.00     0.000 C 
BRANCH   5   6
ATOM      6  C   UNL     1       8.828  -3.802  -1.802  1.00  0.00     0.000 C 
BRANCH   6   7
ATOM      7  C   UNL     1       8.945  -4.717  -0.573  1.00  0.00     0.000 C 
BRANCH   7   8
ATOM      8  C   UNL     1       9.235  -3.939   0.727  1.00  0.00     0.000 C 
BRANCH   8   9
ATOM      9  C   UNL     1       9.095  -2.409   0.621  1.00  0.00     0.000 C 
BRANCH   9  10
ATOM     10  C   UNL     1      10.245  -1.587   1.239  1.00  0.00     0.000 C 
BRANCH  10  11
ATOM     11  C   UNL     1       9.903  -0.104   1.503  1.00  0.00     0.000 C 
BRANCH  11  12
ATOM     12  C   UNL     1       8.588   0.132   2.265  1.00  0.00     0.000 C 
BRANCH  12  13
ATOM     13  C   UNL     1       8.419   1.584   2.745  1.00  0.00     0.006 C 
BRANCH  13  14
ATOM     14  C   UNL     1       8.333   2.573   1.572  1.00  0.00     0.053 C 
BRANCH  14  15
ATOM     15  C   UNL     1       7.276   3.614   1.799  1.00  0.00     0.041 C 
ATOM     16  O   UNL     1       6.665   4.121   0.821  1.00  0.00    -0.550 OA
ATOM     17  O   UNL     1       6.939   3.995   3.091  1.00  0.00    -0.550 OA
ENDBRANCH  14  15
ENDBRANCH  13  14
ENDBRANCH  12  13
ENDBRANCH  11  12
ENDBRANCH  10  11
ENDBRANCH   9  10
ENDBRANCH   8   9
ENDBRANCH   7   8
ENDBRANCH   6   7
ENDBRANCH   5   6
ENDBRANCH   4   5
ENDBRANCH   3   4
ENDBRANCH   2   3
ENDBRANCH   1   2
BRANCH   1  18
ATOM     18  C   UNL     1       9.499   1.070  -1.846  1.00  0.00     0.000 C 
BRANCH  18  19
ATOM     19  C   UNL     1       8.005   0.735  -1.673  1.00  0.00     0.000 C 
BRANCH  19  20
ATOM     20  C   UNL     1       7.606  -0.595  -2.335  1.00  0.00     0.000 C 
BRANCH  20  21
ATOM     21  C   UNL     1       6.691  -0.404  -3.557  1.00  0.00     0.000 C 
BRANCH  21  22
ATOM     22  C   UNL     1       6.355  -1.691  -4.340  1.00  0.00     0.000 C 
BRANCH  22  23
ATOM     23  C   UNL     1       7.521  -2.305  -5.134  1.00  0.00     0.000 C 
BRANCH  23  24
ATOM     24  C   UNL     1       7.382  -3.826  -5.321  1.00  0.00    -0.000 C 
BRANCH  24  25
ATOM     25  C   UNL     1       6.297  -4.443  -4.421  1.00  0.00    -0.000 C 
BRANCH  25  26
ATOM     26  C   UNL     1       6.631  -5.832  -3.842  1.00  0.00    -0.000 C 
BRANCH  26  27
ATOM     27  C   UNL     1       7.649  -6.654  -4.652  1.00  0.00    -0.000 C 
BRANCH  27  28
ATOM     28  C   UNL     1       8.853  -7.185  -3.849  1.00  0.00    -0.000 C 
BRANCH  28  29
ATOM     29  C   UNL     1       8.550  -8.453  -3.026  1.00  0.00    -0.000 C 
BRANCH  29  30
ATOM     30  C   UNL     1       8.795  -8.257  -1.519  1.00  0.00    -0.000 C 
BRANCH  30  31
ATOM     31  C   UNL     1       7.489  -8.184  -0.713  1.00  0.00    -0.003 C 
ATOM     32  C   UNL     1       6.292  -8.752  -1.476  1.00  0.00     0.004 C 
ENDBRANCH  30  31
ENDBRANCH  29  30
ENDBRANCH  28  29
ENDBRANCH  27  28
ENDBRANCH  26  27
ENDBRANCH  25  26
ENDBRANCH  24  25
ENDBRANCH  23  24
ENDBRANCH  22  23
ENDBRANCH  21  22
ENDBRANCH  20  21
ENDBRANCH  19  20
ENDBRANCH  18  19
ENDBRANCH   1  18
TORSDOF 28
ENDMDL
MODEL 3
REMARK VINA RESULT:    -3.284      3.582      6.592
REMARK INTER + INTRA:         -12.545
REMARK INTER:                  -7.317
REMARK INTRA:                  -5.229
REMARK UNBOUND:                -3.886
REMARK SMILES CCCCCCCCCCCCCCCCCCCCCCCCCCCCCC(=O)[O-]
REMARK SMILES IDX 16 1 17 2 18 3 19 4 20 5 21 6 22 7 23 8 24 9 25 10 26 11
REMARK SMILES IDX 27 12 28 13 29 14 30 15 31 16 32 17 15 18 14 19 13 20 12 21
REMARK SMILES IDX 11 22 10 23 9 24 8 25 7 26 6 27 5 28 4 29 3 30 2 31 1 32
REMARK H PARENT
REMARK Flexibility Score: inf
ROOT
ATOM      1  C   UNL     1       6.731  -3.111  -7.221  1.00  0.00     0.000 C 
ENDROOT
BRANCH   1   2
ATOM      2  C   UNL     1       6.807  -2.290  -5.923  1.00  0.00     0.000 C 
BRANCH   2   3
ATOM      3  C   UNL     1       5.466  -2.244  -5.173  1.00  0.00     0.000 C 
BRANCH   3   4
ATOM      4  C   UNL     1       4.968  -0.808  -4.933  1.00  0.00     0.000 C 
BRANCH   4   5
ATOM      5  C   UNL     1       5.459   0.170  -6.014  1.00  0.00     0.000 C 
BRANCH   5   6
ATOM      6  C   UNL     1       5.992   1.486  -5.426  1.00  0.00     0.000 C 
BRANCH   6   7
ATOM      7  C   UNL     1       5.742   1.551  -3.911  1.00  0.00     0.000 C 
BRANCH   7   8
ATOM      8  C   UNL     1       7.043   1.680  -3.094  1.00  0.00     0.000 C 
BRANCH   8   9
ATOM      9  C   UNL     1       7.383   0.469  -2.206  1.00  0.00     0.000 C 
BRANCH   9  10
ATOM     10  C   UNL     1       8.178  -0.662  -2.891  1.00  0.00     0.000 C 
BRANCH  10  11
ATOM     11  C   UNL     1       7.833  -2.082  -2.391  1.00  0.00     0.000 C 
BRANCH  11  12
ATOM     12  C   UNL     1       8.684  -2.578  -1.210  1.00  0.00     0.000 C 
BRANCH  12  13
ATOM     13  C   UNL     1       8.880  -4.104  -1.204  1.00  0.00     0.006 C 
BRANCH  13  14
ATOM     14  C   UNL     1       8.344  -4.760  -2.485  1.00  0.00     0.053 C 
BRANCH  14  15
ATOM     15  C   UNL     1       8.687  -6.220  -2.548  1.00  0.00     0.041 C 
ATOM     16  O   UNL     1       9.686  -6.609  -3.210  1.00  0.00    -0.550 OA
ATOM     17  O   UNL     1       7.929  -7.146  -1.844  1.00  0.00    -0.550 OA
ENDBRANCH  14  15
ENDBRANCH  13  14
ENDBRANCH  12  13
ENDBRANCH  11  12
ENDBRANCH  10  11
ENDBRANCH   9  10
ENDBRANCH   8   9
ENDBRANCH   7   8
ENDBRANCH   6   7
ENDBRANCH   5   6
ENDBRANCH   4   5
ENDBRANCH   3   4
ENDBRANCH   2   3
ENDBRANCH   1   2
BRANCH   1  18
ATOM     18  C   UNL     1       5.433  -3.936  -7.333  1.00  0.00     0.000 C 
BRANCH  18  19
ATOM     19  C   UNL     1       5.619  -5.465  -7.292  1.00  0.00     0.000 C 
BRANCH  19  20
ATOM     20  C   UNL     1       6.709  -5.913  -6.304  1.00  0.00     0.000 C 
BRANCH  20  21
ATOM     21  C   UNL     1       6.147  -6.714  -5.116  1.00  0.00     0.000 C 
BRANCH  21  22
ATOM     22  C   UNL     1       5.297  -5.904  -4.115  1.00  0.00     0.000 C 
BRANCH  22  23
ATOM     23  C   UNL     1       4.163  -6.685  -3.427  1.00  0.00     0.000 C 
BRANCH  23  24
ATOM     24  C   UNL     1       2.772  -6.086  -3.701  1.00  0.00    -0.000 C 
BRANCH  24  25
ATOM     25  C   UNL     1       2.767  -5.104  -4.885  1.00  0.00    -0.000 C 
BRANCH  25  26
ATOM     26  C   UNL     1       1.405  -4.920  -5.584  1.00  0.00    -0.000 C 
BRANCH  26  27
ATOM     27  C   UNL     1       0.747  -3.543  -5.391  1.00  0.00    -0.000 C 
BRANCH  27  28
ATOM     28  C   UNL     1       1.660  -2.456  -4.792  1.00  0.00    -0.000 C 
BRANCH  28  29
ATOM     29  C   UNL     1       1.294  -1.021  -5.222  1.00  0.00    -0.000 C 
BRANCH  29  30
ATOM     30  C   UNL     1       1.392  -0.010  -4.065  1.00  0.00    -0.000 C 
BRANCH  30  31
ATOM     31  C   UNL     1       1.992   1.334  -4.505  1.00  0.00    -0.003 C 
ATOM     32  C   UNL     1       1.961   1.527  -6.021  1.00  0.00     0.004 C 
ENDBRANCH  30  31
ENDBRANCH  29  30
ENDBRANCH  28  29
ENDBRANCH  27  28
ENDBRANCH  26  27
ENDBRANCH  25  26
ENDBRANCH  24  25
ENDBRANCH  23  24
ENDBRANCH  22  23
ENDBRANCH  21  22
ENDBRANCH  20  21
ENDBRANCH  19  20
ENDBRANCH  18  19
ENDBRANCH   1  18
TORSDOF 28
ENDMDL
MODEL 4
REMARK VINA RESULT:    -3.259      4.295      8.866
REMARK INTER + INTRA:         -12.479
REMARK INTER:                  -8.275
REMARK INTRA:                  -4.204
REMARK UNBOUND:                -3.886
REMARK SMILES CCCCCCCCCCCCCCCCCCCCCCCCCCCCCC(=O)[O-]
REMARK SMILES IDX 16 1 17 2 18 3 19 4 20 5 21 6 22 7 23 8 24 9 25 10 26 11
REMARK SMILES IDX 27 12 28 13 29 14 30 15 31 16 32 17 15 18 14 19 13 20 12 21
REMARK SMILES IDX 11 22 10 23 9 24 8 25 7 26 6 27 5 28 4 29 3 30 2 31 1 32
REMARK H PARENT
REMARK Flexibility Score: inf
ROOT
ATOM      1  C   UNL     1       7.993  -0.030  -1.909  1.00  0.00     0.000 C 
ENDROOT
BRANCH   1   2
ATOM      2  C   UNL     1       7.070  -0.042  -3.139  1.00  0.00     0.000 C 
BRANCH   2   3
ATOM      3  C   UNL     1       6.779  -1.464  -3.646  1.00  0.00     0.000 C 
BRANCH   3   4
ATOM      4  C   UNL     1       5.759  -1.486  -4.799  1.00  0.00     0.000 C 
BRANCH   4   5
ATOM      5  C   UNL     1       4.939  -0.187  -4.880  1.00  0.00     0.000 C 
BRANCH   5   6
ATOM      6  C   UNL     1       3.512  -0.419  -5.401  1.00  0.00     0.000 C 
BRANCH   6   7
ATOM      7  C   UNL     1       3.260  -1.910  -5.671  1.00  0.00     0.000 C 
BRANCH   7   8
ATOM      8  C   UNL     1       1.993  -2.441  -4.970  1.00  0.00     0.000 C 
BRANCH   8   9
ATOM      9  C   UNL     1       1.975  -3.958  -4.708  1.00  0.00     0.000 C 
BRANCH   9  10
ATOM     10  C   UNL     1       3.341  -4.670  -4.798  1.00  0.00     0.000 C 
BRANCH  10  11
ATOM     11  C   UNL     1       3.415  -6.013  -4.038  1.00  0.00     0.000 C 
BRANCH  11  12
ATOM     12  C   UNL     1       4.833  -6.580  -3.862  1.00  0.00     0.000 C 
BRANCH  12  13
ATOM     13  C   UNL     1       4.855  -8.107  -3.670  1.00  0.00     0.006 C 
BRANCH  13  14
ATOM     14  C   UNL     1       4.806  -8.503  -2.187  1.00  0.00     0.053 C 
BRANCH  14  15
ATOM     15  C   UNL     1       5.918  -9.445  -1.826  1.00  0.00     0.041 C 
ATOM     16  O   UNL     1       6.958  -9.499  -2.534  1.00  0.00    -0.550 OA
ATOM     17  O   UNL     1       5.820 -10.234  -0.688  1.00  0.00    -0.550 OA
ENDBRANCH  14  15
ENDBRANCH  13  14
ENDBRANCH  12  13
ENDBRANCH  11  12
ENDBRANCH  10  11
ENDBRANCH   9  10
ENDBRANCH   8   9
ENDBRANCH   7   8
ENDBRANCH   6   7
ENDBRANCH   5   6
ENDBRANCH   4   5
ENDBRANCH   3   4
ENDBRANCH   2   3
ENDBRANCH   1   2
BRANCH   1  18
ATOM     18  C   UNL     1       8.326  -1.445  -1.397  1.00  0.00     0.000 C 
BRANCH  18  19
ATOM     19  C   UNL     1       9.045  -1.501  -0.036  1.00  0.00     0.000 C 
BRANCH  19  20
ATOM     20  C   UNL     1       9.219  -2.934   0.494  1.00  0.00     0.000 C 
BRANCH  20  21
ATOM     21  C   UNL     1       8.592  -3.138   1.885  1.00  0.00     0.000 C 
BRANCH  21  22
ATOM     22  C   UNL     1       8.182  -4.587   2.221  1.00  0.00     0.000 C 
BRANCH  22  23
ATOM     23  C   UNL     1       9.150  -5.678   1.732  1.00  0.00     0.000 C 
BRANCH  23  24
ATOM     24  C   UNL     1       8.480  -7.057   1.599  1.00  0.00    -0.000 C 
BRANCH  24  25
ATOM     25  C   UNL     1       8.228  -7.461   0.136  1.00  0.00    -0.000 C 
BRANCH  25  26
ATOM     26  C   UNL     1       8.993  -6.635  -0.917  1.00  0.00    -0.000 C 
BRANCH  26  27
ATOM     27  C   UNL     1       8.200  -6.297  -2.191  1.00  0.00    -0.000 C 
BRANCH  27  28
ATOM     28  C   UNL     1       8.306  -4.834  -2.663  1.00  0.00    -0.000 C 
BRANCH  28  29
ATOM     29  C   UNL     1       9.746  -4.375  -2.970  1.00  0.00    -0.000 C 
BRANCH  29  30
ATOM     30  C   UNL     1       9.829  -3.464  -4.207  1.00  0.00    -0.000 C 
BRANCH  30  31
ATOM     31  C   UNL     1      10.778  -2.273  -4.000  1.00  0.00    -0.003 C 
ATOM     32  C   UNL     1      10.323  -1.018  -4.747  1.00  0.00     0.004 C 
ENDBRANCH  30  31
ENDBRANCH  29  30
ENDBRANCH  28  29
ENDBRANCH  27  28
ENDBRANCH  26  27
ENDBRANCH  25  26
ENDBRANCH  24  25
ENDBRANCH  23  24
ENDBRANCH  22  23
ENDBRANCH  21  22
ENDBRANCH  20  21
ENDBRANCH  19  20
ENDBRANCH  18  19
ENDBRANCH   1  18
TORSDOF 28
ENDMDL
MODEL 5
REMARK VINA RESULT:    -3.251      1.359      5.967
REMARK INTER + INTRA:         -12.458
REMARK INTER:                  -8.700
REMARK INTRA:                  -3.758
REMARK UNBOUND:                -3.886
REMARK SMILES CCCCCCCCCCCCCCCCCCCCCCCCCCCCCC(=O)[O-]
REMARK SMILES IDX 16 1 17 2 18 3 19 4 20 5 21 6 22 7 23 8 24 9 25 10 26 11
REMARK SMILES IDX 27 12 28 13 29 14 30 15 31 16 32 17 15 18 14 19 13 20 12 21
REMARK SMILES IDX 11 22 10 23 9 24 8 25 7 26 6 27 5 28 4 29 3 30 2 31 1 32
REMARK H PARENT
REMARK Flexibility Score: inf
ROOT
ATOM      1  C   UNL     1       2.513  -5.887  -3.642  1.00  0.00     0.000 C 
ENDROOT
BRANCH   1   2
ATOM      2  C   UNL     1       2.485  -5.052  -4.933  1.00  0.00     0.000 C 
BRANCH   2   3
ATOM      3  C   UNL     1       1.837  -3.672  -4.730  1.00  0.00     0.000 C 
BRANCH   3   4
ATOM      4  C   UNL     1       2.639  -2.537  -5.392  1.00  0.00     0.000 C 
BRANCH   4   5
ATOM      5  C   UNL     1       4.149  -2.827  -5.421  1.00  0.00     0.000 C 
BRANCH   5   6
ATOM      6  C   UNL     1       4.999  -1.559  -5.244  1.00  0.00     0.000 C 
BRANCH   6   7
ATOM      7  C   UNL     1       4.298  -0.337  -5.859  1.00  0.00     0.000 C 
BRANCH   7   8
ATOM      8  C   UNL     1       4.323   0.896  -4.934  1.00  0.00     0.000 C 
BRANCH   8   9
ATOM      9  C   UNL     1       3.024   1.723  -4.908  1.00  0.00     0.000 C 
BRANCH   9  10
ATOM     10  C   UNL     1       1.827   1.113  -5.666  1.00  0.00     0.000 C 
BRANCH  10  11
ATOM     11  C   UNL     1       0.561   0.906  -4.805  1.00  0.00     0.000 C 
BRANCH  11  12
ATOM     12  C   UNL     1       0.828   0.466  -3.356  1.00  0.00     0.000 C 
BRANCH  12  13
ATOM     13  C   UNL     1       0.386   1.509  -2.316  1.00  0.00     0.006 C 
BRANCH  13  14
ATOM     14  C   UNL     1      -0.963   2.148  -2.676  1.00  0.00     0.053 C 
BRANCH  14  15
ATOM     15  C   UNL     1      -2.061   1.678  -1.768  1.00  0.00     0.041 C 
ATOM     16  O   UNL     1      -1.840   0.771  -0.922  1.00  0.00    -0.550 OA
ATOM     17  O   UNL     1      -3.317   2.267  -1.829  1.00  0.00    -0.550 OA
ENDBRANCH  14  15
ENDBRANCH  13  14
ENDBRANCH  12  13
ENDBRANCH  11  12
ENDBRANCH  10  11
ENDBRANCH   9  10
ENDBRANCH   8   9
ENDBRANCH   7   8
ENDBRANCH   6   7
ENDBRANCH   5   6
ENDBRANCH   4   5
ENDBRANCH   3   4
ENDBRANCH   2   3
ENDBRANCH   1   2
BRANCH   1  18
ATOM     18  C   UNL     1       3.849  -6.626  -3.436  1.00  0.00     0.000 C 
BRANCH  18  19
ATOM     19  C   UNL     1       5.017  -6.134  -4.314  1.00  0.00     0.000 C 
BRANCH  19  20
ATOM     20  C   UNL     1       6.365  -6.131  -3.573  1.00  0.00     0.000 C 
BRANCH  20  21
ATOM     21  C   UNL     1       7.156  -4.826  -3.777  1.00  0.00     0.000 C 
BRANCH  21  22
ATOM     22  C   UNL     1       8.344  -4.615  -2.815  1.00  0.00     0.000 C 
BRANCH  22  23
ATOM     23  C   UNL     1       8.359  -3.270  -2.069  1.00  0.00     0.000 C 
BRANCH  23  24
ATOM     24  C   UNL     1       7.605  -2.159  -2.821  1.00  0.00    -0.000 C 
BRANCH  24  25
ATOM     25  C   UNL     1       7.657  -0.803  -2.095  1.00  0.00    -0.000 C 
BRANCH  25  26
ATOM     26  C   UNL     1       7.231   0.414  -2.940  1.00  0.00    -0.000 C 
BRANCH  26  27
ATOM     27  C   UNL     1       7.365   1.778  -2.242  1.00  0.00    -0.000 C 
BRANCH  27  28
ATOM     28  C   UNL     1       7.718   2.959  -3.168  1.00  0.00    -0.000 C 
BRANCH  28  29
ATOM     29  C   UNL     1       6.551   3.937  -3.410  1.00  0.00    -0.000 C 
BRANCH  29  30
ATOM     30  C   UNL     1       5.314   3.614  -2.553  1.00  0.00    -0.000 C 
BRANCH  30  31
ATOM     31  C   UNL     1       4.123   4.532  -2.865  1.00  0.00    -0.003 C 
ATOM     32  C   UNL     1       3.178   4.700  -1.674  1.00  0.00     0.004 C 
ENDBRANCH  30  31
ENDBRANCH  29  30
ENDBRANCH  28  29
ENDBRANCH  27  28
ENDBRANCH  26  27
ENDBRANCH  25  26
ENDBRANCH  24  25
ENDBRANCH  23  24
ENDBRANCH  22  23
ENDBRANCH  21  22
ENDBRANCH  20  21
ENDBRANCH  19  20
ENDBRANCH  18  19
ENDBRANCH   1  18
TORSDOF 28
ENDMDL
MODEL 6
REMARK VINA RESULT:    -3.248      1.442      4.813
REMARK INTER + INTRA:         -12.449
REMARK INTER:                  -8.094
REMARK INTRA:                  -4.355
REMARK UNBOUND:                -3.886
REMARK SMILES CCCCCCCCCCCCCCCCCCCCCCCCCCCCCC(=O)[O-]
REMARK SMILES IDX 16 1 17 2 18 3 19 4 20 5 21 6 22 7 23 8 24 9 25 10 26 11
REMARK SMILES IDX 27 12 28 13 29 14 30 15 31 16 32 17 15 18 14 19 13 20 12 21
REMARK SMILES IDX 11 22 10 23 9 24 8 25 7 26 6 27 5 28 4 29 3 30 2 31 1 32
REMARK H PARENT
REMARK Flexibility Score: inf
ROOT
ATOM      1  C   UNL     1       7.704   0.075  -2.029  1.00  0.00     0.000 C 
ENDROOT
BRANCH   1   2
ATOM      2  C   UNL     1       6.972   1.026  -2.991  1.00  0.00     0.000 C 
BRANCH   2   3
ATOM      3  C   UNL     1       6.696   0.384  -4.361  1.00  0.00     0.000 C 
BRANCH   3   4
ATOM      4  C   UNL     1       5.229   0.533  -4.802  1.00  0.00     0.000 C 
BRANCH   4   5
ATOM      5  C   UNL     1       4.788  -0.590  -5.756  1.00  0.00     0.000 C 
BRANCH   5   6
ATOM      6  C   UNL     1       5.880  -1.650  -5.968  1.00  0.00     0.000 C 
BRANCH   6   7
ATOM      7  C   UNL     1       5.263  -3.008  -6.339  1.00  0.00     0.000 C 
BRANCH   7   8
ATOM      8  C   UNL     1       4.248  -3.511  -5.294  1.00  0.00     0.000 C 
BRANCH   8   9
ATOM      9  C   UNL     1       2.778  -3.510  -5.753  1.00  0.00     0.000 C 
BRANCH   9  10
ATOM     10  C   UNL     1       1.763  -2.924  -4.750  1.00  0.00     0.000 C 
BRANCH  10  11
ATOM     11  C   UNL     1       1.115  -1.594  -5.196  1.00  0.00     0.000 C 
BRANCH  11  12
ATOM     12  C   UNL     1       1.648  -0.342  -4.478  1.00  0.00     0.000 C 
BRANCH  12  13
ATOM     13  C   UNL     1       0.551   0.443  -3.738  1.00  0.00     0.006 C 
BRANCH  13  14
ATOM     14  C   UNL     1       1.096   1.725  -3.091  1.00  0.00     0.053 C 
BRANCH  14  15
ATOM     15  C   UNL     1       0.231   2.184  -1.953  1.00  0.00     0.041 C 
ATOM     16  O   UNL     1      -0.926   1.709  -1.804  1.00  0.00    -0.550 OA
ATOM     17  O   UNL     1       0.716   3.108  -1.037  1.00  0.00    -0.550 OA
ENDBRANCH  14  15
ENDBRANCH  13  14
ENDBRANCH  12  13
ENDBRANCH  11  12
ENDBRANCH  10  11
ENDBRANCH   9  10
ENDBRANCH   8   9
ENDBRANCH   7   8
ENDBRANCH   6   7
ENDBRANCH   5   6
ENDBRANCH   4   5
ENDBRANCH   3   4
ENDBRANCH   2   3
ENDBRANCH   1   2
BRANCH   1  18
ATOM     18  C   UNL     1       7.649  -1.396  -2.484  1.00  0.00     0.000 C 
BRANCH  18  19
ATOM     19  C   UNL     1       8.520  -2.371  -1.669  1.00  0.00     0.000 C 
BRANCH  19  20
ATOM     20  C   UNL     1       8.408  -3.827  -2.154  1.00  0.00     0.000 C 
BRANCH  20  21
ATOM     21  C   UNL     1       7.412  -3.995  -3.316  1.00  0.00     0.000 C 
BRANCH  21  22
ATOM     22  C   UNL     1       7.870  -4.937  -4.449  1.00  0.00     0.000 C 
BRANCH  22  23
ATOM     23  C   UNL     1       6.915  -6.100  -4.768  1.00  0.00     0.000 C 
BRANCH  23  24
ATOM     24  C   UNL     1       5.846  -6.312  -3.681  1.00  0.00    -0.000 C 
BRANCH  24  25
ATOM     25  C   UNL     1       4.607  -7.063  -4.200  1.00  0.00    -0.000 C 
BRANCH  25  26
ATOM     26  C   UNL     1       3.266  -6.636  -3.571  1.00  0.00    -0.000 C 
BRANCH  26  27
ATOM     27  C   UNL     1       2.030  -7.401  -4.073  1.00  0.00    -0.000 C 
BRANCH  27  28
ATOM     28  C   UNL     1       0.672  -6.784  -3.687  1.00  0.00    -0.000 C 
BRANCH  28  29
ATOM     29  C   UNL     1      -0.095  -6.161  -4.871  1.00  0.00    -0.000 C 
BRANCH  29  30
ATOM     30  C   UNL     1       0.614  -6.378  -6.219  1.00  0.00    -0.000 C 
BRANCH  30  31
ATOM     31  C   UNL     1      -0.142  -5.737  -7.393  1.00  0.00    -0.003 C 
ATOM     32  C   UNL     1      -0.831  -4.428  -7.007  1.00  0.00     0.004 C 
ENDBRANCH  30  31
ENDBRANCH  29  30
ENDBRANCH  28  29
ENDBRANCH  27  28
ENDBRANCH  26  27
ENDBRANCH  25  26
ENDBRANCH  24  25
ENDBRANCH  23  24
ENDBRANCH  22  23
ENDBRANCH  21  22
ENDBRANCH  20  21
ENDBRANCH  19  20
ENDBRANCH  18  19
ENDBRANCH   1  18
TORSDOF 28
ENDMDL
MODEL 7
REMARK VINA RESULT:    -3.214      2.341      5.481
REMARK INTER + INTRA:         -12.360
REMARK INTER:                  -7.051
REMARK INTRA:                  -5.309
REMARK UNBOUND:                -3.886
REMARK SMILES CCCCCCCCCCCCCCCCCCCCCCCCCCCCCC(=O)[O-]
REMARK SMILES IDX 16 1 17 2 18 3 19 4 20 5 21 6 22 7 23 8 24 9 25 10 26 11
REMARK SMILES IDX 27 12 28 13 29 14 30 15 31 16 32 17 15 18 14 19 13 20 12 21
REMARK SMILES IDX 11 22 10 23 9 24 8 25 7 26 6 27 5 28 4 29 3 30 2 31 1 32
REMARK H PARENT
REMARK Flexibility Score: inf
ROOT
ATOM      1  C   UNL     1       4.910  -4.361  -5.118  1.00  0.00     0.000 C 
ENDROOT
BRANCH   1   2
ATOM      2  C   UNL     1       6.039  -3.456  -4.598  1.00  0.00     0.000 C 
BRANCH   2   3
ATOM      3  C   UNL     1       7.180  -4.251  -3.942  1.00  0.00     0.000 C 
BRANCH   3   4
ATOM      4  C   UNL     1       8.121  -3.362  -3.109  1.00  0.00     0.000 C 
BRANCH   4   5
ATOM      5  C   UNL     1       7.494  -1.998  -2.775  1.00  0.00     0.000 C 
BRANCH   5   6
ATOM      6  C   UNL     1       8.192  -1.298  -1.599  1.00  0.00     0.000 C 
BRANCH   6   7
ATOM      7  C   UNL     1       7.942   0.218  -1.634  1.00  0.00     0.000 C 
BRANCH   7   8
ATOM      8  C   UNL     1       7.062   0.653  -2.824  1.00  0.00     0.000 C 
BRANCH   8   9
ATOM      9  C   UNL     1       6.723   2.154  -2.874  1.00  0.00     0.000 C 
BRANCH   9  10
ATOM     10  C   UNL     1       6.418   2.725  -4.275  1.00  0.00     0.000 C 
BRANCH  10  11
ATOM     11  C   UNL     1       5.028   3.385  -4.410  1.00  0.00     0.000 C 
BRANCH  11  12
ATOM     12  C   UNL     1       4.291   3.619  -3.081  1.00  0.00     0.000 C 
BRANCH  12  13
ATOM     13  C   UNL     1       2.760   3.633  -3.233  1.00  0.00     0.006 C 
BRANCH  13  14
ATOM     14  C   UNL     1       2.119   4.828  -2.513  1.00  0.00     0.053 C 
BRANCH  14  15
ATOM     15  C   UNL     1       2.470   4.853  -1.054  1.00  0.00     0.041 C 
ATOM     16  O   UNL     1       2.006   3.978  -0.275  1.00  0.00    -0.550 OA
ATOM     17  O   UNL     1       3.341   5.816  -0.562  1.00  0.00    -0.550 OA
ENDBRANCH  14  15
ENDBRANCH  13  14
ENDBRANCH  12  13
ENDBRANCH  11  12
ENDBRANCH  10  11
ENDBRANCH   9  10
ENDBRANCH   8   9
ENDBRANCH   7   8
ENDBRANCH   6   7
ENDBRANCH   5   6
ENDBRANCH   4   5
ENDBRANCH   3   4
ENDBRANCH   2   3
ENDBRANCH   1   2
BRANCH   1  18
ATOM     18  C   UNL     1       3.838  -3.586  -5.908  1.00  0.00     0.000 C 
BRANCH  18  19
ATOM     19  C   UNL     1       2.473  -3.448  -5.206  1.00  0.00     0.000 C 
BRANCH  19  20
ATOM     20  C   UNL     1       1.730  -2.156  -5.586  1.00  0.00     0.000 C 
BRANCH  20  21
ATOM     21  C   UNL     1       1.793  -1.084  -4.483  1.00  0.00     0.000 C 
BRANCH  21  22
ATOM     22  C   UNL     1       2.573   0.197  -4.848  1.00  0.00     0.000 C 
BRANCH  22  23
ATOM     23  C   UNL     1       4.068  -0.004  -5.152  1.00  0.00     0.000 C 
BRANCH  23  24
ATOM     24  C   UNL     1       4.388   0.063  -6.655  1.00  0.00    -0.000 C 
BRANCH  24  25
ATOM     25  C   UNL     1       5.671  -0.700  -7.028  1.00  0.00    -0.000 C 
BRANCH  25  26
ATOM     26  C   UNL     1       6.965  -0.172  -6.376  1.00  0.00    -0.000 C 
BRANCH  26  27
ATOM     27  C   UNL     1       8.273  -0.717  -6.974  1.00  0.00    -0.000 C 
BRANCH  27  28
ATOM     28  C   UNL     1       9.057  -1.687  -6.069  1.00  0.00    -0.000 C 
BRANCH  28  29
ATOM     29  C   UNL     1      10.457  -1.181  -5.668  1.00  0.00    -0.000 C 
BRANCH  29  30
ATOM     30  C   UNL     1      10.450  -0.394  -4.346  1.00  0.00    -0.000 C 
BRANCH  30  31
ATOM     31  C   UNL     1      11.131   0.978  -4.472  1.00  0.00    -0.003 C 
ATOM     32  C   UNL     1      10.484   2.043  -3.585  1.00  0.00     0.004 C 
ENDBRANCH  30  31
ENDBRANCH  29  30
ENDBRANCH  28  29
ENDBRANCH  27  28
ENDBRANCH  26  27
ENDBRANCH  25  26
ENDBRANCH  24  25
ENDBRANCH  23  24
ENDBRANCH  22  23
ENDBRANCH  21  22
ENDBRANCH  20  21
ENDBRANCH  19  20
ENDBRANCH  18  19
ENDBRANCH   1  18
TORSDOF 28
ENDMDL
MODEL 8
REMARK VINA RESULT:    -3.206      4.202      7.091
REMARK INTER + INTRA:         -12.341
REMARK INTER:                  -7.317
REMARK INTRA:                  -5.024
REMARK UNBOUND:                -3.886
REMARK SMILES CCCCCCCCCCCCCCCCCCCCCCCCCCCCCC(=O)[O-]
REMARK SMILES IDX 16 1 17 2 18 3 19 4 20 5 21 6 22 7 23 8 24 9 25 10 26 11
REMARK SMILES IDX 27 12 28 13 29 14 30 15 31 16 32 17 15 18 14 19 13 20 12 21
REMARK SMILES IDX 11 22 10 23 9 24 8 25 7 26 6 27 5 28 4 29 3 30 2 31 1 32
REMARK H PARENT
REMARK Flexibility Score: inf
ROOT
ATOM      1  C   UNL     1       8.758  -2.042   2.084  1.00  0.00     0.000 C 
ENDROOT
BRANCH   1   2
ATOM      2  C   UNL     1       8.761  -1.484   0.651  1.00  0.00     0.000 C 
BRANCH   2   3
ATOM      3  C   UNL     1      10.058  -0.731   0.314  1.00  0.00     0.000 C 
BRANCH   3   4
ATOM      4  C   UNL     1      11.055  -0.710   1.486  1.00  0.00     0.000 C 
BRANCH   4   5
ATOM      5  C   UNL     1      11.804   0.629   1.594  1.00  0.00     0.000 C 
BRANCH   5   6
ATOM      6  C   UNL     1      11.716   1.246   2.999  1.00  0.00     0.000 C 
BRANCH   6   7
ATOM      7  C   UNL     1      10.736   0.460   3.884  1.00  0.00     0.000 C 
BRANCH   7   8
ATOM      8  C   UNL     1       9.788   1.373   4.687  1.00  0.00     0.000 C 
BRANCH   8   9
ATOM      9  C   UNL     1       8.289   1.182   4.394  1.00  0.00     0.000 C 
BRANCH   9  10
ATOM     10  C   UNL     1       7.871   1.327   2.916  1.00  0.00     0.000 C 
BRANCH  10  11
ATOM     11  C   UNL     1       8.014   2.755   2.347  1.00  0.00     0.000 C 
BRANCH  11  12
ATOM     12  C   UNL     1       8.911   2.871   1.104  1.00  0.00     0.000 C 
BRANCH  12  13
ATOM     13  C   UNL     1       8.218   2.407  -0.189  1.00  0.00     0.006 C 
BRANCH  13  14
ATOM     14  C   UNL     1       7.964   3.570  -1.158  1.00  0.00     0.053 C 
BRANCH  14  15
ATOM     15  C   UNL     1       6.526   4.000  -1.147  1.00  0.00     0.041 C 
ATOM     16  O   UNL     1       5.820   3.879  -2.183  1.00  0.00    -0.550 OA
ATOM     17  O   UNL     1       5.956   4.497   0.017  1.00  0.00    -0.550 OA
ENDBRANCH  14  15
ENDBRANCH  13  14
ENDBRANCH  12  13
ENDBRANCH  11  12
ENDBRANCH  10  11
ENDBRANCH   9  10
ENDBRANCH   8   9
ENDBRANCH   7   8
ENDBRANCH   6   7
ENDBRANCH   5   6
ENDBRANCH   4   5
ENDBRANCH   3   4
ENDBRANCH   2   3
ENDBRANCH   1   2
BRANCH   1  18
ATOM     18  C   UNL     1       8.656  -3.579   2.128  1.00  0.00     0.000 C 
BRANCH  18  19
ATOM     19  C   UNL     1       9.013  -4.301   0.814  1.00  0.00     0.000 C 
BRANCH  19  20
ATOM     20  C   UNL     1      10.527  -4.498   0.629  1.00  0.00     0.000 C 
BRANCH  20  21
ATOM     21  C   UNL     1      10.993  -4.226  -0.813  1.00  0.00     0.000 C 
BRANCH  21  22
ATOM     22  C   UNL     1       9.936  -4.481  -1.909  1.00  0.00     0.000 C 
BRANCH  22  23
ATOM     23  C   UNL     1       9.386  -3.222  -2.602  1.00  0.00     0.000 C 
BRANCH  23  24
ATOM     24  C   UNL     1       7.848  -3.164  -2.602  1.00  0.00    -0.000 C 
BRANCH  24  25
ATOM     25  C   UNL     1       7.298  -1.915  -3.314  1.00  0.00    -0.000 C 
BRANCH  25  26
ATOM     26  C   UNL     1       7.507  -0.583  -2.565  1.00  0.00    -0.000 C 
BRANCH  26  27
ATOM     27  C   UNL     1       6.763   0.627  -3.155  1.00  0.00    -0.000 C 
BRANCH  27  28
ATOM     28  C   UNL     1       6.013   0.358  -4.474  1.00  0.00    -0.000 C 
BRANCH  28  29
ATOM     29  C   UNL     1       4.799   1.281  -4.706  1.00  0.00    -0.000 C 
BRANCH  29  30
ATOM     30  C   UNL     1       3.753   0.662  -5.650  1.00  0.00    -0.000 C 
BRANCH  30  31
ATOM     31  C   UNL     1       2.988  -0.502  -5.002  1.00  0.00    -0.003 C 
ATOM     32  C   UNL     1       1.653  -0.067  -4.395  1.00  0.00     0.004 C 
ENDBRANCH  30  31
ENDBRANCH  29  30
ENDBRANCH  28  29
ENDBRANCH  27  28
ENDBRANCH  26  27
ENDBRANCH  25  26
ENDBRANCH  24  25
ENDBRANCH  23  24
ENDBRANCH  22  23
ENDBRANCH  21  22
ENDBRANCH  20  21
ENDBRANCH  19  20
ENDBRANCH  18  19
ENDBRANCH   1  18
TORSDOF 28
ENDMDL
MODEL 9
REMARK VINA RESULT:    -3.191      1.366      3.783
REMARK INTER + INTRA:         -12.301
REMARK INTER:                  -7.903
REMARK INTRA:                  -4.398
REMARK UNBOUND:                -3.886
REMARK SMILES CCCCCCCCCCCCCCCCCCCCCCCCCCCCCC(=O)[O-]
REMARK SMILES IDX 16 1 17 2 18 3 19 4 20 5 21 6 22 7 23 8 24 9 25 10 26 11
REMARK SMILES IDX 27 12 28 13 29 14 30 15 31 16 32 17 15 18 14 19 13 20 12 21
REMARK SMILES IDX 11 22 10 23 9 24 8 25 7 26 6 27 5 28 4 29 3 30 2 31 1 32
REMARK H PARENT
REMARK Flexibility Score: inf
ROOT
ATOM      1  C   UNL     1       7.231  -4.476  -3.589  1.00  0.00     0.000 C 
ENDROOT
BRANCH   1   2
ATOM      2  C   UNL     1       7.963  -3.306  -2.911  1.00  0.00     0.000 C 
BRANCH   2   3
ATOM      3  C   UNL     1       7.251  -1.960  -3.124  1.00  0.00     0.000 C 
BRANCH   3   4
ATOM      4  C   UNL     1       7.922  -0.805  -2.358  1.00  0.00     0.000 C 
BRANCH   4   5
ATOM      5  C   UNL     1       7.145   0.515  -2.491  1.00  0.00     0.000 C 
BRANCH   5   6
ATOM      6  C   UNL     1       8.059   1.711  -2.803  1.00  0.00     0.000 C 
BRANCH   6   7
ATOM      7  C   UNL     1       7.237   2.927  -3.258  1.00  0.00     0.000 C 
BRANCH   7   8
ATOM      8  C   UNL     1       5.720   2.650  -3.285  1.00  0.00     0.000 C 
BRANCH   8   9
ATOM      9  C   UNL     1       4.823   3.894  -3.143  1.00  0.00     0.000 C 
BRANCH   9  10
ATOM     10  C   UNL     1       3.353   3.711  -3.572  1.00  0.00     0.000 C 
BRANCH  10  11
ATOM     11  C   UNL     1       3.070   2.409  -4.354  1.00  0.00     0.000 C 
BRANCH  11  12
ATOM     12  C   UNL     1       1.580   2.089  -4.561  1.00  0.00     0.000 C 
BRANCH  12  13
ATOM     13  C   UNL     1       0.898   1.538  -3.296  1.00  0.00     0.006 C 
BRANCH  13  14
ATOM     14  C   UNL     1      -0.238   2.450  -2.809  1.00  0.00     0.053 C 
BRANCH  14  15
ATOM     15  C   UNL     1      -1.438   1.661  -2.375  1.00  0.00     0.041 C 
ATOM     16  O   UNL     1      -2.463   1.611  -3.106  1.00  0.00    -0.550 OA
ATOM     17  O   UNL     1      -1.411   0.949  -1.183  1.00  0.00    -0.550 OA
ENDBRANCH  14  15
ENDBRANCH  13  14
ENDBRANCH  12  13
ENDBRANCH  11  12
ENDBRANCH  10  11
ENDBRANCH   9  10
ENDBRANCH   8   9
ENDBRANCH   7   8
ENDBRANCH   6   7
ENDBRANCH   5   6
ENDBRANCH   4   5
ENDBRANCH   3   4
ENDBRANCH   2   3
ENDBRANCH   1   2
BRANCH   1  18
ATOM     18  C   UNL     1       6.188  -4.010  -4.623  1.00  0.00     0.000 C 
BRANCH  18  19
ATOM     19  C   UNL     1       5.010  -4.977  -4.852  1.00  0.00     0.000 C 
BRANCH  19  20
ATOM     20  C   UNL     1       5.045  -6.199  -3.918  1.00  0.00     0.000 C 
BRANCH  20  21
ATOM     21  C   UNL     1       3.642  -6.671  -3.499  1.00  0.00     0.000 C 
BRANCH  21  22
ATOM     22  C   UNL     1       2.580  -6.668  -4.618  1.00  0.00     0.000 C 
BRANCH  22  23
ATOM     23  C   UNL     1       1.326  -5.821  -4.339  1.00  0.00     0.000 C 
BRANCH  23  24
ATOM     24  C   UNL     1       1.144  -4.671  -5.346  1.00  0.00    -0.000 C 
BRANCH  24  25
ATOM     25  C   UNL     1       1.687  -3.329  -4.825  1.00  0.00    -0.000 C 
BRANCH  25  26
ATOM     26  C   UNL     1       2.431  -2.470  -5.868  1.00  0.00    -0.000 C 
BRANCH  26  27
ATOM     27  C   UNL     1       3.136  -1.222  -5.309  1.00  0.00    -0.000 C 
BRANCH  27  28
ATOM     28  C   UNL     1       4.071  -0.497  -6.297  1.00  0.00    -0.000 C 
BRANCH  28  29
ATOM     29  C   UNL     1       5.537  -0.408  -5.825  1.00  0.00    -0.000 C 
BRANCH  29  30
ATOM     30  C   UNL     1       6.239   0.874  -6.305  1.00  0.00    -0.000 C 
BRANCH  30  31
ATOM     31  C   UNL     1       7.761   0.704  -6.425  1.00  0.00    -0.003 C 
ATOM     32  C   UNL     1       8.203  -0.756  -6.310  1.00  0.00     0.004 C 
ENDBRANCH  30  31
ENDBRANCH  29  30
ENDBRANCH  28  29
ENDBRANCH  27  28
ENDBRANCH  26  27
ENDBRANCH  25  26
ENDBRANCH  24  25
ENDBRANCH  23  24
ENDBRANCH  22  23
ENDBRANCH  21  22
ENDBRANCH  20  21
ENDBRANCH  19  20
ENDBRANCH  18  19
ENDBRANCH   1  18
TORSDOF 28
ENDMDL
