MODEL 1
REMARK VINA RESULT:    -4.777      0.000      0.000
REMARK INTER + INTRA:          -4.777
REMARK INTER:                  -4.777
REMARK INTRA:                   0.000
REMARK UNBOUND:                 0.000
REMARK SMILES O=c1ccc2ccccc2o1
REMARK SMILES IDX 7 1 8 2 9 3 10 4 5 5 6 6 4 7 3 8 2 9 1 10 11 11
REMARK H PARENT
REMARK Flexibility Score: inf
ROOT
ATOM      1  C   UNL     1      27.599   5.247  29.605  1.00  0.00     0.001 A 
ATOM      2  C   UNL     1      28.010   5.231  30.942  1.00  0.00     0.004 A 
ATOM      3  C   UNL     1      28.193   4.015  31.608  1.00  0.00     0.048 A 
ATOM      4  C   UNL     1      27.965   2.808  30.938  1.00  0.00     0.138 A 
ATOM      5  C   UNL     1      27.550   2.823  29.588  1.00  0.00     0.018 A 
ATOM      6  C   UNL     1      27.370   4.045  28.925  1.00  0.00     0.012 A 
ATOM      7  C   UNL     1      27.331   1.600  28.944  1.00  0.00     0.019 A 
ATOM      8  C   UNL     1      27.526   0.413  29.648  1.00  0.00     0.094 A 
ATOM      9  C   UNL     1      27.937   0.475  30.984  1.00  0.00     0.336 A 
ATOM     10  O   UNL     1      28.118  -0.586  31.636  1.00  0.00    -0.246 OA
ATOM     11  O   UNL     1      28.139   1.651  31.573  1.00  0.00    -0.423 OA
ENDROOT
TORSDOF 0
ENDMDL
MODEL 2
REMARK VINA RESULT:    -4.764      1.513      2.293
REMARK INTER + INTRA:          -4.764
REMARK INTER:                  -4.764
REMARK INTRA:                   0.000
REMARK UNBOUND:                 0.000
REMARK SMILES O=c1ccc2ccccc2o1
REMARK SMILES IDX 7 1 8 2 9 3 10 4 5 5 6 6 4 7 3 8 2 9 1 10 11 11
REMARK H PARENT
REMARK Flexibility Score: inf
ROOT
ATOM      1  C   UNL     1      28.331   5.490  31.115  1.00  0.00     0.001 A 
ATOM      2  C   UNL     1      27.895   5.699  29.803  1.00  0.00     0.004 A 
ATOM      3  C   UNL     1      27.455   4.622  29.027  1.00  0.00     0.048 A 
ATOM      4  C   UNL     1      27.450   3.329  29.561  1.00  0.00     0.138 A 
ATOM      5  C   UNL     1      27.892   3.117  30.886  1.00  0.00     0.018 A 
ATOM      6  C   UNL     1      28.331   4.201  31.660  1.00  0.00     0.012 A 
ATOM      7  C   UNL     1      27.876   1.813  31.393  1.00  0.00     0.019 A 
ATOM      8  C   UNL     1      27.430   0.770  30.583  1.00  0.00     0.094 A 
ATOM      9  C   UNL     1      27.007   1.055  29.280  1.00  0.00     0.336 A 
ATOM     10  O   UNL     1      26.601   0.127  28.533  1.00  0.00    -0.246 OA
ATOM     11  O   UNL     1      27.032   2.305  28.821  1.00  0.00    -0.423 OA
ENDROOT
TORSDOF 0
ENDMDL
MODEL 3
REMARK VINA RESULT:    -4.740      3.174      5.911
REMARK INTER + INTRA:          -4.740
REMARK INTER:                  -4.740
REMARK INTRA:                   0.000
REMARK UNBOUND:                 0.000
REMARK SMILES O=c1ccc2ccccc2o1
REMARK SMILES IDX 7 1 8 2 9 3 10 4 5 5 6 6 4 7 3 8 2 9 1 10 11 11
REMARK H PARENT
REMARK Flexibility Score: inf
ROOT
ATOM      1  C   UNL     1      29.169  -4.423  29.845  1.00  0.00     0.001 A 
ATOM      2  C   UNL     1      27.923  -4.553  30.468  1.00  0.00     0.004 A 
ATOM      3  C   UNL     1      27.239  -3.420  30.917  1.00  0.00     0.048 A 
ATOM      4  C   UNL     1      27.799  -2.149  30.746  1.00  0.00     0.138 A 
ATOM      5  C   UNL     1      29.057  -2.017  30.118  1.00  0.00     0.018 A 
ATOM      6  C   UNL     1      29.738  -3.157  29.668  1.00  0.00     0.012 A 
ATOM      7  C   UNL     1      29.592  -0.733  29.961  1.00  0.00     0.019 A 
ATOM      8  C   UNL     1      28.874   0.368  30.425  1.00  0.00     0.094 A 
ATOM      9  C   UNL     1      27.634   0.161  31.038  1.00  0.00     0.336 A 
ATOM     10  O   UNL     1      26.971   1.142  31.464  1.00  0.00    -0.246 OA
ATOM     11  O   UNL     1      27.147  -1.071  31.175  1.00  0.00    -0.423 OA
ENDROOT
TORSDOF 0
ENDMDL
MODEL 4
REMARK VINA RESULT:    -4.698      3.496      6.205
REMARK INTER + INTRA:          -4.698
REMARK INTER:                  -4.698
REMARK INTRA:                   0.000
REMARK UNBOUND:                 0.000
REMARK SMILES O=c1ccc2ccccc2o1
REMARK SMILES IDX 7 1 8 2 9 3 10 4 5 5 6 6 4 7 3 8 2 9 1 10 11 11
REMARK H PARENT
REMARK Flexibility Score: inf
ROOT
ATOM      1  C   UNL     1      27.751  -4.679  30.394  1.00  0.00     0.001 A 
ATOM      2  C   UNL     1      29.011  -4.742  29.788  1.00  0.00     0.004 A 
ATOM      3  C   UNL     1      29.777  -3.582  29.636  1.00  0.00     0.048 A 
ATOM      4  C   UNL     1      29.286  -2.353  30.088  1.00  0.00     0.138 A 
ATOM      5  C   UNL     1      28.014  -2.288  30.699  1.00  0.00     0.018 A 
ATOM      6  C   UNL     1      27.251  -3.455  30.851  1.00  0.00     0.012 A 
ATOM      7  C   UNL     1      27.549  -1.045  31.142  1.00  0.00     0.019 A 
ATOM      8  C   UNL     1      28.348   0.084  30.969  1.00  0.00     0.094 A 
ATOM      9  C   UNL     1      29.598  -0.055  30.354  1.00  0.00     0.336 A 
ATOM     10  O   UNL     1      30.333   0.953  30.188  1.00  0.00    -0.246 OA
ATOM     11  O   UNL     1      30.016  -1.250  29.942  1.00  0.00    -0.423 OA
ENDROOT
TORSDOF 0
ENDMDL
MODEL 5
REMARK VINA RESULT:    -4.687      1.946      4.343
REMARK INTER + INTRA:          -4.687
REMARK INTER:                  -4.687
REMARK INTRA:                   0.000
REMARK UNBOUND:                 0.000
REMARK SMILES O=c1ccc2ccccc2o1
REMARK SMILES IDX 7 1 8 2 9 3 10 4 5 5 6 6 4 7 3 8 2 9 1 10 11 11
REMARK H PARENT
REMARK Flexibility Score: inf
ROOT
ATOM      1  C   UNL     1      29.507  -0.147  31.105  1.00  0.00     0.001 A 
ATOM      2  C   UNL     1      29.087  -0.233  29.774  1.00  0.00     0.004 A 
ATOM      3  C   UNL     1      28.503   0.872  29.147  1.00  0.00     0.048 A 
ATOM      4  C   UNL     1      28.336   2.070  29.851  1.00  0.00     0.138 A 
ATOM      5  C   UNL     1      28.760   2.157  31.196  1.00  0.00     0.018 A 
ATOM      6  C   UNL     1      29.347   1.046  31.818  1.00  0.00     0.012 A 
ATOM      7  C   UNL     1      28.581   3.368  31.874  1.00  0.00     0.019 A 
ATOM      8  C   UNL     1      27.994   4.443  31.209  1.00  0.00     0.094 A 
ATOM      9  C   UNL     1      27.598   4.284  29.876  1.00  0.00     0.336 A 
ATOM     10  O   UNL     1      27.065   5.243  29.259  1.00  0.00    -0.246 OA
ATOM     11  O   UNL     1      27.780   3.121  29.254  1.00  0.00    -0.423 OA
ENDROOT
TORSDOF 0
ENDMDL
MODEL 6
REMARK VINA RESULT:    -4.659      2.992      4.291
REMARK INTER + INTRA:          -4.659
REMARK INTER:                  -4.659
REMARK INTRA:                   0.000
REMARK UNBOUND:                 0.000
REMARK SMILES O=c1ccc2ccccc2o1
REMARK SMILES IDX 7 1 8 2 9 3 10 4 5 5 6 6 4 7 3 8 2 9 1 10 11 11
REMARK H PARENT
REMARK Flexibility Score: inf
ROOT
ATOM      1  C   UNL     1      29.191   1.305  30.775  1.00  0.00     0.001 A 
ATOM      2  C   UNL     1      27.904   1.184  31.308  1.00  0.00     0.004 A 
ATOM      3  C   UNL     1      27.279  -0.065  31.363  1.00  0.00     0.048 A 
ATOM      4  C   UNL     1      27.940  -1.201  30.883  1.00  0.00     0.138 A 
ATOM      5  C   UNL     1      29.239  -1.080  30.343  1.00  0.00     0.018 A 
ATOM      6  C   UNL     1      29.862   0.175  30.292  1.00  0.00     0.012 A 
ATOM      7  C   UNL     1      29.875  -2.233  29.871  1.00  0.00     0.019 A 
ATOM      8  C   UNL     1      29.213  -3.458  29.945  1.00  0.00     0.094 A 
ATOM      9  C   UNL     1      27.926  -3.502  30.492  1.00  0.00     0.336 A 
ATOM     10  O   UNL     1      27.312  -4.598  30.567  1.00  0.00    -0.246 OA
ATOM     11  O   UNL     1      27.343  -2.390  30.934  1.00  0.00    -0.423 OA
ENDROOT
TORSDOF 0
ENDMDL
MODEL 7
REMARK VINA RESULT:    -4.657      3.196      4.046
REMARK INTER + INTRA:          -4.657
REMARK INTER:                  -4.657
REMARK INTRA:                   0.000
REMARK UNBOUND:                 0.000
REMARK SMILES O=c1ccc2ccccc2o1
REMARK SMILES IDX 7 1 8 2 9 3 10 4 5 5 6 6 4 7 3 8 2 9 1 10 11 11
REMARK H PARENT
REMARK Flexibility Score: inf
ROOT
ATOM      1  C   UNL     1      25.622   0.256  30.010  1.00  0.00     0.001 A 
ATOM      2  C   UNL     1      26.149   0.246  28.715  1.00  0.00     0.004 A 
ATOM      3  C   UNL     1      27.534   0.253  28.518  1.00  0.00     0.048 A 
ATOM      4  C   UNL     1      28.398   0.272  29.618  1.00  0.00     0.138 A 
ATOM      5  C   UNL     1      27.867   0.283  30.927  1.00  0.00     0.018 A 
ATOM      6  C   UNL     1      26.478   0.274  31.118  1.00  0.00     0.012 A 
ATOM      7  C   UNL     1      28.755   0.302  32.007  1.00  0.00     0.019 A 
ATOM      8  C   UNL     1      30.128   0.309  31.763  1.00  0.00     0.094 A 
ATOM      9  C   UNL     1      30.583   0.299  30.439  1.00  0.00     0.336 A 
ATOM     10  O   UNL     1      31.818   0.306  30.199  1.00  0.00    -0.246 OA
ATOM     11  O   UNL     1      29.716   0.281  29.429  1.00  0.00    -0.423 OA
ENDROOT
TORSDOF 0
ENDMDL
MODEL 8
REMARK VINA RESULT:    -4.656      2.837      3.931
REMARK INTER + INTRA:          -4.656
REMARK INTER:                  -4.656
REMARK INTRA:                   0.000
REMARK UNBOUND:                 0.000
REMARK SMILES O=c1ccc2ccccc2o1
REMARK SMILES IDX 7 1 8 2 9 3 10 4 5 5 6 6 4 7 3 8 2 9 1 10 11 11
REMARK H PARENT
REMARK Flexibility Score: inf
ROOT
ATOM      1  C   UNL     1      27.769   1.625  31.513  1.00  0.00     0.001 A 
ATOM      2  C   UNL     1      29.096   1.784  31.101  1.00  0.00     0.004 A 
ATOM      3  C   UNL     1      29.816   0.691  30.608  1.00  0.00     0.048 A 
ATOM      4  C   UNL     1      29.210  -0.568  30.526  1.00  0.00     0.138 A 
ATOM      5  C   UNL     1      27.870  -0.729  30.943  1.00  0.00     0.018 A 
ATOM      6  C   UNL     1      27.153   0.370  31.435  1.00  0.00     0.012 A 
ATOM      7  C   UNL     1      27.292  -2.000  30.849  1.00  0.00     0.019 A 
ATOM      8  C   UNL     1      28.048  -3.060  30.352  1.00  0.00     0.094 A 
ATOM      9  C   UNL     1      29.370  -2.826  29.958  1.00  0.00     0.336 A 
ATOM     10  O   UNL     1      30.069  -3.770  29.507  1.00  0.00    -0.246 OA
ATOM     11  O   UNL     1      29.897  -1.607  30.057  1.00  0.00    -0.423 OA
ENDROOT
TORSDOF 0
ENDMDL
MODEL 9
REMARK VINA RESULT:    -4.655      1.424      3.801
REMARK INTER + INTRA:          -4.655
REMARK INTER:                  -4.655
REMARK INTRA:                   0.000
REMARK UNBOUND:                 0.000
REMARK SMILES O=c1ccc2ccccc2o1
REMARK SMILES IDX 7 1 8 2 9 3 10 4 5 5 6 6 4 7 3 8 2 9 1 10 11 11
REMARK H PARENT
REMARK Flexibility Score: inf
ROOT
ATOM      1  C   UNL     1      26.894  -0.512  29.631  1.00  0.00     0.001 A 
ATOM      2  C   UNL     1      27.336  -0.505  30.958  1.00  0.00     0.004 A 
ATOM      3  C   UNL     1      27.729   0.693  31.563  1.00  0.00     0.048 A 
ATOM      4  C   UNL     1      27.682   1.891  30.842  1.00  0.00     0.138 A 
ATOM      5  C   UNL     1      27.236   1.884  29.501  1.00  0.00     0.018 A 
ATOM      6  C   UNL     1      26.842   0.680  28.900  1.00  0.00     0.012 A 
ATOM      7  C   UNL     1      27.200   3.098  28.805  1.00  0.00     0.019 A 
ATOM      8  C   UNL     1      27.601   4.267  29.449  1.00  0.00     0.094 A 
ATOM      9  C   UNL     1      28.031   4.197  30.778  1.00  0.00     0.336 A 
ATOM     10  O   UNL     1      28.398   5.242  31.376  1.00  0.00    -0.246 OA
ATOM     11  O   UNL     1      28.057   3.030  31.418  1.00  0.00    -0.423 OA
ENDROOT
TORSDOF 0
ENDMDL
