MODEL 1
REMARK VINA RESULT:    -6.817      0.000      0.000
REMARK INTER + INTRA:         -13.536
REMARK INTER:                 -11.798
REMARK INTRA:                  -1.738
REMARK UNBOUND:                -1.738
REMARK SMILES OC[C@@H]1O[C@H](O[C@H]2[C@H](O)[C@H](O)[C@H](O)O[C@@H]2CO)[C@@H](O)[C@H](O)[C@@H]1O[C@H]1O[C@H](CO)[C@H](O)[C@H](O)[C@H]1O
REMARK SMILES IDX 22 1 3 2 4 3 5 4 18 5 20 6 23 7 24 8 26 9 29 10 25 11 31 12
REMARK SMILES IDX 33 13 27 14 28 15 30 17 32 19 34 21 2 23 1 24 21 26 19 28
REMARK SMILES IDX 6 30 7 31 15 32 8 33 14 34 10 35 12 36 16 37 17 38 9 40
REMARK SMILES IDX 11 42 13 44
REMARK H PARENT 28 16 30 18 32 20 34 22 1 25 21 27 19 29 17 39 9 41 11 43
REMARK H PARENT 13 45
REMARK Flexibility Score: inf
ROOT
ATOM      1  C   UNL     1      36.363   3.331  41.940  1.00  0.00     0.184 C 
ATOM      2  C   UNL     1      36.906   4.391  40.902  1.00  0.00     0.178 C 
ATOM      3  O   UNL     1      37.920   5.235  41.436  1.00  0.00    -0.341 OA
ATOM      4  C   UNL     1      37.713   5.525  42.813  1.00  0.00     0.282 C 
ATOM      5  C   UNL     1      38.103   4.266  43.613  1.00  0.00     0.202 C 
ATOM      6  C   UNL     1      37.426   2.998  43.018  1.00  0.00     0.180 C 
ENDROOT
BRANCH   1   7
ATOM      7  O   UNL     1      35.935   2.125  41.310  1.00  0.00    -0.341 OA
BRANCH   7   8
ATOM      8  C   UNL     1      34.592   1.707  41.581  1.00  0.00     0.282 C 
ATOM      9  C   UNL     1      32.698   1.905  42.983  1.00  0.00     0.178 C 
ATOM     10  C   UNL     1      31.725   1.640  41.782  1.00  0.00     0.177 C 
ATOM     11  O   UNL     1      33.938   2.478  42.580  1.00  0.00    -0.341 OA
ATOM     12  C   UNL     1      32.399   1.076  40.502  1.00  0.00     0.179 C 
ATOM     13  C   UNL     1      33.781   1.702  40.278  1.00  0.00     0.202 C 
BRANCH   9  14
ATOM     14  C   UNL     1      32.929   0.781  44.043  1.00  0.00     0.191 C 
BRANCH  14  15
ATOM     15  O   UNL     1      31.752   0.400  44.694  1.00  0.00    -0.394 OA
ATOM     16  H   UNL     1      31.474   1.180  45.259  1.00  0.00     0.210 HD
ENDBRANCH  14  15
ENDBRANCH   9  14
BRANCH  10  17
ATOM     17  O   UNL     1      30.644   0.828  42.154  1.00  0.00    -0.387 OA
ATOM     18  H   UNL     1      30.325   0.373  41.326  1.00  0.00     0.211 HD
ENDBRANCH  10  17
BRANCH  12  19
ATOM     19  O   UNL     1      32.473  -0.328  40.501  1.00  0.00    -0.387 OA
ATOM     20  H   UNL     1      32.185  -0.671  39.615  1.00  0.00     0.211 HD
ENDBRANCH  12  19
BRANCH  13  21
ATOM     21  O   UNL     1      33.639   3.016  39.807  1.00  0.00    -0.385 OA
ATOM     22  H   UNL     1      33.185   2.963  38.922  1.00  0.00     0.211 HD
ENDBRANCH  13  21
ENDBRANCH   7   8
ENDBRANCH   1   7
BRANCH   2  23
ATOM     23  C   UNL     1      37.451   3.793  39.590  1.00  0.00     0.191 C 
BRANCH  23  24
ATOM     24  O   UNL     1      36.400   3.379  38.766  1.00  0.00    -0.394 OA
ATOM     25  H   UNL     1      36.194   2.448  39.032  1.00  0.00     0.210 HD
ENDBRANCH  23  24
ENDBRANCH   2  23
BRANCH   6  26
ATOM     26  O   UNL     1      38.383   2.085  42.523  1.00  0.00    -0.387 OA
ATOM     27  H   UNL     1      38.758   2.461  41.681  1.00  0.00     0.211 HD
ENDBRANCH   6  26
BRANCH   5  28
ATOM     28  O   UNL     1      37.746   4.437  44.955  1.00  0.00    -0.385 OA
ATOM     29  H   UNL     1      36.967   3.843  45.117  1.00  0.00     0.211 HD
ENDBRANCH   5  28
BRANCH   4  30
ATOM     30  O   UNL     1      38.471   6.630  43.307  1.00  0.00    -0.341 OA
BRANCH  30  31
ATOM     31  C   UNL     1      37.965   7.283  44.469  1.00  0.00     0.184 C 
ATOM     32  C   UNL     1      36.419   7.395  44.324  1.00  0.00     0.178 C 
ATOM     33  C   UNL     1      38.668   8.651  44.591  1.00  0.00     0.180 C 
ATOM     34  O   UNL     1      35.989   8.368  43.378  1.00  0.00    -0.342 OA
ATOM     35  C   UNL     1      38.063   9.667  43.606  1.00  0.00     0.201 C 
ATOM     36  C   UNL     1      36.513   9.662  43.612  1.00  0.00     0.279 C 
BRANCH  32  37
ATOM     37  C   UNL     1      35.597   7.428  45.634  1.00  0.00     0.191 C 
BRANCH  37  38
ATOM     38  O   UNL     1      35.309   6.150  46.103  1.00  0.00    -0.394 OA
ATOM     39  H   UNL     1      36.178   5.670  46.172  1.00  0.00     0.210 HD
ENDBRANCH  37  38
ENDBRANCH  32  37
BRANCH  33  40
ATOM     40  O   UNL     1      38.591   9.111  45.924  1.00  0.00    -0.387 OA
ATOM     41  H   UNL     1      39.513   9.107  46.303  1.00  0.00     0.211 HD
ENDBRANCH  33  40
BRANCH  35  42
ATOM     42  O   UNL     1      38.593  10.956  43.784  1.00  0.00    -0.385 OA
ATOM     43  H   UNL     1      38.006  11.466  44.389  1.00  0.00     0.211 HD
ENDBRANCH  35  42
BRANCH  36  44
ATOM     44  O   UNL     1      35.887  10.254  44.728  1.00  0.00    -0.366 OA
ATOM     45  H   UNL     1      36.567  10.497  45.401  1.00  0.00     0.213 HD
ENDBRANCH  36  44
ENDBRANCH  30  31
ENDBRANCH   4  30
TORSDOF 18
ENDMDL
MODEL 2
REMARK VINA RESULT:    -6.714      2.731      3.431
REMARK INTER + INTRA:         -13.359
REMARK INTER:                 -11.546
REMARK INTRA:                  -1.813
REMARK UNBOUND:                -1.738
REMARK SMILES OC[C@@H]1O[C@H](O[C@H]2[C@H](O)[C@H](O)[C@H](O)O[C@@H]2CO)[C@@H](O)[C@H](O)[C@@H]1O[C@H]1O[C@H](CO)[C@H](O)[C@H](O)[C@H]1O
REMARK SMILES IDX 22 1 3 2 4 3 5 4 18 5 20 6 23 7 24 8 26 9 29 10 25 11 31 12
REMARK SMILES IDX 33 13 27 14 28 15 30 17 32 19 34 21 2 23 1 24 21 26 19 28
REMARK SMILES IDX 6 30 7 31 15 32 8 33 14 34 10 35 12 36 16 37 17 38 9 40
REMARK SMILES IDX 11 42 13 44
REMARK H PARENT 28 16 30 18 32 20 34 22 1 25 21 27 19 29 17 39 9 41 11 43
REMARK H PARENT 13 45
REMARK Flexibility Score: inf
ROOT
ATOM      1  C   UNL     1      37.789   3.491  43.025  1.00  0.00     0.184 C 
ATOM      2  C   UNL     1      37.227   4.503  41.950  1.00  0.00     0.178 C 
ATOM      3  O   UNL     1      37.914   5.749  41.935  1.00  0.00    -0.341 OA
ATOM      4  C   UNL     1      38.343   6.146  43.231  1.00  0.00     0.282 C 
ATOM      5  C   UNL     1      39.568   5.283  43.595  1.00  0.00     0.202 C 
ATOM      6  C   UNL     1      39.279   3.775  43.346  1.00  0.00     0.180 C 
ENDROOT
BRANCH   1   7
ATOM      7  O   UNL     1      37.644   2.131  42.619  1.00  0.00    -0.341 OA
BRANCH   7   8
ATOM      8  C   UNL     1      37.442   1.173  43.664  1.00  0.00     0.282 C 
ATOM      9  C   UNL     1      36.528   0.730  45.800  1.00  0.00     0.178 C 
ATOM     10  C   UNL     1      36.246  -0.764  45.419  1.00  0.00     0.177 C 
ATOM     11  O   UNL     1      36.537   1.601  44.672  1.00  0.00    -0.341 OA
ATOM     12  C   UNL     1      36.955  -1.260  44.129  1.00  0.00     0.179 C 
ATOM     13  C   UNL     1      36.991  -0.163  43.058  1.00  0.00     0.202 C 
BRANCH   9  14
ATOM     14  C   UNL     1      37.712   1.064  46.762  1.00  0.00     0.191 C 
BRANCH  14  15
ATOM     15  O   UNL     1      37.567   0.479  48.023  1.00  0.00    -0.394 OA
ATOM     16  H   UNL     1      36.978  -0.323  47.899  1.00  0.00     0.210 HD
ENDBRANCH  14  15
ENDBRANCH   9  14
BRANCH  10  17
ATOM     17  O   UNL     1      36.519  -1.636  46.482  1.00  0.00    -0.387 OA
ATOM     18  H   UNL     1      37.499  -1.820  46.463  1.00  0.00     0.211 HD
ENDBRANCH  10  17
BRANCH  12  19
ATOM     19  O   UNL     1      38.241  -1.768  44.379  1.00  0.00    -0.387 OA
ATOM     20  H   UNL     1      38.718  -1.889  43.516  1.00  0.00     0.211 HD
ENDBRANCH  12  19
BRANCH  13  21
ATOM     21  O   UNL     1      35.720  -0.015  42.483  1.00  0.00    -0.385 OA
ATOM     22  H   UNL     1      35.503   0.958  42.497  1.00  0.00     0.211 HD
ENDBRANCH  13  21
ENDBRANCH   7   8
ENDBRANCH   1   7
BRANCH   2  23
ATOM     23  C   UNL     1      37.213   3.970  40.504  1.00  0.00     0.191 C 
BRANCH  23  24
ATOM     24  O   UNL     1      38.513   3.697  40.068  1.00  0.00    -0.394 OA
ATOM     25  H   UNL     1      39.112   3.965  40.810  1.00  0.00     0.210 HD
ENDBRANCH  23  24
ENDBRANCH   2  23
BRANCH   6  26
ATOM     26  O   UNL     1      40.124   3.247  42.345  1.00  0.00    -0.387 OA
ATOM     27  H   UNL     1      39.593   3.166  41.507  1.00  0.00     0.211 HD
ENDBRANCH   6  26
BRANCH   5  28
ATOM     28  O   UNL     1      39.916   5.508  44.932  1.00  0.00    -0.385 OA
ATOM     29  H   UNL     1      39.297   6.207  45.271  1.00  0.00     0.211 HD
ENDBRANCH   5  28
BRANCH   4  30
ATOM     30  O   UNL     1      38.709   7.523  43.340  1.00  0.00    -0.341 OA
BRANCH  30  31
ATOM     31  C   UNL     1      38.150   8.247  44.434  1.00  0.00     0.184 C 
ATOM     32  C   UNL     1      36.600   8.211  44.295  1.00  0.00     0.178 C 
ATOM     33  C   UNL     1      38.734   9.675  44.406  1.00  0.00     0.180 C 
ATOM     34  O   UNL     1      36.086   9.040  43.258  1.00  0.00    -0.342 OA
ATOM     35  C   UNL     1      38.042  10.528  43.327  1.00  0.00     0.201 C 
ATOM     36  C   UNL     1      36.498  10.392  43.351  1.00  0.00     0.279 C 
BRANCH  32  37
ATOM     37  C   UNL     1      35.782   8.310  45.603  1.00  0.00     0.191 C 
BRANCH  37  38
ATOM     38  O   UNL     1      35.352   7.063  46.048  1.00  0.00    -0.394 OA
ATOM     39  H   UNL     1      36.157   6.478  46.071  1.00  0.00     0.210 HD
ENDBRANCH  37  38
ENDBRANCH  32  37
BRANCH  33  40
ATOM     40  O   UNL     1      38.621  10.263  45.685  1.00  0.00    -0.387 OA
ATOM     41  H   UNL     1      37.656  10.443  45.855  1.00  0.00     0.211 HD
ENDBRANCH  33  40
BRANCH  35  42
ATOM     42  O   UNL     1      38.459  11.869  43.365  1.00  0.00    -0.385 OA
ATOM     43  H   UNL     1      39.260  11.942  43.935  1.00  0.00     0.211 HD
ENDBRANCH  35  42
BRANCH  36  44
ATOM     44  O   UNL     1      35.825  11.041  44.406  1.00  0.00    -0.366 OA
ATOM     45  H   UNL     1      35.356  10.373  44.963  1.00  0.00     0.213 HD
ENDBRANCH  36  44
ENDBRANCH  30  31
ENDBRANCH   4  30
TORSDOF 18
ENDMDL
MODEL 3
REMARK VINA RESULT:    -6.600      1.318      2.094
REMARK INTER + INTRA:         -13.161
REMARK INTER:                 -11.255
REMARK INTRA:                  -1.906
REMARK UNBOUND:                -1.738
REMARK SMILES OC[C@@H]1O[C@H](O[C@H]2[C@H](O)[C@H](O)[C@H](O)O[C@@H]2CO)[C@@H](O)[C@H](O)[C@@H]1O[C@H]1O[C@H](CO)[C@H](O)[C@H](O)[C@H]1O
REMARK SMILES IDX 22 1 3 2 4 3 5 4 18 5 20 6 23 7 24 8 26 9 29 10 25 11 31 12
REMARK SMILES IDX 33 13 27 14 28 15 30 17 32 19 34 21 2 23 1 24 21 26 19 28
REMARK SMILES IDX 6 30 7 31 15 32 8 33 14 34 10 35 12 36 16 37 17 38 9 40
REMARK SMILES IDX 11 42 13 44
REMARK H PARENT 28 16 30 18 32 20 34 22 1 25 21 27 19 29 17 39 9 41 11 43
REMARK H PARENT 13 45
REMARK Flexibility Score: inf
ROOT
ATOM      1  C   UNL     1      37.334   3.450  42.972  1.00  0.00     0.184 C 
ATOM      2  C   UNL     1      36.933   4.612  41.980  1.00  0.00     0.178 C 
ATOM      3  O   UNL     1      37.796   5.741  42.055  1.00  0.00    -0.341 OA
ATOM      4  C   UNL     1      38.272   5.971  43.375  1.00  0.00     0.282 C 
ATOM      5  C   UNL     1      39.354   4.912  43.665  1.00  0.00     0.202 C 
ATOM      6  C   UNL     1      38.848   3.487  43.304  1.00  0.00     0.180 C 
ENDROOT
BRANCH   1   7
ATOM      7  O   UNL     1      36.993   2.161  42.466  1.00  0.00    -0.341 OA
BRANCH   7   8
ATOM      8  C   UNL     1      35.598   1.838  42.434  1.00  0.00     0.282 C 
ATOM      9  C   UNL     1      33.705   1.347  41.104  1.00  0.00     0.178 C 
ATOM     10  C   UNL     1      33.115   0.405  42.210  1.00  0.00     0.177 C 
ATOM     11  O   UNL     1      35.125   1.444  41.153  1.00  0.00    -0.341 OA
ATOM     12  C   UNL     1      33.782   0.533  43.606  1.00  0.00     0.179 C 
ATOM     13  C   UNL     1      35.295   0.759  43.482  1.00  0.00     0.202 C 
BRANCH   9  14
ATOM     14  C   UNL     1      33.065   2.754  40.875  1.00  0.00     0.191 C 
BRANCH  14  15
ATOM     15  O   UNL     1      32.275   3.171  41.950  1.00  0.00    -0.394 OA
ATOM     16  H   UNL     1      32.018   2.342  42.453  1.00  0.00     0.210 HD
ENDBRANCH  14  15
ENDBRANCH   9  14
BRANCH  10  17
ATOM     17  O   UNL     1      31.725   0.543  42.327  1.00  0.00    -0.387 OA
ATOM     18  H   UNL     1      31.559   1.343  42.899  1.00  0.00     0.211 HD
ENDBRANCH  10  17
BRANCH  12  19
ATOM     19  O   UNL     1      33.185   1.524  44.404  1.00  0.00    -0.387 OA
ATOM     20  H   UNL     1      33.138   1.204  45.343  1.00  0.00     0.211 HD
ENDBRANCH  12  19
BRANCH  13  21
ATOM     21  O   UNL     1      35.928  -0.440  43.121  1.00  0.00    -0.385 OA
ATOM     22  H   UNL     1      36.888  -0.353  43.375  1.00  0.00     0.211 HD
ENDBRANCH  13  21
ENDBRANCH   7   8
ENDBRANCH   1   7
BRANCH   2  23
ATOM     23  C   UNL     1      36.847   4.197  40.498  1.00  0.00     0.191 C 
BRANCH  23  24
ATOM     24  O   UNL     1      38.056   3.635  40.075  1.00  0.00    -0.394 OA
ATOM     25  H   UNL     1      38.660   4.396  39.884  1.00  0.00     0.210 HD
ENDBRANCH  23  24
ENDBRANCH   2  23
BRANCH   6  26
ATOM     26  O   UNL     1      39.611   2.916  42.262  1.00  0.00    -0.387 OA
ATOM     27  H   UNL     1      40.573   3.006  42.500  1.00  0.00     0.211 HD
ENDBRANCH   6  26
BRANCH   5  28
ATOM     28  O   UNL     1      39.725   4.982  45.013  1.00  0.00    -0.385 OA
ATOM     29  H   UNL     1      39.521   4.093  45.407  1.00  0.00     0.211 HD
ENDBRANCH   5  28
BRANCH   4  30
ATOM     30  O   UNL     1      38.837   7.267  43.584  1.00  0.00    -0.341 OA
BRANCH  30  31
ATOM     31  C   UNL     1      38.234   8.069  44.597  1.00  0.00     0.184 C 
ATOM     32  C   UNL     1      36.689   7.982  44.425  1.00  0.00     0.178 C 
ATOM     33  C   UNL     1      38.785   9.503  44.458  1.00  0.00     0.180 C 
ATOM     34  O   UNL     1      36.183   8.705  43.308  1.00  0.00    -0.342 OA
ATOM     35  C   UNL     1      38.102  10.243  43.294  1.00  0.00     0.201 C 
ATOM     36  C   UNL     1      36.561  10.070  43.293  1.00  0.00     0.279 C 
BRANCH  32  37
ATOM     37  C   UNL     1      35.835   8.174  45.700  1.00  0.00     0.191 C 
BRANCH  37  38
ATOM     38  O   UNL     1      35.316   6.970  46.169  1.00  0.00    -0.394 OA
ATOM     39  H   UNL     1      35.335   7.021  47.162  1.00  0.00     0.210 HD
ENDBRANCH  37  38
ENDBRANCH  32  37
BRANCH  33  40
ATOM     40  O   UNL     1      38.626  10.197  45.678  1.00  0.00    -0.387 OA
ATOM     41  H   UNL     1      38.060   9.638  46.277  1.00  0.00     0.211 HD
ENDBRANCH  33  40
BRANCH  35  42
ATOM     42  O   UNL     1      38.487  11.591  43.224  1.00  0.00    -0.385 OA
ATOM     43  H   UNL     1      37.873  12.131  43.775  1.00  0.00     0.211 HD
ENDBRANCH  35  42
BRANCH  36  44
ATOM     44  O   UNL     1      35.847  10.791  44.271  1.00  0.00    -0.366 OA
ATOM     45  H   UNL     1      34.987  11.098  43.896  1.00  0.00     0.213 HD
ENDBRANCH  36  44
ENDBRANCH  30  31
ENDBRANCH   4  30
TORSDOF 18
ENDMDL
MODEL 4
REMARK VINA RESULT:    -6.301      2.676      4.251
REMARK INTER + INTRA:         -12.643
REMARK INTER:                 -11.460
REMARK INTRA:                  -1.183
REMARK UNBOUND:                -1.738
REMARK SMILES OC[C@@H]1O[C@H](O[C@H]2[C@H](O)[C@H](O)[C@H](O)O[C@@H]2CO)[C@@H](O)[C@H](O)[C@@H]1O[C@H]1O[C@H](CO)[C@H](O)[C@H](O)[C@H]1O
REMARK SMILES IDX 22 1 3 2 4 3 5 4 18 5 20 6 23 7 24 8 26 9 29 10 25 11 31 12
REMARK SMILES IDX 33 13 27 14 28 15 30 17 32 19 34 21 2 23 1 24 21 26 19 28
REMARK SMILES IDX 6 30 7 31 15 32 8 33 14 34 10 35 12 36 16 37 17 38 9 40
REMARK SMILES IDX 11 42 13 44
REMARK H PARENT 28 16 30 18 32 20 34 22 1 25 21 27 19 29 17 39 9 41 11 43
REMARK H PARENT 13 45
REMARK Flexibility Score: inf
ROOT
ATOM      1  C   UNL     1      37.466   3.105  42.725  1.00  0.00     0.184 C 
ATOM      2  C   UNL     1      37.181   3.766  44.131  1.00  0.00     0.178 C 
ATOM      3  O   UNL     1      37.236   5.188  44.108  1.00  0.00    -0.341 OA
ATOM      4  C   UNL     1      38.216   5.675  43.199  1.00  0.00     0.282 C 
ATOM      5  C   UNL     1      37.649   5.506  41.776  1.00  0.00     0.202 C 
ATOM      6  C   UNL     1      37.102   4.065  41.563  1.00  0.00     0.180 C 
ENDROOT
BRANCH   1   7
ATOM      7  O   UNL     1      36.770   1.872  42.553  1.00  0.00    -0.341 OA
BRANCH   7   8
ATOM      8  C   UNL     1      37.354   0.719  43.169  1.00  0.00     0.282 C 
ATOM      9  C   UNL     1      37.123  -1.571  43.715  1.00  0.00     0.178 C 
ATOM     10  C   UNL     1      38.667  -1.805  43.583  1.00  0.00     0.177 C 
ATOM     11  O   UNL     1      36.652  -0.490  42.915  1.00  0.00    -0.341 OA
ATOM     12  C   UNL     1      39.527  -0.513  43.537  1.00  0.00     0.179 C 
ATOM     13  C   UNL     1      38.823   0.596  42.743  1.00  0.00     0.202 C 
BRANCH   9  14
ATOM     14  C   UNL     1      36.474  -1.528  45.135  1.00  0.00     0.191 C 
BRANCH  14  15
ATOM     15  O   UNL     1      37.130  -0.651  46.004  1.00  0.00    -0.394 OA
ATOM     16  H   UNL     1      37.531   0.069  45.432  1.00  0.00     0.210 HD
ENDBRANCH  14  15
ENDBRANCH   9  14
BRANCH  10  17
ATOM     17  O   UNL     1      39.152  -2.669  44.574  1.00  0.00    -0.387 OA
ATOM     18  H   UNL     1      39.614  -2.103  45.253  1.00  0.00     0.211 HD
ENDBRANCH  10  17
BRANCH  12  19
ATOM     19  O   UNL     1      39.900  -0.063  44.815  1.00  0.00    -0.387 OA
ATOM     20  H   UNL     1      39.858  -0.822  45.454  1.00  0.00     0.211 HD
ENDBRANCH  12  19
BRANCH  13  21
ATOM     21  O   UNL     1      38.894   0.319  41.370  1.00  0.00    -0.385 OA
ATOM     22  H   UNL     1      38.136   0.796  40.934  1.00  0.00     0.211 HD
ENDBRANCH  13  21
ENDBRANCH   7   8
ENDBRANCH   1   7
BRANCH   2  23
ATOM     23  C   UNL     1      35.836   3.370  44.772  1.00  0.00     0.191 C 
BRANCH  23  24
ATOM     24  O   UNL     1      36.001   2.267  45.616  1.00  0.00    -0.394 OA
ATOM     25  H   UNL     1      36.283   2.633  46.492  1.00  0.00     0.210 HD
ENDBRANCH  23  24
ENDBRANCH   2  23
BRANCH   6  26
ATOM     26  O   UNL     1      35.710   4.071  41.325  1.00  0.00    -0.387 OA
ATOM     27  H   UNL     1      35.563   4.309  40.370  1.00  0.00     0.211 HD
ENDBRANCH   6  26
BRANCH   5  28
ATOM     28  O   UNL     1      38.645   5.803  40.838  1.00  0.00    -0.385 OA
ATOM     29  H   UNL     1      38.492   6.741  40.553  1.00  0.00     0.211 HD
ENDBRANCH   5  28
BRANCH   4  30
ATOM     30  O   UNL     1      38.567   7.047  43.387  1.00  0.00    -0.341 OA
BRANCH  30  31
ATOM     31  C   UNL     1      38.012   7.697  44.529  1.00  0.00     0.184 C 
ATOM     32  C   UNL     1      36.469   7.777  44.335  1.00  0.00     0.178 C 
ATOM     33  C   UNL     1      38.683   9.080  44.662  1.00  0.00     0.180 C 
ATOM     34  O   UNL     1      36.049   8.734  43.368  1.00  0.00    -0.342 OA
ATOM     35  C   UNL     1      38.089  10.078  43.651  1.00  0.00     0.201 C 
ATOM     36  C   UNL     1      36.540  10.040  43.609  1.00  0.00     0.279 C 
BRANCH  32  37
ATOM     37  C   UNL     1      35.607   7.803  45.618  1.00  0.00     0.191 C 
BRANCH  37  38
ATOM     38  O   UNL     1      35.280   6.522  46.055  1.00  0.00    -0.394 OA
ATOM     39  H   UNL     1      34.590   6.176  45.426  1.00  0.00     0.210 HD
ENDBRANCH  37  38
ENDBRANCH  32  37
BRANCH  33  40
ATOM     40  O   UNL     1      38.555   9.548  45.988  1.00  0.00    -0.387 OA
ATOM     41  H   UNL     1      39.459   9.824  46.304  1.00  0.00     0.211 HD
ENDBRANCH  33  40
BRANCH  35  42
ATOM     42  O   UNL     1      38.586  11.378  43.835  1.00  0.00    -0.385 OA
ATOM     43  H   UNL     1      38.112  11.802  44.588  1.00  0.00     0.211 HD
ENDBRANCH  35  42
BRANCH  36  44
ATOM     44  O   UNL     1      35.867  10.627  44.700  1.00  0.00    -0.366 OA
ATOM     45  H   UNL     1      35.898  11.611  44.620  1.00  0.00     0.213 HD
ENDBRANCH  36  44
ENDBRANCH  30  31
ENDBRANCH   4  30
TORSDOF 18
ENDMDL
MODEL 5
REMARK VINA RESULT:    -6.142      1.925      2.877
REMARK INTER + INTRA:         -12.368
REMARK INTER:                 -10.568
REMARK INTRA:                  -1.800
REMARK UNBOUND:                -1.738
REMARK SMILES OC[C@@H]1O[C@H](O[C@H]2[C@H](O)[C@H](O)[C@H](O)O[C@@H]2CO)[C@@H](O)[C@H](O)[C@@H]1O[C@H]1O[C@H](CO)[C@H](O)[C@H](O)[C@H]1O
REMARK SMILES IDX 22 1 3 2 4 3 5 4 18 5 20 6 23 7 24 8 26 9 29 10 25 11 31 12
REMARK SMILES IDX 33 13 27 14 28 15 30 17 32 19 34 21 2 23 1 24 21 26 19 28
REMARK SMILES IDX 6 30 7 31 15 32 8 33 14 34 10 35 12 36 16 37 17 38 9 40
REMARK SMILES IDX 11 42 13 44
REMARK H PARENT 28 16 30 18 32 20 34 22 1 25 21 27 19 29 17 39 9 41 11 43
REMARK H PARENT 13 45
REMARK Flexibility Score: inf
ROOT
ATOM      1  C   UNL     1      37.822   3.107  42.968  1.00  0.00     0.184 C 
ATOM      2  C   UNL     1      37.182   4.164  41.983  1.00  0.00     0.178 C 
ATOM      3  O   UNL     1      37.837   5.427  42.008  1.00  0.00    -0.341 OA
ATOM      4  C   UNL     1      38.321   5.759  43.304  1.00  0.00     0.282 C 
ATOM      5  C   UNL     1      39.583   4.910  43.556  1.00  0.00     0.202 C 
ATOM      6  C   UNL     1      39.319   3.412  43.232  1.00  0.00     0.180 C 
ENDROOT
BRANCH   1   7
ATOM      7  O   UNL     1      37.690   1.769  42.489  1.00  0.00    -0.341 OA
BRANCH   7   8
ATOM      8  C   UNL     1      36.813   0.912  43.228  1.00  0.00     0.282 C 
ATOM      9  C   UNL     1      34.703  -0.152  43.332  1.00  0.00     0.178 C 
ATOM     10  C   UNL     1      35.306  -1.372  44.110  1.00  0.00     0.177 C 
ATOM     11  O   UNL     1      35.657   0.509  42.506  1.00  0.00    -0.341 OA
ATOM     12  C   UNL     1      36.729  -1.144  44.690  1.00  0.00     0.179 C 
ATOM     13  C   UNL     1      37.591  -0.309  43.735  1.00  0.00     0.202 C 
BRANCH   9  14
ATOM     14  C   UNL     1      33.825   0.888  44.100  1.00  0.00     0.191 C 
BRANCH  14  15
ATOM     15  O   UNL     1      32.551   0.401  44.405  1.00  0.00    -0.394 OA
ATOM     16  H   UNL     1      31.954   0.671  43.645  1.00  0.00     0.210 HD
ENDBRANCH  14  15
ENDBRANCH   9  14
BRANCH  10  17
ATOM     17  O   UNL     1      34.444  -1.827  45.118  1.00  0.00    -0.387 OA
ATOM     18  H   UNL     1      33.579  -1.347  45.000  1.00  0.00     0.211 HD
ENDBRANCH  10  17
BRANCH  12  19
ATOM     19  O   UNL     1      36.706  -0.581  45.977  1.00  0.00    -0.387 OA
ATOM     20  H   UNL     1      37.002   0.366  45.926  1.00  0.00     0.211 HD
ENDBRANCH  12  19
BRANCH  13  21
ATOM     21  O   UNL     1      37.996  -1.096  42.646  1.00  0.00    -0.385 OA
ATOM     22  H   UNL     1      38.325  -1.961  43.015  1.00  0.00     0.211 HD
ENDBRANCH  13  21
ENDBRANCH   7   8
ENDBRANCH   1   7
BRANCH   2  23
ATOM     23  C   UNL     1      37.109   3.715  40.510  1.00  0.00     0.191 C 
BRANCH  23  24
ATOM     24  O   UNL     1      38.391   3.490  40.001  1.00  0.00    -0.394 OA
ATOM     25  H   UNL     1      38.923   3.123  40.751  1.00  0.00     0.210 HD
ENDBRANCH  23  24
ENDBRANCH   2  23
BRANCH   6  26
ATOM     26  O   UNL     1      40.125   2.966  42.162  1.00  0.00    -0.387 OA
ATOM     27  H   UNL     1      39.529   2.551  41.481  1.00  0.00     0.211 HD
ENDBRANCH   6  26
BRANCH   5  28
ATOM     28  O   UNL     1      39.992   5.066  44.886  1.00  0.00    -0.385 OA
ATOM     29  H   UNL     1      40.108   6.042  45.031  1.00  0.00     0.211 HD
ENDBRANCH   5  28
BRANCH   4  30
ATOM     30  O   UNL     1      38.658   7.137  43.475  1.00  0.00    -0.341 OA
BRANCH  30  31
ATOM     31  C   UNL     1      38.060   7.807  44.583  1.00  0.00     0.184 C 
ATOM     32  C   UNL     1      36.517   7.796  44.377  1.00  0.00     0.178 C 
ATOM     33  C   UNL     1      38.656   9.228  44.658  1.00  0.00     0.180 C 
ATOM     34  O   UNL     1      36.055   8.685  43.366  1.00  0.00    -0.342 OA
ATOM     35  C   UNL     1      38.019  10.146  43.599  1.00  0.00     0.201 C 
ATOM     36  C   UNL     1      36.474  10.025  43.551  1.00  0.00     0.279 C 
BRANCH  32  37
ATOM     37  C   UNL     1      35.644   7.833  45.653  1.00  0.00     0.191 C 
BRANCH  37  38
ATOM     38  O   UNL     1      35.270   6.558  46.068  1.00  0.00    -0.394 OA
ATOM     39  H   UNL     1      34.885   6.102  45.272  1.00  0.00     0.210 HD
ENDBRANCH  37  38
ENDBRANCH  32  37
BRANCH  33  40
ATOM     40  O   UNL     1      38.494   9.747  45.961  1.00  0.00    -0.387 OA
ATOM     41  H   UNL     1      37.954  10.581  45.894  1.00  0.00     0.211 HD
ENDBRANCH  33  40
BRANCH  35  42
ATOM     42  O   UNL     1      38.446  11.478  43.728  1.00  0.00    -0.385 OA
ATOM     43  H   UNL     1      39.271  11.502  44.265  1.00  0.00     0.211 HD
ENDBRANCH  35  42
BRANCH  36  44
ATOM     44  O   UNL     1      35.762  10.624  44.610  1.00  0.00    -0.366 OA
ATOM     45  H   UNL     1      35.882  11.603  44.580  1.00  0.00     0.213 HD
ENDBRANCH  36  44
ENDBRANCH  30  31
ENDBRANCH   4  30
TORSDOF 18
ENDMDL
MODEL 6
REMARK VINA RESULT:    -5.931      2.659      7.551
REMARK INTER + INTRA:         -12.003
REMARK INTER:                 -10.997
REMARK INTRA:                  -1.006
REMARK UNBOUND:                -1.738
REMARK SMILES OC[C@@H]1O[C@H](O[C@H]2[C@H](O)[C@H](O)[C@H](O)O[C@@H]2CO)[C@@H](O)[C@H](O)[C@@H]1O[C@H]1O[C@H](CO)[C@H](O)[C@H](O)[C@H]1O
REMARK SMILES IDX 22 1 3 2 4 3 5 4 18 5 20 6 23 7 24 8 26 9 29 10 25 11 31 12
REMARK SMILES IDX 33 13 27 14 28 15 30 17 32 19 34 21 2 23 1 24 21 26 19 28
REMARK SMILES IDX 6 30 7 31 15 32 8 33 14 34 10 35 12 36 16 37 17 38 9 40
REMARK SMILES IDX 11 42 13 44
REMARK H PARENT 28 16 30 18 32 20 34 22 1 25 21 27 19 29 17 39 9 41 11 43
REMARK H PARENT 13 45
REMARK Flexibility Score: inf
ROOT
ATOM      1  C   UNL     1      38.065   4.575  42.804  1.00  0.00     0.184 C 
ATOM      2  C   UNL     1      39.312   3.775  42.256  1.00  0.00     0.178 C 
ATOM      3  O   UNL     1      38.977   2.493  41.739  1.00  0.00    -0.341 OA
ATOM      4  C   UNL     1      37.912   1.882  42.457  1.00  0.00     0.282 C 
ATOM      5  C   UNL     1      36.607   2.581  42.029  1.00  0.00     0.202 C 
ATOM      6  C   UNL     1      36.754   4.128  42.106  1.00  0.00     0.180 C 
ENDROOT
BRANCH   1   7
ATOM      7  O   UNL     1      38.218   5.986  42.661  1.00  0.00    -0.341 OA
BRANCH   7   8
ATOM      8  C   UNL     1      37.611   6.798  43.672  1.00  0.00     0.282 C 
ATOM      9  C   UNL     1      37.363   8.963  44.594  1.00  0.00     0.178 C 
ATOM     10  C   UNL     1      35.892   8.654  45.038  1.00  0.00     0.177 C 
ATOM     11  O   UNL     1      37.778   8.195  43.467  1.00  0.00    -0.341 OA
ATOM     12  C   UNL     1      35.495   7.153  45.002  1.00  0.00     0.179 C 
ATOM     13  C   UNL     1      36.124   6.440  43.798  1.00  0.00     0.202 C 
BRANCH   9  14
ATOM     14  C   UNL     1      38.493   9.016  45.670  1.00  0.00     0.191 C 
BRANCH  14  15
ATOM     15  O   UNL     1      39.244  10.193  45.609  1.00  0.00    -0.394 OA
ATOM     16  H   UNL     1      38.669  10.874  45.150  1.00  0.00     0.210 HD
ENDBRANCH  14  15
ENDBRANCH   9  14
BRANCH  10  17
ATOM     17  O   UNL     1      35.601   9.197  46.298  1.00  0.00    -0.387 OA
ATOM     18  H   UNL     1      35.014   9.988  46.145  1.00  0.00     0.211 HD
ENDBRANCH  10  17
BRANCH  12  19
ATOM     19  O   UNL     1      35.793   6.484  46.201  1.00  0.00    -0.387 OA
ATOM     20  H   UNL     1      35.279   5.635  46.239  1.00  0.00     0.211 HD
ENDBRANCH  12  19
BRANCH  13  21
ATOM     21  O   UNL     1      35.451   6.803  42.623  1.00  0.00    -0.385 OA
ATOM     22  H   UNL     1      34.510   7.011  42.875  1.00  0.00     0.211 HD
ENDBRANCH  13  21
ENDBRANCH   7   8
ENDBRANCH   1   7
BRANCH   2  23
ATOM     23  C   UNL     1      40.125   4.509  41.171  1.00  0.00     0.191 C 
BRANCH  23  24
ATOM     24  O   UNL     1      39.340   4.731  40.035  1.00  0.00    -0.394 OA
ATOM     25  H   UNL     1      39.459   3.933  39.460  1.00  0.00     0.210 HD
ENDBRANCH  23  24
ENDBRANCH   2  23
BRANCH   6  26
ATOM     26  O   UNL     1      36.628   4.723  40.832  1.00  0.00    -0.387 OA
ATOM     27  H   UNL     1      37.302   4.306  40.230  1.00  0.00     0.211 HD
ENDBRANCH   6  26
BRANCH   5  28
ATOM     28  O   UNL     1      35.554   2.141  42.839  1.00  0.00    -0.385 OA
ATOM     29  H   UNL     1      34.971   1.581  42.263  1.00  0.00     0.211 HD
ENDBRANCH   5  28
BRANCH   4  30
ATOM     30  O   UNL     1      37.771   0.479  42.229  1.00  0.00    -0.341 OA
BRANCH  30  31
ATOM     31  C   UNL     1      38.196  -0.385  43.282  1.00  0.00     0.184 C 
ATOM     32  C   UNL     1      36.963  -1.211  43.754  1.00  0.00     0.178 C 
ATOM     33  C   UNL     1      38.808   0.490  44.396  1.00  0.00     0.180 C 
ATOM     34  O   UNL     1      36.015  -0.466  44.511  1.00  0.00    -0.342 OA
ATOM     35  C   UNL     1      37.706   1.168  45.229  1.00  0.00     0.201 C 
ATOM     36  C   UNL     1      36.572   0.191  45.634  1.00  0.00     0.279 C 
BRANCH  32  37
ATOM     37  C   UNL     1      37.250  -2.605  44.357  1.00  0.00     0.191 C 
BRANCH  37  38
ATOM     38  O   UNL     1      38.615  -2.864  44.451  1.00  0.00    -0.394 OA
ATOM     39  H   UNL     1      38.834  -2.882  45.421  1.00  0.00     0.210 HD
ENDBRANCH  37  38
ENDBRANCH  32  37
BRANCH  33  40
ATOM     40  O   UNL     1      39.662  -0.293  45.203  1.00  0.00    -0.387 OA
ATOM     41  H   UNL     1      39.104  -0.973  45.670  1.00  0.00     0.211 HD
ENDBRANCH  33  40
BRANCH  35  42
ATOM     42  O   UNL     1      38.228   1.865  46.330  1.00  0.00    -0.385 OA
ATOM     43  H   UNL     1      39.177   2.073  46.161  1.00  0.00     0.211 HD
ENDBRANCH  35  42
BRANCH  36  44
ATOM     44  O   UNL     1      36.876  -0.737  46.650  1.00  0.00    -0.366 OA
ATOM     45  H   UNL     1      36.700  -0.333  47.534  1.00  0.00     0.213 HD
ENDBRANCH  36  44
ENDBRANCH  30  31
ENDBRANCH   4  30
TORSDOF 18
ENDMDL
MODEL 7
REMARK VINA RESULT:    -5.718      3.371      7.194
REMARK INTER + INTRA:         -11.635
REMARK INTER:                 -10.074
REMARK INTRA:                  -1.561
REMARK UNBOUND:                -1.738
REMARK SMILES OC[C@@H]1O[C@H](O[C@H]2[C@H](O)[C@H](O)[C@H](O)O[C@@H]2CO)[C@@H](O)[C@H](O)[C@@H]1O[C@H]1O[C@H](CO)[C@H](O)[C@H](O)[C@H]1O
REMARK SMILES IDX 22 1 3 2 4 3 5 4 18 5 20 6 23 7 24 8 26 9 29 10 25 11 31 12
REMARK SMILES IDX 33 13 27 14 28 15 30 17 32 19 34 21 2 23 1 24 21 26 19 28
REMARK SMILES IDX 6 30 7 31 15 32 8 33 14 34 10 35 12 36 16 37 17 38 9 40
REMARK SMILES IDX 11 42 13 44
REMARK H PARENT 28 16 30 18 32 20 34 22 1 25 21 27 19 29 17 39 9 41 11 43
REMARK H PARENT 13 45
REMARK Flexibility Score: inf
ROOT
ATOM      1  C   UNL     1      36.435   2.995  41.104  1.00  0.00     0.184 C 
ATOM      2  C   UNL     1      35.414   1.872  41.543  1.00  0.00     0.178 C 
ATOM      3  O   UNL     1      35.003   1.982  42.901  1.00  0.00    -0.341 OA
ATOM      4  C   UNL     1      36.044   2.464  43.743  1.00  0.00     0.282 C 
ATOM      5  C   UNL     1      36.181   3.978  43.486  1.00  0.00     0.202 C 
ATOM      6  C   UNL     1      36.271   4.276  41.962  1.00  0.00     0.180 C 
ENDROOT
BRANCH   1   7
ATOM      7  O   UNL     1      36.313   3.332  39.724  1.00  0.00    -0.341 OA
BRANCH   7   8
ATOM      8  C   UNL     1      37.243   2.708  38.831  1.00  0.00     0.282 C 
ATOM      9  C   UNL     1      37.649   1.873  36.656  1.00  0.00     0.178 C 
ATOM     10  C   UNL     1      39.165   2.263  36.740  1.00  0.00     0.177 C 
ATOM     11  O   UNL     1      36.817   2.689  37.475  1.00  0.00    -0.341 OA
ATOM     12  C   UNL     1      39.676   2.615  38.164  1.00  0.00     0.179 C 
ATOM     13  C   UNL     1      38.614   3.384  38.962  1.00  0.00     0.202 C 
BRANCH   9  14
ATOM     14  C   UNL     1      37.237   0.371  36.776  1.00  0.00     0.191 C 
BRANCH  14  15
ATOM     15  O   UNL     1      38.245  -0.425  37.330  1.00  0.00    -0.394 OA
ATOM     16  H   UNL     1      37.895  -1.365  37.334  1.00  0.00     0.210 HD
ENDBRANCH  14  15
ENDBRANCH   9  14
BRANCH  10  17
ATOM     17  O   UNL     1      39.989   1.287  36.162  1.00  0.00    -0.387 OA
ATOM     18  H   UNL     1      39.706   1.194  35.211  1.00  0.00     0.211 HD
ENDBRANCH  10  17
BRANCH  12  19
ATOM     19  O   UNL     1      40.125   1.487  38.873  1.00  0.00    -0.387 OA
ATOM     20  H   UNL     1      39.353   0.895  39.070  1.00  0.00     0.211 HD
ENDBRANCH  12  19
BRANCH  13  21
ATOM     21  O   UNL     1      38.535   4.705  38.499  1.00  0.00    -0.385 OA
ATOM     22  H   UNL     1      39.136   5.255  39.073  1.00  0.00     0.211 HD
ENDBRANCH  13  21
ENDBRANCH   7   8
ENDBRANCH   1   7
BRANCH   2  23
ATOM     23  C   UNL     1      34.137   1.787  40.684  1.00  0.00     0.191 C 
BRANCH  23  24
ATOM     24  O   UNL     1      33.374   2.951  40.820  1.00  0.00    -0.394 OA
ATOM     25  H   UNL     1      33.481   3.449  39.971  1.00  0.00     0.210 HD
ENDBRANCH  23  24
ENDBRANCH   2  23
BRANCH   6  26
ATOM     26  O   UNL     1      35.172   5.045  41.520  1.00  0.00    -0.387 OA
ATOM     27  H   UNL     1      35.524   5.798  40.973  1.00  0.00     0.211 HD
ENDBRANCH   6  26
BRANCH   5  28
ATOM     28  O   UNL     1      37.310   4.464  44.155  1.00  0.00    -0.385 OA
ATOM     29  H   UNL     1      37.005   4.737  45.059  1.00  0.00     0.211 HD
ENDBRANCH   5  28
BRANCH   4  30
ATOM     30  O   UNL     1      35.819   2.259  45.139  1.00  0.00    -0.341 OA
BRANCH  30  31
ATOM     31  C   UNL     1      36.758   1.430  45.821  1.00  0.00     0.184 C 
ATOM     32  C   UNL     1      38.105   1.487  45.043  1.00  0.00     0.178 C 
ATOM     33  C   UNL     1      36.162   0.010  45.909  1.00  0.00     0.180 C 
ATOM     34  O   UNL     1      38.102   0.769  43.813  1.00  0.00    -0.342 OA
ATOM     35  C   UNL     1      36.301  -0.727  44.564  1.00  0.00     0.201 C 
ATOM     36  C   UNL     1      37.716  -0.586  43.946  1.00  0.00     0.279 C 
BRANCH  32  37
ATOM     37  C   UNL     1      39.394   1.260  45.866  1.00  0.00     0.191 C 
BRANCH  37  38
ATOM     38  O   UNL     1      39.131   1.133  47.227  1.00  0.00    -0.394 OA
ATOM     39  H   UNL     1      38.150   1.258  47.338  1.00  0.00     0.210 HD
ENDBRANCH  37  38
ENDBRANCH  32  37
BRANCH  33  40
ATOM     40  O   UNL     1      36.781  -0.704  46.959  1.00  0.00    -0.387 OA
ATOM     41  H   UNL     1      37.731  -0.410  47.011  1.00  0.00     0.211 HD
ENDBRANCH  33  40
BRANCH  35  42
ATOM     42  O   UNL     1      35.888  -2.066  44.650  1.00  0.00    -0.385 OA
ATOM     43  H   UNL     1      36.677  -2.640  44.789  1.00  0.00     0.211 HD
ENDBRANCH  35  42
BRANCH  36  44
ATOM     44  O   UNL     1      38.745  -1.336  44.551  1.00  0.00    -0.366 OA
ATOM     45  H   UNL     1      38.357  -2.111  45.024  1.00  0.00     0.213 HD
ENDBRANCH  36  44
ENDBRANCH  30  31
ENDBRANCH   4  30
TORSDOF 18
ENDMDL
MODEL 8
REMARK VINA RESULT:    -5.661     12.955     15.329
REMARK INTER + INTRA:         -11.536
REMARK INTER:                 -10.074
REMARK INTRA:                  -1.462
REMARK UNBOUND:                -1.738
REMARK SMILES OC[C@@H]1O[C@H](O[C@H]2[C@H](O)[C@H](O)[C@H](O)O[C@@H]2CO)[C@@H](O)[C@H](O)[C@@H]1O[C@H]1O[C@H](CO)[C@H](O)[C@H](O)[C@H]1O
REMARK SMILES IDX 22 1 3 2 4 3 5 4 18 5 20 6 23 7 24 8 26 9 29 10 25 11 31 12
REMARK SMILES IDX 33 13 27 14 28 15 30 17 32 19 34 21 2 23 1 24 21 26 19 28
REMARK SMILES IDX 6 30 7 31 15 32 8 33 14 34 10 35 12 36 16 37 17 38 9 40
REMARK SMILES IDX 11 42 13 44
REMARK H PARENT 28 16 30 18 32 20 34 22 1 25 21 27 19 29 17 39 9 41 11 43
REMARK H PARENT 13 45
REMARK Flexibility Score: inf
ROOT
ATOM      1  C   UNL     1      23.309  -1.481  36.503  1.00  0.00     0.184 C 
ATOM      2  C   UNL     1      23.782  -1.088  37.958  1.00  0.00     0.178 C 
ATOM      3  O   UNL     1      22.764  -0.470  38.736  1.00  0.00    -0.341 OA
ATOM      4  C   UNL     1      21.902   0.343  37.949  1.00  0.00     0.282 C 
ATOM      5  C   UNL     1      20.967  -0.599  37.166  1.00  0.00     0.202 C 
ATOM      6  C   UNL     1      21.777  -1.718  36.451  1.00  0.00     0.180 C 
ENDROOT
BRANCH   1   7
ATOM      7  O   UNL     1      23.982  -2.635  36.005  1.00  0.00    -0.341 OA
BRANCH   7   8
ATOM      8  C   UNL     1      25.193  -2.400  35.276  1.00  0.00     0.282 C 
ATOM      9  C   UNL     1      27.154  -3.330  34.338  1.00  0.00     0.178 C 
ATOM     10  C   UNL     1      27.154  -2.276  33.178  1.00  0.00     0.177 C 
ATOM     11  O   UNL     1      25.854  -3.587  34.858  1.00  0.00    -0.341 OA
ATOM     12  C   UNL     1      26.210  -1.062  33.393  1.00  0.00     0.179 C 
ATOM     13  C   UNL     1      24.904  -1.487  34.078  1.00  0.00     0.202 C 
BRANCH   9  14
ATOM     14  C   UNL     1      28.194  -3.195  35.496  1.00  0.00     0.191 C 
BRANCH  14  15
ATOM     15  O   UNL     1      29.511  -3.118  35.035  1.00  0.00    -0.394 OA
ATOM     16  H   UNL     1      29.785  -2.156  35.112  1.00  0.00     0.210 HD
ENDBRANCH  14  15
ENDBRANCH   9  14
BRANCH  10  17
ATOM     17  O   UNL     1      28.448  -1.830  32.876  1.00  0.00    -0.387 OA
ATOM     18  H   UNL     1      28.918  -1.691  33.744  1.00  0.00     0.211 HD
ENDBRANCH  10  17
BRANCH  12  19
ATOM     19  O   UNL     1      26.829  -0.010  34.090  1.00  0.00    -0.387 OA
ATOM     20  H   UNL     1      27.804  -0.188  34.153  1.00  0.00     0.211 HD
ENDBRANCH  12  19
BRANCH  13  21
ATOM     21  O   UNL     1      24.081  -2.158  33.161  1.00  0.00    -0.385 OA
ATOM     22  H   UNL     1      24.675  -2.540  32.458  1.00  0.00     0.211 HD
ENDBRANCH  13  21
ENDBRANCH   7   8
ENDBRANCH   1   7
BRANCH   2  23
ATOM     23  C   UNL     1      24.351  -2.254  38.790  1.00  0.00     0.191 C 
BRANCH  23  24
ATOM     24  O   UNL     1      23.557  -3.396  38.641  1.00  0.00    -0.394 OA
ATOM     25  H   UNL     1      24.128  -4.162  38.905  1.00  0.00     0.210 HD
ENDBRANCH  23  24
ENDBRANCH   2  23
BRANCH   6  26
ATOM     26  O   UNL     1      21.444  -2.996  36.949  1.00  0.00    -0.387 OA
ATOM     27  H   UNL     1      22.146  -3.635  36.650  1.00  0.00     0.211 HD
ENDBRANCH   6  26
BRANCH   5  28
ATOM     28  O   UNL     1      20.223   0.143  36.242  1.00  0.00    -0.385 OA
ATOM     29  H   UNL     1      20.009  -0.473  35.493  1.00  0.00     0.211 HD
ENDBRANCH   5  28
BRANCH   4  30
ATOM     30  O   UNL     1      21.100   1.257  38.700  1.00  0.00    -0.341 OA
BRANCH  30  31
ATOM     31  C   UNL     1      20.940   2.564  38.153  1.00  0.00     0.184 C 
ATOM     32  C   UNL     1      21.923   2.708  36.954  1.00  0.00     0.178 C 
ATOM     33  C   UNL     1      21.196   3.586  39.280  1.00  0.00     0.180 C 
ATOM     34  O   UNL     1      23.289   2.844  37.330  1.00  0.00    -0.342 OA
ATOM     35  C   UNL     1      22.705   3.747  39.541  1.00  0.00     0.201 C 
ATOM     36  C   UNL     1      23.527   3.905  38.237  1.00  0.00     0.279 C 
BRANCH  32  37
ATOM     37  C   UNL     1      21.510   3.686  35.830  1.00  0.00     0.191 C 
BRANCH  37  38
ATOM     38  O   UNL     1      20.747   4.746  36.312  1.00  0.00    -0.394 OA
ATOM     39  H   UNL     1      19.877   4.710  35.831  1.00  0.00     0.210 HD
ENDBRANCH  37  38
ENDBRANCH  32  37
BRANCH  33  40
ATOM     40  O   UNL     1      20.592   4.820  38.952  1.00  0.00    -0.387 OA
ATOM     41  H   UNL     1      20.546   5.369  39.782  1.00  0.00     0.211 HD
ENDBRANCH  33  40
BRANCH  35  42
ATOM     42  O   UNL     1      22.975   4.765  40.469  1.00  0.00    -0.385 OA
ATOM     43  H   UNL     1      23.273   5.571  39.987  1.00  0.00     0.211 HD
ENDBRANCH  35  42
BRANCH  36  44
ATOM     44  O   UNL     1      23.431   5.148  37.579  1.00  0.00    -0.366 OA
ATOM     45  H   UNL     1      22.650   5.145  36.976  1.00  0.00     0.213 HD
ENDBRANCH  36  44
ENDBRANCH  30  31
ENDBRANCH   4  30
TORSDOF 18
ENDMDL
MODEL 9
REMARK VINA RESULT:    -5.656      4.911      7.773
REMARK INTER + INTRA:         -11.526
REMARK INTER:                  -9.500
REMARK INTRA:                  -2.027
REMARK UNBOUND:                -1.738
REMARK SMILES OC[C@@H]1O[C@H](O[C@H]2[C@H](O)[C@H](O)[C@H](O)O[C@@H]2CO)[C@@H](O)[C@H](O)[C@@H]1O[C@H]1O[C@H](CO)[C@H](O)[C@H](O)[C@H]1O
REMARK SMILES IDX 22 1 3 2 4 3 5 4 18 5 20 6 23 7 24 8 26 9 29 10 25 11 31 12
REMARK SMILES IDX 33 13 27 14 28 15 30 17 32 19 34 21 2 23 1 24 21 26 19 28
REMARK SMILES IDX 6 30 7 31 15 32 8 33 14 34 10 35 12 36 16 37 17 38 9 40
REMARK SMILES IDX 11 42 13 44
REMARK H PARENT 28 16 30 18 32 20 34 22 1 25 21 27 19 29 17 39 9 41 11 43
REMARK H PARENT 13 45
REMARK Flexibility Score: inf
ROOT
ATOM      1  C   UNL     1      38.540   1.954  38.476  1.00  0.00     0.184 C 
ATOM      2  C   UNL     1      37.183   1.412  39.078  1.00  0.00     0.178 C 
ATOM      3  O   UNL     1      36.934   1.861  40.404  1.00  0.00    -0.341 OA
ATOM      4  C   UNL     1      38.129   1.990  41.165  1.00  0.00     0.282 C 
ATOM      5  C   UNL     1      38.845   3.268  40.685  1.00  0.00     0.202 C 
ATOM      6  C   UNL     1      38.954   3.296  39.134  1.00  0.00     0.180 C 
ENDROOT
BRANCH   1   7
ATOM      7  O   UNL     1      38.479   2.121  37.061  1.00  0.00    -0.341 OA
BRANCH   7   8
ATOM      8  C   UNL     1      38.462   0.921  36.279  1.00  0.00     0.282 C 
ATOM      9  C   UNL     1      37.318  -0.382  34.671  1.00  0.00     0.178 C 
ATOM     10  C   UNL     1      38.667  -0.933  34.091  1.00  0.00     0.177 C 
ATOM     11  O   UNL     1      37.454   0.899  35.277  1.00  0.00    -0.341 OA
ATOM     12  C   UNL     1      39.915  -0.683  34.980  1.00  0.00     0.179 C 
ATOM     13  C   UNL     1      39.848   0.690  35.661  1.00  0.00     0.202 C 
BRANCH   9  14
ATOM     14  C   UNL     1      36.425  -1.315  35.549  1.00  0.00     0.191 C 
BRANCH  14  15
ATOM     15  O   UNL     1      37.150  -2.343  36.159  1.00  0.00    -0.394 OA
ATOM     16  H   UNL     1      37.840  -1.900  36.737  1.00  0.00     0.210 HD
ENDBRANCH  14  15
ENDBRANCH   9  14
BRANCH  10  17
ATOM     17  O   UNL     1      38.578  -2.292  33.759  1.00  0.00    -0.387 OA
ATOM     18  H   UNL     1      37.616  -2.545  33.827  1.00  0.00     0.211 HD
ENDBRANCH  10  17
BRANCH  12  19
ATOM     19  O   UNL     1      40.125  -1.707  35.921  1.00  0.00    -0.387 OA
ATOM     20  H   UNL     1      39.252  -1.984  36.303  1.00  0.00     0.211 HD
ENDBRANCH  12  19
BRANCH  13  21
ATOM     21  O   UNL     1      40.123   1.700  34.728  1.00  0.00    -0.385 OA
ATOM     22  H   UNL     1      39.520   1.552  33.948  1.00  0.00     0.211 HD
ENDBRANCH  13  21
ENDBRANCH   7   8
ENDBRANCH   1   7
BRANCH   2  23
ATOM     23  C   UNL     1      35.930   1.735  38.241  1.00  0.00     0.191 C 
BRANCH  23  24
ATOM     24  O   UNL     1      36.018   3.021  37.700  1.00  0.00    -0.394 OA
ATOM     25  H   UNL     1      36.427   3.586  38.403  1.00  0.00     0.210 HD
ENDBRANCH  23  24
ENDBRANCH   2  23
BRANCH   6  26
ATOM     26  O   UNL     1      38.230   4.376  38.584  1.00  0.00    -0.387 OA
ATOM     27  H   UNL     1      38.846   4.889  37.993  1.00  0.00     0.211 HD
ENDBRANCH   6  26
BRANCH   5  28
ATOM     28  O   UNL     1      40.113   3.342  41.274  1.00  0.00    -0.385 OA
ATOM     29  H   UNL     1      40.160   4.222  41.732  1.00  0.00     0.211 HD
ENDBRANCH   5  28
BRANCH   4  30
ATOM     30  O   UNL     1      37.927   2.085  42.576  1.00  0.00    -0.341 OA
BRANCH  30  31
ATOM     31  C   UNL     1      38.501   1.052  43.373  1.00  0.00     0.184 C 
ATOM     32  C   UNL     1      37.790  -0.286  43.013  1.00  0.00     0.178 C 
ATOM     33  C   UNL     1      38.339   1.450  44.855  1.00  0.00     0.180 C 
ATOM     34  O   UNL     1      36.462  -0.397  43.514  1.00  0.00    -0.342 OA
ATOM     35  C   UNL     1      36.899   1.193  45.338  1.00  0.00     0.201 C 
ATOM     36  C   UNL     1      36.362  -0.198  44.912  1.00  0.00     0.279 C 
BRANCH  32  37
ATOM     37  C   UNL     1      38.612  -1.582  43.199  1.00  0.00     0.191 C 
BRANCH  37  38
ATOM     38  O   UNL     1      37.840  -2.724  43.005  1.00  0.00    -0.394 OA
ATOM     39  H   UNL     1      38.077  -3.077  42.106  1.00  0.00     0.210 HD
ENDBRANCH  37  38
ENDBRANCH  32  37
BRANCH  33  40
ATOM     40  O   UNL     1      39.282   0.754  45.643  1.00  0.00    -0.387 OA
ATOM     41  H   UNL     1      39.919   0.299  45.028  1.00  0.00     0.211 HD
ENDBRANCH  33  40
BRANCH  35  42
ATOM     42  O   UNL     1      36.754   1.421  46.715  1.00  0.00    -0.385 OA
ATOM     43  H   UNL     1      37.525   1.943  47.039  1.00  0.00     0.211 HD
ENDBRANCH  35  42
BRANCH  36  44
ATOM     44  O   UNL     1      36.876  -1.311  45.608  1.00  0.00    -0.366 OA
ATOM     45  H   UNL     1      36.155  -1.968  45.762  1.00  0.00     0.213 HD
ENDBRANCH  36  44
ENDBRANCH  30  31
ENDBRANCH   4  30
TORSDOF 18
ENDMDL
