MODEL 1
REMARK VINA RESULT:    -3.531      0.000      0.000
REMARK INTER + INTRA:          -4.602
REMARK INTER:                  -4.357
REMARK INTRA:                  -0.245
REMARK UNBOUND:                -0.245
REMARK SMILES CCCCCC(=O)[O-]
REMARK SMILES IDX 4 1 5 2 6 3 7 4 8 5 3 6 2 7 1 8
REMARK H PARENT
REMARK Flexibility Score: inf
ROOT
ATOM      1  C   UNL     1     -36.868  83.422 -18.076  1.00  0.00     0.006 C 
ENDROOT
BRANCH   1   2
ATOM      2  C   UNL     1     -36.167  84.651 -17.490  1.00  0.00     0.053 C 
BRANCH   2   3
ATOM      3  C   UNL     1     -34.965  85.008 -18.307  1.00  0.00     0.041 C 
ATOM      4  O   UNL     1     -34.968  84.821 -19.552  1.00  0.00    -0.550 OA
ATOM      5  O   UNL     1     -33.824  85.501 -17.687  1.00  0.00    -0.550 OA
ENDBRANCH   2   3
ENDBRANCH   1   2
BRANCH   1   6
ATOM      6  C   UNL     1     -36.186  82.128 -17.614  1.00  0.00     0.000 C 
BRANCH   6   7
ATOM      7  C   UNL     1     -35.615  81.352 -18.806  1.00  0.00    -0.003 C 
ATOM      8  C   UNL     1     -34.096  81.242 -18.716  1.00  0.00     0.004 C 
ENDBRANCH   6   7
ENDBRANCH   1   6
TORSDOF 4
ENDMDL
MODEL 2
REMARK VINA RESULT:    -3.509      0.898      1.757
REMARK INTER + INTRA:          -4.575
REMARK INTER:                  -4.353
REMARK INTRA:                  -0.222
REMARK UNBOUND:                -0.245
REMARK SMILES CCCCCC(=O)[O-]
REMARK SMILES IDX 4 1 5 2 6 3 7 4 8 5 3 6 2 7 1 8
REMARK H PARENT
REMARK Flexibility Score: inf
ROOT
ATOM      1  C   UNL     1     -36.931  83.607 -17.913  1.00  0.00     0.006 C 
ENDROOT
BRANCH   1   2
ATOM      2  C   UNL     1     -36.064  84.755 -17.390  1.00  0.00     0.053 C 
BRANCH   2   3
ATOM      3  C   UNL     1     -34.912  85.005 -18.312  1.00  0.00     0.041 C 
ATOM      4  O   UNL     1     -33.790  85.339 -17.849  1.00  0.00    -0.550 OA
ATOM      5  O   UNL     1     -35.090  84.915 -19.687  1.00  0.00    -0.550 OA
ENDBRANCH   2   3
ENDBRANCH   1   2
BRANCH   1   6
ATOM      6  C   UNL     1     -36.214  82.260 -17.754  1.00  0.00     0.000 C 
BRANCH   6   7
ATOM      7  C   UNL     1     -36.426  81.374 -18.987  1.00  0.00    -0.003 C 
ATOM      8  C   UNL     1     -37.470  81.974 -19.924  1.00  0.00     0.004 C 
ENDBRANCH   6   7
ENDBRANCH   1   6
TORSDOF 4
ENDMDL
MODEL 3
REMARK VINA RESULT:    -3.467     17.141     18.550
REMARK INTER + INTRA:          -4.523
REMARK INTER:                  -4.414
REMARK INTRA:                  -0.108
REMARK UNBOUND:                -0.245
REMARK SMILES CCCCCC(=O)[O-]
REMARK SMILES IDX 4 1 5 2 6 3 7 4 8 5 3 6 2 7 1 8
REMARK H PARENT
REMARK Flexibility Score: inf
ROOT
ATOM      1  C   UNL     1     -25.127  96.205 -28.192  1.00  0.00     0.006 C 
ENDROOT
BRANCH   1   2
ATOM      2  C   UNL     1     -25.551  94.791 -27.784  1.00  0.00     0.053 C 
BRANCH   2   3
ATOM      3  C   UNL     1     -26.591  94.845 -26.710  1.00  0.00     0.041 C 
ATOM      4  O   UNL     1     -26.342  95.419 -25.617  1.00  0.00    -0.550 OA
ATOM      5  O   UNL     1     -27.817  94.221 -26.896  1.00  0.00    -0.550 OA
ENDBRANCH   2   3
ENDBRANCH   1   2
BRANCH   1   6
ATOM      6  C   UNL     1     -24.383  96.191 -29.533  1.00  0.00     0.000 C 
BRANCH   6   7
ATOM      7  C   UNL     1     -24.359  94.781 -30.135  1.00  0.00    -0.003 C 
ATOM      8  C   UNL     1     -23.588  94.756 -31.450  1.00  0.00     0.004 C 
ENDBRANCH   6   7
ENDBRANCH   1   6
TORSDOF 4
ENDMDL
MODEL 4
REMARK VINA RESULT:    -3.416      1.834      3.436
REMARK INTER + INTRA:          -4.460
REMARK INTER:                  -4.249
REMARK INTRA:                  -0.211
REMARK UNBOUND:                -0.245
REMARK SMILES CCCCCC(=O)[O-]
REMARK SMILES IDX 4 1 5 2 6 3 7 4 8 5 3 6 2 7 1 8
REMARK H PARENT
REMARK Flexibility Score: inf
ROOT
ATOM      1  C   UNL     1     -36.163  82.251 -17.628  1.00  0.00     0.006 C 
ENDROOT
BRANCH   1   2
ATOM      2  C   UNL     1     -35.747  81.466 -18.874  1.00  0.00     0.053 C 
BRANCH   2   3
ATOM      3  C   UNL     1     -34.269  81.563 -19.085  1.00  0.00     0.041 C 
ATOM      4  O   UNL     1     -33.480  80.911 -18.351  1.00  0.00    -0.550 OA
ATOM      5  O   UNL     1     -33.759  82.409 -20.061  1.00  0.00    -0.550 OA
ENDBRANCH   2   3
ENDBRANCH   1   2
BRANCH   1   6
ATOM      6  C   UNL     1     -36.823  83.581 -18.010  1.00  0.00     0.000 C 
BRANCH   6   7
ATOM      7  C   UNL     1     -36.087  84.765 -17.370  1.00  0.00    -0.003 C 
ATOM      8  C   UNL     1     -34.885  85.187 -18.209  1.00  0.00     0.004 C 
ENDBRANCH   6   7
ENDBRANCH   1   6
TORSDOF 4
ENDMDL
MODEL 5
REMARK VINA RESULT:    -3.310      2.656      4.045
REMARK INTER + INTRA:          -4.330
REMARK INTER:                  -4.186
REMARK INTRA:                  -0.144
REMARK UNBOUND:                -0.245
REMARK SMILES CCCCCC(=O)[O-]
REMARK SMILES IDX 4 1 5 2 6 3 7 4 8 5 3 6 2 7 1 8
REMARK H PARENT
REMARK Flexibility Score: inf
ROOT
ATOM      1  C   UNL     1     -36.319  82.294 -17.817  1.00  0.00     0.006 C 
ENDROOT
BRANCH   1   2
ATOM      2  C   UNL     1     -36.131  81.578 -19.157  1.00  0.00     0.053 C 
BRANCH   2   3
ATOM      3  C   UNL     1     -37.419  81.546 -19.918  1.00  0.00     0.041 C 
ATOM      4  O   UNL     1     -38.367  80.816 -19.528  1.00  0.00    -0.550 OA
ATOM      5  O   UNL     1     -37.555  82.285 -21.086  1.00  0.00    -0.550 OA
ENDBRANCH   2   3
ENDBRANCH   1   2
BRANCH   1   6
ATOM      6  C   UNL     1     -36.890  83.702 -18.021  1.00  0.00     0.000 C 
BRANCH   6   7
ATOM      7  C   UNL     1     -36.010  84.757 -17.339  1.00  0.00    -0.003 C 
ATOM      8  C   UNL     1     -34.827  85.142 -18.221  1.00  0.00     0.004 C 
ENDBRANCH   6   7
ENDBRANCH   1   6
TORSDOF 4
ENDMDL
MODEL 6
REMARK VINA RESULT:    -3.265      1.520      2.992
REMARK INTER + INTRA:          -4.274
REMARK INTER:                  -4.022
REMARK INTRA:                  -0.252
REMARK UNBOUND:                -0.245
REMARK SMILES CCCCCC(=O)[O-]
REMARK SMILES IDX 4 1 5 2 6 3 7 4 8 5 3 6 2 7 1 8
REMARK H PARENT
REMARK Flexibility Score: inf
ROOT
ATOM      1  C   UNL     1     -35.516  81.561 -18.872  1.00  0.00     0.006 C 
ENDROOT
BRANCH   1   2
ATOM      2  C   UNL     1     -33.997  81.396 -18.781  1.00  0.00     0.053 C 
BRANCH   2   3
ATOM      3  C   UNL     1     -33.305  82.609 -19.319  1.00  0.00     0.041 C 
ATOM      4  O   UNL     1     -33.888  83.354 -20.149  1.00  0.00    -0.550 OA
ATOM      5  O   UNL     1     -31.999  82.889 -18.941  1.00  0.00    -0.550 OA
ENDBRANCH   2   3
ENDBRANCH   1   2
BRANCH   1   6
ATOM      6  C   UNL     1     -36.080  82.186 -17.590  1.00  0.00     0.000 C 
BRANCH   6   7
ATOM      7  C   UNL     1     -36.791  83.511 -17.889  1.00  0.00    -0.003 C 
ATOM      8  C   UNL     1     -35.933  84.703 -17.476  1.00  0.00     0.004 C 
ENDBRANCH   6   7
ENDBRANCH   1   6
TORSDOF 4
ENDMDL
MODEL 7
REMARK VINA RESULT:    -3.216     18.493     19.864
REMARK INTER + INTRA:          -4.213
REMARK INTER:                  -4.101
REMARK INTRA:                  -0.112
REMARK UNBOUND:                -0.245
REMARK SMILES CCCCCC(=O)[O-]
REMARK SMILES IDX 4 1 5 2 6 3 7 4 8 5 3 6 2 7 1 8
REMARK H PARENT
REMARK Flexibility Score: inf
ROOT
ATOM      1  C   UNL     1     -24.437  96.287 -29.503  1.00  0.00     0.006 C 
ENDROOT
BRANCH   1   2
ATOM      2  C   UNL     1     -24.346  94.898 -30.140  1.00  0.00     0.053 C 
BRANCH   2   3
ATOM      3  C   UNL     1     -23.532  94.950 -31.395  1.00  0.00     0.041 C 
ATOM      4  O   UNL     1     -23.332  96.050 -31.974  1.00  0.00    -0.550 OA
ATOM      5  O   UNL     1     -23.035  93.779 -31.951  1.00  0.00    -0.550 OA
ENDBRANCH   2   3
ENDBRANCH   1   2
BRANCH   1   6
ATOM      6  C   UNL     1     -25.172  96.227 -28.158  1.00  0.00     0.000 C 
BRANCH   6   7
ATOM      7  C   UNL     1     -25.517  94.781 -27.782  1.00  0.00    -0.003 C 
ATOM      8  C   UNL     1     -26.443  94.732 -26.571  1.00  0.00     0.004 C 
ENDBRANCH   6   7
ENDBRANCH   1   6
TORSDOF 4
ENDMDL
MODEL 8
REMARK VINA RESULT:    -3.158      2.242      2.972
REMARK INTER + INTRA:          -4.142
REMARK INTER:                  -4.055
REMARK INTRA:                  -0.087
REMARK UNBOUND:                -0.245
REMARK SMILES CCCCCC(=O)[O-]
REMARK SMILES IDX 4 1 5 2 6 3 7 4 8 5 3 6 2 7 1 8
REMARK H PARENT
REMARK Flexibility Score: inf
ROOT
ATOM      1  C   UNL     1     -36.344  81.722 -19.003  1.00  0.00     0.006 C 
ENDROOT
BRANCH   1   2
ATOM      2  C   UNL     1     -36.347  82.628 -17.769  1.00  0.00     0.053 C 
BRANCH   2   3
ATOM      3  C   UNL     1     -35.957  84.023 -18.142  1.00  0.00     0.041 C 
ATOM      4  O   UNL     1     -36.128  84.968 -17.327  1.00  0.00    -0.550 OA
ATOM      5  O   UNL     1     -35.449  84.289 -19.407  1.00  0.00    -0.550 OA
ENDBRANCH   2   3
ENDBRANCH   1   2
BRANCH   1   6
ATOM      6  C   UNL     1     -37.760  81.558 -19.569  1.00  0.00     0.000 C 
BRANCH   6   7
ATOM      7  C   UNL     1     -37.972  80.143 -20.121  1.00  0.00    -0.003 C 
ATOM      8  C   UNL     1     -39.378  79.637 -19.816  1.00  0.00     0.004 C 
ENDBRANCH   6   7
ENDBRANCH   1   6
TORSDOF 4
ENDMDL
MODEL 9
REMARK VINA RESULT:    -3.138     13.474     14.212
REMARK INTER + INTRA:          -4.117
REMARK INTER:                  -3.943
REMARK INTRA:                  -0.174
REMARK UNBOUND:                -0.245
REMARK SMILES CCCCCC(=O)[O-]
REMARK SMILES IDX 4 1 5 2 6 3 7 4 8 5 3 6 2 7 1 8
REMARK H PARENT
REMARK Flexibility Score: inf
ROOT
ATOM      1  C   UNL     1     -21.472  84.061 -23.231  1.00  0.00     0.006 C 
ENDROOT
BRANCH   1   2
ATOM      2  C   UNL     1     -21.446  85.557 -22.906  1.00  0.00     0.053 C 
BRANCH   2   3
ATOM      3  C   UNL     1     -22.377  86.305 -23.808  1.00  0.00     0.041 C 
ATOM      4  O   UNL     1     -23.535  85.863 -24.029  1.00  0.00    -0.550 OA
ATOM      5  O   UNL     1     -21.949  87.463 -24.443  1.00  0.00    -0.550 OA
ENDBRANCH   2   3
ENDBRANCH   1   2
BRANCH   1   6
ATOM      6  C   UNL     1     -22.045  83.254 -22.060  1.00  0.00     0.000 C 
BRANCH   6   7
ATOM      7  C   UNL     1     -22.205  84.130 -20.812  1.00  0.00    -0.003 C 
ATOM      8  C   UNL     1     -21.679  83.422 -19.568  1.00  0.00     0.004 C 
ENDBRANCH   6   7
ENDBRANCH   1   6
TORSDOF 4
ENDMDL
