MODEL 1
REMARK VINA RESULT:    -4.677      0.000      0.000
REMARK INTER + INTRA:          -9.373
REMARK INTER:                  -7.958
REMARK INTRA:                  -1.415
REMARK UNBOUND:                -1.415
REMARK SMILES CCCCCCCCCCCCCC(=O)[O-]
REMARK SMILES IDX 8 1 9 2 10 3 11 4 12 5 13 6 14 7 15 8 16 9 7 10 6 11 5 12
REMARK SMILES IDX 4 13 3 14 2 15 1 16
REMARK H PARENT
REMARK Flexibility Score: inf
ROOT
ATOM      1  C   UNL     1     -12.856 -12.385  13.790  1.00  0.00     0.000 C 
ENDROOT
BRANCH   1   2
ATOM      2  C   UNL     1     -12.670 -13.830  14.285  1.00  0.00     0.000 C 
BRANCH   2   3
ATOM      3  C   UNL     1     -11.347 -14.026  15.046  1.00  0.00     0.000 C 
BRANCH   3   4
ATOM      4  C   UNL     1     -10.958 -12.797  15.882  1.00  0.00     0.000 C 
BRANCH   4   5
ATOM      5  C   UNL     1      -9.500 -12.360  15.652  1.00  0.00     0.006 C 
BRANCH   5   6
ATOM      6  C   UNL     1      -9.277 -11.813  14.235  1.00  0.00     0.053 C 
BRANCH   6   7
ATOM      7  C   UNL     1      -8.139 -12.502  13.545  1.00  0.00     0.041 C 
ATOM      8  O   UNL     1      -6.978 -12.448  14.028  1.00  0.00    -0.550 OA
ATOM      9  O   UNL     1      -8.369 -13.228  12.383  1.00  0.00    -0.550 OA
ENDBRANCH   6   7
ENDBRANCH   5   6
ENDBRANCH   4   5
ENDBRANCH   3   4
ENDBRANCH   2   3
ENDBRANCH   1   2
BRANCH   1  10
ATOM     10  C   UNL     1     -14.223 -12.164  13.120  1.00  0.00     0.000 C 
BRANCH  10  11
ATOM     11  C   UNL     1     -15.102 -13.429  13.121  1.00  0.00    -0.000 C 
BRANCH  11  12
ATOM     12  C   UNL     1     -16.619 -13.170  13.104  1.00  0.00    -0.000 C 
BRANCH  12  13
ATOM     13  C   UNL     1     -17.292 -13.452  14.456  1.00  0.00    -0.000 C 
BRANCH  13  14
ATOM     14  C   UNL     1     -16.341 -14.214  15.392  1.00  0.00    -0.000 C 
BRANCH  14  15
ATOM     15  C   UNL     1     -16.225 -13.558  16.777  1.00  0.00    -0.003 C 
ATOM     16  C   UNL     1     -14.860 -12.910  17.011  1.00  0.00     0.004 C 
ENDBRANCH  14  15
ENDBRANCH  13  14
ENDBRANCH  12  13
ENDBRANCH  11  12
ENDBRANCH  10  11
ENDBRANCH   1  10
TORSDOF 12
ENDMDL
MODEL 2
REMARK VINA RESULT:    -4.627      3.175      7.064
REMARK INTER + INTRA:          -9.289
REMARK INTER:                  -7.989
REMARK INTRA:                  -1.299
REMARK UNBOUND:                -1.415
REMARK SMILES CCCCCCCCCCCCCC(=O)[O-]
REMARK SMILES IDX 8 1 9 2 10 3 11 4 12 5 13 6 14 7 15 8 16 9 7 10 6 11 5 12
REMARK SMILES IDX 4 13 3 14 2 15 1 16
REMARK H PARENT
REMARK Flexibility Score: inf
ROOT
ATOM      1  C   UNL     1     -10.870 -14.183  14.956  1.00  0.00     0.000 C 
ENDROOT
BRANCH   1   2
ATOM      2  C   UNL     1     -12.382 -14.196  14.668  1.00  0.00     0.000 C 
BRANCH   2   3
ATOM      3  C   UNL     1     -13.171 -13.286  15.626  1.00  0.00     0.000 C 
BRANCH   3   4
ATOM      4  C   UNL     1     -13.739 -12.042  14.926  1.00  0.00     0.000 C 
BRANCH   4   5
ATOM      5  C   UNL     1     -13.537 -12.075  13.401  1.00  0.00     0.006 C 
BRANCH   5   6
ATOM      6  C   UNL     1     -14.870 -12.072  12.640  1.00  0.00     0.053 C 
BRANCH   6   7
ATOM      7  C   UNL     1     -15.800 -13.134  13.143  1.00  0.00     0.041 C 
ATOM      8  O   UNL     1     -15.522 -14.351  12.979  1.00  0.00    -0.550 OA
ATOM      9  O   UNL     1     -16.960 -12.778  13.819  1.00  0.00    -0.550 OA
ENDBRANCH   6   7
ENDBRANCH   5   6
ENDBRANCH   4   5
ENDBRANCH   3   4
ENDBRANCH   2   3
ENDBRANCH   1   2
BRANCH   1  10
ATOM     10  C   UNL     1     -10.481 -13.137  16.014  1.00  0.00     0.000 C 
BRANCH  10  11
ATOM     11  C   UNL     1      -9.362 -12.192  15.538  1.00  0.00    -0.000 C 
BRANCH  11  12
ATOM     12  C   UNL     1      -9.650 -11.450  14.220  1.00  0.00    -0.000 C 
BRANCH  12  13
ATOM     13  C   UNL     1      -8.387 -11.200  13.382  1.00  0.00    -0.000 C 
BRANCH  13  14
ATOM     14  C   UNL     1      -7.315 -12.261  13.678  1.00  0.00    -0.000 C 
BRANCH  14  15
ATOM     15  C   UNL     1      -5.901 -11.663  13.763  1.00  0.00    -0.003 C 
ATOM     16  C   UNL     1      -5.905 -10.135  13.771  1.00  0.00     0.004 C 
ENDBRANCH  14  15
ENDBRANCH  13  14
ENDBRANCH  12  13
ENDBRANCH  11  12
ENDBRANCH  10  11
ENDBRANCH   1  10
TORSDOF 12
ENDMDL
MODEL 3
REMARK VINA RESULT:    -4.554      1.112      2.487
REMARK INTER + INTRA:          -9.163
REMARK INTER:                  -8.195
REMARK INTRA:                  -0.968
REMARK UNBOUND:                -1.415
REMARK SMILES CCCCCCCCCCCCCC(=O)[O-]
REMARK SMILES IDX 8 1 9 2 10 3 11 4 12 5 13 6 14 7 15 8 16 9 7 10 6 11 5 12
REMARK SMILES IDX 4 13 3 14 2 15 1 16
REMARK H PARENT
REMARK Flexibility Score: inf
ROOT
ATOM      1  C   UNL     1     -12.175 -13.996  14.445  1.00  0.00     0.000 C 
ENDROOT
BRANCH   1   2
ATOM      2  C   UNL     1     -10.745 -14.126  14.996  1.00  0.00     0.000 C 
BRANCH   2   3
ATOM      3  C   UNL     1     -10.292 -12.870  15.761  1.00  0.00     0.000 C 
BRANCH   3   4
ATOM      4  C   UNL     1      -8.786 -12.873  16.064  1.00  0.00     0.000 C 
BRANCH   4   5
ATOM      5  C   UNL     1      -8.069 -11.624  15.522  1.00  0.00     0.006 C 
BRANCH   5   6
ATOM      6  C   UNL     1      -8.375 -11.378  14.039  1.00  0.00     0.053 C 
BRANCH   6   7
ATOM      7  C   UNL     1      -7.386 -12.063  13.146  1.00  0.00     0.041 C 
ATOM      8  O   UNL     1      -7.783 -12.747  12.166  1.00  0.00    -0.550 OA
ATOM      9  O   UNL     1      -6.024 -11.921  13.380  1.00  0.00    -0.550 OA
ENDBRANCH   6   7
ENDBRANCH   5   6
ENDBRANCH   4   5
ENDBRANCH   3   4
ENDBRANCH   2   3
ENDBRANCH   1   2
BRANCH   1  10
ATOM     10  C   UNL     1     -12.541 -12.544  14.092  1.00  0.00     0.000 C 
BRANCH  10  11
ATOM     11  C   UNL     1     -13.685 -11.987  14.959  1.00  0.00    -0.000 C 
BRANCH  11  12
ATOM     12  C   UNL     1     -14.243 -12.964  16.010  1.00  0.00    -0.000 C 
BRANCH  12  13
ATOM     13  C   UNL     1     -15.672 -13.431  15.695  1.00  0.00    -0.000 C 
BRANCH  13  14
ATOM     14  C   UNL     1     -16.247 -12.666  14.493  1.00  0.00    -0.000 C 
BRANCH  14  15
ATOM     15  C   UNL     1     -17.509 -13.329  13.920  1.00  0.00    -0.003 C 
ATOM     16  C   UNL     1     -17.194 -14.552  13.058  1.00  0.00     0.004 C 
ENDBRANCH  14  15
ENDBRANCH  13  14
ENDBRANCH  12  13
ENDBRANCH  11  12
ENDBRANCH  10  11
ENDBRANCH   1  10
TORSDOF 12
ENDMDL
MODEL 4
REMARK VINA RESULT:    -4.486      3.207      6.890
REMARK INTER + INTRA:          -9.048
REMARK INTER:                  -7.852
REMARK INTRA:                  -1.196
REMARK UNBOUND:                -1.415
REMARK SMILES CCCCCCCCCCCCCC(=O)[O-]
REMARK SMILES IDX 8 1 9 2 10 3 11 4 12 5 13 6 14 7 15 8 16 9 7 10 6 11 5 12
REMARK SMILES IDX 4 13 3 14 2 15 1 16
REMARK H PARENT
REMARK Flexibility Score: inf
ROOT
ATOM      1  C   UNL     1     -12.374 -12.352  13.718  1.00  0.00     0.000 C 
ENDROOT
BRANCH   1   2
ATOM      2  C   UNL     1     -13.798 -11.776  13.640  1.00  0.00     0.000 C 
BRANCH   2   3
ATOM      3  C   UNL     1     -14.647 -12.448  12.546  1.00  0.00     0.000 C 
BRANCH   3   4
ATOM      4  C   UNL     1     -15.928 -13.089  13.102  1.00  0.00     0.000 C 
BRANCH   4   5
ATOM      5  C   UNL     1     -16.291 -12.571  14.504  1.00  0.00     0.006 C 
BRANCH   5   6
ATOM      6  C   UNL     1     -16.481 -13.713  15.512  1.00  0.00     0.053 C 
BRANCH   6   7
ATOM      7  C   UNL     1     -15.870 -13.390  16.841  1.00  0.00     0.041 C 
ATOM      8  O   UNL     1     -16.585 -13.355  17.876  1.00  0.00    -0.550 OA
ATOM      9  O   UNL     1     -14.504 -13.156  16.939  1.00  0.00    -0.550 OA
ENDBRANCH   6   7
ENDBRANCH   5   6
ENDBRANCH   4   5
ENDBRANCH   3   4
ENDBRANCH   2   3
ENDBRANCH   1   2
BRANCH   1  10
ATOM     10  C   UNL     1     -12.341 -13.756  14.347  1.00  0.00     0.000 C 
BRANCH  10  11
ATOM     11  C   UNL     1     -11.057 -14.018  15.156  1.00  0.00    -0.000 C 
BRANCH  11  12
ATOM     12  C   UNL     1     -10.423 -12.771  15.797  1.00  0.00    -0.000 C 
BRANCH  12  13
ATOM     13  C   UNL     1      -8.914 -12.658  15.527  1.00  0.00    -0.000 C 
BRANCH  13  14
ATOM     14  C   UNL     1      -8.552 -11.255  15.016  1.00  0.00    -0.000 C 
BRANCH  14  15
ATOM     15  C   UNL     1      -8.179 -11.248  13.526  1.00  0.00    -0.003 C 
ATOM     16  C   UNL     1      -8.083 -12.655  12.934  1.00  0.00     0.004 C 
ENDBRANCH  14  15
ENDBRANCH  13  14
ENDBRANCH  12  13
ENDBRANCH  11  12
ENDBRANCH  10  11
ENDBRANCH   1  10
TORSDOF 12
ENDMDL
MODEL 5
REMARK VINA RESULT:    -4.484      3.809      6.715
REMARK INTER + INTRA:          -9.044
REMARK INTER:                  -7.795
REMARK INTRA:                  -1.249
REMARK UNBOUND:                -1.415
REMARK SMILES CCCCCCCCCCCCCC(=O)[O-]
REMARK SMILES IDX 8 1 9 2 10 3 11 4 12 5 13 6 14 7 15 8 16 9 7 10 6 11 5 12
REMARK SMILES IDX 4 13 3 14 2 15 1 16
REMARK H PARENT
REMARK Flexibility Score: inf
ROOT
ATOM      1  C   UNL     1     -14.235 -11.986  12.707  1.00  0.00     0.000 C 
ENDROOT
BRANCH   1   2
ATOM      2  C   UNL     1     -15.338 -12.911  13.249  1.00  0.00     0.000 C 
BRANCH   2   3
ATOM      3  C   UNL     1     -15.943 -12.396  14.567  1.00  0.00     0.000 C 
BRANCH   3   4
ATOM      4  C   UNL     1     -16.527 -13.525  15.431  1.00  0.00     0.000 C 
BRANCH   4   5
ATOM      5  C   UNL     1     -15.663 -13.835  16.666  1.00  0.00     0.006 C 
BRANCH   5   6
ATOM      6  C   UNL     1     -15.162 -12.559  17.357  1.00  0.00     0.053 C 
BRANCH   6   7
ATOM      7  C   UNL     1     -15.809 -12.359  18.693  1.00  0.00     0.041 C 
ATOM      8  O   UNL     1     -16.976 -12.781  18.902  1.00  0.00    -0.550 OA
ATOM      9  O   UNL     1     -15.111 -11.730  19.716  1.00  0.00    -0.550 OA
ENDBRANCH   6   7
ENDBRANCH   5   6
ENDBRANCH   4   5
ENDBRANCH   3   4
ENDBRANCH   2   3
ENDBRANCH   1   2
BRANCH   1  10
ATOM     10  C   UNL     1     -13.164 -11.665  13.764  1.00  0.00     0.000 C 
BRANCH  10  11
ATOM     11  C   UNL     1     -12.252 -12.866  14.076  1.00  0.00    -0.000 C 
BRANCH  11  12
ATOM     12  C   UNL     1     -11.958 -13.091  15.571  1.00  0.00    -0.000 C 
BRANCH  12  13
ATOM     13  C   UNL     1     -10.526 -12.700  15.966  1.00  0.00    -0.000 C 
BRANCH  13  14
ATOM     14  C   UNL     1      -9.659 -12.460  14.720  1.00  0.00    -0.000 C 
BRANCH  14  15
ATOM     15  C   UNL     1      -8.612 -11.356  14.934  1.00  0.00    -0.003 C 
ATOM     16  C   UNL     1      -8.705 -10.243  13.890  1.00  0.00     0.004 C 
ENDBRANCH  14  15
ENDBRANCH  13  14
ENDBRANCH  12  13
ENDBRANCH  11  12
ENDBRANCH  10  11
ENDBRANCH   1  10
TORSDOF 12
ENDMDL
MODEL 6
REMARK VINA RESULT:    -4.441      1.363      2.734
REMARK INTER + INTRA:          -8.972
REMARK INTER:                  -8.017
REMARK INTRA:                  -0.954
REMARK UNBOUND:                -1.415
REMARK SMILES CCCCCCCCCCCCCC(=O)[O-]
REMARK SMILES IDX 8 1 9 2 10 3 11 4 12 5 13 6 14 7 15 8 16 9 7 10 6 11 5 12
REMARK SMILES IDX 4 13 3 14 2 15 1 16
REMARK H PARENT
REMARK Flexibility Score: inf
ROOT
ATOM      1  C   UNL     1     -12.500 -13.438  14.778  1.00  0.00     0.000 C 
ENDROOT
BRANCH   1   2
ATOM      2  C   UNL     1     -11.209 -14.270  14.866  1.00  0.00     0.000 C 
BRANCH   2   3
ATOM      3  C   UNL     1     -10.021 -13.456  15.409  1.00  0.00     0.000 C 
BRANCH   3   4
ATOM      4  C   UNL     1      -9.960 -12.036  14.824  1.00  0.00     0.000 C 
BRANCH   4   5
ATOM      5  C   UNL     1      -8.886 -11.890  13.732  1.00  0.00     0.006 C 
BRANCH   5   6
ATOM      6  C   UNL     1      -8.016 -10.643  13.938  1.00  0.00     0.053 C 
BRANCH   6   7
ATOM      7  C   UNL     1      -6.759 -10.959  14.690  1.00  0.00     0.041 C 
ATOM      8  O   UNL     1      -6.764 -10.997  15.948  1.00  0.00    -0.550 OA
ATOM      9  O   UNL     1      -5.588 -11.239  13.997  1.00  0.00    -0.550 OA
ENDBRANCH   6   7
ENDBRANCH   5   6
ENDBRANCH   4   5
ENDBRANCH   3   4
ENDBRANCH   2   3
ENDBRANCH   1   2
BRANCH   1  10
ATOM     10  C   UNL     1     -13.116 -13.157  16.159  1.00  0.00     0.000 C 
BRANCH  10  11
ATOM     11  C   UNL     1     -14.494 -12.475  16.073  1.00  0.00    -0.000 C 
BRANCH  11  12
ATOM     12  C   UNL     1     -15.686 -13.359  16.485  1.00  0.00    -0.000 C 
BRANCH  12  13
ATOM     13  C   UNL     1     -16.541 -13.809  15.291  1.00  0.00    -0.000 C 
BRANCH  13  14
ATOM     14  C   UNL     1     -16.569 -12.728  14.199  1.00  0.00    -0.000 C 
BRANCH  14  15
ATOM     15  C   UNL     1     -15.927 -13.201  12.885  1.00  0.00    -0.003 C 
ATOM     16  C   UNL     1     -14.933 -12.188  12.316  1.00  0.00     0.004 C 
ENDBRANCH  14  15
ENDBRANCH  13  14
ENDBRANCH  12  13
ENDBRANCH  11  12
ENDBRANCH  10  11
ENDBRANCH   1  10
TORSDOF 12
ENDMDL
MODEL 7
REMARK VINA RESULT:    -4.314      3.268      7.314
REMARK INTER + INTRA:          -8.755
REMARK INTER:                  -7.935
REMARK INTRA:                  -0.820
REMARK UNBOUND:                -1.415
REMARK SMILES CCCCCCCCCCCCCC(=O)[O-]
REMARK SMILES IDX 8 1 9 2 10 3 11 4 12 5 13 6 14 7 15 8 16 9 7 10 6 11 5 12
REMARK SMILES IDX 4 13 3 14 2 15 1 16
REMARK H PARENT
REMARK Flexibility Score: inf
ROOT
ATOM      1  C   UNL     1     -12.347 -14.085  14.393  1.00  0.00     0.000 C 
ENDROOT
BRANCH   1   2
ATOM      2  C   UNL     1     -13.315 -13.655  15.508  1.00  0.00     0.000 C 
BRANCH   2   3
ATOM      3  C   UNL     1     -13.960 -12.285  15.232  1.00  0.00     0.000 C 
BRANCH   3   4
ATOM      4  C   UNL     1     -15.496 -12.336  15.269  1.00  0.00     0.000 C 
BRANCH   4   5
ATOM      5  C   UNL     1     -16.036 -13.745  15.569  1.00  0.00     0.006 C 
BRANCH   5   6
ATOM      6  C   UNL     1     -17.227 -14.112  14.674  1.00  0.00     0.053 C 
BRANCH   6   7
ATOM      7  C   UNL     1     -16.799 -14.396  13.267  1.00  0.00     0.041 C 
ATOM      8  O   UNL     1     -17.599 -14.214  12.311  1.00  0.00    -0.550 OA
ATOM      9  O   UNL     1     -15.507 -14.836  13.009  1.00  0.00    -0.550 OA
ENDBRANCH   6   7
ENDBRANCH   5   6
ENDBRANCH   4   5
ENDBRANCH   3   4
ENDBRANCH   2   3
ENDBRANCH   1   2
BRANCH   1  10
ATOM     10  C   UNL     1     -10.922 -14.335  14.914  1.00  0.00     0.000 C 
BRANCH  10  11
ATOM     11  C   UNL     1     -10.291 -13.084  15.554  1.00  0.00    -0.000 C 
BRANCH  11  12
ATOM     12  C   UNL     1     -10.110 -11.885  14.604  1.00  0.00    -0.000 C 
BRANCH  12  13
ATOM     13  C   UNL     1      -8.819 -11.965  13.776  1.00  0.00    -0.000 C 
BRANCH  13  14
ATOM     14  C   UNL     1      -8.122 -10.597  13.715  1.00  0.00    -0.000 C 
BRANCH  14  15
ATOM     15  C   UNL     1      -6.763 -10.595  14.432  1.00  0.00    -0.003 C 
ATOM     16  C   UNL     1      -5.668 -11.292  13.624  1.00  0.00     0.004 C 
ENDBRANCH  14  15
ENDBRANCH  13  14
ENDBRANCH  12  13
ENDBRANCH  11  12
ENDBRANCH  10  11
ENDBRANCH   1  10
TORSDOF 12
ENDMDL
MODEL 8
REMARK VINA RESULT:    -4.264      1.074      2.712
REMARK INTER + INTRA:          -8.671
REMARK INTER:                  -7.797
REMARK INTRA:                  -0.874
REMARK UNBOUND:                -1.415
REMARK SMILES CCCCCCCCCCCCCC(=O)[O-]
REMARK SMILES IDX 8 1 9 2 10 3 11 4 12 5 13 6 14 7 15 8 16 9 7 10 6 11 5 12
REMARK SMILES IDX 4 13 3 14 2 15 1 16
REMARK H PARENT
REMARK Flexibility Score: inf
ROOT
ATOM      1  C   UNL     1     -14.514 -13.292  16.882  1.00  0.00     0.000 C 
ENDROOT
BRANCH   1   2
ATOM      2  C   UNL     1     -13.534 -13.741  15.784  1.00  0.00     0.000 C 
BRANCH   2   3
ATOM      3  C   UNL     1     -12.357 -12.765  15.611  1.00  0.00     0.000 C 
BRANCH   3   4
ATOM      4  C   UNL     1     -11.053 -13.476  15.218  1.00  0.00     0.000 C 
BRANCH   4   5
ATOM      5  C   UNL     1      -9.800 -12.651  15.562  1.00  0.00     0.006 C 
BRANCH   5   6
ATOM      6  C   UNL     1      -9.560 -11.516  14.557  1.00  0.00     0.053 C 
BRANCH   6   7
ATOM      7  C   UNL     1      -8.217 -11.628  13.902  1.00  0.00     0.041 C 
ATOM      8  O   UNL     1      -7.837 -12.726  13.417  1.00  0.00    -0.550 OA
ATOM      9  O   UNL     1      -7.398 -10.510  13.801  1.00  0.00    -0.550 OA
ENDBRANCH   6   7
ENDBRANCH   5   6
ENDBRANCH   4   5
ENDBRANCH   3   4
ENDBRANCH   2   3
ENDBRANCH   1   2
BRANCH   1  10
ATOM     10  C   UNL     1     -15.932 -13.851  16.670  1.00  0.00     0.000 C 
BRANCH  10  11
ATOM     11  C   UNL     1     -16.586 -13.347  15.370  1.00  0.00    -0.000 C 
BRANCH  11  12
ATOM     12  C   UNL     1     -17.178 -14.446  14.468  1.00  0.00    -0.000 C 
BRANCH  12  13
ATOM     13  C   UNL     1     -16.630 -14.406  13.034  1.00  0.00    -0.000 C 
BRANCH  13  14
ATOM     14  C   UNL     1     -15.245 -13.741  12.995  1.00  0.00    -0.000 C 
BRANCH  14  15
ATOM     15  C   UNL     1     -15.277 -12.349  12.343  1.00  0.00    -0.003 C 
ATOM     16  C   UNL     1     -13.963 -11.588  12.511  1.00  0.00     0.004 C 
ENDBRANCH  14  15
ENDBRANCH  13  14
ENDBRANCH  12  13
ENDBRANCH  11  12
ENDBRANCH  10  11
ENDBRANCH   1  10
TORSDOF 12
ENDMDL
MODEL 9
REMARK VINA RESULT:    -4.255      1.625      2.319
REMARK INTER + INTRA:          -8.654
REMARK INTER:                  -7.847
REMARK INTRA:                  -0.807
REMARK UNBOUND:                -1.415
REMARK SMILES CCCCCCCCCCCCCC(=O)[O-]
REMARK SMILES IDX 8 1 9 2 10 3 11 4 12 5 13 6 14 7 15 8 16 9 7 10 6 11 5 12
REMARK SMILES IDX 4 13 3 14 2 15 1 16
REMARK H PARENT
REMARK Flexibility Score: inf
ROOT
ATOM      1  C   UNL     1     -13.791 -14.090  13.956  1.00  0.00     0.000 C 
ENDROOT
BRANCH   1   2
ATOM      2  C   UNL     1     -12.423 -14.293  14.631  1.00  0.00     0.000 C 
BRANCH   2   3
ATOM      3  C   UNL     1     -12.106 -13.196  15.662  1.00  0.00     0.000 C 
BRANCH   3   4
ATOM      4  C   UNL     1     -10.633 -12.760  15.627  1.00  0.00     0.000 C 
BRANCH   4   5
ATOM      5  C   UNL     1     -10.140 -12.445  14.204  1.00  0.00     0.006 C 
BRANCH   5   6
ATOM      6  C   UNL     1      -8.903 -11.536  14.207  1.00  0.00     0.053 C 
BRANCH   6   7
ATOM      7  C   UNL     1      -7.750 -12.164  13.486  1.00  0.00     0.041 C 
ATOM      8  O   UNL     1      -7.929 -12.735  12.378  1.00  0.00    -0.550 OA
ATOM      9  O   UNL     1      -6.472 -12.093  14.026  1.00  0.00    -0.550 OA
ENDBRANCH   6   7
ENDBRANCH   5   6
ENDBRANCH   4   5
ENDBRANCH   3   4
ENDBRANCH   2   3
ENDBRANCH   1   2
BRANCH   1  10
ATOM     10  C   UNL     1     -14.264 -12.627  14.014  1.00  0.00     0.000 C 
BRANCH  10  11
ATOM     11  C   UNL     1     -15.563 -12.449  14.821  1.00  0.00    -0.000 C 
BRANCH  11  12
ATOM     12  C   UNL     1     -15.757 -13.450  15.975  1.00  0.00    -0.000 C 
BRANCH  12  13
ATOM     13  C   UNL     1     -15.443 -12.847  17.352  1.00  0.00    -0.000 C 
BRANCH  13  14
ATOM     14  C   UNL     1     -16.622 -13.043  18.318  1.00  0.00    -0.000 C 
BRANCH  14  15
ATOM     15  C   UNL     1     -16.416 -12.314  19.655  1.00  0.00    -0.003 C 
ATOM     16  C   UNL     1     -17.690 -11.637  20.161  1.00  0.00     0.004 C 
ENDBRANCH  14  15
ENDBRANCH  13  14
ENDBRANCH  12  13
ENDBRANCH  11  12
ENDBRANCH  10  11
ENDBRANCH   1  10
TORSDOF 12
ENDMDL
