MODEL 1
REMARK VINA RESULT:    -3.577      0.000      0.000
REMARK INTER + INTRA:          -4.194
REMARK INTER:                  -4.099
REMARK INTRA:                  -0.095
REMARK UNBOUND:                -0.095
REMARK SMILES COc1cc(C(=O)[O-])ccc1O
REMARK SMILES IDX 5 1 9 2 4 3 10 4 3 5 11 6 6 7 7 8 8 9 2 10 1 11 12 12
REMARK H PARENT 12 13
REMARK Flexibility Score: inf
ROOT
ATOM      1  C   UNL     1      65.969  50.926  36.315  1.00  0.00     0.001 A 
ATOM      2  C   UNL     1      64.605  50.855  36.640  1.00  0.00     0.014 A 
ATOM      3  C   UNL     1      66.892  50.180  37.068  1.00  0.00     0.060 A 
ATOM      4  C   UNL     1      64.173  50.054  37.698  1.00  0.00     0.051 A 
ATOM      5  C   UNL     1      66.462  49.369  38.138  1.00  0.00     0.161 A 
ATOM      6  C   UNL     1      65.091  49.312  38.447  1.00  0.00     0.157 A 
ENDROOT
BRANCH   1   7
ATOM      7  C   UNL     1      66.432  51.774  35.193  1.00  0.00     0.072 C 
ATOM      8  O   UNL     1      66.600  51.284  34.045  1.00  0.00    -0.545 OA
ATOM      9  O   UNL     1      66.688  53.127  35.390  1.00  0.00    -0.545 OA
ENDBRANCH   1   7
BRANCH   5  10
ATOM     10  O   UNL     1      67.360  48.612  38.908  1.00  0.00    -0.493 OA
ATOM     11  C   UNL     1      68.098  49.117  40.016  1.00  0.00     0.278 C 
ENDBRANCH   5  10
BRANCH   6  12
ATOM     12  O   UNL     1      64.620  48.523  39.497  1.00  0.00    -0.504 OA
ATOM     13  H   UNL     1      64.126  47.653  39.339  1.00  0.00     0.293 HD
ENDBRANCH   6  12
TORSDOF 3
ENDMDL
MODEL 2
REMARK VINA RESULT:    -3.525      2.465      2.962
REMARK INTER + INTRA:          -4.135
REMARK INTER:                  -4.052
REMARK INTRA:                  -0.083
REMARK UNBOUND:                -0.095
REMARK SMILES COc1cc(C(=O)[O-])ccc1O
REMARK SMILES IDX 5 1 9 2 4 3 10 4 3 5 11 6 6 7 7 8 8 9 2 10 1 11 12 12
REMARK H PARENT 12 13
REMARK Flexibility Score: inf
ROOT
ATOM      1  C   UNL     1      65.315  52.362  38.483  1.00  0.00     0.001 A 
ATOM      2  C   UNL     1      64.927  51.680  37.317  1.00  0.00     0.014 A 
ATOM      3  C   UNL     1      65.394  51.653  39.694  1.00  0.00     0.060 A 
ATOM      4  C   UNL     1      64.625  50.319  37.363  1.00  0.00     0.051 A 
ATOM      5  C   UNL     1      65.090  50.278  39.747  1.00  0.00     0.161 A 
ATOM      6  C   UNL     1      64.704  49.615  38.568  1.00  0.00     0.157 A 
ENDROOT
BRANCH   1   7
ATOM      7  C   UNL     1      65.637  53.806  38.438  1.00  0.00     0.072 C 
ATOM      8  O   UNL     1      66.487  54.298  39.227  1.00  0.00    -0.545 OA
ATOM      9  O   UNL     1      65.005  54.642  37.524  1.00  0.00    -0.545 OA
ENDBRANCH   1   7
BRANCH   5  10
ATOM     10  O   UNL     1      65.160  49.544  40.943  1.00  0.00    -0.493 OA
ATOM     11  C   UNL     1      66.159  49.721  41.942  1.00  0.00     0.278 C 
ENDBRANCH   5  10
BRANCH   6  12
ATOM     12  O   UNL     1      64.393  48.255  38.574  1.00  0.00    -0.504 OA
ATOM     13  H   UNL     1      63.555  47.895  39.015  1.00  0.00     0.293 HD
ENDBRANCH   6  12
TORSDOF 3
ENDMDL
MODEL 3
REMARK VINA RESULT:    -3.474      3.075      4.285
REMARK INTER + INTRA:          -4.076
REMARK INTER:                  -3.998
REMARK INTRA:                  -0.079
REMARK UNBOUND:                -0.095
REMARK SMILES COc1cc(C(=O)[O-])ccc1O
REMARK SMILES IDX 5 1 9 2 4 3 10 4 3 5 11 6 6 7 7 8 8 9 2 10 1 11 12 12
REMARK H PARENT 12 13
REMARK Flexibility Score: inf
ROOT
ATOM      1  C   UNL     1      65.634  52.046  39.883  1.00  0.00     0.001 A 
ATOM      2  C   UNL     1      65.928  50.918  40.665  1.00  0.00     0.014 A 
ATOM      3  C   UNL     1      64.963  51.874  38.660  1.00  0.00     0.060 A 
ATOM      4  C   UNL     1      65.560  49.643  40.233  1.00  0.00     0.051 A 
ATOM      5  C   UNL     1      64.589  50.589  38.217  1.00  0.00     0.161 A 
ATOM      6  C   UNL     1      64.893  49.472  39.016  1.00  0.00     0.157 A 
ENDROOT
BRANCH   1   7
ATOM      7  C   UNL     1      66.022  53.400  40.339  1.00  0.00     0.072 C 
ATOM      8  O   UNL     1      66.716  54.150  39.602  1.00  0.00    -0.545 OA
ATOM      9  O   UNL     1      65.626  53.865  41.588  1.00  0.00    -0.545 OA
ENDBRANCH   1   7
BRANCH   5  10
ATOM     10  O   UNL     1      63.919  50.386  36.999  1.00  0.00    -0.493 OA
ATOM     11  C   UNL     1      64.162  51.130  35.809  1.00  0.00     0.278 C 
ENDBRANCH   5  10
BRANCH   6  12
ATOM     12  O   UNL     1      64.542  48.182  38.617  1.00  0.00    -0.504 OA
ATOM     13  H   UNL     1      65.050  47.683  37.898  1.00  0.00     0.293 HD
ENDBRANCH   6  12
TORSDOF 3
ENDMDL
MODEL 4
REMARK VINA RESULT:    -3.449      2.412      4.332
REMARK INTER + INTRA:          -4.048
REMARK INTER:                  -3.947
REMARK INTRA:                  -0.101
REMARK UNBOUND:                -0.095
REMARK SMILES COc1cc(C(=O)[O-])ccc1O
REMARK SMILES IDX 5 1 9 2 4 3 10 4 3 5 11 6 6 7 7 8 8 9 2 10 1 11 12 12
REMARK H PARENT 12 13
REMARK Flexibility Score: inf
ROOT
ATOM      1  C   UNL     1      67.249  49.199  38.931  1.00  0.00     0.001 A 
ATOM      2  C   UNL     1      67.280  50.122  39.989  1.00  0.00     0.014 A 
ATOM      3  C   UNL     1      66.151  49.201  38.053  1.00  0.00     0.060 A 
ATOM      4  C   UNL     1      66.233  51.028  40.165  1.00  0.00     0.051 A 
ATOM      5  C   UNL     1      65.091  50.114  38.226  1.00  0.00     0.161 A 
ATOM      6  C   UNL     1      65.141  51.030  39.292  1.00  0.00     0.157 A 
ENDROOT
BRANCH   1   7
ATOM      7  C   UNL     1      68.358  48.237  38.740  1.00  0.00     0.072 C 
ATOM      8  O   UNL     1      68.623  47.783  37.595  1.00  0.00    -0.545 OA
ATOM      9  O   UNL     1      69.125  47.820  39.822  1.00  0.00    -0.545 OA
ENDBRANCH   1   7
BRANCH   5  10
ATOM     10  O   UNL     1      63.981  50.139  37.366  1.00  0.00    -0.493 OA
ATOM     11  C   UNL     1      63.945  50.816  36.113  1.00  0.00     0.278 C 
ENDBRANCH   5  10
BRANCH   6  12
ATOM     12  O   UNL     1      64.114  51.950  39.502  1.00  0.00    -0.504 OA
ATOM     13  H   UNL     1      63.518  51.917  40.320  1.00  0.00     0.293 HD
ENDBRANCH   6  12
TORSDOF 3
ENDMDL
MODEL 5
REMARK VINA RESULT:    -3.331      1.752      2.014
REMARK INTER + INTRA:          -3.912
REMARK INTER:                  -3.832
REMARK INTRA:                  -0.080
REMARK UNBOUND:                -0.095
REMARK SMILES COc1cc(C(=O)[O-])ccc1O
REMARK SMILES IDX 5 1 9 2 4 3 10 4 3 5 11 6 6 7 7 8 8 9 2 10 1 11 12 12
REMARK H PARENT 12 13
REMARK Flexibility Score: inf
ROOT
ATOM      1  C   UNL     1      65.401  50.455  37.498  1.00  0.00     0.001 A 
ATOM      2  C   UNL     1      64.532  50.616  38.589  1.00  0.00     0.014 A 
ATOM      3  C   UNL     1      66.606  49.755  37.680  1.00  0.00     0.060 A 
ATOM      4  C   UNL     1      64.863  50.088  39.838  1.00  0.00     0.051 A 
ATOM      5  C   UNL     1      66.946  49.220  38.939  1.00  0.00     0.161 A 
ATOM      6  C   UNL     1      66.061  49.392  40.019  1.00  0.00     0.157 A 
ENDROOT
BRANCH   1   7
ATOM      7  C   UNL     1      65.053  51.013  36.171  1.00  0.00     0.072 C 
ATOM      8  O   UNL     1      65.906  51.656  35.503  1.00  0.00    -0.545 OA
ATOM      9  O   UNL     1      63.780  50.836  35.642  1.00  0.00    -0.545 OA
ENDBRANCH   1   7
BRANCH   5  10
ATOM     10  O   UNL     1      68.143  48.517  39.152  1.00  0.00    -0.493 OA
ATOM     11  C   UNL     1      68.761  47.665  38.192  1.00  0.00     0.278 C 
ENDBRANCH   5  10
BRANCH   6  12
ATOM     12  O   UNL     1      66.357  48.880  41.283  1.00  0.00    -0.504 OA
ATOM     13  H   UNL     1      65.939  48.025  41.630  1.00  0.00     0.293 HD
ENDBRANCH   6  12
TORSDOF 3
ENDMDL
MODEL 6
REMARK VINA RESULT:    -3.310      1.563      4.109
REMARK INTER + INTRA:          -3.888
REMARK INTER:                  -3.797
REMARK INTRA:                  -0.092
REMARK UNBOUND:                -0.095
REMARK SMILES COc1cc(C(=O)[O-])ccc1O
REMARK SMILES IDX 5 1 9 2 4 3 10 4 3 5 11 6 6 7 7 8 8 9 2 10 1 11 12 12
REMARK H PARENT 12 13
REMARK Flexibility Score: inf
ROOT
ATOM      1  C   UNL     1      66.675  49.763  37.959  1.00  0.00     0.001 A 
ATOM      2  C   UNL     1      65.414  49.413  38.468  1.00  0.00     0.014 A 
ATOM      3  C   UNL     1      66.748  50.549  36.796  1.00  0.00     0.060 A 
ATOM      4  C   UNL     1      64.250  49.839  37.826  1.00  0.00     0.051 A 
ATOM      5  C   UNL     1      65.576  50.983  36.143  1.00  0.00     0.161 A 
ATOM      6  C   UNL     1      64.323  50.620  36.669  1.00  0.00     0.157 A 
ENDROOT
BRANCH   1   7
ATOM      7  C   UNL     1      67.911  49.314  38.637  1.00  0.00     0.072 C 
ATOM      8  O   UNL     1      68.260  48.104  38.599  1.00  0.00    -0.545 OA
ATOM      9  O   UNL     1      68.708  50.221  39.327  1.00  0.00    -0.545 OA
ENDBRANCH   1   7
BRANCH   5  10
ATOM     10  O   UNL     1      65.618  51.768  34.979  1.00  0.00    -0.493 OA
ATOM     11  C   UNL     1      66.128  51.327  33.724  1.00  0.00     0.278 C 
ENDBRANCH   5  10
BRANCH   6  12
ATOM     12  O   UNL     1      63.138  51.026  36.056  1.00  0.00    -0.504 OA
ATOM     13  H   UNL     1      62.704  51.919  36.257  1.00  0.00     0.293 HD
ENDBRANCH   6  12
TORSDOF 3
ENDMDL
MODEL 7
REMARK VINA RESULT:    -3.295      1.599      1.783
REMARK INTER + INTRA:          -3.872
REMARK INTER:                  -3.769
REMARK INTRA:                  -0.103
REMARK UNBOUND:                -0.095
REMARK SMILES COc1cc(C(=O)[O-])ccc1O
REMARK SMILES IDX 5 1 9 2 4 3 10 4 3 5 11 6 6 7 7 8 8 9 2 10 1 11 12 12
REMARK H PARENT 12 13
REMARK Flexibility Score: inf
ROOT
ATOM      1  C   UNL     1      66.596  50.405  37.410  1.00  0.00     0.001 A 
ATOM      2  C   UNL     1      65.199  50.547  37.420  1.00  0.00     0.014 A 
ATOM      3  C   UNL     1      67.246  49.954  38.571  1.00  0.00     0.060 A 
ATOM      4  C   UNL     1      64.467  50.245  38.570  1.00  0.00     0.051 A 
ATOM      5  C   UNL     1      66.513  49.647  39.736  1.00  0.00     0.161 A 
ATOM      6  C   UNL     1      65.114  49.796  39.725  1.00  0.00     0.157 A 
ENDROOT
BRANCH   1   7
ATOM      7  C   UNL     1      67.375  50.725  36.192  1.00  0.00     0.072 C 
ATOM      8  O   UNL     1      68.627  50.586  36.178  1.00  0.00    -0.545 OA
ATOM      9  O   UNL     1      66.737  51.182  35.045  1.00  0.00    -0.545 OA
ENDBRANCH   1   7
BRANCH   5  10
ATOM     10  O   UNL     1      67.135  49.194  40.910  1.00  0.00    -0.493 OA
ATOM     11  C   UNL     1      67.871  50.023  41.806  1.00  0.00     0.278 C 
ENDBRANCH   5  10
BRANCH   6  12
ATOM     12  O   UNL     1      64.349  49.505  40.854  1.00  0.00    -0.504 OA
ATOM     13  H   UNL     1      63.994  50.228  41.467  1.00  0.00     0.293 HD
ENDBRANCH   6  12
TORSDOF 3
ENDMDL
MODEL 8
REMARK VINA RESULT:    -3.285      2.043      5.288
REMARK INTER + INTRA:          -3.861
REMARK INTER:                  -3.782
REMARK INTRA:                  -0.079
REMARK UNBOUND:                -0.095
REMARK SMILES COc1cc(C(=O)[O-])ccc1O
REMARK SMILES IDX 5 1 9 2 4 3 10 4 3 5 11 6 6 7 7 8 8 9 2 10 1 11 12 12
REMARK H PARENT 12 13
REMARK Flexibility Score: inf
ROOT
ATOM      1  C   UNL     1      64.882  50.605  36.862  1.00  0.00     0.001 A 
ATOM      2  C   UNL     1      66.169  50.857  36.360  1.00  0.00     0.014 A 
ATOM      3  C   UNL     1      63.772  50.790  36.020  1.00  0.00     0.060 A 
ATOM      4  C   UNL     1      66.342  51.286  35.043  1.00  0.00     0.051 A 
ATOM      5  C   UNL     1      63.940  51.224  34.689  1.00  0.00     0.161 A 
ATOM      6  C   UNL     1      65.238  51.470  34.207  1.00  0.00     0.157 A 
ENDROOT
BRANCH   1   7
ATOM      7  C   UNL     1      64.694  50.149  38.257  1.00  0.00     0.072 C 
ATOM      8  O   UNL     1      64.786  48.927  38.550  1.00  0.00    -0.545 OA
ATOM      9  O   UNL     1      64.415  51.063  39.267  1.00  0.00    -0.545 OA
ENDBRANCH   1   7
BRANCH   5  10
ATOM     10  O   UNL     1      62.850  51.419  33.825  1.00  0.00    -0.493 OA
ATOM     11  C   UNL     1      61.617  52.025  34.203  1.00  0.00     0.278 C 
ENDBRANCH   5  10
BRANCH   6  12
ATOM     12  O   UNL     1      65.451  51.901  32.897  1.00  0.00    -0.504 OA
ATOM     13  H   UNL     1      65.911  52.779  32.686  1.00  0.00     0.293 HD
ENDBRANCH   6  12
TORSDOF 3
ENDMDL
MODEL 9
REMARK VINA RESULT:    -3.284      2.459      2.777
REMARK INTER + INTRA:          -3.859
REMARK INTER:                  -3.778
REMARK INTRA:                  -0.081
REMARK UNBOUND:                -0.095
REMARK SMILES COc1cc(C(=O)[O-])ccc1O
REMARK SMILES IDX 5 1 9 2 4 3 10 4 3 5 11 6 6 7 7 8 8 9 2 10 1 11 12 12
REMARK H PARENT 12 13
REMARK Flexibility Score: inf
ROOT
ATOM      1  C   UNL     1      66.645  51.813  38.869  1.00  0.00     0.001 A 
ATOM      2  C   UNL     1      65.290  51.778  39.235  1.00  0.00     0.014 A 
ATOM      3  C   UNL     1      67.258  50.637  38.402  1.00  0.00     0.060 A 
ATOM      4  C   UNL     1      64.562  50.591  39.137  1.00  0.00     0.051 A 
ATOM      5  C   UNL     1      66.528  49.435  38.301  1.00  0.00     0.161 A 
ATOM      6  C   UNL     1      65.172  49.423  38.672  1.00  0.00     0.157 A 
ENDROOT
BRANCH   1   7
ATOM      7  C   UNL     1      67.420  53.070  38.972  1.00  0.00     0.072 C 
ATOM      8  O   UNL     1      68.613  53.057  39.377  1.00  0.00    -0.545 OA
ATOM      9  O   UNL     1      66.843  54.286  38.622  1.00  0.00    -0.545 OA
ENDBRANCH   1   7
BRANCH   5  10
ATOM     10  O   UNL     1      67.113  48.245  37.838  1.00  0.00    -0.493 OA
ATOM     11  C   UNL     1      68.443  47.830  38.134  1.00  0.00     0.278 C 
ENDBRANCH   5  10
BRANCH   6  12
ATOM     12  O   UNL     1      64.412  48.256  38.589  1.00  0.00    -0.504 OA
ATOM     13  H   UNL     1      63.454  48.257  38.257  1.00  0.00     0.293 HD
ENDBRANCH   6  12
TORSDOF 3
ENDMDL
