MODEL 1
REMARK VINA RESULT:    -4.321      0.000      0.000
REMARK INTER + INTRA:         -16.163
REMARK INTER:                 -10.889
REMARK INTRA:                  -5.273
REMARK UNBOUND:                -5.273
REMARK SMILES CCCCCCCCCCCCCCCCCCCCCCCCCCCC(=O)[O-]
REMARK SMILES IDX 15 1 16 2 17 3 18 4 19 5 20 6 21 7 22 8 23 9 24 10 25 11
REMARK SMILES IDX 26 12 27 13 28 14 29 15 30 16 14 17 13 18 12 19 11 20 10 21
REMARK SMILES IDX 9 22 8 23 7 24 6 25 5 26 4 27 3 28 2 29 1 30
REMARK H PARENT
REMARK Flexibility Score: inf
ROOT
ATOM      1  C   UNL     1      -8.870  -0.813  20.082  1.00  0.00     0.000 C 
ENDROOT
BRANCH   1   2
ATOM      2  C   UNL     1      -9.413   0.223  19.084  1.00  0.00     0.000 C 
BRANCH   2   3
ATOM      3  C   UNL     1      -8.732   1.595  19.230  1.00  0.00     0.000 C 
BRANCH   3   4
ATOM      4  C   UNL     1      -9.605   2.615  19.982  1.00  0.00     0.000 C 
BRANCH   4   5
ATOM      5  C   UNL     1     -11.100   2.255  19.948  1.00  0.00     0.000 C 
BRANCH   5   6
ATOM      6  C   UNL     1     -12.014   3.466  20.209  1.00  0.00     0.000 C 
BRANCH   6   7
ATOM      7  C   UNL     1     -11.402   4.840  19.876  1.00  0.00     0.000 C 
BRANCH   7   8
ATOM      8  C   UNL     1     -11.849   5.378  18.507  1.00  0.00     0.000 C 
BRANCH   8   9
ATOM      9  C   UNL     1     -10.687   5.525  17.507  1.00  0.00     0.000 C 
BRANCH   9  10
ATOM     10  C   UNL     1     -10.157   4.206  16.913  1.00  0.00     0.000 C 
BRANCH  10  11
ATOM     11  C   UNL     1     -11.095   3.600  15.859  1.00  0.00     0.000 C 
BRANCH  11  12
ATOM     12  C   UNL     1     -11.322   2.103  16.120  1.00  0.00     0.006 C 
BRANCH  12  13
ATOM     13  C   UNL     1     -10.098   1.256  15.745  1.00  0.00     0.053 C 
BRANCH  13  14
ATOM     14  C   UNL     1     -10.265   0.597  14.410  1.00  0.00     0.041 C 
ATOM     15  O   UNL     1      -9.292   0.525  13.613  1.00  0.00    -0.550 OA
ATOM     16  O   UNL     1     -11.503   0.093  14.031  1.00  0.00    -0.550 OA
ENDBRANCH  13  14
ENDBRANCH  12  13
ENDBRANCH  11  12
ENDBRANCH  10  11
ENDBRANCH   9  10
ENDBRANCH   8   9
ENDBRANCH   7   8
ENDBRANCH   6   7
ENDBRANCH   5   6
ENDBRANCH   4   5
ENDBRANCH   3   4
ENDBRANCH   2   3
ENDBRANCH   1   2
BRANCH   1  17
ATOM     17  C   UNL     1      -9.652  -0.824  21.408  1.00  0.00     0.000 C 
BRANCH  17  18
ATOM     18  C   UNL     1      -8.727  -0.882  22.634  1.00  0.00     0.000 C 
BRANCH  18  19
ATOM     19  C   UNL     1      -9.232  -0.005  23.793  1.00  0.00     0.000 C 
BRANCH  19  20
ATOM     20  C   UNL     1     -10.517   0.761  23.436  1.00  0.00     0.000 C 
BRANCH  20  21
ATOM     21  C   UNL     1     -10.369   2.278  23.624  1.00  0.00     0.000 C 
BRANCH  21  22
ATOM     22  C   UNL     1      -8.933   2.646  24.018  1.00  0.00    -0.000 C 
BRANCH  22  23
ATOM     23  C   UNL     1      -8.763   4.171  24.108  1.00  0.00    -0.000 C 
BRANCH  23  24
ATOM     24  C   UNL     1      -9.111   4.888  22.786  1.00  0.00    -0.000 C 
BRANCH  24  25
ATOM     25  C   UNL     1      -8.025   5.870  22.306  1.00  0.00    -0.000 C 
BRANCH  25  26
ATOM     26  C   UNL     1      -7.178   5.380  21.116  1.00  0.00    -0.000 C 
BRANCH  26  27
ATOM     27  C   UNL     1      -7.782   5.661  19.727  1.00  0.00    -0.000 C 
BRANCH  27  28
ATOM     28  C   UNL     1      -6.880   5.188  18.577  1.00  0.00    -0.000 C 
BRANCH  28  29
ATOM     29  C   UNL     1      -6.042   3.975  18.999  1.00  0.00    -0.003 C 
ATOM     30  C   UNL     1      -4.598   4.112  18.526  1.00  0.00     0.004 C 
ENDBRANCH  28  29
ENDBRANCH  27  28
ENDBRANCH  26  27
ENDBRANCH  25  26
ENDBRANCH  24  25
ENDBRANCH  23  24
ENDBRANCH  22  23
ENDBRANCH  21  22
ENDBRANCH  20  21
ENDBRANCH  19  20
ENDBRANCH  18  19
ENDBRANCH  17  18
ENDBRANCH   1  17
TORSDOF 26
ENDMDL
MODEL 2
REMARK VINA RESULT:    -4.316      1.625      3.200
REMARK INTER + INTRA:         -16.150
REMARK INTER:                 -10.784
REMARK INTRA:                  -5.365
REMARK UNBOUND:                -5.273
REMARK SMILES CCCCCCCCCCCCCCCCCCCCCCCCCCCC(=O)[O-]
REMARK SMILES IDX 15 1 16 2 17 3 18 4 19 5 20 6 21 7 22 8 23 9 24 10 25 11
REMARK SMILES IDX 26 12 27 13 28 14 29 15 30 16 14 17 13 18 12 19 11 20 10 21
REMARK SMILES IDX 9 22 8 23 7 24 6 25 5 26 4 27 3 28 2 29 1 30
REMARK H PARENT
REMARK Flexibility Score: inf
ROOT
ATOM      1  C   UNL     1      -9.848  -1.244  20.066  1.00  0.00     0.000 C 
ENDROOT
BRANCH   1   2
ATOM      2  C   UNL     1     -11.089  -0.335  20.066  1.00  0.00     0.000 C 
BRANCH   2   3
ATOM      3  C   UNL     1     -10.957   0.840  19.081  1.00  0.00     0.000 C 
BRANCH   3   4
ATOM      4  C   UNL     1      -9.530   0.996  18.529  1.00  0.00     0.000 C 
BRANCH   4   5
ATOM      5  C   UNL     1      -8.774   2.176  19.165  1.00  0.00     0.000 C 
BRANCH   5   6
ATOM      6  C   UNL     1      -8.178   3.138  18.121  1.00  0.00     0.000 C 
BRANCH   6   7
ATOM      7  C   UNL     1      -8.756   4.565  18.131  1.00  0.00     0.000 C 
BRANCH   7   8
ATOM      8  C   UNL     1     -10.212   4.618  18.623  1.00  0.00     0.000 C 
BRANCH   8   9
ATOM      9  C   UNL     1     -11.214   4.968  17.507  1.00  0.00     0.000 C 
BRANCH   9  10
ATOM     10  C   UNL     1     -11.291   3.955  16.349  1.00  0.00     0.000 C 
BRANCH  10  11
ATOM     11  C   UNL     1     -12.478   2.990  16.472  1.00  0.00     0.000 C 
BRANCH  11  12
ATOM     12  C   UNL     1     -12.138   1.619  15.865  1.00  0.00     0.006 C 
BRANCH  12  13
ATOM     13  C   UNL     1     -10.727   1.584  15.264  1.00  0.00     0.053 C 
BRANCH  13  14
ATOM     14  C   UNL     1     -10.578   0.482  14.260  1.00  0.00     0.041 C 
ATOM     15  O   UNL     1      -9.434   0.154  13.846  1.00  0.00    -0.550 OA
ATOM     16  O   UNL     1     -11.702  -0.159  13.755  1.00  0.00    -0.550 OA
ENDBRANCH  13  14
ENDBRANCH  12  13
ENDBRANCH  11  12
ENDBRANCH  10  11
ENDBRANCH   9  10
ENDBRANCH   8   9
ENDBRANCH   7   8
ENDBRANCH   6   7
ENDBRANCH   5   6
ENDBRANCH   4   5
ENDBRANCH   3   4
ENDBRANCH   2   3
ENDBRANCH   1   2
BRANCH   1  17
ATOM     17  C   UNL     1      -9.044  -1.148  21.374  1.00  0.00     0.000 C 
BRANCH  17  18
ATOM     18  C   UNL     1      -9.734  -0.263  22.424  1.00  0.00     0.000 C 
BRANCH  18  19
ATOM     19  C   UNL     1      -9.017  -0.295  23.785  1.00  0.00     0.000 C 
BRANCH  19  20
ATOM     20  C   UNL     1     -10.000  -0.291  24.969  1.00  0.00     0.000 C 
BRANCH  20  21
ATOM     21  C   UNL     1     -11.396   0.209  24.571  1.00  0.00     0.000 C 
BRANCH  21  22
ATOM     22  C   UNL     1     -11.839   1.374  25.466  1.00  0.00    -0.000 C 
BRANCH  22  23
ATOM     23  C   UNL     1     -10.624   2.135  26.017  1.00  0.00    -0.000 C 
BRANCH  23  24
ATOM     24  C   UNL     1     -10.806   3.667  25.959  1.00  0.00    -0.000 C 
BRANCH  24  25
ATOM     25  C   UNL     1     -10.054   4.340  24.795  1.00  0.00    -0.000 C 
BRANCH  25  26
ATOM     26  C   UNL     1      -9.109   3.416  24.003  1.00  0.00    -0.000 C 
BRANCH  26  27
ATOM     27  C   UNL     1      -9.484   3.214  22.523  1.00  0.00    -0.000 C 
BRANCH  27  28
ATOM     28  C   UNL     1     -10.828   3.859  22.154  1.00  0.00    -0.000 C 
BRANCH  28  29
ATOM     29  C   UNL     1     -11.911   2.793  21.950  1.00  0.00    -0.003 C 
ATOM     30  C   UNL     1     -12.943   3.245  20.921  1.00  0.00     0.004 C 
ENDBRANCH  28  29
ENDBRANCH  27  28
ENDBRANCH  26  27
ENDBRANCH  25  26
ENDBRANCH  24  25
ENDBRANCH  23  24
ENDBRANCH  22  23
ENDBRANCH  21  22
ENDBRANCH  20  21
ENDBRANCH  19  20
ENDBRANCH  18  19
ENDBRANCH  17  18
ENDBRANCH   1  17
TORSDOF 26
ENDMDL
MODEL 3
REMARK VINA RESULT:    -4.220      1.469      3.530
REMARK INTER + INTRA:         -15.907
REMARK INTER:                 -10.825
REMARK INTRA:                  -5.082
REMARK UNBOUND:                -5.273
REMARK SMILES CCCCCCCCCCCCCCCCCCCCCCCCCCCC(=O)[O-]
REMARK SMILES IDX 15 1 16 2 17 3 18 4 19 5 20 6 21 7 22 8 23 9 24 10 25 11
REMARK SMILES IDX 26 12 27 13 28 14 29 15 30 16 14 17 13 18 12 19 11 20 10 21
REMARK SMILES IDX 9 22 8 23 7 24 6 25 5 26 4 27 3 28 2 29 1 30
REMARK H PARENT
REMARK Flexibility Score: inf
ROOT
ATOM      1  C   UNL     1     -11.488  -0.903  20.040  1.00  0.00     0.000 C 
ENDROOT
BRANCH   1   2
ATOM      2  C   UNL     1     -11.159   0.446  19.379  1.00  0.00     0.000 C 
BRANCH   2   3
ATOM      3  C   UNL     1     -11.594   1.645  20.240  1.00  0.00     0.000 C 
BRANCH   3   4
ATOM      4  C   UNL     1     -10.662   2.858  20.084  1.00  0.00     0.000 C 
BRANCH   4   5
ATOM      5  C   UNL     1      -9.189   2.455  19.893  1.00  0.00     0.000 C 
BRANCH   5   6
ATOM      6  C   UNL     1      -8.613   2.915  18.542  1.00  0.00     0.000 C 
BRANCH   6   7
ATOM      7  C   UNL     1      -8.362   4.429  18.411  1.00  0.00     0.000 C 
BRANCH   7   8
ATOM      8  C   UNL     1      -9.081   5.053  17.204  1.00  0.00     0.000 C 
BRANCH   8   9
ATOM      9  C   UNL     1     -10.604   4.828  17.225  1.00  0.00     0.000 C 
BRANCH   9  10
ATOM     10  C   UNL     1     -11.159   3.960  16.080  1.00  0.00     0.000 C 
BRANCH  10  11
ATOM     11  C   UNL     1     -12.307   3.041  16.522  1.00  0.00     0.000 C 
BRANCH  11  12
ATOM     12  C   UNL     1     -11.989   1.571  16.206  1.00  0.00     0.006 C 
BRANCH  12  13
ATOM     13  C   UNL     1     -10.554   1.384  15.692  1.00  0.00     0.053 C 
BRANCH  13  14
ATOM     14  C   UNL     1     -10.525   0.679  14.371  1.00  0.00     0.041 C 
ATOM     15  O   UNL     1     -11.599   0.304  13.830  1.00  0.00    -0.550 OA
ATOM     16  O   UNL     1      -9.312   0.405  13.753  1.00  0.00    -0.550 OA
ENDBRANCH  13  14
ENDBRANCH  12  13
ENDBRANCH  11  12
ENDBRANCH  10  11
ENDBRANCH   9  10
ENDBRANCH   8   9
ENDBRANCH   7   8
ENDBRANCH   6   7
ENDBRANCH   5   6
ENDBRANCH   4   5
ENDBRANCH   3   4
ENDBRANCH   2   3
ENDBRANCH   1   2
BRANCH   1  17
ATOM     17  C   UNL     1     -10.237  -1.766  20.278  1.00  0.00     0.000 C 
BRANCH  17  18
ATOM     18  C   UNL     1      -9.007  -0.925  20.656  1.00  0.00     0.000 C 
BRANCH  18  19
ATOM     19  C   UNL     1      -8.714  -0.956  22.167  1.00  0.00     0.000 C 
BRANCH  19  20
ATOM     20  C   UNL     1      -9.562   0.061  22.951  1.00  0.00     0.000 C 
BRANCH  20  21
ATOM     21  C   UNL     1      -9.643  -0.272  24.448  1.00  0.00     0.000 C 
BRANCH  21  22
ATOM     22  C   UNL     1     -11.080  -0.129  24.967  1.00  0.00    -0.000 C 
BRANCH  22  23
ATOM     23  C   UNL     1     -11.997   0.467  23.888  1.00  0.00    -0.000 C 
BRANCH  23  24
ATOM     24  C   UNL     1     -12.753   1.721  24.376  1.00  0.00    -0.000 C 
BRANCH  24  25
ATOM     25  C   UNL     1     -13.381   2.552  23.240  1.00  0.00    -0.000 C 
BRANCH  25  26
ATOM     26  C   UNL     1     -12.736   3.930  23.003  1.00  0.00    -0.000 C 
BRANCH  26  27
ATOM     27  C   UNL     1     -11.401   4.160  23.736  1.00  0.00    -0.000 C 
BRANCH  27  28
ATOM     28  C   UNL     1     -10.437   5.064  22.953  1.00  0.00    -0.000 C 
BRANCH  28  29
ATOM     29  C   UNL     1      -9.000   4.535  23.034  1.00  0.00    -0.003 C 
ATOM     30  C   UNL     1      -8.883   3.412  24.060  1.00  0.00     0.004 C 
ENDBRANCH  28  29
ENDBRANCH  27  28
ENDBRANCH  26  27
ENDBRANCH  25  26
ENDBRANCH  24  25
ENDBRANCH  23  24
ENDBRANCH  22  23
ENDBRANCH  21  22
ENDBRANCH  20  21
ENDBRANCH  19  20
ENDBRANCH  18  19
ENDBRANCH  17  18
ENDBRANCH   1  17
TORSDOF 26
ENDMDL
MODEL 4
REMARK VINA RESULT:    -4.201      2.034      5.957
REMARK INTER + INTRA:         -15.859
REMARK INTER:                 -10.896
REMARK INTRA:                  -4.963
REMARK UNBOUND:                -5.273
REMARK SMILES CCCCCCCCCCCCCCCCCCCCCCCCCCCC(=O)[O-]
REMARK SMILES IDX 15 1 16 2 17 3 18 4 19 5 20 6 21 7 22 8 23 9 24 10 25 11
REMARK SMILES IDX 26 12 27 13 28 14 29 15 30 16 14 17 13 18 12 19 11 20 10 21
REMARK SMILES IDX 9 22 8 23 7 24 6 25 5 26 4 27 3 28 2 29 1 30
REMARK H PARENT
REMARK Flexibility Score: inf
ROOT
ATOM      1  C   UNL     1     -10.891   0.930  19.258  1.00  0.00     0.000 C 
ENDROOT
BRANCH   1   2
ATOM      2  C   UNL     1      -9.493   0.489  18.792  1.00  0.00     0.000 C 
BRANCH   2   3
ATOM      3  C   UNL     1      -9.021  -0.799  19.489  1.00  0.00     0.000 C 
BRANCH   3   4
ATOM      4  C   UNL     1      -9.766  -1.070  20.807  1.00  0.00     0.000 C 
BRANCH   4   5
ATOM      5  C   UNL     1      -8.870  -0.887  22.045  1.00  0.00     0.000 C 
BRANCH   5   6
ATOM      6  C   UNL     1      -9.570  -0.124  23.184  1.00  0.00     0.000 C 
BRANCH   6   7
ATOM      7  C   UNL     1      -9.504   1.412  23.090  1.00  0.00     0.000 C 
BRANCH   7   8
ATOM      8  C   UNL     1      -9.124   2.078  24.423  1.00  0.00     0.000 C 
BRANCH   8   9
ATOM      9  C   UNL     1      -9.082   3.615  24.338  1.00  0.00     0.000 C 
BRANCH   9  10
ATOM     10  C   UNL     1      -9.441   4.210  22.964  1.00  0.00     0.000 C 
BRANCH  10  11
ATOM     11  C   UNL     1      -8.239   4.843  22.248  1.00  0.00     0.000 C 
BRANCH  11  12
ATOM     12  C   UNL     1      -8.203   4.435  20.767  1.00  0.00     0.006 C 
BRANCH  12  13
ATOM     13  C   UNL     1      -6.985   5.015  20.034  1.00  0.00     0.053 C 
BRANCH  13  14
ATOM     14  C   UNL     1      -6.344   4.003  19.135  1.00  0.00     0.041 C 
ATOM     15  O   UNL     1      -7.026   3.057  18.659  1.00  0.00    -0.550 OA
ATOM     16  O   UNL     1      -4.987   4.083  18.849  1.00  0.00    -0.550 OA
ENDBRANCH  13  14
ENDBRANCH  12  13
ENDBRANCH  11  12
ENDBRANCH  10  11
ENDBRANCH   9  10
ENDBRANCH   8   9
ENDBRANCH   7   8
ENDBRANCH   6   7
ENDBRANCH   5   6
ENDBRANCH   4   5
ENDBRANCH   3   4
ENDBRANCH   2   3
ENDBRANCH   1   2
BRANCH   1  17
ATOM     17  C   UNL     1     -10.893   2.343  19.869  1.00  0.00     0.000 C 
BRANCH  17  18
ATOM     18  C   UNL     1     -12.131   2.601  20.743  1.00  0.00     0.000 C 
BRANCH  18  19
ATOM     19  C   UNL     1     -13.020   3.727  20.185  1.00  0.00     0.000 C 
BRANCH  19  20
ATOM     20  C   UNL     1     -12.999   4.986  21.069  1.00  0.00     0.000 C 
BRANCH  20  21
ATOM     21  C   UNL     1     -11.816   5.910  20.746  1.00  0.00     0.000 C 
BRANCH  21  22
ATOM     22  C   UNL     1     -11.924   6.467  19.321  1.00  0.00    -0.000 C 
BRANCH  22  23
ATOM     23  C   UNL     1     -10.543   6.529  18.650  1.00  0.00    -0.000 C 
BRANCH  23  24
ATOM     24  C   UNL     1     -10.238   5.277  17.800  1.00  0.00    -0.000 C 
BRANCH  24  25
ATOM     25  C   UNL     1     -11.353   4.914  16.801  1.00  0.00    -0.000 C 
BRANCH  25  26
ATOM     26  C   UNL     1     -11.117   3.622  15.996  1.00  0.00    -0.000 C 
BRANCH  26  27
ATOM     27  C   UNL     1     -12.149   2.505  16.240  1.00  0.00    -0.000 C 
BRANCH  27  28
ATOM     28  C   UNL     1     -11.747   1.170  15.597  1.00  0.00    -0.000 C 
BRANCH  28  29
ATOM     29  C   UNL     1     -10.231   1.099  15.379  1.00  0.00    -0.003 C 
ATOM     30  C   UNL     1      -9.898   0.622  13.968  1.00  0.00     0.004 C 
ENDBRANCH  28  29
ENDBRANCH  27  28
ENDBRANCH  26  27
ENDBRANCH  25  26
ENDBRANCH  24  25
ENDBRANCH  23  24
ENDBRANCH  22  23
ENDBRANCH  21  22
ENDBRANCH  20  21
ENDBRANCH  19  20
ENDBRANCH  18  19
ENDBRANCH  17  18
ENDBRANCH   1  17
TORSDOF 26
ENDMDL
MODEL 5
REMARK VINA RESULT:    -4.188      1.336      2.845
REMARK INTER + INTRA:         -15.826
REMARK INTER:                 -11.077
REMARK INTRA:                  -4.749
REMARK UNBOUND:                -5.273
REMARK SMILES CCCCCCCCCCCCCCCCCCCCCCCCCCCC(=O)[O-]
REMARK SMILES IDX 15 1 16 2 17 3 18 4 19 5 20 6 21 7 22 8 23 9 24 10 25 11
REMARK SMILES IDX 26 12 27 13 28 14 29 15 30 16 14 17 13 18 12 19 11 20 10 21
REMARK SMILES IDX 9 22 8 23 7 24 6 25 5 26 4 27 3 28 2 29 1 30
REMARK H PARENT
REMARK Flexibility Score: inf
ROOT
ATOM      1  C   UNL     1      -8.848  -0.867  22.311  1.00  0.00     0.000 C 
ENDROOT
BRANCH   1   2
ATOM      2  C   UNL     1      -9.243  -0.066  23.562  1.00  0.00     0.000 C 
BRANCH   2   3
ATOM      3  C   UNL     1      -9.530   1.413  23.247  1.00  0.00     0.000 C 
BRANCH   3   4
ATOM      4  C   UNL     1     -11.030   1.751  23.297  1.00  0.00     0.000 C 
BRANCH   4   5
ATOM      5  C   UNL     1     -11.379   3.016  22.494  1.00  0.00     0.000 C 
BRANCH   5   6
ATOM      6  C   UNL     1     -12.465   2.770  21.431  1.00  0.00     0.000 C 
BRANCH   6   7
ATOM      7  C   UNL     1     -13.378   3.972  21.127  1.00  0.00     0.000 C 
BRANCH   7   8
ATOM      8  C   UNL     1     -13.554   4.225  19.620  1.00  0.00     0.000 C 
BRANCH   8   9
ATOM      9  C   UNL     1     -12.416   3.627  18.771  1.00  0.00     0.000 C 
BRANCH   9  10
ATOM     10  C   UNL     1     -12.457   3.979  17.272  1.00  0.00     0.000 C 
BRANCH  10  11
ATOM     11  C   UNL     1     -12.322   2.752  16.361  1.00  0.00     0.000 C 
BRANCH  11  12
ATOM     12  C   UNL     1     -10.966   2.749  15.637  1.00  0.00     0.006 C 
BRANCH  12  13
ATOM     13  C   UNL     1     -10.268   1.385  15.716  1.00  0.00     0.053 C 
BRANCH  13  14
ATOM     14  C   UNL     1     -10.360   0.637  14.421  1.00  0.00     0.041 C 
ATOM     15  O   UNL     1      -9.337   0.489  13.702  1.00  0.00    -0.550 OA
ATOM     16  O   UNL     1     -11.582   0.135  13.992  1.00  0.00    -0.550 OA
ENDBRANCH  13  14
ENDBRANCH  12  13
ENDBRANCH  11  12
ENDBRANCH  10  11
ENDBRANCH   9  10
ENDBRANCH   8   9
ENDBRANCH   7   8
ENDBRANCH   6   7
ENDBRANCH   5   6
ENDBRANCH   4   5
ENDBRANCH   3   4
ENDBRANCH   2   3
ENDBRANCH   1   2
BRANCH   1  17
ATOM     17  C   UNL     1      -9.890  -0.759  21.183  1.00  0.00     0.000 C 
BRANCH  17  18
ATOM     18  C   UNL     1      -9.323  -1.180  19.818  1.00  0.00     0.000 C 
BRANCH  18  19
ATOM     19  C   UNL     1      -8.986   0.027  18.924  1.00  0.00     0.000 C 
BRANCH  19  20
ATOM     20  C   UNL     1      -9.800   1.279  19.294  1.00  0.00     0.000 C 
BRANCH  20  21
ATOM     21  C   UNL     1      -8.907   2.472  19.665  1.00  0.00     0.000 C 
BRANCH  21  22
ATOM     22  C   UNL     1      -8.682   3.389  18.457  1.00  0.00    -0.000 C 
BRANCH  22  23
ATOM     23  C   UNL     1      -9.059   4.840  18.792  1.00  0.00    -0.000 C 
BRANCH  23  24
ATOM     24  C   UNL     1      -9.290   5.062  20.302  1.00  0.00    -0.000 C 
BRANCH  24  25
ATOM     25  C   UNL     1      -8.277   6.023  20.953  1.00  0.00    -0.000 C 
BRANCH  25  26
ATOM     26  C   UNL     1      -6.981   5.364  21.461  1.00  0.00    -0.000 C 
BRANCH  26  27
ATOM     27  C   UNL     1      -5.696   5.813  20.740  1.00  0.00    -0.000 C 
BRANCH  27  28
ATOM     28  C   UNL     1      -5.964   6.378  19.337  1.00  0.00    -0.000 C 
BRANCH  28  29
ATOM     29  C   UNL     1      -5.158   5.620  18.276  1.00  0.00    -0.003 C 
ATOM     30  C   UNL     1      -4.667   4.278  18.810  1.00  0.00     0.004 C 
ENDBRANCH  28  29
ENDBRANCH  27  28
ENDBRANCH  26  27
ENDBRANCH  25  26
ENDBRANCH  24  25
ENDBRANCH  23  24
ENDBRANCH  22  23
ENDBRANCH  21  22
ENDBRANCH  20  21
ENDBRANCH  19  20
ENDBRANCH  18  19
ENDBRANCH  17  18
ENDBRANCH   1  17
TORSDOF 26
ENDMDL
MODEL 6
REMARK VINA RESULT:    -4.173      1.462      3.265
REMARK INTER + INTRA:         -15.788
REMARK INTER:                 -10.456
REMARK INTRA:                  -5.333
REMARK UNBOUND:                -5.273
REMARK SMILES CCCCCCCCCCCCCCCCCCCCCCCCCCCC(=O)[O-]
REMARK SMILES IDX 15 1 16 2 17 3 18 4 19 5 20 6 21 7 22 8 23 9 24 10 25 11
REMARK SMILES IDX 26 12 27 13 28 14 29 15 30 16 14 17 13 18 12 19 11 20 10 21
REMARK SMILES IDX 9 22 8 23 7 24 6 25 5 26 4 27 3 28 2 29 1 30
REMARK H PARENT
REMARK Flexibility Score: inf
ROOT
ATOM      1  C   UNL     1      -9.650  -1.163  20.512  1.00  0.00     0.000 C 
ENDROOT
BRANCH   1   2
ATOM      2  C   UNL     1      -8.761  -0.517  19.437  1.00  0.00     0.000 C 
BRANCH   2   3
ATOM      3  C   UNL     1      -9.417   0.716  18.793  1.00  0.00     0.000 C 
BRANCH   3   4
ATOM      4  C   UNL     1      -9.030   2.030  19.494  1.00  0.00     0.000 C 
BRANCH   4   5
ATOM      5  C   UNL     1      -8.083   2.897  18.647  1.00  0.00     0.000 C 
BRANCH   5   6
ATOM      6  C   UNL     1      -8.124   4.386  19.038  1.00  0.00     0.000 C 
BRANCH   6   7
ATOM      7  C   UNL     1      -8.660   5.339  17.954  1.00  0.00     0.000 C 
BRANCH   7   8
ATOM      8  C   UNL     1      -9.774   4.710  17.100  1.00  0.00     0.000 C 
BRANCH   8   9
ATOM      9  C   UNL     1     -11.171   4.848  17.735  1.00  0.00     0.000 C 
BRANCH   9  10
ATOM     10  C   UNL     1     -11.992   3.547  17.807  1.00  0.00     0.000 C 
BRANCH  10  11
ATOM     11  C   UNL     1     -12.383   3.003  16.426  1.00  0.00     0.000 C 
BRANCH  11  12
ATOM     12  C   UNL     1     -11.815   1.592  16.208  1.00  0.00     0.006 C 
BRANCH  12  13
ATOM     13  C   UNL     1     -10.501   1.611  15.415  1.00  0.00     0.053 C 
BRANCH  13  14
ATOM     14  C   UNL     1     -10.520   0.629  14.283  1.00  0.00     0.041 C 
ATOM     15  O   UNL     1     -11.618   0.214  13.825  1.00  0.00    -0.550 OA
ATOM     16  O   UNL     1      -9.329   0.146  13.758  1.00  0.00    -0.550 OA
ENDBRANCH  13  14
ENDBRANCH  12  13
ENDBRANCH  11  12
ENDBRANCH  10  11
ENDBRANCH   9  10
ENDBRANCH   8   9
ENDBRANCH   7   8
ENDBRANCH   6   7
ENDBRANCH   5   6
ENDBRANCH   4   5
ENDBRANCH   3   4
ENDBRANCH   2   3
ENDBRANCH   1   2
BRANCH   1  17
ATOM     17  C   UNL     1      -9.270  -0.724  21.938  1.00  0.00     0.000 C 
BRANCH  17  18
ATOM     18  C   UNL     1     -10.277   0.273  22.532  1.00  0.00     0.000 C 
BRANCH  18  19
ATOM     19  C   UNL     1     -11.670   0.157  21.889  1.00  0.00     0.000 C 
BRANCH  19  20
ATOM     20  C   UNL     1     -12.806   0.289  22.919  1.00  0.00     0.000 C 
BRANCH  20  21
ATOM     21  C   UNL     1     -12.439   1.224  24.081  1.00  0.00     0.000 C 
BRANCH  21  22
ATOM     22  C   UNL     1     -13.457   2.363  24.214  1.00  0.00    -0.000 C 
BRANCH  22  23
ATOM     23  C   UNL     1     -12.888   3.677  23.657  1.00  0.00    -0.000 C 
BRANCH  23  24
ATOM     24  C   UNL     1     -13.025   3.782  22.123  1.00  0.00    -0.000 C 
BRANCH  24  25
ATOM     25  C   UNL     1     -11.680   3.761  21.373  1.00  0.00    -0.000 C 
BRANCH  25  26
ATOM     26  C   UNL     1     -10.940   5.110  21.316  1.00  0.00    -0.000 C 
BRANCH  26  27
ATOM     27  C   UNL     1      -9.737   5.235  22.271  1.00  0.00    -0.000 C 
BRANCH  27  28
ATOM     28  C   UNL     1      -9.253   3.877  22.803  1.00  0.00    -0.000 C 
BRANCH  28  29
ATOM     29  C   UNL     1      -9.034   3.928  24.319  1.00  0.00    -0.003 C 
ATOM     30  C   UNL     1      -9.081   2.530  24.929  1.00  0.00     0.004 C 
ENDBRANCH  28  29
ENDBRANCH  27  28
ENDBRANCH  26  27
ENDBRANCH  25  26
ENDBRANCH  24  25
ENDBRANCH  23  24
ENDBRANCH  22  23
ENDBRANCH  21  22
ENDBRANCH  20  21
ENDBRANCH  19  20
ENDBRANCH  18  19
ENDBRANCH  17  18
ENDBRANCH   1  17
TORSDOF 26
ENDMDL
MODEL 7
REMARK VINA RESULT:    -4.141      1.214      3.763
REMARK INTER + INTRA:         -15.709
REMARK INTER:                 -10.330
REMARK INTRA:                  -5.379
REMARK UNBOUND:                -5.273
REMARK SMILES CCCCCCCCCCCCCCCCCCCCCCCCCCCC(=O)[O-]
REMARK SMILES IDX 15 1 16 2 17 3 18 4 19 5 20 6 21 7 22 8 23 9 24 10 25 11
REMARK SMILES IDX 26 12 27 13 28 14 29 15 30 16 14 17 13 18 12 19 11 20 10 21
REMARK SMILES IDX 9 22 8 23 7 24 6 25 5 26 4 27 3 28 2 29 1 30
REMARK H PARENT
REMARK Flexibility Score: inf
ROOT
ATOM      1  C   UNL     1     -11.916   0.619  23.012  1.00  0.00     0.000 C 
ENDROOT
BRANCH   1   2
ATOM      2  C   UNL     1     -12.435   1.596  21.944  1.00  0.00     0.000 C 
BRANCH   2   3
ATOM      3  C   UNL     1     -13.013   2.884  22.556  1.00  0.00     0.000 C 
BRANCH   3   4
ATOM      4  C   UNL     1     -13.389   3.931  21.494  1.00  0.00     0.000 C 
BRANCH   4   5
ATOM      5  C   UNL     1     -12.581   3.773  20.194  1.00  0.00     0.000 C 
BRANCH   5   6
ATOM      6  C   UNL     1     -12.431   5.094  19.417  1.00  0.00     0.000 C 
BRANCH   6   7
ATOM      7  C   UNL     1     -10.983   5.546  19.155  1.00  0.00     0.000 C 
BRANCH   7   8
ATOM      8  C   UNL     1     -10.743   5.970  17.696  1.00  0.00     0.000 C 
BRANCH   8   9
ATOM      9  C   UNL     1     -11.690   5.273  16.702  1.00  0.00     0.000 C 
BRANCH   9  10
ATOM     10  C   UNL     1     -11.276   3.848  16.287  1.00  0.00     0.000 C 
BRANCH  10  11
ATOM     11  C   UNL     1     -12.374   2.804  16.540  1.00  0.00     0.000 C 
BRANCH  11  12
ATOM     12  C   UNL     1     -11.981   1.439  15.954  1.00  0.00     0.006 C 
BRANCH  12  13
ATOM     13  C   UNL     1     -10.624   1.482  15.238  1.00  0.00     0.053 C 
BRANCH  13  14
ATOM     14  C   UNL     1     -10.500   0.395  14.215  1.00  0.00     0.041 C 
ATOM     15  O   UNL     1      -9.364   0.038  13.805  1.00  0.00    -0.550 OA
ATOM     16  O   UNL     1     -11.639  -0.199  13.687  1.00  0.00    -0.550 OA
ENDBRANCH  13  14
ENDBRANCH  12  13
ENDBRANCH  11  12
ENDBRANCH  10  11
ENDBRANCH   9  10
ENDBRANCH   8   9
ENDBRANCH   7   8
ENDBRANCH   6   7
ENDBRANCH   5   6
ENDBRANCH   4   5
ENDBRANCH   3   4
ENDBRANCH   2   3
ENDBRANCH   1   2
BRANCH   1  17
ATOM     17  C   UNL     1     -10.682   1.158  23.759  1.00  0.00     0.000 C 
BRANCH  17  18
ATOM     18  C   UNL     1      -9.709   1.896  22.826  1.00  0.00     0.000 C 
BRANCH  18  19
ATOM     19  C   UNL     1      -9.189   3.209  23.438  1.00  0.00     0.000 C 
BRANCH  19  20
ATOM     20  C   UNL     1      -9.289   4.394  22.462  1.00  0.00     0.000 C 
BRANCH  20  21
ATOM     21  C   UNL     1      -7.958   5.144  22.309  1.00  0.00     0.000 C 
BRANCH  21  22
ATOM     22  C   UNL     1      -7.793   5.691  20.886  1.00  0.00    -0.000 C 
BRANCH  22  23
ATOM     23  C   UNL     1      -6.865   4.791  20.056  1.00  0.00    -0.000 C 
BRANCH  23  24
ATOM     24  C   UNL     1      -7.297   4.693  18.577  1.00  0.00    -0.000 C 
BRANCH  24  25
ATOM     25  C   UNL     1      -8.024   3.381  18.225  1.00  0.00    -0.000 C 
BRANCH  25  26
ATOM     26  C   UNL     1      -8.637   2.630  19.423  1.00  0.00    -0.000 C 
BRANCH  26  27
ATOM     27  C   UNL     1      -9.819   1.705  19.077  1.00  0.00    -0.000 C 
BRANCH  27  28
ATOM     28  C   UNL     1      -9.434   0.218  19.076  1.00  0.00    -0.000 C 
BRANCH  28  29
ATOM     29  C   UNL     1     -10.472  -0.619  19.832  1.00  0.00    -0.003 C 
ATOM     30  C   UNL     1      -9.799  -1.659  20.723  1.00  0.00     0.004 C 
ENDBRANCH  28  29
ENDBRANCH  27  28
ENDBRANCH  26  27
ENDBRANCH  25  26
ENDBRANCH  24  25
ENDBRANCH  23  24
ENDBRANCH  22  23
ENDBRANCH  21  22
ENDBRANCH  20  21
ENDBRANCH  19  20
ENDBRANCH  18  19
ENDBRANCH  17  18
ENDBRANCH   1  17
TORSDOF 26
ENDMDL
MODEL 8
REMARK VINA RESULT:    -4.124      1.795      4.029
REMARK INTER + INTRA:         -15.665
REMARK INTER:                 -10.470
REMARK INTRA:                  -5.196
REMARK UNBOUND:                -5.273
REMARK SMILES CCCCCCCCCCCCCCCCCCCCCCCCCCCC(=O)[O-]
REMARK SMILES IDX 15 1 16 2 17 3 18 4 19 5 20 6 21 7 22 8 23 9 24 10 25 11
REMARK SMILES IDX 26 12 27 13 28 14 29 15 30 16 14 17 13 18 12 19 11 20 10 21
REMARK SMILES IDX 9 22 8 23 7 24 6 25 5 26 4 27 3 28 2 29 1 30
REMARK H PARENT
REMARK Flexibility Score: inf
ROOT
ATOM      1  C   UNL     1      -8.772   2.020  19.447  1.00  0.00     0.000 C 
ENDROOT
BRANCH   1   2
ATOM      2  C   UNL     1      -9.737   2.644  20.468  1.00  0.00     0.000 C 
BRANCH   2   3
ATOM      3  C   UNL     1     -11.213   2.373  20.126  1.00  0.00     0.000 C 
BRANCH   3   4
ATOM      4  C   UNL     1     -12.103   3.614  20.309  1.00  0.00     0.000 C 
BRANCH   4   5
ATOM      5  C   UNL     1     -11.355   4.928  20.025  1.00  0.00     0.000 C 
BRANCH   5   6
ATOM      6  C   UNL     1     -11.991   5.745  18.886  1.00  0.00     0.000 C 
BRANCH   6   7
ATOM      7  C   UNL     1     -11.071   6.034  17.685  1.00  0.00     0.000 C 
BRANCH   7   8
ATOM      8  C   UNL     1      -9.823   5.136  17.658  1.00  0.00     0.000 C 
BRANCH   8   9
ATOM      9  C   UNL     1      -9.979   3.913  16.736  1.00  0.00     0.000 C 
BRANCH   9  10
ATOM     10  C   UNL     1     -11.335   3.801  16.014  1.00  0.00     0.000 C 
BRANCH  10  11
ATOM     11  C   UNL     1     -12.265   2.751  16.638  1.00  0.00     0.000 C 
BRANCH  11  12
ATOM     12  C   UNL     1     -11.809   1.328  16.280  1.00  0.00     0.006 C 
BRANCH  12  13
ATOM     13  C   UNL     1     -12.489   0.802  15.009  1.00  0.00     0.053 C 
BRANCH  13  14
ATOM     14  C   UNL     1     -11.515   0.117  14.100  1.00  0.00     0.041 C 
ATOM     15  O   UNL     1     -11.836  -0.954  13.520  1.00  0.00    -0.550 OA
ATOM     16  O   UNL     1     -10.242   0.643  13.919  1.00  0.00    -0.550 OA
ENDBRANCH  13  14
ENDBRANCH  12  13
ENDBRANCH  11  12
ENDBRANCH  10  11
ENDBRANCH   9  10
ENDBRANCH   8   9
ENDBRANCH   7   8
ENDBRANCH   6   7
ENDBRANCH   5   6
ENDBRANCH   4   5
ENDBRANCH   3   4
ENDBRANCH   2   3
ENDBRANCH   1   2
BRANCH   1  17
ATOM     17  C   UNL     1      -9.345   0.753  18.787  1.00  0.00     0.000 C 
BRANCH  17  18
ATOM     18  C   UNL     1      -8.750  -0.535  19.377  1.00  0.00     0.000 C 
BRANCH  18  19
ATOM     19  C   UNL     1      -9.633  -1.138  20.484  1.00  0.00     0.000 C 
BRANCH  19  20
ATOM     20  C   UNL     1      -9.061  -0.894  21.891  1.00  0.00     0.000 C 
BRANCH  20  21
ATOM     21  C   UNL     1     -10.002  -0.059  22.771  1.00  0.00     0.000 C 
BRANCH  21  22
ATOM     22  C   UNL     1      -9.449   0.077  24.196  1.00  0.00    -0.000 C 
BRANCH  22  23
ATOM     23  C   UNL     1     -10.550  -0.173  25.238  1.00  0.00    -0.000 C 
BRANCH  23  24
ATOM     24  C   UNL     1     -11.970  -0.038  24.648  1.00  0.00    -0.000 C 
BRANCH  24  25
ATOM     25  C   UNL     1     -12.653   1.306  24.969  1.00  0.00    -0.000 C 
BRANCH  25  26
ATOM     26  C   UNL     1     -12.996   2.175  23.745  1.00  0.00    -0.000 C 
BRANCH  26  27
ATOM     27  C   UNL     1     -12.610   3.661  23.872  1.00  0.00    -0.000 C 
BRANCH  27  28
ATOM     28  C   UNL     1     -11.285   3.872  24.619  1.00  0.00    -0.000 C 
BRANCH  28  29
ATOM     29  C   UNL     1     -10.174   4.304  23.655  1.00  0.00    -0.003 C 
ATOM     30  C   UNL     1      -8.850   3.630  24.003  1.00  0.00     0.004 C 
ENDBRANCH  28  29
ENDBRANCH  27  28
ENDBRANCH  26  27
ENDBRANCH  25  26
ENDBRANCH  24  25
ENDBRANCH  23  24
ENDBRANCH  22  23
ENDBRANCH  21  22
ENDBRANCH  20  21
ENDBRANCH  19  20
ENDBRANCH  18  19
ENDBRANCH  17  18
ENDBRANCH   1  17
TORSDOF 26
ENDMDL
MODEL 9
REMARK VINA RESULT:    -4.123      2.693      6.399
REMARK INTER + INTRA:         -15.663
REMARK INTER:                 -10.609
REMARK INTRA:                  -5.054
REMARK UNBOUND:                -5.273
REMARK SMILES CCCCCCCCCCCCCCCCCCCCCCCCCCCC(=O)[O-]
REMARK SMILES IDX 15 1 16 2 17 3 18 4 19 5 20 6 21 7 22 8 23 9 24 10 25 11
REMARK SMILES IDX 26 12 27 13 28 14 29 15 30 16 14 17 13 18 12 19 11 20 10 21
REMARK SMILES IDX 9 22 8 23 7 24 6 25 5 26 4 27 3 28 2 29 1 30
REMARK H PARENT
REMARK Flexibility Score: inf
ROOT
ATOM      1  C   UNL     1     -10.595   0.376  19.691  1.00  0.00     0.000 C 
ENDROOT
BRANCH   1   2
ATOM      2  C   UNL     1     -10.591  -0.672  20.816  1.00  0.00     0.000 C 
BRANCH   2   3
ATOM      3  C   UNL     1      -9.186  -0.906  21.397  1.00  0.00     0.000 C 
BRANCH   3   4
ATOM      4  C   UNL     1      -9.094  -0.556  22.892  1.00  0.00     0.000 C 
BRANCH   4   5
ATOM      5  C   UNL     1      -9.446   0.915  23.179  1.00  0.00     0.000 C 
BRANCH   5   6
ATOM      6  C   UNL     1     -10.177   1.104  24.521  1.00  0.00     0.000 C 
BRANCH   6   7
ATOM      7  C   UNL     1     -11.213   0.018  24.868  1.00  0.00     0.000 C 
BRANCH   7   8
ATOM      8  C   UNL     1     -12.663   0.486  24.663  1.00  0.00     0.000 C 
BRANCH   8   9
ATOM      9  C   UNL     1     -13.089   0.499  23.183  1.00  0.00     0.000 C 
BRANCH   9  10
ATOM     10  C   UNL     1     -13.645   1.841  22.669  1.00  0.00     0.000 C 
BRANCH  10  11
ATOM     11  C   UNL     1     -12.670   3.011  22.861  1.00  0.00     0.000 C 
BRANCH  11  12
ATOM     12  C   UNL     1     -11.934   3.335  21.552  1.00  0.00     0.006 C 
BRANCH  12  13
ATOM     13  C   UNL     1     -12.073   4.812  21.157  1.00  0.00     0.053 C 
BRANCH  13  14
ATOM     14  C   UNL     1     -13.463   5.136  20.701  1.00  0.00     0.041 C 
ATOM     15  O   UNL     1     -14.046   6.165  21.134  1.00  0.00    -0.550 OA
ATOM     16  O   UNL     1     -14.126   4.286  19.826  1.00  0.00    -0.550 OA
ENDBRANCH  13  14
ENDBRANCH  12  13
ENDBRANCH  11  12
ENDBRANCH  10  11
ENDBRANCH   9  10
ENDBRANCH   8   9
ENDBRANCH   7   8
ENDBRANCH   6   7
ENDBRANCH   5   6
ENDBRANCH   4   5
ENDBRANCH   3   4
ENDBRANCH   2   3
ENDBRANCH   1   2
BRANCH   1  17
ATOM     17  C   UNL     1      -9.178   0.833  19.301  1.00  0.00     0.000 C 
BRANCH  17  18
ATOM     18  C   UNL     1      -8.922   2.308  19.645  1.00  0.00     0.000 C 
BRANCH  18  19
ATOM     19  C   UNL     1      -7.925   2.973  18.679  1.00  0.00     0.000 C 
BRANCH  19  20
ATOM     20  C   UNL     1      -7.364   4.296  19.231  1.00  0.00     0.000 C 
BRANCH  20  21
ATOM     21  C   UNL     1      -8.128   5.521  18.708  1.00  0.00     0.000 C 
BRANCH  21  22
ATOM     22  C   UNL     1      -8.978   5.159  17.484  1.00  0.00    -0.000 C 
BRANCH  22  23
ATOM     23  C   UNL     1     -10.170   6.118  17.341  1.00  0.00    -0.000 C 
BRANCH  23  24
ATOM     24  C   UNL     1     -11.530   5.391  17.401  1.00  0.00    -0.000 C 
BRANCH  24  25
ATOM     25  C   UNL     1     -11.415   3.867  17.595  1.00  0.00    -0.000 C 
BRANCH  25  26
ATOM     26  C   UNL     1     -12.322   3.020  16.683  1.00  0.00    -0.000 C 
BRANCH  26  27
ATOM     27  C   UNL     1     -11.656   1.767  16.084  1.00  0.00    -0.000 C 
BRANCH  27  28
ATOM     28  C   UNL     1     -10.145   1.939  15.868  1.00  0.00    -0.000 C 
BRANCH  28  29
ATOM     29  C   UNL     1      -9.638   1.004  14.763  1.00  0.00    -0.003 C 
ATOM     30  C   UNL     1     -10.798   0.312  14.052  1.00  0.00     0.004 C 
ENDBRANCH  28  29
ENDBRANCH  27  28
ENDBRANCH  26  27
ENDBRANCH  25  26
ENDBRANCH  24  25
ENDBRANCH  23  24
ENDBRANCH  22  23
ENDBRANCH  21  22
ENDBRANCH  20  21
ENDBRANCH  19  20
ENDBRANCH  18  19
ENDBRANCH  17  18
ENDBRANCH   1  17
TORSDOF 26
ENDMDL
