MODEL 1
REMARK VINA RESULT:    -6.693      0.000      0.000
REMARK INTER + INTRA:         -10.645
REMARK INTER:                  -9.236
REMARK INTRA:                  -1.409
REMARK UNBOUND:                -1.409
REMARK SMILES O=C([O-])[C@H]1O[C@H](Oc2cc3oc(-c4ccccc4)cc(=O)c3c(O)c2O)[C@@H](O)[C@H](O)[C@@H]1O
REMARK SMILES IDX 7 1 6 2 4 3 31 4 5 5 29 6 27 7 2 8 1 9 3 10 32 11 30 13
REMARK SMILES IDX 28 15 8 17 25 18 9 19 23 20 10 21 22 22 11 23 20 24 12 25
REMARK SMILES IDX 19 26 21 27 26 28 24 30 13 32 14 33 18 34 15 35 17 36 16 37
REMARK H PARENT 32 12 30 14 28 16 26 29 24 31
REMARK Flexibility Score: inf
ROOT
ATOM      1  O   UNL     1      71.424   6.838  14.279  1.00  0.00    -0.458 OA
ENDROOT
BRANCH   1   2
ATOM      2  C   UNL     1      71.984   6.514  13.001  1.00  0.00     0.339 C 
ATOM      3  C   UNL     1      74.163   7.048  13.706  1.00  0.00     0.199 C 
ATOM      4  C   UNL     1      74.657   5.592  13.597  1.00  0.00     0.180 C 
ATOM      5  O   UNL     1      73.138   7.304  12.758  1.00  0.00    -0.328 OA
ATOM      6  C   UNL     1      73.482   4.621  13.798  1.00  0.00     0.181 C 
ATOM      7  C   UNL     1      72.309   5.007  12.875  1.00  0.00     0.214 C 
BRANCH   3   8
ATOM      8  C   UNL     1      75.298   7.992  13.437  1.00  0.00     0.073 C 
ATOM      9  O   UNL     1      75.163   9.224  13.658  1.00  0.00    -0.547 OA
ATOM     10  O   UNL     1      76.518   7.507  12.980  1.00  0.00    -0.547 OA
ENDBRANCH   3   8
BRANCH   4  11
ATOM     11  O   UNL     1      75.651   5.351  14.562  1.00  0.00    -0.387 OA
ATOM     12  H   UNL     1      75.955   4.414  14.430  1.00  0.00     0.211 HD
ENDBRANCH   4  11
BRANCH   6  13
ATOM     13  O   UNL     1      73.069   4.647  15.142  1.00  0.00    -0.387 OA
ATOM     14  H   UNL     1      73.172   5.583  15.457  1.00  0.00     0.211 HD
ENDBRANCH   6  13
BRANCH   7  15
ATOM     15  O   UNL     1      72.636   4.724  11.538  1.00  0.00    -0.384 OA
ATOM     16  H   UNL     1      73.346   4.031  11.557  1.00  0.00     0.211 HD
ENDBRANCH   7  15
ENDBRANCH   1   2
BRANCH   1  17
ATOM     17  C   UNL     1      70.482   7.839  14.585  1.00  0.00     0.172 A 
ATOM     18  C   UNL     1      70.724   9.229  14.479  1.00  0.00     0.201 A 
ATOM     19  C   UNL     1      69.240   7.400  15.043  1.00  0.00     0.098 A 
ATOM     20  C   UNL     1      69.713  10.156  14.814  1.00  0.00     0.176 A 
ATOM     21  C   UNL     1      68.217   8.298  15.337  1.00  0.00     0.146 A 
ATOM     22  C   UNL     1      68.423   9.692  15.199  1.00  0.00     0.111 A 
ATOM     23  O   UNL     1      67.045   7.816  15.735  1.00  0.00    -0.456 OA
ATOM     24  C   UNL     1      67.305  10.528  15.437  1.00  0.00     0.197 A 
ATOM     25  C   UNL     1      65.992   8.580  16.007  1.00  0.00     0.138 A 
ATOM     26  C   UNL     1      66.099   9.971  15.862  1.00  0.00     0.100 A 
ATOM     27  O   UNL     1      67.350  11.772  15.247  1.00  0.00    -0.289 OA
BRANCH  18  28
ATOM     28  O   UNL     1      71.977   9.696  14.082  1.00  0.00    -0.502 OA
ATOM     29  H   UNL     1      72.126  10.624  13.701  1.00  0.00     0.293 HD
ENDBRANCH  18  28
BRANCH  20  30
ATOM     30  O   UNL     1      70.052  11.513  14.779  1.00  0.00    -0.504 OA
ATOM     31  H   UNL     1      70.591  11.985  15.490  1.00  0.00     0.293 HD
ENDBRANCH  20  30
BRANCH  25  32
ATOM     32  C   UNL     1      64.734   7.929  16.457  1.00  0.00     0.017 A 
ATOM     33  C   UNL     1      63.507   8.141  15.794  1.00  0.00     0.012 A 
ATOM     34  C   UNL     1      64.767   7.047  17.552  1.00  0.00     0.012 A 
ATOM     35  C   UNL     1      62.344   7.502  16.235  1.00  0.00     0.001 A 
ATOM     36  C   UNL     1      63.600   6.410  17.988  1.00  0.00     0.001 A 
ATOM     37  C   UNL     1      62.390   6.639  17.333  1.00  0.00     0.000 A 
ENDBRANCH  25  32
ENDBRANCH   1  17
TORSDOF 9
ENDMDL
MODEL 2
REMARK VINA RESULT:    -6.098      0.985      2.300
REMARK INTER + INTRA:          -9.824
REMARK INTER:                  -8.449
REMARK INTRA:                  -1.375
REMARK UNBOUND:                -1.409
REMARK SMILES O=C([O-])[C@H]1O[C@H](Oc2cc3oc(-c4ccccc4)cc(=O)c3c(O)c2O)[C@@H](O)[C@H](O)[C@@H]1O
REMARK SMILES IDX 7 1 6 2 4 3 31 4 5 5 29 6 27 7 2 8 1 9 3 10 32 11 30 13
REMARK SMILES IDX 28 15 8 17 25 18 9 19 23 20 10 21 22 22 11 23 20 24 12 25
REMARK SMILES IDX 19 26 21 27 26 28 24 30 13 32 14 33 18 34 15 35 17 36 16 37
REMARK H PARENT 32 12 30 14 28 16 26 29 24 31
REMARK Flexibility Score: inf
ROOT
ATOM      1  O   UNL     1      71.244   7.255  13.928  1.00  0.00    -0.458 OA
ENDROOT
BRANCH   1   2
ATOM      2  C   UNL     1      72.064   6.395  14.729  1.00  0.00     0.339 C 
ATOM      3  C   UNL     1      73.214   5.572  12.850  1.00  0.00     0.199 C 
ATOM      4  C   UNL     1      74.553   6.211  13.272  1.00  0.00     0.180 C 
ATOM      5  O   UNL     1      72.433   5.242  13.989  1.00  0.00    -0.328 OA
ATOM      6  C   UNL     1      74.293   7.461  14.129  1.00  0.00     0.181 C 
ATOM      7  C   UNL     1      73.313   7.128  15.272  1.00  0.00     0.214 C 
BRANCH   3   8
ATOM      8  C   UNL     1      73.473   4.313  12.077  1.00  0.00     0.073 C 
ATOM      9  O   UNL     1      73.247   3.191  12.601  1.00  0.00    -0.547 OA
ATOM     10  O   UNL     1      73.925   4.379  10.764  1.00  0.00    -0.547 OA
ENDBRANCH   3   8
BRANCH   4  11
ATOM     11  O   UNL     1      75.299   6.556  12.132  1.00  0.00    -0.387 OA
ATOM     12  H   UNL     1      76.254   6.403  12.359  1.00  0.00     0.211 HD
ENDBRANCH   4  11
BRANCH   6  13
ATOM     13  O   UNL     1      73.768   8.487  13.325  1.00  0.00    -0.387 OA
ATOM     14  H   UNL     1      72.791   8.322  13.248  1.00  0.00     0.211 HD
ENDBRANCH   6  13
BRANCH   7  15
ATOM     15  O   UNL     1      73.943   6.306  16.222  1.00  0.00    -0.384 OA
ATOM     16  H   UNL     1      74.799   6.007  15.819  1.00  0.00     0.211 HD
ENDBRANCH   7  15
ENDBRANCH   1   2
BRANCH   1  17
ATOM     17  C   UNL     1      70.293   8.199  14.363  1.00  0.00     0.172 A 
ATOM     18  C   UNL     1      70.501   9.598  14.381  1.00  0.00     0.201 A 
ATOM     19  C   UNL     1      69.081   7.687  14.825  1.00  0.00     0.098 A 
ATOM     20  C   UNL     1      69.484  10.464  14.841  1.00  0.00     0.176 A 
ATOM     21  C   UNL     1      68.051   8.527  15.242  1.00  0.00     0.146 A 
ATOM     22  C   UNL     1      68.221   9.933  15.230  1.00  0.00     0.111 A 
ATOM     23  O   UNL     1      66.907   7.980  15.638  1.00  0.00    -0.456 OA
ATOM     24  C   UNL     1      67.096  10.714  15.589  1.00  0.00     0.197 A 
ATOM     25  C   UNL     1      65.850   8.688  16.021  1.00  0.00     0.138 A 
ATOM     26  C   UNL     1      65.921  10.088  16.005  1.00  0.00     0.100 A 
ATOM     27  O   UNL     1      67.107  11.971  15.517  1.00  0.00    -0.289 OA
BRANCH  18  28
ATOM     28  O   UNL     1      71.726  10.132  13.982  1.00  0.00    -0.502 OA
ATOM     29  H   UNL     1      71.931  11.125  14.005  1.00  0.00     0.293 HD
ENDBRANCH  18  28
BRANCH  20  30
ATOM     30  O   UNL     1      69.792  11.826  14.923  1.00  0.00    -0.504 OA
ATOM     31  H   UNL     1      70.181  12.370  14.167  1.00  0.00     0.293 HD
ENDBRANCH  20  30
BRANCH  25  32
ATOM     32  C   UNL     1      64.626   7.966  16.455  1.00  0.00     0.017 A 
ATOM     33  C   UNL     1      63.384   8.149  15.810  1.00  0.00     0.012 A 
ATOM     34  C   UNL     1      64.707   7.044  17.515  1.00  0.00     0.012 A 
ATOM     35  C   UNL     1      62.255   7.443  16.235  1.00  0.00     0.001 A 
ATOM     36  C   UNL     1      63.574   6.341  17.935  1.00  0.00     0.001 A 
ATOM     37  C   UNL     1      62.348   6.542  17.298  1.00  0.00     0.000 A 
ENDBRANCH  25  32
ENDBRANCH   1  17
TORSDOF 9
ENDMDL
MODEL 3
REMARK VINA RESULT:    -5.928      1.005      2.560
REMARK INTER + INTRA:          -9.589
REMARK INTER:                  -8.693
REMARK INTRA:                  -0.896
REMARK UNBOUND:                -1.409
REMARK SMILES O=C([O-])[C@H]1O[C@H](Oc2cc3oc(-c4ccccc4)cc(=O)c3c(O)c2O)[C@@H](O)[C@H](O)[C@@H]1O
REMARK SMILES IDX 7 1 6 2 4 3 31 4 5 5 29 6 27 7 2 8 1 9 3 10 32 11 30 13
REMARK SMILES IDX 28 15 8 17 25 18 9 19 23 20 10 21 22 22 11 23 20 24 12 25
REMARK SMILES IDX 19 26 21 27 26 28 24 30 13 32 14 33 18 34 15 35 17 36 16 37
REMARK H PARENT 32 12 30 14 28 16 26 29 24 31
REMARK Flexibility Score: inf
ROOT
ATOM      1  O   UNL     1      71.379   6.910  13.864  1.00  0.00    -0.458 OA
ENDROOT
BRANCH   1   2
ATOM      2  C   UNL     1      72.726   6.701  14.304  1.00  0.00     0.339 C 
ATOM      3  C   UNL     1      72.605   4.386  13.911  1.00  0.00     0.199 C 
ATOM      4  C   UNL     1      73.642   4.429  12.772  1.00  0.00     0.180 C 
ATOM      5  O   UNL     1      72.863   5.405  14.866  1.00  0.00    -0.328 OA
ATOM      6  C   UNL     1      73.629   5.812  12.101  1.00  0.00     0.181 C 
ATOM      7  C   UNL     1      73.749   6.922  13.165  1.00  0.00     0.214 C 
BRANCH   3   8
ATOM      8  C   UNL     1      72.672   3.060  14.610  1.00  0.00     0.073 C 
ATOM      9  O   UNL     1      71.691   2.650  15.286  1.00  0.00    -0.547 OA
ATOM     10  O   UNL     1      73.800   2.258  14.482  1.00  0.00    -0.547 OA
ENDBRANCH   3   8
BRANCH   4  11
ATOM     11  O   UNL     1      73.354   3.432  11.824  1.00  0.00    -0.387 OA
ATOM     12  H   UNL     1      74.080   2.757  11.890  1.00  0.00     0.211 HD
ENDBRANCH   4  11
BRANCH   6  13
ATOM     13  O   UNL     1      72.442   5.973  11.365  1.00  0.00    -0.387 OA
ATOM     14  H   UNL     1      72.643   6.606  10.627  1.00  0.00     0.211 HD
ENDBRANCH   6  13
BRANCH   7  15
ATOM     15  O   UNL     1      75.043   6.926  13.712  1.00  0.00    -0.384 OA
ATOM     16  H   UNL     1      75.539   6.182  13.281  1.00  0.00     0.211 HD
ENDBRANCH   7  15
ENDBRANCH   1   2
BRANCH   1  17
ATOM     17  C   UNL     1      70.467   7.892  14.297  1.00  0.00     0.172 A 
ATOM     18  C   UNL     1      70.724   9.284  14.293  1.00  0.00     0.201 A 
ATOM     19  C   UNL     1      69.244   7.430  14.782  1.00  0.00     0.098 A 
ATOM     20  C   UNL     1      69.745  10.191  14.752  1.00  0.00     0.176 A 
ATOM     21  C   UNL     1      68.250   8.312  15.200  1.00  0.00     0.146 A 
ATOM     22  C   UNL     1      68.469   9.710  15.165  1.00  0.00     0.111 A 
ATOM     23  O   UNL     1      67.092   7.811  15.617  1.00  0.00    -0.456 OA
ATOM     24  C   UNL     1      67.376  10.536  15.526  1.00  0.00     0.197 A 
ATOM     25  C   UNL     1      66.066   8.561  16.003  1.00  0.00     0.138 A 
ATOM     26  C   UNL     1      66.186   9.957  15.966  1.00  0.00     0.100 A 
ATOM     27  O   UNL     1      67.430  11.790  15.436  1.00  0.00    -0.289 OA
BRANCH  18  28
ATOM     28  O   UNL     1      71.962   9.769  13.870  1.00  0.00    -0.502 OA
ATOM     29  H   UNL     1      72.456  10.514  14.348  1.00  0.00     0.293 HD
ENDBRANCH  18  28
BRANCH  20  30
ATOM     30  O   UNL     1      70.100  11.542  14.811  1.00  0.00    -0.504 OA
ATOM     31  H   UNL     1      69.449  12.299  14.962  1.00  0.00     0.293 HD
ENDBRANCH  20  30
BRANCH  25  32
ATOM     32  C   UNL     1      64.823   7.888  16.463  1.00  0.00     0.017 A 
ATOM     33  C   UNL     1      63.583   8.093  15.821  1.00  0.00     0.012 A 
ATOM     34  C   UNL     1      64.883   6.991  17.546  1.00  0.00     0.012 A 
ATOM     35  C   UNL     1      62.436   7.434  16.271  1.00  0.00     0.001 A 
ATOM     36  C   UNL     1      63.731   6.334  17.990  1.00  0.00     0.001 A 
ATOM     37  C   UNL     1      62.508   6.558  17.356  1.00  0.00     0.000 A 
ENDBRANCH  25  32
ENDBRANCH   1  17
TORSDOF 9
ENDMDL
MODEL 4
REMARK VINA RESULT:    -5.786      2.873      8.496
REMARK INTER + INTRA:          -9.393
REMARK INTER:                  -8.294
REMARK INTRA:                  -1.100
REMARK UNBOUND:                -1.409
REMARK SMILES O=C([O-])[C@H]1O[C@H](Oc2cc3oc(-c4ccccc4)cc(=O)c3c(O)c2O)[C@@H](O)[C@H](O)[C@@H]1O
REMARK SMILES IDX 7 1 6 2 4 3 31 4 5 5 29 6 27 7 2 8 1 9 3 10 32 11 30 13
REMARK SMILES IDX 28 15 8 17 25 18 9 19 23 20 10 21 22 22 11 23 20 24 12 25
REMARK SMILES IDX 19 26 21 27 26 28 24 30 13 32 14 33 18 34 15 35 17 36 16 37
REMARK H PARENT 32 12 30 14 28 16 26 29 24 31
REMARK Flexibility Score: inf
ROOT
ATOM      1  O   UNL     1      68.668   8.293  13.877  1.00  0.00    -0.458 OA
ENDROOT
BRANCH   1   2
ATOM      2  C   UNL     1      67.788   9.421  13.958  1.00  0.00     0.339 C 
ATOM      3  C   UNL     1      65.946   8.074  14.525  1.00  0.00     0.199 C 
ATOM      4  C   UNL     1      65.829   8.666  15.944  1.00  0.00     0.180 C 
ATOM      5  O   UNL     1      66.465   9.035  13.619  1.00  0.00    -0.328 OA
ATOM      6  C   UNL     1      67.202   9.170  16.419  1.00  0.00     0.181 C 
ATOM      7  C   UNL     1      67.831  10.089  15.352  1.00  0.00     0.214 C 
BRANCH   3   8
ATOM      8  C   UNL     1      64.592   7.651  14.038  1.00  0.00     0.073 C 
ATOM      9  O   UNL     1      64.049   8.255  13.075  1.00  0.00    -0.547 OA
ATOM     10  O   UNL     1      63.946   6.566  14.618  1.00  0.00    -0.547 OA
ENDBRANCH   3   8
BRANCH   4  11
ATOM     11  O   UNL     1      65.341   7.692  16.831  1.00  0.00    -0.387 OA
ATOM     12  H   UNL     1      64.364   7.618  16.664  1.00  0.00     0.211 HD
ENDBRANCH   4  11
BRANCH   6  13
ATOM     13  O   UNL     1      68.047   8.075  16.673  1.00  0.00    -0.387 OA
ATOM     14  H   UNL     1      68.859   8.436  17.118  1.00  0.00     0.211 HD
ENDBRANCH   6  13
BRANCH   7  15
ATOM     15  O   UNL     1      67.129  11.306  15.293  1.00  0.00    -0.384 OA
ATOM     16  H   UNL     1      67.554  11.914  15.952  1.00  0.00     0.211 HD
ENDBRANCH   7  15
ENDBRANCH   1   2
BRANCH   1  17
ATOM     17  C   UNL     1      70.067   8.294  13.715  1.00  0.00     0.172 A 
ATOM     18  C   UNL     1      70.736   8.620  12.512  1.00  0.00     0.201 A 
ATOM     19  C   UNL     1      70.819   7.920  14.829  1.00  0.00     0.098 A 
ATOM     20  C   UNL     1      72.146   8.588  12.449  1.00  0.00     0.176 A 
ATOM     21  C   UNL     1      72.211   7.924  14.799  1.00  0.00     0.146 A 
ATOM     22  C   UNL     1      72.903   8.287  13.618  1.00  0.00     0.111 A 
ATOM     23  O   UNL     1      72.870   7.592  15.903  1.00  0.00    -0.456 OA
ATOM     24  C   UNL     1      74.315   8.346  13.700  1.00  0.00     0.197 A 
ATOM     25  C   UNL     1      74.196   7.597  15.995  1.00  0.00     0.138 A 
ATOM     26  C   UNL     1      74.958   7.979  14.882  1.00  0.00     0.100 A 
ATOM     27  O   UNL     1      75.022   8.753  12.740  1.00  0.00    -0.289 OA
BRANCH  18  28
ATOM     28  O   UNL     1      70.007   8.939  11.366  1.00  0.00    -0.502 OA
ATOM     29  H   UNL     1      69.169   8.440  11.087  1.00  0.00     0.293 HD
ENDBRANCH  18  28
BRANCH  20  30
ATOM     30  O   UNL     1      72.737   8.828  11.205  1.00  0.00    -0.504 OA
ATOM     31  H   UNL     1      73.350   8.181  10.729  1.00  0.00     0.293 HD
ENDBRANCH  20  30
BRANCH  25  32
ATOM     32  C   UNL     1      74.824   7.195  17.280  1.00  0.00     0.017 A 
ATOM     33  C   UNL     1      75.845   7.961  17.883  1.00  0.00     0.012 A 
ATOM     34  C   UNL     1      74.369   6.038  17.940  1.00  0.00     0.012 A 
ATOM     35  C   UNL     1      76.405   7.561  19.099  1.00  0.00     0.001 A 
ATOM     36  C   UNL     1      74.933   5.644  19.157  1.00  0.00     0.001 A 
ATOM     37  C   UNL     1      75.952   6.403  19.735  1.00  0.00     0.000 A 
ENDBRANCH  25  32
ENDBRANCH   1  17
TORSDOF 9
ENDMDL
MODEL 5
REMARK VINA RESULT:    -5.588      3.032      8.521
REMARK INTER + INTRA:          -9.120
REMARK INTER:                  -7.999
REMARK INTRA:                  -1.121
REMARK UNBOUND:                -1.409
REMARK SMILES O=C([O-])[C@H]1O[C@H](Oc2cc3oc(-c4ccccc4)cc(=O)c3c(O)c2O)[C@@H](O)[C@H](O)[C@@H]1O
REMARK SMILES IDX 7 1 6 2 4 3 31 4 5 5 29 6 27 7 2 8 1 9 3 10 32 11 30 13
REMARK SMILES IDX 28 15 8 17 25 18 9 19 23 20 10 21 22 22 11 23 20 24 12 25
REMARK SMILES IDX 19 26 21 27 26 28 24 30 13 32 14 33 18 34 15 35 17 36 16 37
REMARK H PARENT 32 12 30 14 28 16 26 29 24 31
REMARK Flexibility Score: inf
ROOT
ATOM      1  O   UNL     1      69.079   9.229  13.592  1.00  0.00    -0.458 OA
ENDROOT
BRANCH   1   2
ATOM      2  C   UNL     1      68.482  10.530  13.664  1.00  0.00     0.339 C 
ATOM      3  C   UNL     1      66.304   9.646  13.611  1.00  0.00     0.199 C 
ATOM      4  C   UNL     1      65.982  10.101  15.048  1.00  0.00     0.180 C 
ATOM      5  O   UNL     1      67.229  10.531  12.998  1.00  0.00    -0.328 OA
ATOM      6  C   UNL     1      67.275  10.186  15.875  1.00  0.00     0.181 C 
ATOM      7  C   UNL     1      68.334  11.019  15.124  1.00  0.00     0.214 C 
BRANCH   3   8
ATOM      8  C   UNL     1      65.049   9.635  12.788  1.00  0.00     0.073 C 
ATOM      9  O   UNL     1      64.733  10.643  12.103  1.00  0.00    -0.547 OA
ATOM     10  O   UNL     1      64.251   8.498  12.746  1.00  0.00    -0.547 OA
ENDBRANCH   3   8
BRANCH   4  11
ATOM     11  O   UNL     1      65.087   9.197  15.647  1.00  0.00    -0.387 OA
ATOM     12  H   UNL     1      64.565   8.783  14.910  1.00  0.00     0.211 HD
ENDBRANCH   4  11
BRANCH   6  13
ATOM     13  O   UNL     1      67.766   8.893  16.125  1.00  0.00    -0.387 OA
ATOM     14  H   UNL     1      68.652   9.000  16.562  1.00  0.00     0.211 HD
ENDBRANCH   6  13
BRANCH   7  15
ATOM     15  O   UNL     1      67.959  12.374  15.112  1.00  0.00    -0.384 OA
ATOM     16  H   UNL     1      68.069  12.710  16.039  1.00  0.00     0.211 HD
ENDBRANCH   7  15
ENDBRANCH   1   2
BRANCH   1  17
ATOM     17  C   UNL     1      70.449   8.906  13.519  1.00  0.00     0.172 A 
ATOM     18  C   UNL     1      71.231   8.990  12.343  1.00  0.00     0.201 A 
ATOM     19  C   UNL     1      71.041   8.453  14.697  1.00  0.00     0.098 A 
ATOM     20  C   UNL     1      72.598   8.639  12.371  1.00  0.00     0.176 A 
ATOM     21  C   UNL     1      72.398   8.143  14.753  1.00  0.00     0.146 A 
ATOM     22  C   UNL     1      73.209   8.258  13.599  1.00  0.00     0.111 A 
ATOM     23  O   UNL     1      72.910   7.750  15.914  1.00  0.00    -0.456 OA
ATOM     24  C   UNL     1      74.593   8.006  13.766  1.00  0.00     0.197 A 
ATOM     25  C   UNL     1      74.197   7.465  16.088  1.00  0.00     0.138 A 
ATOM     26  C   UNL     1      75.078   7.587  15.004  1.00  0.00     0.100 A 
ATOM     27  O   UNL     1      75.419   8.176  12.830  1.00  0.00    -0.289 OA
BRANCH  18  28
ATOM     28  O   UNL     1      70.649   9.382  11.137  1.00  0.00    -0.502 OA
ATOM     29  H   UNL     1      70.409   8.729  10.400  1.00  0.00     0.293 HD
ENDBRANCH  18  28
BRANCH  20  30
ATOM     30  O   UNL     1      73.287   8.653  11.154  1.00  0.00    -0.504 OA
ATOM     31  H   UNL     1      74.285   8.527  11.060  1.00  0.00     0.293 HD
ENDBRANCH  20  30
BRANCH  25  32
ATOM     32  C   UNL     1      74.655   7.023  17.431  1.00  0.00     0.017 A 
ATOM     33  C   UNL     1      74.259   5.787  17.984  1.00  0.00     0.012 A 
ATOM     34  C   UNL     1      75.539   7.838  18.162  1.00  0.00     0.012 A 
ATOM     35  C   UNL     1      74.719   5.396  19.245  1.00  0.00     0.001 A 
ATOM     36  C   UNL     1      75.997   7.440  19.422  1.00  0.00     0.001 A 
ATOM     37  C   UNL     1      75.585   6.222  19.964  1.00  0.00     0.000 A 
ENDBRANCH  25  32
ENDBRANCH   1  17
TORSDOF 9
ENDMDL
MODEL 6
REMARK VINA RESULT:    -5.509     10.675     14.019
REMARK INTER + INTRA:          -9.011
REMARK INTER:                  -7.950
REMARK INTRA:                  -1.061
REMARK UNBOUND:                -1.409
REMARK SMILES O=C([O-])[C@H]1O[C@H](Oc2cc3oc(-c4ccccc4)cc(=O)c3c(O)c2O)[C@@H](O)[C@H](O)[C@@H]1O
REMARK SMILES IDX 7 1 6 2 4 3 31 4 5 5 29 6 27 7 2 8 1 9 3 10 32 11 30 13
REMARK SMILES IDX 28 15 8 17 25 18 9 19 23 20 10 21 22 22 11 23 20 24 12 25
REMARK SMILES IDX 19 26 21 27 26 28 24 30 13 32 14 33 18 34 15 35 17 36 16 37
REMARK H PARENT 32 12 30 14 28 16 26 29 24 31
REMARK Flexibility Score: inf
ROOT
ATOM      1  O   UNL     1      74.573   0.237  25.005  1.00  0.00    -0.458 OA
ENDROOT
BRANCH   1   2
ATOM      2  C   UNL     1      74.130   1.312  25.844  1.00  0.00     0.339 C 
ATOM      3  C   UNL     1      73.758  -0.128  27.666  1.00  0.00     0.199 C 
ATOM      4  C   UNL     1      74.882   0.500  28.513  1.00  0.00     0.180 C 
ATOM      5  O   UNL     1      73.188   0.835  26.793  1.00  0.00    -0.328 OA
ATOM      6  C   UNL     1      75.960   1.101  27.596  1.00  0.00     0.181 C 
ATOM      7  C   UNL     1      75.311   2.024  26.545  1.00  0.00     0.214 C 
BRANCH   3   8
ATOM      8  C   UNL     1      72.674  -0.647  28.564  1.00  0.00     0.073 C 
ATOM      9  O   UNL     1      71.939  -1.597  28.184  1.00  0.00    -0.547 OA
ATOM     10  O   UNL     1      72.502  -0.112  29.835  1.00  0.00    -0.547 OA
ENDBRANCH   3   8
BRANCH   4  11
ATOM     11  O   UNL     1      75.452  -0.475  29.350  1.00  0.00    -0.387 OA
ATOM     12  H   UNL     1      76.438  -0.384  29.264  1.00  0.00     0.211 HD
ENDBRANCH   4  11
BRANCH   6  13
ATOM     13  O   UNL     1      76.672   0.069  26.960  1.00  0.00    -0.387 OA
ATOM     14  H   UNL     1      76.914   0.401  26.056  1.00  0.00     0.211 HD
ENDBRANCH   6  13
BRANCH   7  15
ATOM     15  O   UNL     1      74.832   3.193  27.161  1.00  0.00    -0.384 OA
ATOM     16  H   UNL     1      75.491   3.909  26.967  1.00  0.00     0.211 HD
ENDBRANCH   7  15
ENDBRANCH   1   2
BRANCH   1  17
ATOM     17  C   UNL     1      74.797   0.258  23.615  1.00  0.00     0.172 A 
ATOM     18  C   UNL     1      75.031  -0.890  22.822  1.00  0.00     0.201 A 
ATOM     19  C   UNL     1      74.806   1.515  23.009  1.00  0.00     0.098 A 
ATOM     20  C   UNL     1      75.249  -0.763  21.432  1.00  0.00     0.176 A 
ATOM     21  C   UNL     1      74.977   1.656  21.634  1.00  0.00     0.146 A 
ATOM     22  C   UNL     1      75.172   0.518  20.815  1.00  0.00     0.111 A 
ATOM     23  O   UNL     1      74.940   2.877  21.112  1.00  0.00    -0.456 OA
ATOM     24  C   UNL     1      75.252   0.744  19.419  1.00  0.00     0.197 A 
ATOM     25  C   UNL     1      75.056   3.121  19.811  1.00  0.00     0.138 A 
ATOM     26  C   UNL     1      75.217   2.048  18.924  1.00  0.00     0.100 A 
ATOM     27  O   UNL     1      75.325  -0.204  18.593  1.00  0.00    -0.289 OA
BRANCH  18  28
ATOM     28  O   UNL     1      75.088  -2.152  23.412  1.00  0.00    -0.502 OA
ATOM     29  H   UNL     1      74.787  -2.997  22.939  1.00  0.00     0.293 HD
ENDBRANCH  18  28
BRANCH  20  30
ATOM     30  O   UNL     1      75.570  -1.927  20.726  1.00  0.00    -0.504 OA
ATOM     31  H   UNL     1      76.411  -2.467  20.867  1.00  0.00     0.293 HD
ENDBRANCH  20  30
BRANCH  25  32
ATOM     32  C   UNL     1      75.012   4.531  19.343  1.00  0.00     0.017 A 
ATOM     33  C   UNL     1      75.368   5.607  20.184  1.00  0.00     0.012 A 
ATOM     34  C   UNL     1      74.643   4.806  18.013  1.00  0.00     0.012 A 
ATOM     35  C   UNL     1      75.328   6.920  19.708  1.00  0.00     0.001 A 
ATOM     36  C   UNL     1      74.606   6.123  17.543  1.00  0.00     0.001 A 
ATOM     37  C   UNL     1      74.945   7.179  18.390  1.00  0.00     0.000 A 
ENDBRANCH  25  32
ENDBRANCH   1  17
TORSDOF 9
ENDMDL
MODEL 7
REMARK VINA RESULT:    -5.483      3.069      8.530
REMARK INTER + INTRA:          -8.976
REMARK INTER:                  -7.762
REMARK INTRA:                  -1.213
REMARK UNBOUND:                -1.409
REMARK SMILES O=C([O-])[C@H]1O[C@H](Oc2cc3oc(-c4ccccc4)cc(=O)c3c(O)c2O)[C@@H](O)[C@H](O)[C@@H]1O
REMARK SMILES IDX 7 1 6 2 4 3 31 4 5 5 29 6 27 7 2 8 1 9 3 10 32 11 30 13
REMARK SMILES IDX 28 15 8 17 25 18 9 19 23 20 10 21 22 22 11 23 20 24 12 25
REMARK SMILES IDX 19 26 21 27 26 28 24 30 13 32 14 33 18 34 15 35 17 36 16 37
REMARK H PARENT 32 12 30 14 28 16 26 29 24 31
REMARK Flexibility Score: inf
ROOT
ATOM      1  O   UNL     1      69.019   8.759  14.203  1.00  0.00    -0.458 OA
ENDROOT
BRANCH   1   2
ATOM      2  C   UNL     1      68.028   7.737  14.367  1.00  0.00     0.339 C 
ATOM      3  C   UNL     1      66.397   9.287  15.052  1.00  0.00     0.199 C 
ATOM      4  C   UNL     1      65.525   9.065  13.801  1.00  0.00     0.180 C 
ATOM      5  O   UNL     1      67.110   8.105  15.385  1.00  0.00    -0.328 OA
ATOM      6  C   UNL     1      66.401   8.614  12.621  1.00  0.00     0.181 C 
ATOM      7  C   UNL     1      67.291   7.427  13.042  1.00  0.00     0.214 C 
BRANCH   3   8
ATOM      8  C   UNL     1      65.529   9.656  16.219  1.00  0.00     0.073 C 
ATOM      9  O   UNL     1      65.382  10.865  16.540  1.00  0.00    -0.547 OA
ATOM     10  O   UNL     1      64.851   8.671  16.926  1.00  0.00    -0.547 OA
ENDBRANCH   3   8
BRANCH   4  11
ATOM     11  O   UNL     1      64.850  10.254  13.472  1.00  0.00    -0.387 OA
ATOM     12  H   UNL     1      65.361  10.997  13.888  1.00  0.00     0.211 HD
ENDBRANCH   4  11
BRANCH   6  13
ATOM     13  O   UNL     1      67.198   9.686  12.184  1.00  0.00    -0.387 OA
ATOM     14  H   UNL     1      66.727  10.101  11.414  1.00  0.00     0.211 HD
ENDBRANCH   6  13
BRANCH   7  15
ATOM     15  O   UNL     1      66.505   6.276  13.220  1.00  0.00    -0.384 OA
ATOM     16  H   UNL     1      66.312   5.918  12.315  1.00  0.00     0.211 HD
ENDBRANCH   7  15
ENDBRANCH   1   2
BRANCH   1  17
ATOM     17  C   UNL     1      70.407   8.598  14.018  1.00  0.00     0.172 A 
ATOM     18  C   UNL     1      71.085   8.822  12.797  1.00  0.00     0.201 A 
ATOM     19  C   UNL     1      71.132   8.165  15.127  1.00  0.00     0.098 A 
ATOM     20  C   UNL     1      72.481   8.629  12.712  1.00  0.00     0.176 A 
ATOM     21  C   UNL     1      72.515   8.010  15.074  1.00  0.00     0.146 A 
ATOM     22  C   UNL     1      73.221   8.268  13.874  1.00  0.00     0.111 A 
ATOM     23  O   UNL     1      73.154   7.629  16.175  1.00  0.00    -0.456 OA
ATOM     24  C   UNL     1      74.633   8.169  13.931  1.00  0.00     0.197 A 
ATOM     25  C   UNL     1      74.473   7.486  16.244  1.00  0.00     0.138 A 
ATOM     26  C   UNL     1      75.252   7.756  15.110  1.00  0.00     0.100 A 
ATOM     27  O   UNL     1      75.362   8.473  12.951  1.00  0.00    -0.289 OA
BRANCH  18  28
ATOM     28  O   UNL     1      70.375   9.197  11.656  1.00  0.00    -0.502 OA
ATOM     29  H   UNL     1      70.712   9.031  10.715  1.00  0.00     0.293 HD
ENDBRANCH  18  28
BRANCH  20  30
ATOM     30  O   UNL     1      73.072   8.774  11.452  1.00  0.00    -0.504 OA
ATOM     31  H   UNL     1      72.575   8.701  10.576  1.00  0.00     0.293 HD
ENDBRANCH  20  30
BRANCH  25  32
ATOM     32  C   UNL     1      75.077   7.042  17.527  1.00  0.00     0.017 A 
ATOM     33  C   UNL     1      74.627   5.887  18.202  1.00  0.00     0.012 A 
ATOM     34  C   UNL     1      76.152   7.768  18.073  1.00  0.00     0.012 A 
ATOM     35  C   UNL     1      75.226   5.490  19.401  1.00  0.00     0.001 A 
ATOM     36  C   UNL     1      76.747   7.364  19.272  1.00  0.00     0.001 A 
ATOM     37  C   UNL     1      76.283   6.228  19.937  1.00  0.00     0.000 A 
ENDBRANCH  25  32
ENDBRANCH   1  17
TORSDOF 9
ENDMDL
MODEL 8
REMARK VINA RESULT:    -5.466      6.723     10.774
REMARK INTER + INTRA:          -8.951
REMARK INTER:                  -7.596
REMARK INTRA:                  -1.355
REMARK UNBOUND:                -1.409
REMARK SMILES O=C([O-])[C@H]1O[C@H](Oc2cc3oc(-c4ccccc4)cc(=O)c3c(O)c2O)[C@@H](O)[C@H](O)[C@@H]1O
REMARK SMILES IDX 7 1 6 2 4 3 31 4 5 5 29 6 27 7 2 8 1 9 3 10 32 11 30 13
REMARK SMILES IDX 28 15 8 17 25 18 9 19 23 20 10 21 22 22 11 23 20 24 12 25
REMARK SMILES IDX 19 26 21 27 26 28 24 30 13 32 14 33 18 34 15 35 17 36 16 37
REMARK H PARENT 32 12 30 14 28 16 26 29 24 31
REMARK Flexibility Score: inf
ROOT
ATOM      1  O   UNL     1      77.962   7.566  19.722  1.00  0.00    -0.458 OA
ENDROOT
BRANCH   1   2
ATOM      2  C   UNL     1      79.343   7.191  19.784  1.00  0.00     0.339 C 
ATOM      3  C   UNL     1      79.473   7.660  22.085  1.00  0.00     0.199 C 
ATOM      4  C   UNL     1      79.697   6.184  22.470  1.00  0.00     0.180 C 
ATOM      5  O   UNL     1      80.006   7.931  20.798  1.00  0.00    -0.328 OA
ATOM      6  C   UNL     1      79.059   5.263  21.417  1.00  0.00     0.181 C 
ATOM      7  C   UNL     1      79.521   5.670  20.003  1.00  0.00     0.214 C 
BRANCH   3   8
ATOM      8  C   UNL     1      80.159   8.553  23.076  1.00  0.00     0.073 C 
ATOM      9  O   UNL     1      81.134   9.265  22.717  1.00  0.00    -0.547 OA
ATOM     10  O   UNL     1      79.698   8.631  24.384  1.00  0.00    -0.547 OA
ENDBRANCH   3   8
BRANCH   4  11
ATOM     11  O   UNL     1      79.137   5.929  23.734  1.00  0.00    -0.387 OA
ATOM     12  H   UNL     1      78.246   6.368  23.745  1.00  0.00     0.211 HD
ENDBRANCH   4  11
BRANCH   6  13
ATOM     13  O   UNL     1      77.658   5.336  21.507  1.00  0.00    -0.387 OA
ATOM     14  H   UNL     1      77.317   4.405  21.463  1.00  0.00     0.211 HD
ENDBRANCH   6  13
BRANCH   7  15
ATOM     15  O   UNL     1      80.876   5.343  19.828  1.00  0.00    -0.384 OA
ATOM     16  H   UNL     1      80.902   4.460  19.376  1.00  0.00     0.211 HD
ENDBRANCH   7  15
ENDBRANCH   1   2
BRANCH   1  17
ATOM     17  C   UNL     1      77.107   7.543  18.603  1.00  0.00     0.172 A 
ATOM     18  C   UNL     1      75.854   6.887  18.563  1.00  0.00     0.201 A 
ATOM     19  C   UNL     1      77.564   8.201  17.462  1.00  0.00     0.098 A 
ATOM     20  C   UNL     1      75.070   6.919  17.389  1.00  0.00     0.176 A 
ATOM     21  C   UNL     1      76.787   8.279  16.308  1.00  0.00     0.146 A 
ATOM     22  C   UNL     1      75.512   7.665  16.259  1.00  0.00     0.111 A 
ATOM     23  O   UNL     1      77.264   8.951  15.266  1.00  0.00    -0.456 OA
ATOM     24  C   UNL     1      74.754   7.866  15.080  1.00  0.00     0.197 A 
ATOM     25  C   UNL     1      76.592   9.118  14.132  1.00  0.00     0.138 A 
ATOM     26  C   UNL     1      75.306   8.572  14.012  1.00  0.00     0.100 A 
ATOM     27  O   UNL     1      73.571   7.449  14.970  1.00  0.00    -0.289 OA
BRANCH  18  28
ATOM     28  O   UNL     1      75.400   6.170  19.670  1.00  0.00    -0.502 OA
ATOM     29  H   UNL     1      75.990   5.539  20.200  1.00  0.00     0.293 HD
ENDBRANCH  18  28
BRANCH  20  30
ATOM     30  O   UNL     1      73.889   6.169  17.387  1.00  0.00    -0.504 OA
ATOM     31  H   UNL     1      73.028   6.460  16.947  1.00  0.00     0.293 HD
ENDBRANCH  20  30
BRANCH  25  32
ATOM     32  C   UNL     1      77.232   9.879  13.028  1.00  0.00     0.017 A 
ATOM     33  C   UNL     1      77.040   9.532  11.674  1.00  0.00     0.012 A 
ATOM     34  C   UNL     1      78.024  11.002  13.332  1.00  0.00     0.012 A 
ATOM     35  C   UNL     1      77.646  10.277  10.659  1.00  0.00     0.001 A 
ATOM     36  C   UNL     1      78.627  11.744  12.312  1.00  0.00     0.001 A 
ATOM     37  C   UNL     1      78.441  11.381  10.977  1.00  0.00     0.000 A 
ENDBRANCH  25  32
ENDBRANCH   1  17
TORSDOF 9
ENDMDL
MODEL 9
REMARK VINA RESULT:    -5.441      4.143      6.929
REMARK INTER + INTRA:          -8.918
REMARK INTER:                  -7.848
REMARK INTRA:                  -1.070
REMARK UNBOUND:                -1.409
REMARK SMILES O=C([O-])[C@H]1O[C@H](Oc2cc3oc(-c4ccccc4)cc(=O)c3c(O)c2O)[C@@H](O)[C@H](O)[C@@H]1O
REMARK SMILES IDX 7 1 6 2 4 3 31 4 5 5 29 6 27 7 2 8 1 9 3 10 32 11 30 13
REMARK SMILES IDX 28 15 8 17 25 18 9 19 23 20 10 21 22 22 11 23 20 24 12 25
REMARK SMILES IDX 19 26 21 27 26 28 24 30 13 32 14 33 18 34 15 35 17 36 16 37
REMARK H PARENT 32 12 30 14 28 16 26 29 24 31
REMARK Flexibility Score: inf
ROOT
ATOM      1  O   UNL     1      75.627   6.338  17.601  1.00  0.00    -0.458 OA
ENDROOT
BRANCH   1   2
ATOM      2  C   UNL     1      75.894   6.996  18.846  1.00  0.00     0.339 C 
ATOM      3  C   UNL     1      75.163   5.146  20.099  1.00  0.00     0.199 C 
ATOM      4  C   UNL     1      76.567   4.855  20.665  1.00  0.00     0.180 C 
ATOM      5  O   UNL     1      75.000   6.533  19.846  1.00  0.00    -0.328 OA
ATOM      6  C   UNL     1      77.643   5.354  19.687  1.00  0.00     0.181 C 
ATOM      7  C   UNL     1      77.364   6.819  19.292  1.00  0.00     0.214 C 
BRANCH   3   8
ATOM      8  C   UNL     1      74.118   4.722  21.089  1.00  0.00     0.073 C 
ATOM      9  O   UNL     1      73.843   3.502  21.236  1.00  0.00    -0.547 OA
ATOM     10  O   UNL     1      73.478   5.670  21.879  1.00  0.00    -0.547 OA
ENDBRANCH   3   8
BRANCH   4  11
ATOM     11  O   UNL     1      76.719   3.474  20.883  1.00  0.00    -0.387 OA
ATOM     12  H   UNL     1      77.645   3.338  21.216  1.00  0.00     0.211 HD
ENDBRANCH   4  11
BRANCH   6  13
ATOM     13  O   UNL     1      77.660   4.539  18.542  1.00  0.00    -0.387 OA
ATOM     14  H   UNL     1      77.255   5.068  17.806  1.00  0.00     0.211 HD
ENDBRANCH   6  13
BRANCH   7  15
ATOM     15  O   UNL     1      77.611   7.667  20.384  1.00  0.00    -0.384 OA
ATOM     16  H   UNL     1      78.119   7.136  21.051  1.00  0.00     0.211 HD
ENDBRANCH   7  15
ENDBRANCH   1   2
BRANCH   1  17
ATOM     17  C   UNL     1      75.142   6.905  16.407  1.00  0.00     0.172 A 
ATOM     18  C   UNL     1      75.855   6.937  15.185  1.00  0.00     0.201 A 
ATOM     19  C   UNL     1      73.877   7.489  16.469  1.00  0.00     0.098 A 
ATOM     20  C   UNL     1      75.282   7.533  14.041  1.00  0.00     0.176 A 
ATOM     21  C   UNL     1      73.278   8.045  15.341  1.00  0.00     0.146 A 
ATOM     22  C   UNL     1      73.956   8.051  14.098  1.00  0.00     0.111 A 
ATOM     23  O   UNL     1      72.057   8.555  15.458  1.00  0.00    -0.456 OA
ATOM     24  C   UNL     1      73.241   8.558  12.986  1.00  0.00     0.197 A 
ATOM     25  C   UNL     1      71.381   9.076  14.439  1.00  0.00     0.138 A 
ATOM     26  C   UNL     1      71.965   9.090  13.165  1.00  0.00     0.100 A 
ATOM     27  O   UNL     1      73.711   8.519  11.818  1.00  0.00    -0.289 OA
BRANCH  18  28
ATOM     28  O   UNL     1      77.146   6.413  15.111  1.00  0.00    -0.502 OA
ATOM     29  H   UNL     1      77.717   6.233  15.928  1.00  0.00     0.293 HD
ENDBRANCH  18  28
BRANCH  20  30
ATOM     30  O   UNL     1      76.079   7.616  12.895  1.00  0.00    -0.504 OA
ATOM     31  H   UNL     1      76.656   8.409  12.656  1.00  0.00     0.293 HD
ENDBRANCH  20  30
BRANCH  25  32
ATOM     32  C   UNL     1      70.024   9.628  14.691  1.00  0.00     0.017 A 
ATOM     33  C   UNL     1      68.958   8.816  15.131  1.00  0.00     0.012 A 
ATOM     34  C   UNL     1      69.798  11.007  14.525  1.00  0.00     0.012 A 
ATOM     35  C   UNL     1      67.698   9.370  15.372  1.00  0.00     0.001 A 
ATOM     36  C   UNL     1      68.535  11.556  14.768  1.00  0.00     0.001 A 
ATOM     37  C   UNL     1      67.486  10.738  15.188  1.00  0.00     0.000 A 
ENDBRANCH  25  32
ENDBRANCH   1  17
TORSDOF 9
ENDMDL
