MODEL 1
REMARK VINA RESULT:    -3.022      0.000      0.000
REMARK INTER + INTRA:          -5.394
REMARK INTER:                  -4.612
REMARK INTRA:                  -0.782
REMARK UNBOUND:                -0.782
REMARK SMILES O=C([O-])CCCCCCCCC(=O)[O-]
REMARK SMILES IDX 7 1 6 2 5 3 4 4 2 5 1 6 3 7 8 8 9 9 10 10 11 11 12 12 13 13
REMARK SMILES IDX 14 14
REMARK H PARENT
REMARK Flexibility Score: inf
ROOT
ATOM      1  C   UNL     1     167.629 169.765 154.928  1.00  0.00     0.000 C 
ENDROOT
BRANCH   1   2
ATOM      2  C   UNL     1     166.279 169.926 155.637  1.00  0.00     0.000 C 
BRANCH   2   3
ATOM      3  C   UNL     1     165.283 170.691 154.758  1.00  0.00     0.006 C 
BRANCH   3   4
ATOM      4  C   UNL     1     164.266 169.738 154.124  1.00  0.00     0.053 C 
BRANCH   4   5
ATOM      5  C   UNL     1     164.267 169.884 152.635  1.00  0.00     0.041 C 
ATOM      6  O   UNL     1     163.686 169.030 151.915  1.00  0.00    -0.550 OA
ATOM      7  O   UNL     1     164.868 170.988 152.045  1.00  0.00    -0.550 OA
ENDBRANCH   4   5
ENDBRANCH   3   4
ENDBRANCH   2   3
ENDBRANCH   1   2
BRANCH   1   8
ATOM      8  C   UNL     1     168.181 171.122 154.476  1.00  0.00     0.000 C 
BRANCH   8   9
ATOM      9  C   UNL     1     168.504 171.110 152.975  1.00  0.00     0.000 C 
BRANCH   9  10
ATOM     10  C   UNL     1     168.182 169.761 152.312  1.00  0.00     0.006 C 
BRANCH  10  11
ATOM     11  C   UNL     1     169.200 169.376 151.231  1.00  0.00     0.053 C 
BRANCH  11  12
ATOM     12  C   UNL     1     168.569 169.428 149.876  1.00  0.00     0.041 C 
ATOM     13  O   UNL     1     167.452 169.987 149.719  1.00  0.00    -0.550 OA
ATOM     14  O   UNL     1     169.189 168.813 148.796  1.00  0.00    -0.550 OA
ENDBRANCH  11  12
ENDBRANCH  10  11
ENDBRANCH   9  10
ENDBRANCH   8   9
ENDBRANCH   1   8
TORSDOF 9
ENDMDL
MODEL 2
REMARK VINA RESULT:    -2.987      0.810      4.499
REMARK INTER + INTRA:          -5.340
REMARK INTER:                  -4.470
REMARK INTRA:                  -0.871
REMARK UNBOUND:                -0.782
REMARK SMILES O=C([O-])CCCCCCCCC(=O)[O-]
REMARK SMILES IDX 7 1 6 2 5 3 4 4 2 5 1 6 3 7 8 8 9 9 10 10 11 11 12 12 13 13
REMARK SMILES IDX 14 14
REMARK H PARENT
REMARK Flexibility Score: inf
ROOT
ATOM      1  C   UNL     1     168.303 171.035 154.237  1.00  0.00     0.000 C 
ENDROOT
BRANCH   1   2
ATOM      2  C   UNL     1     168.192 170.857 152.718  1.00  0.00     0.000 C 
BRANCH   2   3
ATOM      3  C   UNL     1     168.227 169.374 152.333  1.00  0.00     0.006 C 
BRANCH   3   4
ATOM      4  C   UNL     1     168.906 169.175 150.974  1.00  0.00     0.053 C 
BRANCH   4   5
ATOM      5  C   UNL     1     167.984 169.572 149.865  1.00  0.00     0.041 C 
ATOM      6  O   UNL     1     168.369 170.381 148.980  1.00  0.00    -0.550 OA
ATOM      7  O   UNL     1     166.717 169.011 149.780  1.00  0.00    -0.550 OA
ENDBRANCH   4   5
ENDBRANCH   3   4
ENDBRANCH   2   3
ENDBRANCH   1   2
BRANCH   1   8
ATOM      8  C   UNL     1     167.403 170.037 154.977  1.00  0.00     0.000 C 
BRANCH   8   9
ATOM      9  C   UNL     1     166.186 170.745 155.590  1.00  0.00     0.000 C 
BRANCH   9  10
ATOM     10  C   UNL     1     164.860 170.049 155.242  1.00  0.00     0.006 C 
BRANCH  10  11
ATOM     11  C   UNL     1     164.966 169.167 153.992  1.00  0.00     0.053 C 
BRANCH  11  12
ATOM     12  C   UNL     1     164.262 169.808 152.838  1.00  0.00     0.041 C 
ATOM     13  O   UNL     1     164.794 170.774 152.230  1.00  0.00    -0.550 OA
ATOM     14  O   UNL     1     162.997 169.373 152.467  1.00  0.00    -0.550 OA
ENDBRANCH  11  12
ENDBRANCH  10  11
ENDBRANCH   9  10
ENDBRANCH   8   9
ENDBRANCH   1   8
TORSDOF 9
ENDMDL
MODEL 3
REMARK VINA RESULT:    -2.976      1.439      4.358
REMARK INTER + INTRA:          -5.324
REMARK INTER:                  -4.472
REMARK INTRA:                  -0.853
REMARK UNBOUND:                -0.782
REMARK SMILES O=C([O-])CCCCCCCCC(=O)[O-]
REMARK SMILES IDX 7 1 6 2 5 3 4 4 2 5 1 6 3 7 8 8 9 9 10 10 11 11 12 12 13 13
REMARK SMILES IDX 14 14
REMARK H PARENT
REMARK Flexibility Score: inf
ROOT
ATOM      1  C   UNL     1     167.517 169.921 154.804  1.00  0.00     0.000 C 
ENDROOT
BRANCH   1   2
ATOM      2  C   UNL     1     167.984 170.645 153.535  1.00  0.00     0.000 C 
BRANCH   2   3
ATOM      3  C   UNL     1     168.292 169.647 152.414  1.00  0.00     0.006 C 
BRANCH   3   4
ATOM      4  C   UNL     1     168.857 170.361 151.182  1.00  0.00     0.053 C 
BRANCH   4   5
ATOM      5  C   UNL     1     169.547 169.387 150.281  1.00  0.00     0.041 C 
ATOM      6  O   UNL     1     170.292 168.494 150.766  1.00  0.00    -0.550 OA
ATOM      7  O   UNL     1     169.329 169.432 148.910  1.00  0.00    -0.550 OA
ENDBRANCH   4   5
ENDBRANCH   3   4
ENDBRANCH   2   3
ENDBRANCH   1   2
BRANCH   1   8
ATOM      8  C   UNL     1     166.128 169.301 154.605  1.00  0.00     0.000 C 
BRANCH   8   9
ATOM      9  C   UNL     1     165.109 170.365 154.171  1.00  0.00     0.000 C 
BRANCH   9  10
ATOM     10  C   UNL     1     164.322 169.952 152.917  1.00  0.00     0.006 C 
BRANCH  10  11
ATOM     11  C   UNL     1     164.654 170.823 151.698  1.00  0.00     0.053 C 
BRANCH  11  12
ATOM     12  C   UNL     1     164.974 169.965 150.515  1.00  0.00     0.041 C 
ATOM     13  O   UNL     1     165.362 168.779 150.680  1.00  0.00    -0.550 OA
ATOM     14  O   UNL     1     164.893 170.490 149.232  1.00  0.00    -0.550 OA
ENDBRANCH  11  12
ENDBRANCH  10  11
ENDBRANCH   9  10
ENDBRANCH   8   9
ENDBRANCH   1   8
TORSDOF 9
ENDMDL
MODEL 4
REMARK VINA RESULT:    -2.950      1.495      2.125
REMARK INTER + INTRA:          -5.284
REMARK INTER:                  -4.370
REMARK INTRA:                  -0.914
REMARK UNBOUND:                -0.782
REMARK SMILES O=C([O-])CCCCCCCCC(=O)[O-]
REMARK SMILES IDX 7 1 6 2 5 3 4 4 2 5 1 6 3 7 8 8 9 9 10 10 11 11 12 12 13 13
REMARK SMILES IDX 14 14
REMARK H PARENT
REMARK Flexibility Score: inf
ROOT
ATOM      1  C   UNL     1     166.120 169.206 154.066  1.00  0.00     0.000 C 
ENDROOT
BRANCH   1   2
ATOM      2  C   UNL     1     164.835 170.042 154.024  1.00  0.00     0.000 C 
BRANCH   2   3
ATOM      3  C   UNL     1     164.066 169.804 152.720  1.00  0.00     0.006 C 
BRANCH   3   4
ATOM      4  C   UNL     1     164.507 170.790 151.634  1.00  0.00     0.053 C 
BRANCH   4   5
ATOM      5  C   UNL     1     164.882 170.060 150.384  1.00  0.00     0.041 C 
ATOM      6  O   UNL     1     164.929 170.671 149.283  1.00  0.00    -0.550 OA
ATOM      7  O   UNL     1     165.228 168.716 150.440  1.00  0.00    -0.550 OA
ENDBRANCH   4   5
ENDBRANCH   3   4
ENDBRANCH   2   3
ENDBRANCH   1   2
BRANCH   1   8
ATOM      8  C   UNL     1     167.318 170.057 154.508  1.00  0.00     0.000 C 
BRANCH   8   9
ATOM      9  C   UNL     1     168.177 170.463 153.302  1.00  0.00     0.000 C 
BRANCH   9  10
ATOM     10  C   UNL     1     168.206 169.384 152.207  1.00  0.00     0.006 C 
BRANCH  10  11
ATOM     11  C   UNL     1     168.522 169.958 150.820  1.00  0.00     0.053 C 
BRANCH  11  12
ATOM     12  C   UNL     1     169.515 169.093 150.110  1.00  0.00     0.041 C 
ATOM     13  O   UNL     1     170.398 168.477 150.762  1.00  0.00    -0.550 OA
ATOM     14  O   UNL     1     169.497 169.008 148.724  1.00  0.00    -0.550 OA
ENDBRANCH  11  12
ENDBRANCH  10  11
ENDBRANCH   9  10
ENDBRANCH   8   9
ENDBRANCH   1   8
TORSDOF 9
ENDMDL
MODEL 5
REMARK VINA RESULT:    -2.917     16.381     17.676
REMARK INTER + INTRA:          -5.234
REMARK INTER:                  -4.345
REMARK INTRA:                  -0.889
REMARK UNBOUND:                -0.782
REMARK SMILES O=C([O-])CCCCCCCCC(=O)[O-]
REMARK SMILES IDX 7 1 6 2 5 3 4 4 2 5 1 6 3 7 8 8 9 9 10 10 11 11 12 12 13 13
REMARK SMILES IDX 14 14
REMARK H PARENT
REMARK Flexibility Score: inf
ROOT
ATOM      1  C   UNL     1     170.769 151.981 154.953  1.00  0.00     0.000 C 
ENDROOT
BRANCH   1   2
ATOM      2  C   UNL     1     171.217 151.696 153.514  1.00  0.00     0.000 C 
BRANCH   2   3
ATOM      3  C   UNL     1     172.528 152.421 153.191  1.00  0.00     0.006 C 
BRANCH   3   4
ATOM      4  C   UNL     1     172.788 152.440 151.682  1.00  0.00     0.053 C 
BRANCH   4   5
ATOM      5  C   UNL     1     172.234 153.687 151.070  1.00  0.00     0.041 C 
ATOM      6  O   UNL     1     171.387 153.614 150.141  1.00  0.00    -0.550 OA
ATOM      7  O   UNL     1     172.614 154.930 151.559  1.00  0.00    -0.550 OA
ENDBRANCH   4   5
ENDBRANCH   3   4
ENDBRANCH   2   3
ENDBRANCH   1   2
BRANCH   1   8
ATOM      8  C   UNL     1     171.753 151.383 155.966  1.00  0.00     0.000 C 
BRANCH   8   9
ATOM      9  C   UNL     1     172.385 152.482 156.832  1.00  0.00     0.000 C 
BRANCH   9  10
ATOM     10  C   UNL     1     171.753 153.862 156.588  1.00  0.00     0.006 C 
BRANCH  10  11
ATOM     11  C   UNL     1     172.759 154.885 156.045  1.00  0.00     0.053 C 
BRANCH  11  12
ATOM     12  C   UNL     1     172.121 155.740 154.996  1.00  0.00     0.041 C 
ATOM     13  O   UNL     1     171.009 155.414 154.504  1.00  0.00    -0.550 OA
ATOM     14  O   UNL     1     172.777 156.869 154.525  1.00  0.00    -0.550 OA
ENDBRANCH  11  12
ENDBRANCH  10  11
ENDBRANCH   9  10
ENDBRANCH   8   9
ENDBRANCH   1   8
TORSDOF 9
ENDMDL
MODEL 6
REMARK VINA RESULT:    -2.890     14.952     16.255
REMARK INTER + INTRA:          -5.193
REMARK INTER:                  -4.236
REMARK INTRA:                  -0.956
REMARK UNBOUND:                -0.782
REMARK SMILES O=C([O-])CCCCCCCCC(=O)[O-]
REMARK SMILES IDX 7 1 6 2 5 3 4 4 2 5 1 6 3 7 8 8 9 9 10 10 11 11 12 12 13 13
REMARK SMILES IDX 14 14
REMARK H PARENT
REMARK Flexibility Score: inf
ROOT
ATOM      1  C   UNL     1     170.313 153.972 150.615  1.00  0.00     0.000 C 
ENDROOT
BRANCH   1   2
ATOM      2  C   UNL     1     170.123 155.342 151.278  1.00  0.00     0.000 C 
BRANCH   2   3
ATOM      3  C   UNL     1     171.474 155.983 151.615  1.00  0.00     0.006 C 
BRANCH   3   4
ATOM      4  C   UNL     1     171.307 157.462 151.973  1.00  0.00     0.053 C 
BRANCH   4   5
ATOM      5  C   UNL     1     170.389 157.618 153.143  1.00  0.00     0.041 C 
ATOM      6  O   UNL     1     170.746 157.226 154.286  1.00  0.00    -0.550 OA
ATOM      7  O   UNL     1     169.157 158.239 152.983  1.00  0.00    -0.550 OA
ENDBRANCH   4   5
ENDBRANCH   3   4
ENDBRANCH   2   3
ENDBRANCH   1   2
BRANCH   1   8
ATOM      8  C   UNL     1     171.801 153.634 150.463  1.00  0.00     0.000 C 
BRANCH   8   9
ATOM      9  C   UNL     1     172.158 152.364 151.249  1.00  0.00     0.000 C 
BRANCH   9  10
ATOM     10  C   UNL     1     173.125 152.640 152.412  1.00  0.00     0.006 C 
BRANCH  10  11
ATOM     11  C   UNL     1     172.475 152.422 153.784  1.00  0.00     0.053 C 
BRANCH  11  12
ATOM     12  C   UNL     1     172.042 153.728 154.372  1.00  0.00     0.041 C 
ATOM     13  O   UNL     1     170.831 153.925 154.651  1.00  0.00    -0.550 OA
ATOM     14  O   UNL     1     172.968 154.745 154.563  1.00  0.00    -0.550 OA
ENDBRANCH  11  12
ENDBRANCH  10  11
ENDBRANCH   9  10
ENDBRANCH   8   9
ENDBRANCH   1   8
TORSDOF 9
ENDMDL
MODEL 7
REMARK VINA RESULT:    -2.861      3.617      5.189
REMARK INTER + INTRA:          -5.148
REMARK INTER:                  -4.323
REMARK INTRA:                  -0.825
REMARK UNBOUND:                -0.782
REMARK SMILES O=C([O-])CCCCCCCCC(=O)[O-]
REMARK SMILES IDX 7 1 6 2 5 3 4 4 2 5 1 6 3 7 8 8 9 9 10 10 11 11 12 12 13 13
REMARK SMILES IDX 14 14
REMARK H PARENT
REMARK Flexibility Score: inf
ROOT
ATOM      1  C   UNL     1     169.839 168.988 150.593  1.00  0.00     0.000 C 
ENDROOT
BRANCH   1   2
ATOM      2  C   UNL     1     169.268 170.356 150.988  1.00  0.00     0.000 C 
BRANCH   2   3
ATOM      3  C   UNL     1     167.882 170.573 150.371  1.00  0.00     0.006 C 
BRANCH   3   4
ATOM      4  C   UNL     1     167.856 170.124 148.907  1.00  0.00     0.053 C 
BRANCH   4   5
ATOM      5  C   UNL     1     166.593 169.381 148.608  1.00  0.00     0.041 C 
ATOM      6  O   UNL     1     166.641 168.220 148.121  1.00  0.00    -0.550 OA
ATOM      7  O   UNL     1     165.363 169.949 148.914  1.00  0.00    -0.550 OA
ENDBRANCH   4   5
ENDBRANCH   3   4
ENDBRANCH   2   3
ENDBRANCH   1   2
BRANCH   1   8
ATOM      8  C   UNL     1     171.239 169.129 149.984  1.00  0.00     0.000 C 
BRANCH   8   9
ATOM      9  C   UNL     1     171.665 170.603 149.925  1.00  0.00     0.000 C 
BRANCH   9  10
ATOM     10  C   UNL     1     172.111 171.033 148.518  1.00  0.00     0.006 C 
BRANCH  10  11
ATOM     11  C   UNL     1     171.461 170.194 147.410  1.00  0.00     0.053 C 
BRANCH  11  12
ATOM     12  C   UNL     1     172.505 169.649 146.487  1.00  0.00     0.041 C 
ATOM     13  O   UNL     1     173.094 170.412 145.677  1.00  0.00    -0.550 OA
ATOM     14  O   UNL     1     172.790 168.290 146.484  1.00  0.00    -0.550 OA
ENDBRANCH  11  12
ENDBRANCH  10  11
ENDBRANCH   9  10
ENDBRANCH   8   9
ENDBRANCH   1   8
TORSDOF 9
ENDMDL
MODEL 8
REMARK VINA RESULT:    -2.835      2.185      5.582
REMARK INTER + INTRA:          -5.108
REMARK INTER:                  -4.361
REMARK INTRA:                  -0.747
REMARK UNBOUND:                -0.782
REMARK SMILES O=C([O-])CCCCCCCCC(=O)[O-]
REMARK SMILES IDX 7 1 6 2 5 3 4 4 2 5 1 6 3 7 8 8 9 9 10 10 11 11 12 12 13 13
REMARK SMILES IDX 14 14
REMARK H PARENT
REMARK Flexibility Score: inf
ROOT
ATOM      1  C   UNL     1     168.475 169.345 152.157  1.00  0.00     0.000 C 
ENDROOT
BRANCH   1   2
ATOM      2  C   UNL     1     168.928 170.329 151.070  1.00  0.00     0.000 C 
BRANCH   2   3
ATOM      3  C   UNL     1     169.459 169.584 149.841  1.00  0.00     0.006 C 
BRANCH   3   4
ATOM      4  C   UNL     1     170.883 169.073 150.080  1.00  0.00     0.053 C 
BRANCH   4   5
ATOM      5  C   UNL     1     171.881 169.975 149.425  1.00  0.00     0.041 C 
ATOM      6  O   UNL     1     172.484 170.850 150.101  1.00  0.00    -0.550 OA
ATOM      7  O   UNL     1     172.181 169.817 148.078  1.00  0.00    -0.550 OA
ENDBRANCH   4   5
ENDBRANCH   3   4
ENDBRANCH   2   3
ENDBRANCH   1   2
BRANCH   1   8
ATOM      8  C   UNL     1     167.596 170.044 153.202  1.00  0.00     0.000 C 
BRANCH   8   9
ATOM      9  C   UNL     1     166.707 171.110 152.545  1.00  0.00     0.000 C 
BRANCH   9  10
ATOM     10  C   UNL     1     165.212 170.759 152.619  1.00  0.00     0.006 C 
BRANCH  10  11
ATOM     11  C   UNL     1     164.525 170.811 151.248  1.00  0.00     0.053 C 
BRANCH  11  12
ATOM     12  C   UNL     1     165.188 169.868 150.295  1.00  0.00     0.041 C 
ATOM     13  O   UNL     1     165.125 168.625 150.488  1.00  0.00    -0.550 OA
ATOM     14  O   UNL     1     165.918 170.362 149.223  1.00  0.00    -0.550 OA
ENDBRANCH  11  12
ENDBRANCH  10  11
ENDBRANCH   9  10
ENDBRANCH   8   9
ENDBRANCH   1   8
TORSDOF 9
ENDMDL
MODEL 9
REMARK VINA RESULT:    -2.826      2.605      6.752
REMARK INTER + INTRA:          -5.095
REMARK INTER:                  -4.634
REMARK INTRA:                  -0.461
REMARK UNBOUND:                -0.782
REMARK SMILES O=C([O-])CCCCCCCCC(=O)[O-]
REMARK SMILES IDX 7 1 6 2 5 3 4 4 2 5 1 6 3 7 8 8 9 9 10 10 11 11 12 12 13 13
REMARK SMILES IDX 14 14
REMARK H PARENT
REMARK Flexibility Score: inf
ROOT
ATOM      1  C   UNL     1     169.005 169.387 151.023  1.00  0.00     0.000 C 
ENDROOT
BRANCH   1   2
ATOM      2  C   UNL     1     170.260 168.822 150.345  1.00  0.00     0.000 C 
BRANCH   2   3
ATOM      3  C   UNL     1     171.185 169.949 149.873  1.00  0.00     0.006 C 
BRANCH   3   4
ATOM      4  C   UNL     1     172.537 169.394 149.415  1.00  0.00     0.053 C 
BRANCH   4   5
ATOM      5  C   UNL     1     172.382 168.613 148.149  1.00  0.00     0.041 C 
ATOM      6  O   UNL     1     172.704 167.395 148.113  1.00  0.00    -0.550 OA
ATOM      7  O   UNL     1     171.836 169.214 147.023  1.00  0.00    -0.550 OA
ENDBRANCH   4   5
ENDBRANCH   3   4
ENDBRANCH   2   3
ENDBRANCH   1   2
BRANCH   1   8
ATOM      8  C   UNL     1     169.263 170.795 151.574  1.00  0.00     0.000 C 
BRANCH   8   9
ATOM      9  C   UNL     1     168.290 171.123 152.716  1.00  0.00     0.000 C 
BRANCH   9  10
ATOM     10  C   UNL     1     167.783 169.864 153.439  1.00  0.00     0.006 C 
BRANCH  10  11
ATOM     11  C   UNL     1     167.509 170.110 154.929  1.00  0.00     0.053 C 
BRANCH  11  12
ATOM     12  C   UNL     1     166.074 170.475 155.143  1.00  0.00     0.041 C 
ATOM     13  O   UNL     1     165.220 170.237 154.250  1.00  0.00    -0.550 OA
ATOM     14  O   UNL     1     165.688 171.125 156.308  1.00  0.00    -0.550 OA
ENDBRANCH  11  12
ENDBRANCH  10  11
ENDBRANCH   9  10
ENDBRANCH   8   9
ENDBRANCH   1   8
TORSDOF 9
ENDMDL
