MODEL 1
REMARK VINA RESULT:    -4.027      0.000      0.000
REMARK INTER + INTRA:          -4.765
REMARK INTER:                  -4.733
REMARK INTRA:                  -0.032
REMARK UNBOUND:                -0.032
REMARK SMILES CCCCC(=O)[O-]
REMARK SMILES IDX 4 1 5 2 6 3 7 4 3 5 2 6 1 7
REMARK H PARENT
REMARK Flexibility Score: inf
ROOT
ATOM      1  C   UNL     1     -12.900   2.142  -9.273  1.00  0.00     0.053 C 
ENDROOT
BRANCH   1   2
ATOM      2  C   UNL     1     -12.567   3.451  -8.628  1.00  0.00     0.041 C 
ATOM      3  O   UNL     1     -11.399   3.675  -8.215  1.00  0.00    -0.550 OA
ATOM      4  O   UNL     1     -13.559   4.404  -8.441  1.00  0.00    -0.550 OA
ENDBRANCH   1   2
BRANCH   1   5
ATOM      5  C   UNL     1     -14.406   2.049  -9.551  1.00  0.00     0.006 C 
BRANCH   5   6
ATOM      6  C   UNL     1     -14.869   0.609  -9.819  1.00  0.00    -0.003 C 
ATOM      7  C   UNL     1     -13.751  -0.281 -10.361  1.00  0.00     0.004 C 
ENDBRANCH   5   6
ENDBRANCH   1   5
TORSDOF 3
ENDMDL
MODEL 2
REMARK VINA RESULT:    -3.782      4.113      5.081
REMARK INTER + INTRA:          -4.476
REMARK INTER:                  -4.454
REMARK INTRA:                  -0.022
REMARK UNBOUND:                -0.032
REMARK SMILES CCCCC(=O)[O-]
REMARK SMILES IDX 4 1 5 2 6 3 7 4 3 5 2 6 1 7
REMARK H PARENT
REMARK Flexibility Score: inf
ROOT
ATOM      1  C   UNL     1     -11.063  -0.733  -9.667  1.00  0.00     0.053 C 
ENDROOT
BRANCH   1   2
ATOM      2  C   UNL     1     -10.844  -2.205  -9.830  1.00  0.00     0.041 C 
ATOM      3  O   UNL     1     -11.737  -3.021  -9.479  1.00  0.00    -0.550 OA
ATOM      4  O   UNL     1      -9.635  -2.676 -10.324  1.00  0.00    -0.550 OA
ENDBRANCH   1   2
BRANCH   1   5
ATOM      5  C   UNL     1     -12.458  -0.341 -10.171  1.00  0.00     0.006 C 
BRANCH   5   6
ATOM      6  C   UNL     1     -12.934   1.004  -9.603  1.00  0.00    -0.003 C 
ATOM      7  C   UNL     1     -14.452   1.170  -9.666  1.00  0.00     0.004 C 
ENDBRANCH   5   6
ENDBRANCH   1   5
TORSDOF 3
ENDMDL
MODEL 3
REMARK VINA RESULT:    -3.612      5.067      6.115
REMARK INTER + INTRA:          -4.277
REMARK INTER:                  -4.233
REMARK INTRA:                  -0.044
REMARK UNBOUND:                -0.032
REMARK SMILES CCCCC(=O)[O-]
REMARK SMILES IDX 4 1 5 2 6 3 7 4 3 5 2 6 1 7
REMARK H PARENT
REMARK Flexibility Score: inf
ROOT
ATOM      1  C   UNL     1     -10.642  -2.096  -8.757  1.00  0.00     0.053 C 
ENDROOT
BRANCH   1   2
ATOM      2  C   UNL     1      -9.821  -3.253  -9.233  1.00  0.00     0.041 C 
ATOM      3  O   UNL     1      -9.988  -3.715 -10.393  1.00  0.00    -0.550 OA
ATOM      4  O   UNL     1      -8.905  -3.852  -8.379  1.00  0.00    -0.550 OA
ENDBRANCH   1   2
BRANCH   1   5
ATOM      5  C   UNL     1     -10.772  -1.041  -9.864  1.00  0.00     0.006 C 
BRANCH   5   6
ATOM      6  C   UNL     1     -12.233  -0.658 -10.145  1.00  0.00    -0.003 C 
ATOM      7  C   UNL     1     -12.584   0.741  -9.641  1.00  0.00     0.004 C 
ENDBRANCH   5   6
ENDBRANCH   1   5
TORSDOF 3
ENDMDL
MODEL 4
REMARK VINA RESULT:    -3.610      2.945      3.980
REMARK INTER + INTRA:          -4.274
REMARK INTER:                  -4.243
REMARK INTRA:                  -0.031
REMARK UNBOUND:                -0.032
REMARK SMILES CCCCC(=O)[O-]
REMARK SMILES IDX 4 1 5 2 6 3 7 4 3 5 2 6 1 7
REMARK H PARENT
REMARK Flexibility Score: inf
ROOT
ATOM      1  C   UNL     1     -12.435   1.152  -9.346  1.00  0.00     0.053 C 
ENDROOT
BRANCH   1   2
ATOM      2  C   UNL     1     -12.362  -0.122 -10.128  1.00  0.00     0.041 C 
ATOM      3  O   UNL     1     -13.417  -0.742 -10.429  1.00  0.00    -0.550 OA
ATOM      4  O   UNL     1     -11.128  -0.651 -10.482  1.00  0.00    -0.550 OA
ENDBRANCH   1   2
BRANCH   1   5
ATOM      5  C   UNL     1     -13.793   1.833  -9.558  1.00  0.00     0.006 C 
BRANCH   5   6
ATOM      6  C   UNL     1     -13.924   3.145  -8.770  1.00  0.00    -0.003 C 
ATOM      7  C   UNL     1     -12.597   3.890  -8.637  1.00  0.00     0.004 C 
ENDBRANCH   5   6
ENDBRANCH   1   5
TORSDOF 3
ENDMDL
MODEL 5
REMARK VINA RESULT:    -3.508      2.812      3.576
REMARK INTER + INTRA:          -4.154
REMARK INTER:                  -4.135
REMARK INTRA:                  -0.019
REMARK UNBOUND:                -0.032
REMARK SMILES CCCCC(=O)[O-]
REMARK SMILES IDX 4 1 5 2 6 3 7 4 3 5 2 6 1 7
REMARK H PARENT
REMARK Flexibility Score: inf
ROOT
ATOM      1  C   UNL     1     -12.802   0.887  -9.628  1.00  0.00     0.053 C 
ENDROOT
BRANCH   1   2
ATOM      2  C   UNL     1     -14.274   1.151  -9.666  1.00  0.00     0.041 C 
ATOM      3  O   UNL     1     -14.760   2.122  -9.028  1.00  0.00    -0.550 OA
ATOM      4  O   UNL     1     -15.115   0.297 -10.367  1.00  0.00    -0.550 OA
ENDBRANCH   1   2
BRANCH   1   5
ATOM      5  C   UNL     1     -12.488  -0.483 -10.243  1.00  0.00     0.006 C 
BRANCH   5   6
ATOM      6  C   UNL     1     -11.003  -0.858 -10.124  1.00  0.00    -0.003 C 
ATOM      7  C   UNL     1     -10.771  -2.084  -9.242  1.00  0.00     0.004 C 
ENDBRANCH   5   6
ENDBRANCH   1   5
TORSDOF 3
ENDMDL
MODEL 6
REMARK VINA RESULT:    -3.446      3.114      4.350
REMARK INTER + INTRA:          -4.082
REMARK INTER:                  -4.062
REMARK INTRA:                  -0.020
REMARK UNBOUND:                -0.032
REMARK SMILES CCCCC(=O)[O-]
REMARK SMILES IDX 4 1 5 2 6 3 7 4 3 5 2 6 1 7
REMARK H PARENT
REMARK Flexibility Score: inf
ROOT
ATOM      1  C   UNL     1     -14.611   1.034  -9.909  1.00  0.00     0.053 C 
ENDROOT
BRANCH   1   2
ATOM      2  C   UNL     1     -14.236  -0.296 -10.481  1.00  0.00     0.041 C 
ATOM      3  O   UNL     1     -15.125  -1.062 -10.940  1.00  0.00    -0.550 OA
ATOM      4  O   UNL     1     -12.911  -0.712 -10.462  1.00  0.00    -0.550 OA
ENDBRANCH   1   2
BRANCH   1   5
ATOM      5  C   UNL     1     -13.361   1.781  -9.426  1.00  0.00     0.006 C 
BRANCH   5   6
ATOM      6  C   UNL     1     -13.691   3.155  -8.823  1.00  0.00    -0.003 C 
ATOM      7  C   UNL     1     -12.494   4.105  -8.826  1.00  0.00     0.004 C 
ENDBRANCH   5   6
ENDBRANCH   1   5
TORSDOF 3
ENDMDL
MODEL 7
REMARK VINA RESULT:    -3.418      4.064      4.949
REMARK INTER + INTRA:          -4.049
REMARK INTER:                  -4.014
REMARK INTRA:                  -0.035
REMARK UNBOUND:                -0.032
REMARK SMILES CCCCC(=O)[O-]
REMARK SMILES IDX 4 1 5 2 6 3 7 4 3 5 2 6 1 7
REMARK H PARENT
REMARK Flexibility Score: inf
ROOT
ATOM      1  C   UNL     1     -10.874  -1.015 -10.218  1.00  0.00     0.053 C 
ENDROOT
BRANCH   1   2
ATOM      2  C   UNL     1     -12.188  -0.310 -10.097  1.00  0.00     0.041 C 
ATOM      3  O   UNL     1     -13.207  -0.766 -10.680  1.00  0.00    -0.550 OA
ATOM      4  O   UNL     1     -12.277   0.875  -9.379  1.00  0.00    -0.550 OA
ENDBRANCH   1   2
BRANCH   1   5
ATOM      5  C   UNL     1     -10.968  -2.428  -9.628  1.00  0.00     0.006 C 
BRANCH   5   6
ATOM      6  C   UNL     1     -10.309  -2.536  -8.245  1.00  0.00    -0.003 C 
ATOM      7  C   UNL     1     -10.561  -3.885  -7.573  1.00  0.00     0.004 C 
ENDBRANCH   5   6
ENDBRANCH   1   5
TORSDOF 3
ENDMDL
MODEL 8
REMARK VINA RESULT:    -3.389      6.526      7.673
REMARK INTER + INTRA:          -4.015
REMARK INTER:                  -3.934
REMARK INTRA:                  -0.082
REMARK UNBOUND:                -0.032
REMARK SMILES CCCCC(=O)[O-]
REMARK SMILES IDX 4 1 5 2 6 3 7 4 3 5 2 6 1 7
REMARK H PARENT
REMARK Flexibility Score: inf
ROOT
ATOM      1  C   UNL     1     -11.141  -4.287  -8.661  1.00  0.00     0.053 C 
ENDROOT
BRANCH   1   2
ATOM      2  C   UNL     1     -10.050  -3.295  -8.406  1.00  0.00     0.041 C 
ATOM      3  O   UNL     1     -10.332  -2.095  -8.145  1.00  0.00    -0.550 OA
ATOM      4  O   UNL     1      -8.720  -3.684  -8.505  1.00  0.00    -0.550 OA
ENDBRANCH   1   2
BRANCH   1   5
ATOM      5  C   UNL     1     -11.026  -5.469  -7.690  1.00  0.00     0.006 C 
BRANCH   5   6
ATOM      6  C   UNL     1     -11.065  -5.030  -6.219  1.00  0.00    -0.003 C 
ATOM      7  C   UNL     1     -11.854  -5.996  -5.335  1.00  0.00     0.004 C 
ENDBRANCH   5   6
ENDBRANCH   1   5
TORSDOF 3
ENDMDL
MODEL 9
REMARK VINA RESULT:    -3.258      7.506      8.439
REMARK INTER + INTRA:          -3.861
REMARK INTER:                  -3.832
REMARK INTRA:                  -0.029
REMARK UNBOUND:                -0.032
REMARK SMILES CCCCC(=O)[O-]
REMARK SMILES IDX 4 1 5 2 6 3 7 4 3 5 2 6 1 7
REMARK H PARENT
REMARK Flexibility Score: inf
ROOT
ATOM      1  C   UNL     1     -11.402  -5.352  -7.702  1.00  0.00     0.053 C 
ENDROOT
BRANCH   1   2
ATOM      2  C   UNL     1     -10.511  -4.579  -8.623  1.00  0.00     0.041 C 
ATOM      3  O   UNL     1     -11.008  -3.871  -9.539  1.00  0.00    -0.550 OA
ATOM      4  O   UNL     1      -9.132  -4.679  -8.501  1.00  0.00    -0.550 OA
ENDBRANCH   1   2
BRANCH   1   5
ATOM      5  C   UNL     1     -11.009  -5.098  -6.241  1.00  0.00     0.006 C 
BRANCH   5   6
ATOM      6  C   UNL     1     -11.772  -6.002  -5.260  1.00  0.00    -0.003 C 
ATOM      7  C   UNL     1     -13.062  -6.564  -5.854  1.00  0.00     0.004 C 
ENDBRANCH   5   6
ENDBRANCH   1   5
TORSDOF 3
ENDMDL
