MODEL 1
REMARK VINA RESULT:    -3.938      0.000      0.000
REMARK INTER + INTRA:          -4.471
REMARK INTER:                  -4.399
REMARK INTRA:                  -0.072
REMARK UNBOUND:                -0.072
REMARK SMILES CCCC(=O)[O-]
REMARK SMILES IDX 3 1 4 2 5 3 6 4 2 5 1 6
REMARK H PARENT
REMARK Flexibility Score: inf
ROOT
ATOM      1  C   UNL     1      12.392  35.608  22.397  1.00  0.00     0.052 C 
ENDROOT
BRANCH   1   2
ATOM      2  C   UNL     1      11.021  35.862  22.938  1.00  0.00     0.041 C 
ATOM      3  O   UNL     1      10.068  36.118  22.156  1.00  0.00    -0.550 OA
ATOM      4  O   UNL     1      10.783  35.765  24.303  1.00  0.00    -0.550 OA
ENDBRANCH   1   2
BRANCH   1   5
ATOM      5  C   UNL     1      12.925  36.851  21.680  1.00  0.00     0.003 C 
ATOM      6  C   UNL     1      13.055  38.029  22.641  1.00  0.00     0.004 C 
ENDBRANCH   1   5
TORSDOF 2
ENDMDL
MODEL 2
REMARK VINA RESULT:    -3.930      1.928      3.425
REMARK INTER + INTRA:          -4.461
REMARK INTER:                  -4.399
REMARK INTRA:                  -0.062
REMARK UNBOUND:                -0.072
REMARK SMILES CCCC(=O)[O-]
REMARK SMILES IDX 3 1 4 2 5 3 6 4 2 5 1 6
REMARK H PARENT
REMARK Flexibility Score: inf
ROOT
ATOM      1  C   UNL     1      11.947  34.699  23.683  1.00  0.00     0.052 C 
ENDROOT
BRANCH   1   2
ATOM      2  C   UNL     1      11.023  35.793  23.252  1.00  0.00     0.041 C 
ATOM      3  O   UNL     1      10.433  36.500  24.111  1.00  0.00    -0.550 OA
ATOM      4  O   UNL     1      10.851  36.067  21.902  1.00  0.00    -0.550 OA
ENDBRANCH   1   2
BRANCH   1   5
ATOM      5  C   UNL     1      11.208  33.688  24.564  1.00  0.00     0.003 C 
ATOM      6  C   UNL     1      10.347  32.751  23.723  1.00  0.00     0.004 C 
ENDBRANCH   1   5
TORSDOF 2
ENDMDL
MODEL 3
REMARK VINA RESULT:    -3.885      1.890      3.160
REMARK INTER + INTRA:          -4.411
REMARK INTER:                  -4.348
REMARK INTRA:                  -0.063
REMARK UNBOUND:                -0.072
REMARK SMILES CCCC(=O)[O-]
REMARK SMILES IDX 3 1 4 2 5 3 6 4 2 5 1 6
REMARK H PARENT
REMARK Flexibility Score: inf
ROOT
ATOM      1  C   UNL     1      11.972  34.783  23.561  1.00  0.00     0.052 C 
ENDROOT
BRANCH   1   2
ATOM      2  C   UNL     1      11.038  35.806  22.998  1.00  0.00     0.041 C 
ATOM      3  O   UNL     1      11.061  36.077  21.769  1.00  0.00    -0.550 OA
ATOM      4  O   UNL     1      10.107  36.425  23.822  1.00  0.00    -0.550 OA
ENDBRANCH   1   2
BRANCH   1   5
ATOM      5  C   UNL     1      11.229  33.845  24.517  1.00  0.00     0.003 C 
ATOM      6  C   UNL     1      10.416  32.808  23.749  1.00  0.00     0.004 C 
ENDBRANCH   1   5
TORSDOF 2
ENDMDL
MODEL 4
REMARK VINA RESULT:    -3.765      0.888      1.629
REMARK INTER + INTRA:          -4.277
REMARK INTER:                  -4.223
REMARK INTRA:                  -0.053
REMARK UNBOUND:                -0.072
REMARK SMILES CCCC(=O)[O-]
REMARK SMILES IDX 3 1 4 2 5 3 6 4 2 5 1 6
REMARK H PARENT
REMARK Flexibility Score: inf
ROOT
ATOM      1  C   UNL     1      11.974  35.366  23.157  1.00  0.00     0.052 C 
ENDROOT
BRANCH   1   2
ATOM      2  C   UNL     1      10.660  36.080  23.145  1.00  0.00     0.041 C 
ATOM      3  O   UNL     1      10.340  36.834  24.102  1.00  0.00    -0.550 OA
ATOM      4  O   UNL     1       9.809  35.954  22.055  1.00  0.00    -0.550 OA
ENDBRANCH   1   2
BRANCH   1   5
ATOM      5  C   UNL     1      12.659  35.479  21.792  1.00  0.00     0.003 C 
ATOM      6  C   UNL     1      13.114  36.910  21.522  1.00  0.00     0.004 C 
ENDBRANCH   1   5
TORSDOF 2
ENDMDL
MODEL 5
REMARK VINA RESULT:    -3.740      2.559      3.011
REMARK INTER + INTRA:          -4.249
REMARK INTER:                  -4.227
REMARK INTRA:                  -0.022
REMARK UNBOUND:                -0.072
REMARK SMILES CCCC(=O)[O-]
REMARK SMILES IDX 3 1 4 2 5 3 6 4 2 5 1 6
REMARK H PARENT
REMARK Flexibility Score: inf
ROOT
ATOM      1  C   UNL     1      11.402  34.451  23.547  1.00  0.00     0.052 C 
ENDROOT
BRANCH   1   2
ATOM      2  C   UNL     1      11.745  34.058  24.949  1.00  0.00     0.041 C 
ATOM      3  O   UNL     1      12.659  34.661  25.571  1.00  0.00    -0.550 OA
ATOM      4  O   UNL     1      11.023  33.059  25.587  1.00  0.00    -0.550 OA
ENDBRANCH   1   2
BRANCH   1   5
ATOM      5  C   UNL     1      12.403  35.483  23.019  1.00  0.00     0.003 C 
ATOM      6  C   UNL     1      12.848  35.142  21.600  1.00  0.00     0.004 C 
ENDBRANCH   1   5
TORSDOF 2
ENDMDL
MODEL 6
REMARK VINA RESULT:    -3.707      2.185      3.019
REMARK INTER + INTRA:          -4.212
REMARK INTER:                  -4.204
REMARK INTRA:                  -0.008
REMARK UNBOUND:                -0.072
REMARK SMILES CCCC(=O)[O-]
REMARK SMILES IDX 3 1 4 2 5 3 6 4 2 5 1 6
REMARK H PARENT
REMARK Flexibility Score: inf
ROOT
ATOM      1  C   UNL     1      12.217  36.364  23.086  1.00  0.00     0.052 C 
ENDROOT
BRANCH   1   2
ATOM      2  C   UNL     1      12.475  36.708  21.653  1.00  0.00     0.041 C 
ATOM      3  O   UNL     1      11.855  36.109  20.736  1.00  0.00    -0.550 OA
ATOM      4  O   UNL     1      13.363  37.726  21.332  1.00  0.00    -0.550 OA
ENDBRANCH   1   2
BRANCH   1   5
ATOM      5  C   UNL     1      12.116  34.847  23.264  1.00  0.00     0.003 C 
ATOM      6  C   UNL     1      12.500  34.432  24.681  1.00  0.00     0.004 C 
ENDBRANCH   1   5
TORSDOF 2
ENDMDL
MODEL 7
REMARK VINA RESULT:    -3.318     15.819     16.201
REMARK INTER + INTRA:          -3.778
REMARK INTER:                  -3.764
REMARK INTRA:                  -0.014
REMARK UNBOUND:                -0.072
REMARK SMILES CCCC(=O)[O-]
REMARK SMILES IDX 3 1 4 2 5 3 6 4 2 5 1 6
REMARK H PARENT
REMARK Flexibility Score: inf
ROOT
ATOM      1  C   UNL     1      27.204  30.692  25.198  1.00  0.00     0.052 C 
ENDROOT
BRANCH   1   2
ATOM      2  C   UNL     1      26.391  29.667  24.475  1.00  0.00     0.041 C 
ATOM      3  O   UNL     1      25.135  29.753  24.455  1.00  0.00    -0.550 OA
ATOM      4  O   UNL     1      27.021  28.643  23.779  1.00  0.00    -0.550 OA
ENDBRANCH   1   2
BRANCH   1   5
ATOM      5  C   UNL     1      26.330  31.881  25.606  1.00  0.00     0.003 C 
ATOM      6  C   UNL     1      27.005  32.715  26.691  1.00  0.00     0.004 C 
ENDBRANCH   1   5
TORSDOF 2
ENDMDL
MODEL 8
REMARK VINA RESULT:    -3.275     16.442     17.097
REMARK INTER + INTRA:          -3.729
REMARK INTER:                  -3.709
REMARK INTRA:                  -0.020
REMARK UNBOUND:                -0.072
REMARK SMILES CCCC(=O)[O-]
REMARK SMILES IDX 3 1 4 2 5 3 6 4 2 5 1 6
REMARK H PARENT
REMARK Flexibility Score: inf
ROOT
ATOM      1  C   UNL     1      23.600  25.676  21.477  1.00  0.00     0.052 C 
ENDROOT
BRANCH   1   2
ATOM      2  C   UNL     1      24.918  26.276  21.850  1.00  0.00     0.041 C 
ATOM      3  O   UNL     1      25.991  25.704  21.523  1.00  0.00    -0.550 OA
ATOM      4  O   UNL     1      24.964  27.494  22.516  1.00  0.00    -0.550 OA
ENDBRANCH   1   2
BRANCH   1   5
ATOM      5  C   UNL     1      23.774  24.212  21.064  1.00  0.00     0.003 C 
ATOM      6  C   UNL     1      23.640  23.282  22.266  1.00  0.00     0.004 C 
ENDBRANCH   1   5
TORSDOF 2
ENDMDL
MODEL 9
REMARK VINA RESULT:    -3.229     15.637     16.200
REMARK INTER + INTRA:          -3.678
REMARK INTER:                  -3.656
REMARK INTRA:                  -0.022
REMARK UNBOUND:                -0.072
REMARK SMILES CCCC(=O)[O-]
REMARK SMILES IDX 3 1 4 2 5 3 6 4 2 5 1 6
REMARK H PARENT
REMARK Flexibility Score: inf
ROOT
ATOM      1  C   UNL     1      27.782  39.954  25.403  1.00  0.00     0.052 C 
ENDROOT
BRANCH   1   2
ATOM      2  C   UNL     1      27.076  39.959  24.085  1.00  0.00     0.041 C 
ATOM      3  O   UNL     1      26.470  38.929  23.686  1.00  0.00    -0.550 OA
ATOM      4  O   UNL     1      27.042  41.116  23.318  1.00  0.00    -0.550 OA
ENDBRANCH   1   2
BRANCH   1   5
ATOM      5  C   UNL     1      26.867  39.406  26.501  1.00  0.00     0.003 C 
ATOM      6  C   UNL     1      27.647  38.544  27.489  1.00  0.00     0.004 C 
ENDBRANCH   1   5
TORSDOF 2
ENDMDL
