MODEL 1
REMARK VINA RESULT:    -8.365      0.000      0.000
REMARK INTER + INTRA:         -10.251
REMARK INTER:                 -10.076
REMARK INTRA:                  -0.175
REMARK UNBOUND:                -0.175
REMARK SMILES O=c1c(O)c(-c2ccc(O)c(O)c2)oc2cc(O)cc(O)c12
REMARK SMILES IDX 5 1 3 2 2 3 1 4 22 5 20 6 19 7 17 8 16 9 15 10 14 11 6 12
REMARK SMILES IDX 7 13 8 14 9 15 13 16 11 17 10 18 12 20 4 22 21 24 18 26
REMARK H PARENT 10 19 12 21 4 23 21 25 18 27
REMARK Flexibility Score: inf
ROOT
ATOM      1  C   UNL     1      12.748  13.961  16.038  1.00  0.00     0.180 A 
ATOM      2  C   UNL     1      11.593  14.229  16.797  1.00  0.00     0.208 A 
ATOM      3  C   UNL     1      11.698  15.071  17.915  1.00  0.00     0.238 A 
ATOM      4  O   UNL     1      10.667  15.328  18.597  1.00  0.00    -0.285 OA
ATOM      5  C   UNL     1      12.951  15.613  18.265  1.00  0.00     0.111 A 
ATOM      6  C   UNL     1      13.142  16.467  19.377  1.00  0.00     0.134 A 
ATOM      7  C   UNL     1      14.424  16.958  19.666  1.00  0.00     0.093 A 
ATOM      8  C   UNL     1      15.515  16.613  18.866  1.00  0.00     0.123 A 
ATOM      9  C   UNL     1      15.333  15.770  17.766  1.00  0.00     0.094 A 
ATOM     10  C   UNL     1      14.063  15.271  17.460  1.00  0.00     0.146 A 
ATOM     11  O   UNL     1      13.916  14.477  16.407  1.00  0.00    -0.452 OA
ENDROOT
BRANCH   1  12
ATOM     12  C   UNL     1      12.715  13.097  14.835  1.00  0.00     0.025 A 
ATOM     13  C   UNL     1      12.927  13.667  13.569  1.00  0.00     0.016 A 
ATOM     14  C   UNL     1      12.879  12.875  12.419  1.00  0.00     0.051 A 
ATOM     15  C   UNL     1      12.604  11.505  12.518  1.00  0.00     0.157 A 
ATOM     16  C   UNL     1      12.419  11.725  14.926  1.00  0.00     0.062 A 
ATOM     17  C   UNL     1      12.369  10.930  13.772  1.00  0.00     0.158 A 
BRANCH  15  18
ATOM     18  O   UNL     1      12.558  10.711  11.372  1.00  0.00    -0.504 OA
ATOM     19  H   UNL     1      13.131   9.881  11.279  1.00  0.00     0.293 HD
ENDBRANCH  15  18
BRANCH  17  20
ATOM     20  O   UNL     1      12.082   9.569  13.865  1.00  0.00    -0.504 OA
ATOM     21  H   UNL     1      12.504   8.894  13.237  1.00  0.00     0.293 HD
ENDBRANCH  17  20
ENDBRANCH   1  12
BRANCH   2  22
ATOM     22  O   UNL     1      10.372  13.639  16.458  1.00  0.00    -0.502 OA
ATOM     23  H   UNL     1       9.871  13.880  15.612  1.00  0.00     0.293 HD
ENDBRANCH   2  22
BRANCH   6  24
ATOM     24  O   UNL     1      12.072  16.830  20.197  1.00  0.00    -0.507 OA
ATOM     25  H   UNL     1      12.106  16.713  21.203  1.00  0.00     0.293 HD
ENDBRANCH   6  24
BRANCH   8  26
ATOM     26  O   UNL     1      16.779  17.114  19.175  1.00  0.00    -0.508 OA
ATOM     27  H   UNL     1      17.118  17.981  18.774  1.00  0.00     0.293 HD
ENDBRANCH   8  26
TORSDOF 6
ENDMDL
MODEL 2
REMARK VINA RESULT:    -8.332      2.107      6.986
REMARK INTER + INTRA:         -10.211
REMARK INTER:                  -9.903
REMARK INTRA:                  -0.308
REMARK UNBOUND:                -0.175
REMARK SMILES O=c1c(O)c(-c2ccc(O)c(O)c2)oc2cc(O)cc(O)c12
REMARK SMILES IDX 5 1 3 2 2 3 1 4 22 5 20 6 19 7 17 8 16 9 15 10 14 11 6 12
REMARK SMILES IDX 7 13 8 14 9 15 13 16 11 17 10 18 12 20 4 22 21 24 18 26
REMARK H PARENT 10 19 12 21 4 23 21 25 18 27
REMARK Flexibility Score: inf
ROOT
ATOM      1  C   UNL     1      11.335  13.324  17.068  1.00  0.00     0.180 A 
ATOM      2  C   UNL     1       9.938  13.165  17.002  1.00  0.00     0.208 A 
ATOM      3  C   UNL     1       9.371  12.623  15.838  1.00  0.00     0.238 A 
ATOM      4  O   UNL     1       8.121  12.466  15.772  1.00  0.00    -0.285 OA
ATOM      5  C   UNL     1      10.204  12.271  14.756  1.00  0.00     0.111 A 
ATOM      6  C   UNL     1       9.712  11.723  13.547  1.00  0.00     0.134 A 
ATOM      7  C   UNL     1      10.605  11.407  12.513  1.00  0.00     0.093 A 
ATOM      8  C   UNL     1      11.975  11.627  12.663  1.00  0.00     0.123 A 
ATOM      9  C   UNL     1      12.468  12.167  13.855  1.00  0.00     0.094 A 
ATOM     10  C   UNL     1      11.594  12.488  14.899  1.00  0.00     0.146 A 
ATOM     11  O   UNL     1      12.088  12.994  16.022  1.00  0.00    -0.452 OA
ENDROOT
BRANCH   1  12
ATOM     12  C   UNL     1      12.009  13.870  18.268  1.00  0.00     0.025 A 
ATOM     13  C   UNL     1      12.522  12.989  19.234  1.00  0.00     0.016 A 
ATOM     14  C   UNL     1      13.143  13.482  20.384  1.00  0.00     0.051 A 
ATOM     15  C   UNL     1      13.245  14.863  20.593  1.00  0.00     0.157 A 
ATOM     16  C   UNL     1      12.096  15.255  18.493  1.00  0.00     0.062 A 
ATOM     17  C   UNL     1      12.717  15.751  19.649  1.00  0.00     0.158 A 
BRANCH  15  18
ATOM     18  O   UNL     1      13.865  15.359  21.739  1.00  0.00    -0.504 OA
ATOM     19  H   UNL     1      14.578  14.830  22.227  1.00  0.00     0.293 HD
ENDBRANCH  15  18
BRANCH  17  20
ATOM     20  O   UNL     1      12.808  17.125  19.866  1.00  0.00    -0.504 OA
ATOM     21  H   UNL     1      13.704  17.597  19.905  1.00  0.00     0.293 HD
ENDBRANCH  17  20
ENDBRANCH   1  12
BRANCH   2  22
ATOM     22  O   UNL     1       9.130  13.568  18.069  1.00  0.00    -0.502 OA
ATOM     23  H   UNL     1       9.033  13.019  18.914  1.00  0.00     0.293 HD
ENDBRANCH   2  22
BRANCH   6  24
ATOM     24  O   UNL     1       8.347  11.493  13.365  1.00  0.00    -0.507 OA
ATOM     25  H   UNL     1       7.762  11.135  14.111  1.00  0.00     0.293 HD
ENDBRANCH   6  24
BRANCH   8  26
ATOM     26  O   UNL     1      12.841  11.304  11.619  1.00  0.00    -0.508 OA
ATOM     27  H   UNL     1      13.031  11.958  10.868  1.00  0.00     0.293 HD
ENDBRANCH   8  26
TORSDOF 6
ENDMDL
MODEL 3
REMARK VINA RESULT:    -7.674      2.523      7.399
REMARK INTER + INTRA:          -9.419
REMARK INTER:                  -9.117
REMARK INTRA:                  -0.301
REMARK UNBOUND:                -0.175
REMARK SMILES O=c1c(O)c(-c2ccc(O)c(O)c2)oc2cc(O)cc(O)c12
REMARK SMILES IDX 5 1 3 2 2 3 1 4 22 5 20 6 19 7 17 8 16 9 15 10 14 11 6 12
REMARK SMILES IDX 7 13 8 14 9 15 13 16 11 17 10 18 12 20 4 22 21 24 18 26
REMARK H PARENT 10 19 12 21 4 23 21 25 18 27
REMARK Flexibility Score: inf
ROOT
ATOM      1  C   UNL     1      11.860  13.420  16.955  1.00  0.00     0.180 A 
ATOM      2  C   UNL     1      12.511  13.376  15.707  1.00  0.00     0.208 A 
ATOM      3  C   UNL     1      11.835  12.822  14.610  1.00  0.00     0.238 A 
ATOM      4  O   UNL     1      12.403  12.788  13.484  1.00  0.00    -0.285 OA
ATOM      5  C   UNL     1      10.535  12.304  14.780  1.00  0.00     0.111 A 
ATOM      6  C   UNL     1       9.787  11.726  13.727  1.00  0.00     0.134 A 
ATOM      7  C   UNL     1       8.502  11.224  13.980  1.00  0.00     0.093 A 
ATOM      8  C   UNL     1       7.951  11.289  15.261  1.00  0.00     0.123 A 
ATOM      9  C   UNL     1       8.685  11.859  16.306  1.00  0.00     0.094 A 
ATOM     10  C   UNL     1       9.967  12.366  16.075  1.00  0.00     0.146 A 
ATOM     11  O   UNL     1      10.640  12.908  17.082  1.00  0.00    -0.452 OA
ENDROOT
BRANCH   1  12
ATOM     12  C   UNL     1      12.500  14.006  18.155  1.00  0.00     0.025 A 
ATOM     13  C   UNL     1      13.392  13.228  18.912  1.00  0.00     0.016 A 
ATOM     14  C   UNL     1      13.991  13.753  20.060  1.00  0.00     0.051 A 
ATOM     15  C   UNL     1      13.694  15.057  20.477  1.00  0.00     0.157 A 
ATOM     16  C   UNL     1      12.190  15.306  18.591  1.00  0.00     0.062 A 
ATOM     17  C   UNL     1      12.789  15.833  19.744  1.00  0.00     0.158 A 
BRANCH  15  18
ATOM     18  O   UNL     1      14.291  15.584  21.621  1.00  0.00    -0.504 OA
ATOM     19  H   UNL     1      15.067  16.233  21.563  1.00  0.00     0.293 HD
ENDBRANCH  15  18
BRANCH  17  20
ATOM     20  O   UNL     1      12.485  17.125  20.170  1.00  0.00    -0.504 OA
ATOM     21  H   UNL     1      12.772  17.465  21.081  1.00  0.00     0.293 HD
ENDBRANCH  17  20
ENDBRANCH   1  12
BRANCH   2  22
ATOM     22  O   UNL     1      13.819  13.851  15.575  1.00  0.00    -0.502 OA
ATOM     23  H   UNL     1      14.500  13.403  14.975  1.00  0.00     0.293 HD
ENDBRANCH   2  22
BRANCH   6  24
ATOM     24  O   UNL     1      10.309  11.645  12.435  1.00  0.00    -0.507 OA
ATOM     25  H   UNL     1      11.131  11.090  12.225  1.00  0.00     0.293 HD
ENDBRANCH   6  24
BRANCH   8  26
ATOM     26  O   UNL     1       6.672  10.781  15.486  1.00  0.00    -0.508 OA
ATOM     27  H   UNL     1       6.043  11.210  16.154  1.00  0.00     0.293 HD
ENDBRANCH   8  26
TORSDOF 6
ENDMDL
MODEL 4
REMARK VINA RESULT:    -7.548      3.213      3.672
REMARK INTER + INTRA:          -9.267
REMARK INTER:                  -8.989
REMARK INTRA:                  -0.278
REMARK UNBOUND:                -0.175
REMARK SMILES O=c1c(O)c(-c2ccc(O)c(O)c2)oc2cc(O)cc(O)c12
REMARK SMILES IDX 5 1 3 2 2 3 1 4 22 5 20 6 19 7 17 8 16 9 15 10 14 11 6 12
REMARK SMILES IDX 7 13 8 14 9 15 13 16 11 17 10 18 12 20 4 22 21 24 18 26
REMARK H PARENT 10 19 12 21 4 23 21 25 18 27
REMARK Flexibility Score: inf
ROOT
ATOM      1  C   UNL     1      10.732  12.504  17.225  1.00  0.00     0.180 A 
ATOM      2  C   UNL     1      10.671  11.555  18.263  1.00  0.00     0.208 A 
ATOM      3  C   UNL     1      11.364  11.811  19.456  1.00  0.00     0.238 A 
ATOM      4  O   UNL     1      11.308  10.973  20.398  1.00  0.00    -0.285 OA
ATOM      5  C   UNL     1      12.120  12.994  19.584  1.00  0.00     0.111 A 
ATOM      6  C   UNL     1      12.851  13.324  20.750  1.00  0.00     0.134 A 
ATOM      7  C   UNL     1      13.587  14.517  20.796  1.00  0.00     0.093 A 
ATOM      8  C   UNL     1      13.608  15.384  19.701  1.00  0.00     0.123 A 
ATOM      9  C   UNL     1      12.888  15.063  18.546  1.00  0.00     0.094 A 
ATOM     10  C   UNL     1      12.147  13.879  18.481  1.00  0.00     0.146 A 
ATOM     11  O   UNL     1      11.468  13.601  17.375  1.00  0.00    -0.452 OA
ENDROOT
BRANCH   1  12
ATOM     12  C   UNL     1      10.013  12.315  15.944  1.00  0.00     0.025 A 
ATOM     13  C   UNL     1      10.741  12.014  14.781  1.00  0.00     0.016 A 
ATOM     14  C   UNL     1      10.086  11.853  13.558  1.00  0.00     0.051 A 
ATOM     15  C   UNL     1       8.696  12.007  13.476  1.00  0.00     0.157 A 
ATOM     16  C   UNL     1       8.621  12.488  15.852  1.00  0.00     0.062 A 
ATOM     17  C   UNL     1       7.962  12.329  14.624  1.00  0.00     0.158 A 
BRANCH  15  18
ATOM     18  O   UNL     1       8.038  11.844  12.257  1.00  0.00    -0.504 OA
ATOM     19  H   UNL     1       7.146  11.369  12.196  1.00  0.00     0.293 HD
ENDBRANCH  15  18
BRANCH  17  20
ATOM     20  O   UNL     1       6.581  12.494  14.537  1.00  0.00    -0.504 OA
ATOM     21  H   UNL     1       6.171  13.291  14.065  1.00  0.00     0.293 HD
ENDBRANCH  17  20
ENDBRANCH   1  12
BRANCH   2  22
ATOM     22  O   UNL     1       9.955  10.367  18.093  1.00  0.00    -0.502 OA
ATOM     23  H   UNL     1      10.411   9.468  17.995  1.00  0.00     0.293 HD
ENDBRANCH   2  22
BRANCH   6  24
ATOM     24  O   UNL     1      12.852  12.479  21.861  1.00  0.00    -0.507 OA
ATOM     25  H   UNL     1      11.991  12.127  22.265  1.00  0.00     0.293 HD
ENDBRANCH   6  24
BRANCH   8  26
ATOM     26  O   UNL     1      14.348  16.562  19.772  1.00  0.00    -0.508 OA
ATOM     27  H   UNL     1      13.926  17.465  19.587  1.00  0.00     0.293 HD
ENDBRANCH   8  26
TORSDOF 6
ENDMDL
MODEL 5
REMARK VINA RESULT:    -7.375      3.042      3.441
REMARK INTER + INTRA:          -9.059
REMARK INTER:                  -8.811
REMARK INTRA:                  -0.248
REMARK UNBOUND:                -0.175
REMARK SMILES O=c1c(O)c(-c2ccc(O)c(O)c2)oc2cc(O)cc(O)c12
REMARK SMILES IDX 5 1 3 2 2 3 1 4 22 5 20 6 19 7 17 8 16 9 15 10 14 11 6 12
REMARK SMILES IDX 7 13 8 14 9 15 13 16 11 17 10 18 12 20 4 22 21 24 18 26
REMARK H PARENT 10 19 12 21 4 23 21 25 18 27
REMARK Flexibility Score: inf
ROOT
ATOM      1  C   UNL     1      10.798  12.547  17.149  1.00  0.00     0.180 A 
ATOM      2  C   UNL     1      10.755  11.608  18.197  1.00  0.00     0.208 A 
ATOM      3  C   UNL     1      11.441  11.891  19.389  1.00  0.00     0.238 A 
ATOM      4  O   UNL     1      11.400  11.063  20.340  1.00  0.00    -0.285 OA
ATOM      5  C   UNL     1      12.170  13.092  19.505  1.00  0.00     0.111 A 
ATOM      6  C   UNL     1      12.891  13.450  20.670  1.00  0.00     0.134 A 
ATOM      7  C   UNL     1      13.602  14.659  20.704  1.00  0.00     0.093 A 
ATOM      8  C   UNL     1      13.606  15.514  19.601  1.00  0.00     0.123 A 
ATOM      9  C   UNL     1      12.896  15.166  18.447  1.00  0.00     0.094 A 
ATOM     10  C   UNL     1      12.180  13.966  18.393  1.00  0.00     0.146 A 
ATOM     11  O   UNL     1      11.510  13.661  17.289  1.00  0.00    -0.452 OA
ENDROOT
BRANCH   1  12
ATOM     12  C   UNL     1      10.086  12.329  15.869  1.00  0.00     0.025 A 
ATOM     13  C   UNL     1       8.687  12.435  15.830  1.00  0.00     0.016 A 
ATOM     14  C   UNL     1       7.993  12.213  14.638  1.00  0.00     0.051 A 
ATOM     15  C   UNL     1       8.687  11.866  13.472  1.00  0.00     0.157 A 
ATOM     16  C   UNL     1      10.776  11.961  14.700  1.00  0.00     0.062 A 
ATOM     17  C   UNL     1      10.080  11.735  13.504  1.00  0.00     0.158 A 
BRANCH  15  18
ATOM     18  O   UNL     1       7.997  11.645  12.280  1.00  0.00    -0.504 OA
ATOM     19  H   UNL     1       7.811  12.398  11.629  1.00  0.00     0.293 HD
ENDBRANCH  15  18
BRANCH  17  20
ATOM     20  O   UNL     1      10.766  11.377  12.345  1.00  0.00    -0.504 OA
ATOM     21  H   UNL     1      11.573  11.899  12.023  1.00  0.00     0.293 HD
ENDBRANCH  17  20
ENDBRANCH   1  12
BRANCH   2  22
ATOM     22  O   UNL     1      10.065  10.403  18.039  1.00  0.00    -0.502 OA
ATOM     23  H   UNL     1      10.252   9.768  17.273  1.00  0.00     0.293 HD
ENDBRANCH   2  22
BRANCH   6  24
ATOM     24  O   UNL     1      12.908  12.617  21.790  1.00  0.00    -0.507 OA
ATOM     25  H   UNL     1      12.341  11.778  21.839  1.00  0.00     0.293 HD
ENDBRANCH   6  24
BRANCH   8  26
ATOM     26  O   UNL     1      14.321  16.709  19.660  1.00  0.00    -0.508 OA
ATOM     27  H   UNL     1      13.935  17.575  19.302  1.00  0.00     0.293 HD
ENDBRANCH   8  26
TORSDOF 6
ENDMDL
MODEL 6
REMARK VINA RESULT:    -7.368      1.756      6.542
REMARK INTER + INTRA:          -9.051
REMARK INTER:                  -8.722
REMARK INTRA:                  -0.328
REMARK UNBOUND:                -0.175
REMARK SMILES O=c1c(O)c(-c2ccc(O)c(O)c2)oc2cc(O)cc(O)c12
REMARK SMILES IDX 5 1 3 2 2 3 1 4 22 5 20 6 19 7 17 8 16 9 15 10 14 11 6 12
REMARK SMILES IDX 7 13 8 14 9 15 13 16 11 17 10 18 12 20 4 22 21 24 18 26
REMARK H PARENT 10 19 12 21 4 23 21 25 18 27
REMARK Flexibility Score: inf
ROOT
ATOM      1  C   UNL     1      12.706  13.933  17.411  1.00  0.00     0.180 A 
ATOM      2  C   UNL     1      11.371  14.272  17.699  1.00  0.00     0.208 A 
ATOM      3  C   UNL     1      10.342  13.648  16.976  1.00  0.00     0.238 A 
ATOM      4  O   UNL     1       9.141  13.936  17.233  1.00  0.00    -0.285 OA
ATOM      5  C   UNL     1      10.664  12.716  15.969  1.00  0.00     0.111 A 
ATOM      6  C   UNL     1       9.688  12.047  15.192  1.00  0.00     0.134 A 
ATOM      7  C   UNL     1      10.089  11.139  14.201  1.00  0.00     0.093 A 
ATOM      8  C   UNL     1      11.443  10.888  13.971  1.00  0.00     0.123 A 
ATOM      9  C   UNL     1      12.413  11.546  14.735  1.00  0.00     0.094 A 
ATOM     10  C   UNL     1      12.033  12.454  15.729  1.00  0.00     0.146 A 
ATOM     11  O   UNL     1      12.973  13.060  16.443  1.00  0.00    -0.452 OA
ENDROOT
BRANCH   1  12
ATOM     12  C   UNL     1      13.846  14.533  18.142  1.00  0.00     0.025 A 
ATOM     13  C   UNL     1      14.430  15.716  17.660  1.00  0.00     0.016 A 
ATOM     14  C   UNL     1      15.519  16.288  18.322  1.00  0.00     0.051 A 
ATOM     15  C   UNL     1      16.050  15.678  19.465  1.00  0.00     0.157 A 
ATOM     16  C   UNL     1      14.396  13.914  19.279  1.00  0.00     0.062 A 
ATOM     17  C   UNL     1      15.490  14.486  19.942  1.00  0.00     0.158 A 
BRANCH  15  18
ATOM     18  O   UNL     1      17.135  16.248  20.130  1.00  0.00    -0.504 OA
ATOM     19  H   UNL     1      17.094  17.188  20.503  1.00  0.00     0.293 HD
ENDBRANCH  15  18
BRANCH  17  20
ATOM     20  O   UNL     1      16.029  13.875  21.072  1.00  0.00    -0.504 OA
ATOM     21  H   UNL     1      16.727  14.337  21.644  1.00  0.00     0.293 HD
ENDBRANCH  17  20
ENDBRANCH   1  12
BRANCH   2  22
ATOM     22  O   UNL     1      11.080  15.236  18.668  1.00  0.00    -0.502 OA
ATOM     23  H   UNL     1      11.769  15.904  18.992  1.00  0.00     0.293 HD
ENDBRANCH   2  22
BRANCH   6  24
ATOM     24  O   UNL     1       8.326  12.276  15.397  1.00  0.00    -0.507 OA
ATOM     25  H   UNL     1       7.818  12.979  14.872  1.00  0.00     0.293 HD
ENDBRANCH   6  24
BRANCH   8  26
ATOM     26  O   UNL     1      11.815   9.982  12.979  1.00  0.00    -0.508 OA
ATOM     27  H   UNL     1      11.755  10.220  11.996  1.00  0.00     0.293 HD
ENDBRANCH   8  26
TORSDOF 6
ENDMDL
MODEL 7
REMARK VINA RESULT:    -7.217      3.798      7.154
REMARK INTER + INTRA:          -8.869
REMARK INTER:                  -8.602
REMARK INTRA:                  -0.267
REMARK UNBOUND:                -0.175
REMARK SMILES O=c1c(O)c(-c2ccc(O)c(O)c2)oc2cc(O)cc(O)c12
REMARK SMILES IDX 5 1 3 2 2 3 1 4 22 5 20 6 19 7 17 8 16 9 15 10 14 11 6 12
REMARK SMILES IDX 7 13 8 14 9 15 13 16 11 17 10 18 12 20 4 22 21 24 18 26
REMARK H PARENT 10 19 12 21 4 23 21 25 18 27
REMARK Flexibility Score: inf
ROOT
ATOM      1  C   UNL     1      10.481  11.653  17.077  1.00  0.00     0.180 A 
ATOM      2  C   UNL     1       9.168  11.987  16.695  1.00  0.00     0.208 A 
ATOM      3  C   UNL     1       8.853  12.042  15.329  1.00  0.00     0.238 A 
ATOM      4  O   UNL     1       7.677  12.330  14.974  1.00  0.00    -0.285 OA
ATOM      5  C   UNL     1       9.855  11.784  14.371  1.00  0.00     0.111 A 
ATOM      6  C   UNL     1       9.621  11.823  12.975  1.00  0.00     0.134 A 
ATOM      7  C   UNL     1      10.673  11.563  12.086  1.00  0.00     0.093 A 
ATOM      8  C   UNL     1      11.951  11.266  12.562  1.00  0.00     0.123 A 
ATOM      9  C   UNL     1      12.190  11.226  13.940  1.00  0.00     0.094 A 
ATOM     10  C   UNL     1      11.153  11.481  14.843  1.00  0.00     0.146 A 
ATOM     11  O   UNL     1      11.404  11.431  16.146  1.00  0.00    -0.452 OA
ENDROOT
BRANCH   1  12
ATOM     12  C   UNL     1      10.887  11.557  18.498  1.00  0.00     0.025 A 
ATOM     13  C   UNL     1      11.743  12.529  19.040  1.00  0.00     0.016 A 
ATOM     14  C   UNL     1      12.155  12.446  20.372  1.00  0.00     0.051 A 
ATOM     15  C   UNL     1      11.730  11.381  21.177  1.00  0.00     0.157 A 
ATOM     16  C   UNL     1      10.480  10.479  19.305  1.00  0.00     0.062 A 
ATOM     17  C   UNL     1      10.896  10.393  20.641  1.00  0.00     0.158 A 
BRANCH  15  18
ATOM     18  O   UNL     1      12.138  11.296  22.508  1.00  0.00    -0.504 OA
ATOM     19  H   UNL     1      12.917  10.712  22.787  1.00  0.00     0.293 HD
ENDBRANCH  15  18
BRANCH  17  20
ATOM     20  O   UNL     1      10.486   9.328  21.441  1.00  0.00    -0.504 OA
ATOM     21  H   UNL     1      11.019   9.038  22.252  1.00  0.00     0.293 HD
ENDBRANCH  17  20
ENDBRANCH   1  12
BRANCH   2  22
ATOM     22  O   UNL     1       8.206  12.288  17.663  1.00  0.00    -0.502 OA
ATOM     23  H   UNL     1       8.383  12.183  18.655  1.00  0.00     0.293 HD
ENDBRANCH   2  22
BRANCH   6  24
ATOM     24  O   UNL     1       8.354  12.117  12.467  1.00  0.00    -0.507 OA
ATOM     25  H   UNL     1       8.229  12.509  11.541  1.00  0.00     0.293 HD
ENDBRANCH   6  24
BRANCH   8  26
ATOM     26  O   UNL     1      12.981  11.012  11.657  1.00  0.00    -0.508 OA
ATOM     27  H   UNL     1      12.860  11.164  10.662  1.00  0.00     0.293 HD
ENDBRANCH   8  26
TORSDOF 6
ENDMDL
MODEL 8
REMARK VINA RESULT:    -7.073      2.142      6.384
REMARK INTER + INTRA:          -8.695
REMARK INTER:                  -8.476
REMARK INTRA:                  -0.219
REMARK UNBOUND:                -0.175
REMARK SMILES O=c1c(O)c(-c2ccc(O)c(O)c2)oc2cc(O)cc(O)c12
REMARK SMILES IDX 5 1 3 2 2 3 1 4 22 5 20 6 19 7 17 8 16 9 15 10 14 11 6 12
REMARK SMILES IDX 7 13 8 14 9 15 13 16 11 17 10 18 12 20 4 22 21 24 18 26
REMARK H PARENT 10 19 12 21 4 23 21 25 18 27
REMARK Flexibility Score: inf
ROOT
ATOM      1  C   UNL     1      12.670  13.514  16.934  1.00  0.00     0.180 A 
ATOM      2  C   UNL     1      11.503  13.462  17.721  1.00  0.00     0.208 A 
ATOM      3  C   UNL     1      10.324  12.955  17.152  1.00  0.00     0.238 A 
ATOM      4  O   UNL     1       9.275  12.894  17.851  1.00  0.00    -0.285 OA
ATOM      5  C   UNL     1      10.326  12.529  15.809  1.00  0.00     0.111 A 
ATOM      6  C   UNL     1       9.180  12.010  15.160  1.00  0.00     0.134 A 
ATOM      7  C   UNL     1       9.259  11.616  13.816  1.00  0.00     0.093 A 
ATOM      8  C   UNL     1      10.458  11.730  13.110  1.00  0.00     0.123 A 
ATOM      9  C   UNL     1      11.594  12.242  13.745  1.00  0.00     0.094 A 
ATOM     10  C   UNL     1      11.536  12.640  15.084  1.00  0.00     0.146 A 
ATOM     11  O   UNL     1      12.630  13.117  15.666  1.00  0.00    -0.452 OA
ENDROOT
BRANCH   1  12
ATOM     12  C   UNL     1      13.956  14.018  17.467  1.00  0.00     0.025 A 
ATOM     13  C   UNL     1      14.518  15.185  16.926  1.00  0.00     0.016 A 
ATOM     14  C   UNL     1      15.741  15.667  17.399  1.00  0.00     0.051 A 
ATOM     15  C   UNL     1      16.428  14.980  18.408  1.00  0.00     0.157 A 
ATOM     16  C   UNL     1      14.659  13.321  18.466  1.00  0.00     0.062 A 
ATOM     17  C   UNL     1      15.888  13.803  18.940  1.00  0.00     0.158 A 
BRANCH  15  18
ATOM     18  O   UNL     1      17.648  15.459  18.884  1.00  0.00    -0.504 OA
ATOM     19  H   UNL     1      18.064  16.307  18.517  1.00  0.00     0.293 HD
ENDBRANCH  15  18
BRANCH  17  20
ATOM     20  O   UNL     1      16.580  13.114  19.934  1.00  0.00    -0.504 OA
ATOM     21  H   UNL     1      16.591  13.439  20.895  1.00  0.00     0.293 HD
ENDBRANCH  17  20
ENDBRANCH   1  12
BRANCH   2  22
ATOM     22  O   UNL     1      11.516  13.937  19.035  1.00  0.00    -0.502 OA
ATOM     23  H   UNL     1      10.717  14.399  19.452  1.00  0.00     0.293 HD
ENDBRANCH   2  22
BRANCH   6  24
ATOM     24  O   UNL     1       7.966  11.883  15.837  1.00  0.00    -0.507 OA
ATOM     25  H   UNL     1       7.788  12.369  16.709  1.00  0.00     0.293 HD
ENDBRANCH   6  24
BRANCH   8  26
ATOM     26  O   UNL     1      10.510  11.332  11.775  1.00  0.00    -0.508 OA
ATOM     27  H   UNL     1      11.353  11.441  11.223  1.00  0.00     0.293 HD
ENDBRANCH   8  26
TORSDOF 6
ENDMDL
MODEL 9
REMARK VINA RESULT:    -7.022     13.543     15.366
REMARK INTER + INTRA:          -8.633
REMARK INTER:                  -9.098
REMARK INTRA:                   0.465
REMARK UNBOUND:                -0.175
REMARK SMILES O=c1c(O)c(-c2ccc(O)c(O)c2)oc2cc(O)cc(O)c12
REMARK SMILES IDX 5 1 3 2 2 3 1 4 22 5 20 6 19 7 17 8 16 9 15 10 14 11 6 12
REMARK SMILES IDX 7 13 8 14 9 15 13 16 11 17 10 18 12 20 4 22 21 24 18 26
REMARK H PARENT 10 19 12 21 4 23 21 25 18 27
REMARK Flexibility Score: inf
ROOT
ATOM      1  C   UNL     1       0.485   7.737  19.612  1.00  0.00     0.180 A 
ATOM      2  C   UNL     1      -0.155   6.532  19.269  1.00  0.00     0.208 A 
ATOM      3  C   UNL     1      -0.812   5.803  20.273  1.00  0.00     0.238 A 
ATOM      4  O   UNL     1      -1.399   4.727  19.975  1.00  0.00    -0.285 OA
ATOM      5  C   UNL     1      -0.800   6.279  21.600  1.00  0.00     0.111 A 
ATOM      6  C   UNL     1      -1.434   5.603  22.670  1.00  0.00     0.134 A 
ATOM      7  C   UNL     1      -1.368   6.136  23.966  1.00  0.00     0.093 A 
ATOM      8  C   UNL     1      -0.685   7.328  24.212  1.00  0.00     0.123 A 
ATOM      9  C   UNL     1      -0.056   8.001  23.159  1.00  0.00     0.094 A 
ATOM     10  C   UNL     1      -0.111   7.486  21.860  1.00  0.00     0.146 A 
ATOM     11  O   UNL     1       0.489   8.147  20.877  1.00  0.00    -0.452 OA
ENDROOT
BRANCH   1  12
ATOM     12  C   UNL     1       1.183   8.571  18.606  1.00  0.00     0.025 A 
ATOM     13  C   UNL     1       1.765   9.787  19.000  1.00  0.00     0.016 A 
ATOM     14  C   UNL     1       2.410  10.600  18.065  1.00  0.00     0.051 A 
ATOM     15  C   UNL     1       2.467  10.217  16.719  1.00  0.00     0.157 A 
ATOM     16  C   UNL     1       1.226   8.202  17.250  1.00  0.00     0.062 A 
ATOM     17  C   UNL     1       1.870   9.018  16.309  1.00  0.00     0.158 A 
BRANCH  15  18
ATOM     18  O   UNL     1       3.111  11.024  15.782  1.00  0.00    -0.504 OA
ATOM     19  H   UNL     1       2.826  11.983  15.624  1.00  0.00     0.293 HD
ENDBRANCH  15  18
BRANCH  17  20
ATOM     20  O   UNL     1       1.918   8.647  14.967  1.00  0.00    -0.504 OA
ATOM     21  H   UNL     1       1.091   8.327  14.476  1.00  0.00     0.293 HD
ENDBRANCH  17  20
ENDBRANCH   1  12
BRANCH   2  22
ATOM     22  O   UNL     1      -0.110   6.057  17.955  1.00  0.00    -0.502 OA
ATOM     23  H   UNL     1      -0.727   5.326  17.621  1.00  0.00     0.293 HD
ENDBRANCH   2  22
BRANCH   6  24
ATOM     24  O   UNL     1      -2.125   4.409  22.458  1.00  0.00    -0.507 OA
ATOM     25  H   UNL     1      -3.128   4.391  22.314  1.00  0.00     0.293 HD
ENDBRANCH   6  24
BRANCH   8  26
ATOM     26  O   UNL     1      -0.634   7.836  25.509  1.00  0.00    -0.508 OA
ATOM     27  H   UNL     1      -0.480   8.822  25.685  1.00  0.00     0.293 HD
ENDBRANCH   8  26
TORSDOF 6
ENDMDL
