MODEL 1
REMARK VINA RESULT:    -5.148      0.000      0.000
REMARK INTER + INTRA:          -5.148
REMARK INTER:                  -5.148
REMARK INTRA:                   0.000
REMARK UNBOUND:                 0.000
REMARK SMILES C=C1CC[C@@H]2C[C@H]1C2(C)C
REMARK SMILES IDX 9 1 8 2 5 3 4 4 3 5 2 6 1 7 7 8 6 9 10 10
REMARK H PARENT
REMARK Flexibility Score: inf
ROOT
ATOM      1  C   UNL     1       8.205  31.063  22.165  1.00  0.00     0.012 C 
ATOM      2  C   UNL     1       8.981  32.115  22.994  1.00  0.00    -0.026 C 
ATOM      3  C   UNL     1       8.332  33.520  22.901  1.00  0.00    -0.004 C 
ATOM      4  C   UNL     1       9.320  34.627  23.390  1.00  0.00     0.008 C 
ATOM      5  C   UNL     1       9.936  34.309  24.805  1.00  0.00     0.031 C 
ATOM      6  C   UNL     1       9.558  32.905  25.303  1.00  0.00    -0.074 C 
ATOM      7  C   UNL     1      10.094  32.393  26.416  1.00  0.00     0.008 C 
ATOM      8  C   UNL     1       8.540  32.125  24.477  1.00  0.00     0.021 C 
ATOM      9  C   UNL     1       7.456  33.151  24.111  1.00  0.00     0.012 C 
ATOM     10  C   UNL     1      10.495  31.972  22.676  1.00  0.00     0.012 C 
ENDROOT
TORSDOF 0
ENDMDL
MODEL 2
REMARK VINA RESULT:    -5.146      1.160      2.534
REMARK INTER + INTRA:          -5.146
REMARK INTER:                  -5.146
REMARK INTRA:                   0.000
REMARK UNBOUND:                 0.000
REMARK SMILES C=C1CC[C@@H]2C[C@H]1C2(C)C
REMARK SMILES IDX 9 1 8 2 5 3 4 4 3 5 2 6 1 7 7 8 6 9 10 10
REMARK H PARENT
REMARK Flexibility Score: inf
ROOT
ATOM      1  C   UNL     1       7.995  31.936  25.276  1.00  0.00     0.012 C 
ATOM      2  C   UNL     1       8.735  32.401  23.997  1.00  0.00    -0.026 C 
ATOM      3  C   UNL     1       8.628  33.933  23.791  1.00  0.00    -0.004 C 
ATOM      4  C   UNL     1       9.012  34.330  22.329  1.00  0.00     0.008 C 
ATOM      5  C   UNL     1      10.398  33.727  21.881  1.00  0.00     0.031 C 
ATOM      6  C   UNL     1      10.972  32.750  22.920  1.00  0.00    -0.074 C 
ATOM      7  C   UNL     1      12.068  32.028  22.665  1.00  0.00     0.008 C 
ATOM      8  C   UNL     1      10.240  32.645  24.254  1.00  0.00     0.021 C 
ATOM      9  C   UNL     1       9.902  34.096  24.637  1.00  0.00     0.012 C 
ATOM     10  C   UNL     1       8.330  31.462  22.828  1.00  0.00     0.012 C 
ENDROOT
TORSDOF 0
ENDMDL
MODEL 3
REMARK VINA RESULT:    -5.129      1.181      2.174
REMARK INTER + INTRA:          -5.129
REMARK INTER:                  -5.129
REMARK INTRA:                   0.000
REMARK UNBOUND:                 0.000
REMARK SMILES C=C1CC[C@@H]2C[C@H]1C2(C)C
REMARK SMILES IDX 9 1 8 2 5 3 4 4 3 5 2 6 1 7 7 8 6 9 10 10
REMARK H PARENT
REMARK Flexibility Score: inf
ROOT
ATOM      1  C   UNL     1       6.899  33.048  22.003  1.00  0.00     0.012 C 
ATOM      2  C   UNL     1       8.214  33.391  22.745  1.00  0.00    -0.026 C 
ATOM      3  C   UNL     1       8.008  33.485  24.278  1.00  0.00    -0.004 C 
ATOM      4  C   UNL     1       9.209  34.213  24.963  1.00  0.00     0.008 C 
ATOM      5  C   UNL     1      10.602  33.604  24.549  1.00  0.00     0.031 C 
ATOM      6  C   UNL     1      10.471  32.548  23.440  1.00  0.00    -0.074 C 
ATOM      7  C   UNL     1      11.549  32.016  22.855  1.00  0.00     0.008 C 
ATOM      8  C   UNL     1       9.059  32.130  23.042  1.00  0.00     0.021 C 
ATOM      9  C   UNL     1       8.301  31.978  24.371  1.00  0.00     0.012 C 
ATOM     10  C   UNL     1       8.896  34.579  22.011  1.00  0.00     0.012 C 
ENDROOT
TORSDOF 0
ENDMDL
MODEL 4
REMARK VINA RESULT:    -5.123      1.091      1.807
REMARK INTER + INTRA:          -5.123
REMARK INTER:                  -5.123
REMARK INTRA:                   0.000
REMARK UNBOUND:                 0.000
REMARK SMILES C=C1CC[C@@H]2C[C@H]1C2(C)C
REMARK SMILES IDX 9 1 8 2 5 3 4 4 3 5 2 6 1 7 7 8 6 9 10 10
REMARK H PARENT
REMARK Flexibility Score: inf
ROOT
ATOM      1  C   UNL     1       7.057  33.381  22.225  1.00  0.00     0.012 C 
ATOM      2  C   UNL     1       8.439  32.979  22.798  1.00  0.00    -0.026 C 
ATOM      3  C   UNL     1       9.568  33.915  22.297  1.00  0.00    -0.004 C 
ATOM      4  C   UNL     1      10.973  33.279  22.541  1.00  0.00     0.008 C 
ATOM      5  C   UNL     1      11.169  32.793  24.027  1.00  0.00     0.031 C 
ATOM      6  C   UNL     1       9.876  32.901  24.851  1.00  0.00    -0.074 C 
ATOM      7  C   UNL     1       9.798  32.409  26.092  1.00  0.00     0.008 C 
ATOM      8  C   UNL     1       8.689  33.598  24.193  1.00  0.00     0.021 C 
ATOM      9  C   UNL     1       9.288  34.832  23.500  1.00  0.00     0.012 C 
ATOM     10  C   UNL     1       8.613  31.445  22.629  1.00  0.00     0.012 C 
ENDROOT
TORSDOF 0
ENDMDL
MODEL 5
REMARK VINA RESULT:    -5.029      1.214      3.179
REMARK INTER + INTRA:          -5.029
REMARK INTER:                  -5.029
REMARK INTRA:                   0.000
REMARK UNBOUND:                 0.000
REMARK SMILES C=C1CC[C@@H]2C[C@H]1C2(C)C
REMARK SMILES IDX 9 1 8 2 5 3 4 4 3 5 2 6 1 7 7 8 6 9 10 10
REMARK H PARENT
REMARK Flexibility Score: inf
ROOT
ATOM      1  C   UNL     1      11.680  33.406  22.004  1.00  0.00     0.012 C 
ATOM      2  C   UNL     1      10.323  32.920  22.570  1.00  0.00    -0.026 C 
ATOM      3  C   UNL     1      10.171  33.250  24.077  1.00  0.00    -0.004 C 
ATOM      4  C   UNL     1       9.014  32.420  24.719  1.00  0.00     0.008 C 
ATOM      5  C   UNL     1       7.667  32.532  23.909  1.00  0.00     0.031 C 
ATOM      6  C   UNL     1       7.843  33.291  22.584  1.00  0.00    -0.074 C 
ATOM      7  C   UNL     1       6.852  33.370  21.691  1.00  0.00     0.008 C 
ATOM      8  C   UNL     1       9.195  33.953  22.338  1.00  0.00     0.021 C 
ATOM      9  C   UNL     1       9.567  34.607  23.678  1.00  0.00     0.012 C 
ATOM     10  C   UNL     1      10.092  31.457  22.101  1.00  0.00     0.012 C 
ENDROOT
TORSDOF 0
ENDMDL
MODEL 6
REMARK VINA RESULT:    -4.975      1.354      2.548
REMARK INTER + INTRA:          -4.975
REMARK INTER:                  -4.975
REMARK INTRA:                   0.000
REMARK UNBOUND:                 0.000
REMARK SMILES C=C1CC[C@@H]2C[C@H]1C2(C)C
REMARK SMILES IDX 9 1 8 2 5 3 4 4 3 5 2 6 1 7 7 8 6 9 10 10
REMARK H PARENT
REMARK Flexibility Score: inf
ROOT
ATOM      1  C   UNL     1      11.377  33.429  21.673  1.00  0.00     0.012 C 
ATOM      2  C   UNL     1      10.375  33.219  22.835  1.00  0.00    -0.026 C 
ATOM      3  C   UNL     1       9.686  34.544  23.252  1.00  0.00    -0.004 C 
ATOM      4  C   UNL     1       9.004  34.405  24.650  1.00  0.00     0.008 C 
ATOM      5  C   UNL     1       8.061  33.147  24.743  1.00  0.00     0.031 C 
ATOM      6  C   UNL     1       8.159  32.251  23.498  1.00  0.00    -0.074 C 
ATOM      7  C   UNL     1       7.544  31.065  23.443  1.00  0.00     0.008 C 
ATOM      8  C   UNL     1       8.982  32.778  22.327  1.00  0.00     0.021 C 
ATOM      9  C   UNL     1       8.596  34.261  22.204  1.00  0.00     0.012 C 
ATOM     10  C   UNL     1      11.065  32.362  23.931  1.00  0.00     0.012 C 
ENDROOT
TORSDOF 0
ENDMDL
MODEL 7
REMARK VINA RESULT:    -4.864      0.865      3.226
REMARK INTER + INTRA:          -4.864
REMARK INTER:                  -4.864
REMARK INTRA:                   0.000
REMARK UNBOUND:                 0.000
REMARK SMILES C=C1CC[C@@H]2C[C@H]1C2(C)C
REMARK SMILES IDX 9 1 8 2 5 3 4 4 3 5 2 6 1 7 7 8 6 9 10 10
REMARK H PARENT
REMARK Flexibility Score: inf
ROOT
ATOM      1  C   UNL     1       9.971  32.702  26.265  1.00  0.00     0.012 C 
ATOM      2  C   UNL     1       9.331  32.975  24.882  1.00  0.00    -0.026 C 
ATOM      3  C   UNL     1       9.992  34.179  24.165  1.00  0.00    -0.004 C 
ATOM      4  C   UNL     1       9.100  34.691  22.989  1.00  0.00     0.008 C 
ATOM      5  C   UNL     1       8.664  33.534  22.011  1.00  0.00     0.031 C 
ATOM      6  C   UNL     1       9.074  32.147  22.529  1.00  0.00    -0.074 C 
ATOM      7  C   UNL     1       8.674  31.029  21.914  1.00  0.00     0.008 C 
ATOM      8  C   UNL     1       9.959  32.102  23.770  1.00  0.00     0.021 C 
ATOM      9  C   UNL     1      11.009  33.203  23.548  1.00  0.00     0.012 C 
ATOM     10  C   UNL     1       7.786  32.961  25.045  1.00  0.00     0.012 C 
ENDROOT
TORSDOF 0
ENDMDL
MODEL 8
REMARK VINA RESULT:    -4.759      4.081      5.932
REMARK INTER + INTRA:          -4.759
REMARK INTER:                  -4.759
REMARK INTRA:                   0.000
REMARK UNBOUND:                 0.000
REMARK SMILES C=C1CC[C@@H]2C[C@H]1C2(C)C
REMARK SMILES IDX 9 1 8 2 5 3 4 4 3 5 2 6 1 7 7 8 6 9 10 10
REMARK H PARENT
REMARK Flexibility Score: inf
ROOT
ATOM      1  C   UNL     1      14.195  28.706  21.381  1.00  0.00     0.012 C 
ATOM      2  C   UNL     1      14.254  30.227  21.665  1.00  0.00    -0.026 C 
ATOM      3  C   UNL     1      14.812  31.021  20.457  1.00  0.00    -0.004 C 
ATOM      4  C   UNL     1      15.243  32.461  20.884  1.00  0.00     0.008 C 
ATOM      5  C   UNL     1      14.111  33.223  21.672  1.00  0.00     0.031 C 
ATOM      6  C   UNL     1      12.910  32.318  21.989  1.00  0.00    -0.074 C 
ATOM      7  C   UNL     1      11.910  32.737  22.771  1.00  0.00     0.008 C 
ATOM      8  C   UNL     1      12.907  30.925  21.368  1.00  0.00     0.021 C 
ATOM      9  C   UNL     1      13.376  31.135  19.919  1.00  0.00     0.012 C 
ATOM     10  C   UNL     1      14.903  30.440  23.061  1.00  0.00     0.012 C 
ENDROOT
TORSDOF 0
ENDMDL
MODEL 9
REMARK VINA RESULT:    -4.742      1.185      3.381
REMARK INTER + INTRA:          -4.742
REMARK INTER:                  -4.742
REMARK INTRA:                   0.000
REMARK UNBOUND:                 0.000
REMARK SMILES C=C1CC[C@@H]2C[C@H]1C2(C)C
REMARK SMILES IDX 9 1 8 2 5 3 4 4 3 5 2 6 1 7 7 8 6 9 10 10
REMARK H PARENT
REMARK Flexibility Score: inf
ROOT
ATOM      1  C   UNL     1       9.314  34.739  24.922  1.00  0.00     0.012 C 
ATOM      2  C   UNL     1       9.692  33.508  24.062  1.00  0.00    -0.026 C 
ATOM      3  C   UNL     1       8.538  33.082  23.120  1.00  0.00    -0.004 C 
ATOM      4  C   UNL     1       8.767  31.637  22.571  1.00  0.00     0.008 C 
ATOM      5  C   UNL     1      10.199  31.448  21.941  1.00  0.00     0.031 C 
ATOM      6  C   UNL     1      11.101  32.673  22.163  1.00  0.00    -0.074 C 
ATOM      7  C   UNL     1      12.395  32.654  21.828  1.00  0.00     0.008 C 
ATOM      8  C   UNL     1      10.453  33.910  22.777  1.00  0.00     0.021 C 
ATOM      9  C   UNL     1       9.099  34.046  22.061  1.00  0.00     0.012 C 
ATOM     10  C   UNL     1      10.329  32.438  24.991  1.00  0.00     0.012 C 
ENDROOT
TORSDOF 0
ENDMDL
