MODEL 1
REMARK VINA RESULT:    -2.427      0.000      0.000
REMARK INTER + INTRA:          -2.730
REMARK INTER:                  -2.710
REMARK INTRA:                  -0.020
REMARK UNBOUND:                -0.020
REMARK SMILES CCCC(=O)[O-]
REMARK SMILES IDX 3 1 4 2 5 3 6 4 2 5 1 6
REMARK H PARENT
REMARK Flexibility Score: inf
ROOT
ATOM      1  C   UNL     1      57.861  16.545  50.329  1.00  0.00     0.052 C 
ENDROOT
BRANCH   1   2
ATOM      2  C   UNL     1      57.306  17.863  50.768  1.00  0.00     0.041 C 
ATOM      3  O   UNL     1      56.082  18.117  50.620  1.00  0.00    -0.550 OA
ATOM      4  O   UNL     1      58.151  18.832  51.295  1.00  0.00    -0.550 OA
ENDBRANCH   1   2
BRANCH   1   5
ATOM      5  C   UNL     1      58.681  16.709  49.046  1.00  0.00     0.003 C 
ATOM      6  C   UNL     1      58.096  15.876  47.909  1.00  0.00     0.004 C 
ENDBRANCH   1   5
TORSDOF 2
ENDMDL
MODEL 2
REMARK VINA RESULT:    -2.413      9.868     10.861
REMARK INTER + INTRA:          -2.715
REMARK INTER:                  -2.683
REMARK INTRA:                  -0.032
REMARK UNBOUND:                -0.020
REMARK SMILES CCCC(=O)[O-]
REMARK SMILES IDX 3 1 4 2 5 3 6 4 2 5 1 6
REMARK H PARENT
REMARK Flexibility Score: inf
ROOT
ATOM      1  C   UNL     1      58.877  28.426  49.516  1.00  0.00     0.052 C 
ENDROOT
BRANCH   1   2
ATOM      2  C   UNL     1      59.743  27.208  49.582  1.00  0.00     0.041 C 
ATOM      3  O   UNL     1      60.997  27.319  49.558  1.00  0.00    -0.550 OA
ATOM      4  O   UNL     1      59.165  25.945  49.617  1.00  0.00    -0.550 OA
ENDBRANCH   1   2
BRANCH   1   5
ATOM      5  C   UNL     1      58.104  28.605  50.825  1.00  0.00     0.003 C 
ATOM      6  C   UNL     1      56.649  28.172  50.668  1.00  0.00     0.004 C 
ENDBRANCH   1   5
TORSDOF 2
ENDMDL
MODEL 3
REMARK VINA RESULT:    -2.391      9.142     10.320
REMARK INTER + INTRA:          -2.690
REMARK INTER:                  -2.681
REMARK INTRA:                  -0.010
REMARK UNBOUND:                -0.020
REMARK SMILES CCCC(=O)[O-]
REMARK SMILES IDX 3 1 4 2 5 3 6 4 2 5 1 6
REMARK H PARENT
REMARK Flexibility Score: inf
ROOT
ATOM      1  C   UNL     1      55.532  27.258  50.625  1.00  0.00     0.052 C 
ENDROOT
BRANCH   1   2
ATOM      2  C   UNL     1      55.678  25.811  50.276  1.00  0.00     0.041 C 
ATOM      3  O   UNL     1      56.728  25.187  50.581  1.00  0.00    -0.550 OA
ATOM      4  O   UNL     1      54.674  25.162  49.568  1.00  0.00    -0.550 OA
ENDBRANCH   1   2
BRANCH   1   5
ATOM      5  C   UNL     1      54.127  27.755  50.276  1.00  0.00     0.003 C 
ATOM      6  C   UNL     1      53.935  29.208  50.701  1.00  0.00     0.004 C 
ENDBRANCH   1   5
TORSDOF 2
ENDMDL
MODEL 4
REMARK VINA RESULT:    -2.382      2.301      3.355
REMARK INTER + INTRA:          -2.681
REMARK INTER:                  -2.637
REMARK INTRA:                  -0.043
REMARK UNBOUND:                -0.020
REMARK SMILES CCCC(=O)[O-]
REMARK SMILES IDX 3 1 4 2 5 3 6 4 2 5 1 6
REMARK H PARENT
REMARK Flexibility Score: inf
ROOT
ATOM      1  C   UNL     1      58.638  18.027  49.922  1.00  0.00     0.052 C 
ENDROOT
BRANCH   1   2
ATOM      2  C   UNL     1      58.850  16.652  49.371  1.00  0.00     0.041 C 
ATOM      3  O   UNL     1      59.796  15.938  49.795  1.00  0.00    -0.550 OA
ATOM      4  O   UNL     1      58.032  16.176  48.354  1.00  0.00    -0.550 OA
ENDBRANCH   1   2
BRANCH   1   5
ATOM      5  C   UNL     1      57.759  17.973  51.174  1.00  0.00     0.003 C 
ATOM      6  C   UNL     1      56.283  18.132  50.818  1.00  0.00     0.004 C 
ENDBRANCH   1   5
TORSDOF 2
ENDMDL
MODEL 5
REMARK VINA RESULT:    -2.375     10.238     10.912
REMARK INTER + INTRA:          -2.673
REMARK INTER:                  -2.652
REMARK INTRA:                  -0.021
REMARK UNBOUND:                -0.020
REMARK SMILES CCCC(=O)[O-]
REMARK SMILES IDX 3 1 4 2 5 3 6 4 2 5 1 6
REMARK H PARENT
REMARK Flexibility Score: inf
ROOT
ATOM      1  C   UNL     1      57.804  27.271  50.536  1.00  0.00     0.052 C 
ENDROOT
BRANCH   1   2
ATOM      2  C   UNL     1      58.900  27.862  49.707  1.00  0.00     0.041 C 
ATOM      3  O   UNL     1      58.781  29.021  49.230  1.00  0.00    -0.550 OA
ATOM      4  O   UNL     1      60.033  27.112  49.416  1.00  0.00    -0.550 OA
ENDBRANCH   1   2
BRANCH   1   5
ATOM      5  C   UNL     1      56.649  28.266  50.684  1.00  0.00     0.003 C 
ATOM      6  C   UNL     1      55.300  27.556  50.617  1.00  0.00     0.004 C 
ENDBRANCH   1   5
TORSDOF 2
ENDMDL
MODEL 6
REMARK VINA RESULT:    -2.375     17.334     18.121
REMARK INTER + INTRA:          -2.672
REMARK INTER:                  -2.663
REMARK INTRA:                  -0.010
REMARK UNBOUND:                -0.020
REMARK SMILES CCCC(=O)[O-]
REMARK SMILES IDX 3 1 4 2 5 3 6 4 2 5 1 6
REMARK H PARENT
REMARK Flexibility Score: inf
ROOT
ATOM      1  C   UNL     1      61.402  30.574  61.668  1.00  0.00     0.052 C 
ENDROOT
BRANCH   1   2
ATOM      2  C   UNL     1      62.461  29.518  61.673  1.00  0.00     0.041 C 
ATOM      3  O   UNL     1      63.677  29.839  61.614  1.00  0.00    -0.550 OA
ATOM      4  O   UNL     1      62.105  28.175  61.691  1.00  0.00    -0.550 OA
ENDBRANCH   1   2
BRANCH   1   5
ATOM      5  C   UNL     1      61.866  31.795  60.869  1.00  0.00     0.003 C 
ATOM      6  C   UNL     1      60.684  32.673  60.469  1.00  0.00     0.004 C 
ENDBRANCH   1   5
TORSDOF 2
ENDMDL
MODEL 7
REMARK VINA RESULT:    -2.354     22.130     22.764
REMARK INTER + INTRA:          -2.649
REMARK INTER:                  -2.578
REMARK INTRA:                  -0.071
REMARK UNBOUND:                -0.020
REMARK SMILES CCCC(=O)[O-]
REMARK SMILES IDX 3 1 4 2 5 3 6 4 2 5 1 6
REMARK H PARENT
REMARK Flexibility Score: inf
ROOT
ATOM      1  C   UNL     1      72.613  30.684  60.202  1.00  0.00     0.052 C 
ENDROOT
BRANCH   1   2
ATOM      2  C   UNL     1      72.145  30.178  61.529  1.00  0.00     0.041 C 
ATOM      3  O   UNL     1      72.937  30.137  62.507  1.00  0.00    -0.550 OA
ATOM      4  O   UNL     1      70.847  29.703  61.675  1.00  0.00    -0.550 OA
ENDBRANCH   1   2
BRANCH   1   5
ATOM      5  C   UNL     1      71.681  31.785  59.689  1.00  0.00     0.003 C 
ATOM      6  C   UNL     1      71.715  33.006  60.604  1.00  0.00     0.004 C 
ENDBRANCH   1   5
TORSDOF 2
ENDMDL
MODEL 8
REMARK VINA RESULT:    -2.289     21.019     21.844
REMARK INTER + INTRA:          -2.577
REMARK INTER:                  -2.567
REMARK INTRA:                  -0.010
REMARK UNBOUND:                -0.020
REMARK SMILES CCCC(=O)[O-]
REMARK SMILES IDX 3 1 4 2 5 3 6 4 2 5 1 6
REMARK H PARENT
REMARK Flexibility Score: inf
ROOT
ATOM      1  C   UNL     1      63.309  35.609  61.281  1.00  0.00     0.052 C 
ENDROOT
BRANCH   1   2
ATOM      2  C   UNL     1      64.574  34.831  61.460  1.00  0.00     0.041 C 
ATOM      3  O   UNL     1      65.641  35.420  61.778  1.00  0.00    -0.550 OA
ATOM      4  O   UNL     1      64.588  33.462  61.227  1.00  0.00    -0.550 OA
ENDBRANCH   1   2
BRANCH   1   5
ATOM      5  C   UNL     1      62.180  34.693  60.803  1.00  0.00     0.003 C 
ATOM      6  C   UNL     1      60.909  35.489  60.516  1.00  0.00     0.004 C 
ENDBRANCH   1   5
TORSDOF 2
ENDMDL
MODEL 9
REMARK VINA RESULT:    -2.281      9.322     10.226
REMARK INTER + INTRA:          -2.568
REMARK INTER:                  -2.559
REMARK INTRA:                  -0.009
REMARK UNBOUND:                -0.020
REMARK SMILES CCCC(=O)[O-]
REMARK SMILES IDX 3 1 4 2 5 3 6 4 2 5 1 6
REMARK H PARENT
REMARK Flexibility Score: inf
ROOT
ATOM      1  C   UNL     1      54.510  27.183  50.316  1.00  0.00     0.052 C 
ENDROOT
BRANCH   1   2
ATOM      2  C   UNL     1      55.690  27.959  50.810  1.00  0.00     0.041 C 
ATOM      3  O   UNL     1      55.525  28.932  51.593  1.00  0.00    -0.550 OA
ATOM      4  O   UNL     1      56.967  27.641  50.367  1.00  0.00    -0.550 OA
ENDBRANCH   1   2
BRANCH   1   5
ATOM      5  C   UNL     1      54.915  25.743  49.991  1.00  0.00     0.003 C 
ATOM      6  C   UNL     1      53.734  24.950  49.439  1.00  0.00     0.004 C 
ENDBRANCH   1   5
TORSDOF 2
ENDMDL
