MODEL 1
REMARK VINA RESULT:    -4.055      0.000      0.000
REMARK INTER + INTRA:          -4.708
REMARK INTER:                  -4.529
REMARK INTRA:                  -0.179
REMARK UNBOUND:                -0.179
REMARK SMILES O=C([O-])c1ccccc1C(=O)[O-]
REMARK SMILES IDX 4 1 9 2 5 3 8 4 6 5 7 6 2 7 1 8 3 9 10 10 11 11 12 12
REMARK H PARENT
REMARK Flexibility Score: inf
ROOT
ATOM      1  C   UNL     1      55.873  27.478  50.729  1.00  0.00     0.006 A 
ATOM      2  C   UNL     1      56.030  26.075  50.549  1.00  0.00     0.006 A 
ATOM      3  C   UNL     1      54.632  28.071  50.436  1.00  0.00     0.010 A 
ATOM      4  C   UNL     1      54.919  25.309  50.146  1.00  0.00     0.010 A 
ATOM      5  C   UNL     1      53.551  27.295  50.015  1.00  0.00     0.001 A 
ATOM      6  C   UNL     1      53.692  25.916  49.882  1.00  0.00     0.001 A 
ENDROOT
BRANCH   1   7
ATOM      7  C   UNL     1      56.945  28.338  51.283  1.00  0.00     0.072 C 
ATOM      8  O   UNL     1      56.987  28.583  52.517  1.00  0.00    -0.545 OA
ATOM      9  O   UNL     1      57.954  28.829  50.462  1.00  0.00    -0.545 OA
ENDBRANCH   1   7
BRANCH   2  10
ATOM     10  C   UNL     1      57.331  25.383  50.699  1.00  0.00     0.072 C 
ATOM     11  O   UNL     1      58.232  25.509  49.829  1.00  0.00    -0.545 OA
ATOM     12  O   UNL     1      57.546  24.530  51.775  1.00  0.00    -0.545 OA
ENDBRANCH   2  10
TORSDOF 2
ENDMDL
MODEL 2
REMARK VINA RESULT:    -4.012      0.123      3.149
REMARK INTER + INTRA:          -4.660
REMARK INTER:                  -4.489
REMARK INTRA:                  -0.170
REMARK UNBOUND:                -0.179
REMARK SMILES O=C([O-])c1ccccc1C(=O)[O-]
REMARK SMILES IDX 4 1 9 2 5 3 8 4 6 5 7 6 2 7 1 8 3 9 10 10 11 11 12 12
REMARK H PARENT
REMARK Flexibility Score: inf
ROOT
ATOM      1  C   UNL     1      55.945  26.018  50.582  1.00  0.00     0.006 A 
ATOM      2  C   UNL     1      55.819  27.429  50.705  1.00  0.00     0.006 A 
ATOM      3  C   UNL     1      54.823  25.261  50.200  1.00  0.00     0.010 A 
ATOM      4  C   UNL     1      54.592  28.038  50.377  1.00  0.00     0.010 A 
ATOM      5  C   UNL     1      53.609  25.883  49.902  1.00  0.00     0.001 A 
ATOM      6  C   UNL     1      53.499  27.269  49.980  1.00  0.00     0.001 A 
ENDROOT
BRANCH   1   7
ATOM      7  C   UNL     1      57.233  25.310  50.771  1.00  0.00     0.072 C 
ATOM      8  O   UNL     1      58.143  25.408  49.905  1.00  0.00    -0.545 OA
ATOM      9  O   UNL     1      57.480  24.586  51.931  1.00  0.00    -0.545 OA
ENDBRANCH   1   7
BRANCH   2  10
ATOM     10  C   UNL     1      56.902  28.294  51.231  1.00  0.00     0.072 C 
ATOM     11  O   UNL     1      56.884  28.694  52.424  1.00  0.00    -0.545 OA
ATOM     12  O   UNL     1      57.919  28.727  50.388  1.00  0.00    -0.545 OA
ENDBRANCH   2  10
TORSDOF 2
ENDMDL
MODEL 3
REMARK VINA RESULT:    -3.944     12.712     14.249
REMARK INTER + INTRA:          -4.584
REMARK INTER:                  -4.361
REMARK INTRA:                  -0.223
REMARK UNBOUND:                -0.179
REMARK SMILES O=C([O-])c1ccccc1C(=O)[O-]
REMARK SMILES IDX 4 1 9 2 5 3 8 4 6 5 7 6 2 7 1 8 3 9 10 10 11 11 12 12
REMARK H PARENT
REMARK Flexibility Score: inf
ROOT
ATOM      1  C   UNL     1      62.160  34.798  60.680  1.00  0.00     0.006 A 
ATOM      2  C   UNL     1      63.006  33.655  60.720  1.00  0.00     0.006 A 
ATOM      3  C   UNL     1      62.634  36.018  61.197  1.00  0.00     0.010 A 
ATOM      4  C   UNL     1      64.317  33.791  61.215  1.00  0.00     0.010 A 
ATOM      5  C   UNL     1      63.929  36.125  61.704  1.00  0.00     0.001 A 
ATOM      6  C   UNL     1      64.772  35.016  61.703  1.00  0.00     0.001 A 
ENDROOT
BRANCH   1   7
ATOM      7  C   UNL     1      60.820  34.780  60.049  1.00  0.00     0.072 C 
ATOM      8  O   UNL     1      60.680  35.126  58.846  1.00  0.00    -0.545 OA
ATOM      9  O   UNL     1      59.713  34.319  60.752  1.00  0.00    -0.545 OA
ENDBRANCH   1   7
BRANCH   2  10
ATOM     10  C   UNL     1      62.552  32.301  60.326  1.00  0.00     0.072 C 
ATOM     11  O   UNL     1      62.786  31.853  59.173  1.00  0.00    -0.545 OA
ATOM     12  O   UNL     1      61.800  31.534  61.209  1.00  0.00    -0.545 OA
ENDBRANCH   2  10
TORSDOF 2
ENDMDL
MODEL 4
REMARK VINA RESULT:    -3.933     12.741     14.536
REMARK INTER + INTRA:          -4.572
REMARK INTER:                  -4.347
REMARK INTRA:                  -0.225
REMARK UNBOUND:                -0.179
REMARK SMILES O=C([O-])c1ccccc1C(=O)[O-]
REMARK SMILES IDX 4 1 9 2 5 3 8 4 6 5 7 6 2 7 1 8 3 9 10 10 11 11 12 12
REMARK H PARENT
REMARK Flexibility Score: inf
ROOT
ATOM      1  C   UNL     1      62.995  33.666  60.743  1.00  0.00     0.006 A 
ATOM      2  C   UNL     1      62.173  34.826  60.677  1.00  0.00     0.006 A 
ATOM      3  C   UNL     1      64.298  33.779  61.261  1.00  0.00     0.010 A 
ATOM      4  C   UNL     1      62.663  36.041  61.193  1.00  0.00     0.010 A 
ATOM      5  C   UNL     1      64.771  34.999  61.746  1.00  0.00     0.001 A 
ATOM      6  C   UNL     1      63.950  36.124  61.722  1.00  0.00     0.001 A 
ENDROOT
BRANCH   1   7
ATOM      7  C   UNL     1      62.512  32.321  60.353  1.00  0.00     0.072 C 
ATOM      8  O   UNL     1      62.851  31.821  59.247  1.00  0.00    -0.545 OA
ATOM      9  O   UNL     1      61.737  31.566  61.226  1.00  0.00    -0.545 OA
ENDBRANCH   1   7
BRANCH   2  10
ATOM     10  C   UNL     1      60.843  34.836  60.025  1.00  0.00     0.072 C 
ATOM     11  O   UNL     1      59.795  34.654  60.699  1.00  0.00    -0.545 OA
ATOM     12  O   UNL     1      60.743  34.982  58.646  1.00  0.00    -0.545 OA
ENDBRANCH   2  10
TORSDOF 2
ENDMDL
MODEL 5
REMARK VINA RESULT:    -3.912     12.259     14.273
REMARK INTER + INTRA:          -4.548
REMARK INTER:                  -4.343
REMARK INTRA:                  -0.205
REMARK UNBOUND:                -0.179
REMARK SMILES O=C([O-])c1ccccc1C(=O)[O-]
REMARK SMILES IDX 4 1 9 2 5 3 8 4 6 5 7 6 2 7 1 8 3 9 10 10 11 11 12 12
REMARK H PARENT
REMARK Flexibility Score: inf
ROOT
ATOM      1  C   UNL     1      62.545  33.892  60.562  1.00  0.00     0.006 A 
ATOM      2  C   UNL     1      63.900  33.520  60.779  1.00  0.00     0.006 A 
ATOM      3  C   UNL     1      62.125  35.186  60.920  1.00  0.00     0.010 A 
ATOM      4  C   UNL     1      64.800  34.477  61.284  1.00  0.00     0.010 A 
ATOM      5  C   UNL     1      63.029  36.112  61.441  1.00  0.00     0.001 A 
ATOM      6  C   UNL     1      64.366  35.761  61.612  1.00  0.00     0.001 A 
ENDROOT
BRANCH   1   7
ATOM      7  C   UNL     1      61.564  32.996  59.906  1.00  0.00     0.072 C 
ATOM      8  O   UNL     1      60.757  32.322  60.600  1.00  0.00    -0.545 OA
ATOM      9  O   UNL     1      61.475  32.936  58.520  1.00  0.00    -0.545 OA
ENDBRANCH   1   7
BRANCH   2  10
ATOM     10  C   UNL     1      64.404  32.143  60.562  1.00  0.00     0.072 C 
ATOM     11  O   UNL     1      64.193  31.239  61.413  1.00  0.00    -0.545 OA
ATOM     12  O   UNL     1      65.174  31.850  59.443  1.00  0.00    -0.545 OA
ENDBRANCH   2  10
TORSDOF 2
ENDMDL
MODEL 6
REMARK VINA RESULT:    -3.875     12.000     14.070
REMARK INTER + INTRA:          -4.507
REMARK INTER:                  -4.292
REMARK INTRA:                  -0.215
REMARK UNBOUND:                -0.179
REMARK SMILES O=C([O-])c1ccccc1C(=O)[O-]
REMARK SMILES IDX 4 1 9 2 5 3 8 4 6 5 7 6 2 7 1 8 3 9 10 10 11 11 12 12
REMARK H PARENT
REMARK Flexibility Score: inf
ROOT
ATOM      1  C   UNL     1      63.801  33.263  60.733  1.00  0.00     0.006 A 
ATOM      2  C   UNL     1      62.447  33.527  60.385  1.00  0.00     0.006 A 
ATOM      3  C   UNL     1      64.573  34.290  61.308  1.00  0.00     0.010 A 
ATOM      4  C   UNL     1      61.897  34.787  60.686  1.00  0.00     0.010 A 
ATOM      5  C   UNL     1      64.013  35.540  61.575  1.00  0.00     0.001 A 
ATOM      6  C   UNL     1      62.675  35.783  61.275  1.00  0.00     0.001 A 
ENDROOT
BRANCH   1   7
ATOM      7  C   UNL     1      64.420  31.925  60.583  1.00  0.00     0.072 C 
ATOM      8  O   UNL     1      64.166  31.012  61.412  1.00  0.00    -0.545 OA
ATOM      9  O   UNL     1      65.234  31.640  59.493  1.00  0.00    -0.545 OA
ENDBRANCH   1   7
BRANCH   2  10
ATOM     10  C   UNL     1      61.599  32.557  59.655  1.00  0.00     0.072 C 
ATOM     11  O   UNL     1      60.813  31.793  60.275  1.00  0.00    -0.545 OA
ATOM     12  O   UNL     1      61.710  32.434  58.275  1.00  0.00    -0.545 OA
ENDBRANCH   2  10
TORSDOF 2
ENDMDL
MODEL 7
REMARK VINA RESULT:    -3.788     12.724     13.989
REMARK INTER + INTRA:          -4.410
REMARK INTER:                  -4.199
REMARK INTRA:                  -0.211
REMARK UNBOUND:                -0.179
REMARK SMILES O=C([O-])c1ccccc1C(=O)[O-]
REMARK SMILES IDX 4 1 9 2 5 3 8 4 6 5 7 6 2 7 1 8 3 9 10 10 11 11 12 12
REMARK H PARENT
REMARK Flexibility Score: inf
ROOT
ATOM      1  C   UNL     1      63.184  34.201  60.714  1.00  0.00     0.006 A 
ATOM      2  C   UNL     1      63.005  32.804  60.512  1.00  0.00     0.006 A 
ATOM      3  C   UNL     1      62.059  35.045  60.697  1.00  0.00     0.010 A 
ATOM      4  C   UNL     1      61.700  32.296  60.367  1.00  0.00     0.010 A 
ATOM      5  C   UNL     1      60.776  34.522  60.528  1.00  0.00     0.001 A 
ATOM      6  C   UNL     1      60.597  33.150  60.375  1.00  0.00     0.001 A 
ENDROOT
BRANCH   1   7
ATOM      7  C   UNL     1      64.504  34.803  61.014  1.00  0.00     0.072 C 
ATOM      8  O   UNL     1      64.883  34.938  62.208  1.00  0.00    -0.545 OA
ATOM      9  O   UNL     1      65.368  35.165  59.987  1.00  0.00    -0.545 OA
ENDBRANCH   1   7
BRANCH   2  10
ATOM     10  C   UNL     1      64.136  31.857  60.377  1.00  0.00     0.072 C 
ATOM     11  O   UNL     1      64.450  31.091  61.325  1.00  0.00    -0.545 OA
ATOM     12  O   UNL     1      64.907  31.852  59.221  1.00  0.00    -0.545 OA
ENDBRANCH   2  10
TORSDOF 2
ENDMDL
MODEL 8
REMARK VINA RESULT:    -3.743      1.985      4.302
REMARK INTER + INTRA:          -4.360
REMARK INTER:                  -4.173
REMARK INTRA:                  -0.187
REMARK UNBOUND:                -0.179
REMARK SMILES O=C([O-])c1ccccc1C(=O)[O-]
REMARK SMILES IDX 4 1 9 2 5 3 8 4 6 5 7 6 2 7 1 8 3 9 10 10 11 11 12 12
REMARK H PARENT
REMARK Flexibility Score: inf
ROOT
ATOM      1  C   UNL     1      57.213  26.288  50.683  1.00  0.00     0.006 A 
ATOM      2  C   UNL     1      57.019  27.697  50.654  1.00  0.00     0.006 A 
ATOM      3  C   UNL     1      58.402  25.750  50.155  1.00  0.00     0.010 A 
ATOM      4  C   UNL     1      58.049  28.520  50.161  1.00  0.00     0.010 A 
ATOM      5  C   UNL     1      59.400  26.584  49.649  1.00  0.00     0.001 A 
ATOM      6  C   UNL     1      59.228  27.966  49.663  1.00  0.00     0.001 A 
ENDROOT
BRANCH   1   7
ATOM      7  C   UNL     1      56.245  25.359  51.310  1.00  0.00     0.072 C 
ATOM      8  O   UNL     1      56.411  24.978  52.500  1.00  0.00    -0.545 OA
ATOM      9  O   UNL     1      55.109  24.949  50.623  1.00  0.00    -0.545 OA
ENDBRANCH   1   7
BRANCH   2  10
ATOM     10  C   UNL     1      55.749  28.345  51.059  1.00  0.00     0.072 C 
ATOM     11  O   UNL     1      55.659  28.956  52.156  1.00  0.00    -0.545 OA
ATOM     12  O   UNL     1      54.620  28.226  50.257  1.00  0.00    -0.545 OA
ENDBRANCH   2  10
TORSDOF 2
ENDMDL
MODEL 9
REMARK VINA RESULT:    -3.730      1.955      3.192
REMARK INTER + INTRA:          -4.345
REMARK INTER:                  -4.189
REMARK INTRA:                  -0.156
REMARK UNBOUND:                -0.179
REMARK SMILES O=C([O-])c1ccccc1C(=O)[O-]
REMARK SMILES IDX 4 1 9 2 5 3 8 4 6 5 7 6 2 7 1 8 3 9 10 10 11 11 12 12
REMARK H PARENT
REMARK Flexibility Score: inf
ROOT
ATOM      1  C   UNL     1      57.010  27.723  50.638  1.00  0.00     0.006 A 
ATOM      2  C   UNL     1      57.224  26.317  50.654  1.00  0.00     0.006 A 
ATOM      3  C   UNL     1      58.033  28.565  50.164  1.00  0.00     0.010 A 
ATOM      4  C   UNL     1      58.426  25.801  50.135  1.00  0.00     0.010 A 
ATOM      5  C   UNL     1      59.227  28.033  49.675  1.00  0.00     0.001 A 
ATOM      6  C   UNL     1      59.417  26.654  49.650  1.00  0.00     0.001 A 
ENDROOT
BRANCH   1   7
ATOM      7  C   UNL     1      55.724  28.342  51.034  1.00  0.00     0.072 C 
ATOM      8  O   UNL     1      55.656  29.059  52.068  1.00  0.00    -0.545 OA
ATOM      9  O   UNL     1      54.593  28.197  50.238  1.00  0.00    -0.545 OA
ENDBRANCH   1   7
BRANCH   2  10
ATOM     10  C   UNL     1      56.264  25.362  51.258  1.00  0.00     0.072 C 
ATOM     11  O   UNL     1      55.260  24.963  50.612  1.00  0.00    -0.545 OA
ATOM     12  O   UNL     1      56.429  24.947  52.575  1.00  0.00    -0.545 OA
ENDBRANCH   2  10
TORSDOF 2
ENDMDL
