MODEL 1
REMARK VINA RESULT:    -5.501      0.000      0.000
REMARK INTER + INTRA:          -5.983
REMARK INTER:                  -5.983
REMARK INTRA:                   0.000
REMARK UNBOUND:                 0.000
REMARK SMILES Cc1cc(O)c2c(c1)C(=O)c1cc(O)cc(O)c1C2=O
REMARK SMILES IDX 1 1 2 2 8 3 7 4 6 5 4 6 3 7 19 8 20 9 18 10 11 11 9 12 10 13
REMARK SMILES IDX 12 14 13 15 15 16 16 17 5 18 17 20 14 22
REMARK H PARENT 5 19 17 21 14 23
REMARK Flexibility Score: inf
ROOT
ATOM      1  C   UNL     1     -24.286  -4.862 -10.087  1.00  0.00     0.044 C 
ATOM      2  C   UNL     1     -24.036  -6.157  -9.374  1.00  0.00    -0.047 A 
ATOM      3  C   UNL     1     -24.421  -6.312  -8.037  1.00  0.00     0.016 A 
ATOM      4  C   UNL     1     -24.224  -7.534  -7.371  1.00  0.00     0.038 A 
ATOM      5  C   UNL     1     -23.639  -8.620  -8.055  1.00  0.00     0.076 A 
ATOM      6  C   UNL     1     -23.278  -8.469  -9.413  1.00  0.00     0.127 A 
ATOM      7  C   UNL     1     -23.482  -7.244 -10.061  1.00  0.00     0.050 A 
ATOM      8  C   UNL     1     -23.401  -9.892  -7.324  1.00  0.00     0.201 C 
ATOM      9  O   UNL     1     -22.574 -10.725  -7.783  1.00  0.00    -0.288 OA
ATOM     10  C   UNL     1     -24.045 -10.128  -6.002  1.00  0.00     0.076 A 
ATOM     11  C   UNL     1     -24.574  -9.017  -5.304  1.00  0.00     0.041 A 
ATOM     12  C   UNL     1     -24.627  -7.686  -5.954  1.00  0.00     0.194 C 
ATOM     13  O   UNL     1     -25.035  -6.683  -5.305  1.00  0.00    -0.289 OA
ATOM     14  C   UNL     1     -25.057  -9.179  -3.994  1.00  0.00     0.059 A 
ATOM     15  C   UNL     1     -25.036 -10.428  -3.379  1.00  0.00     0.120 A 
ATOM     16  C   UNL     1     -24.561 -11.538  -4.079  1.00  0.00     0.093 A 
ATOM     17  C   UNL     1     -24.099 -11.412  -5.392  1.00  0.00     0.131 A 
ENDROOT
BRANCH   6  18
ATOM     18  O   UNL     1     -22.726  -9.535 -10.125  1.00  0.00    -0.507 OA
ATOM     19  H   UNL     1     -23.068  -9.798 -11.042  1.00  0.00     0.293 HD
ENDBRANCH   6  18
BRANCH  17  20
ATOM     20  O   UNL     1     -23.742 -12.587  -6.058  1.00  0.00    -0.507 OA
ATOM     21  H   UNL     1     -24.393 -13.155  -6.581  1.00  0.00     0.293 HD
ENDBRANCH  17  20
BRANCH  15  22
ATOM     22  O   UNL     1     -25.506 -10.559  -2.073  1.00  0.00    -0.508 OA
ATOM     23  H   UNL     1     -25.450 -11.440  -1.576  1.00  0.00     0.293 HD
ENDBRANCH  15  22
TORSDOF 3
ENDMDL
MODEL 2
REMARK VINA RESULT:    -5.387      1.240      3.623
REMARK INTER + INTRA:          -5.859
REMARK INTER:                  -5.859
REMARK INTRA:                   0.000
REMARK UNBOUND:                 0.000
REMARK SMILES Cc1cc(O)c2c(c1)C(=O)c1cc(O)cc(O)c1C2=O
REMARK SMILES IDX 1 1 2 2 8 3 7 4 6 5 4 6 3 7 19 8 20 9 18 10 11 11 9 12 10 13
REMARK SMILES IDX 12 14 13 15 15 16 16 17 5 18 17 20 14 22
REMARK H PARENT 5 19 17 21 14 23
REMARK Flexibility Score: inf
ROOT
ATOM      1  C   UNL     1     -23.921  -3.682 -10.119  1.00  0.00     0.044 C 
ATOM      2  C   UNL     1     -24.256  -4.617  -8.995  1.00  0.00    -0.047 A 
ATOM      3  C   UNL     1     -23.973  -5.983  -9.107  1.00  0.00     0.016 A 
ATOM      4  C   UNL     1     -24.248  -6.862  -8.045  1.00  0.00     0.038 A 
ATOM      5  C   UNL     1     -24.809  -6.365  -6.850  1.00  0.00     0.076 A 
ATOM      6  C   UNL     1     -25.067  -4.980  -6.730  1.00  0.00     0.127 A 
ATOM      7  C   UNL     1     -24.785  -4.119  -7.799  1.00  0.00     0.050 A 
ATOM      8  C   UNL     1     -25.132  -7.313  -5.752  1.00  0.00     0.201 C 
ATOM      9  O   UNL     1     -25.944  -6.968  -4.853  1.00  0.00    -0.288 OA
ATOM     10  C   UNL     1     -24.592  -8.702  -5.779  1.00  0.00     0.076 A 
ATOM     11  C   UNL     1     -24.087  -9.203  -7.002  1.00  0.00     0.041 A 
ATOM     12  C   UNL     1     -23.953  -8.307  -8.175  1.00  0.00     0.194 C 
ATOM     13  O   UNL     1     -23.568  -8.774  -9.284  1.00  0.00    -0.289 OA
ATOM     14  C   UNL     1     -23.704 -10.552  -7.101  1.00  0.00     0.059 A 
ATOM     15  C   UNL     1     -23.802 -11.400  -6.000  1.00  0.00     0.120 A 
ATOM     16  C   UNL     1     -24.252 -10.900  -4.777  1.00  0.00     0.093 A 
ATOM     17  C   UNL     1     -24.614  -9.557  -4.643  1.00  0.00     0.131 A 
ENDROOT
BRANCH   6  18
ATOM     18  O   UNL     1     -25.592  -4.454  -5.549  1.00  0.00    -0.507 OA
ATOM     19  H   UNL     1     -26.591  -4.373  -5.400  1.00  0.00     0.293 HD
ENDBRANCH   6  18
BRANCH  17  20
ATOM     20  O   UNL     1     -24.952  -9.112  -3.362  1.00  0.00    -0.507 OA
ATOM     21  H   UNL     1     -24.871  -8.151  -3.062  1.00  0.00     0.293 HD
ENDBRANCH  17  20
BRANCH  15  22
ATOM     22  O   UNL     1     -23.432 -12.738  -6.128  1.00  0.00    -0.508 OA
ATOM     23  H   UNL     1     -22.650 -13.018  -6.707  1.00  0.00     0.293 HD
ENDBRANCH  15  22
TORSDOF 3
ENDMDL
MODEL 3
REMARK VINA RESULT:    -5.168      1.682      4.046
REMARK INTER + INTRA:          -5.621
REMARK INTER:                  -5.621
REMARK INTRA:                   0.000
REMARK UNBOUND:                 0.000
REMARK SMILES Cc1cc(O)c2c(c1)C(=O)c1cc(O)cc(O)c1C2=O
REMARK SMILES IDX 1 1 2 2 8 3 7 4 6 5 4 6 3 7 19 8 20 9 18 10 11 11 9 12 10 13
REMARK SMILES IDX 12 14 13 15 15 16 16 17 5 18 17 20 14 22
REMARK H PARENT 5 19 17 21 14 23
REMARK Flexibility Score: inf
ROOT
ATOM      1  C   UNL     1     -25.120  -3.884  -7.641  1.00  0.00     0.044 C 
ATOM      2  C   UNL     1     -25.011  -5.309  -7.184  1.00  0.00    -0.047 A 
ATOM      3  C   UNL     1     -24.398  -6.266  -8.002  1.00  0.00     0.016 A 
ATOM      4  C   UNL     1     -24.258  -7.596  -7.568  1.00  0.00     0.038 A 
ATOM      5  C   UNL     1     -24.733  -7.972  -6.294  1.00  0.00     0.076 A 
ATOM      6  C   UNL     1     -25.326  -6.996  -5.460  1.00  0.00     0.127 A 
ATOM      7  C   UNL     1     -25.457  -5.675  -5.909  1.00  0.00     0.050 A 
ATOM      8  C   UNL     1     -24.615  -9.391  -5.867  1.00  0.00     0.201 C 
ATOM      9  O   UNL     1     -25.335  -9.817  -4.926  1.00  0.00    -0.288 OA
ATOM     10  C   UNL     1     -23.737 -10.329  -6.622  1.00  0.00     0.076 A 
ATOM     11  C   UNL     1     -23.319  -9.959  -7.922  1.00  0.00     0.041 A 
ATOM     12  C   UNL     1     -23.615  -8.603  -8.442  1.00  0.00     0.194 C 
ATOM     13  O   UNL     1     -23.303  -8.300  -9.627  1.00  0.00    -0.289 OA
ATOM     14  C   UNL     1     -22.614 -10.878  -8.718  1.00  0.00     0.059 A 
ATOM     15  C   UNL     1     -22.307 -12.148  -8.234  1.00  0.00     0.120 A 
ATOM     16  C   UNL     1     -22.673 -12.502  -6.935  1.00  0.00     0.093 A 
ATOM     17  C   UNL     1     -23.352 -11.599  -6.111  1.00  0.00     0.131 A 
ENDROOT
BRANCH   6  18
ATOM     18  O   UNL     1     -25.777  -7.331  -4.183  1.00  0.00    -0.507 OA
ATOM     19  H   UNL     1     -25.686  -6.694  -3.401  1.00  0.00     0.293 HD
ENDBRANCH   6  18
BRANCH  17  20
ATOM     20  O   UNL     1     -23.586 -11.992  -4.791  1.00  0.00    -0.507 OA
ATOM     21  H   UNL     1     -23.756 -12.948  -4.513  1.00  0.00     0.293 HD
ENDBRANCH  17  20
BRANCH  15  22
ATOM     22  O   UNL     1     -21.621 -13.047  -9.049  1.00  0.00    -0.508 OA
ATOM     23  H   UNL     1     -22.048 -13.910  -9.363  1.00  0.00     0.293 HD
ENDBRANCH  15  22
TORSDOF 3
ENDMDL
MODEL 4
REMARK VINA RESULT:    -5.105      1.220      5.488
REMARK INTER + INTRA:          -5.553
REMARK INTER:                  -5.553
REMARK INTRA:                   0.000
REMARK UNBOUND:                 0.000
REMARK SMILES Cc1cc(O)c2c(c1)C(=O)c1cc(O)cc(O)c1C2=O
REMARK SMILES IDX 1 1 2 2 8 3 7 4 6 5 4 6 3 7 19 8 20 9 18 10 11 11 9 12 10 13
REMARK SMILES IDX 12 14 13 15 15 16 16 17 5 18 17 20 14 22
REMARK H PARENT 5 19 17 21 14 23
REMARK Flexibility Score: inf
ROOT
ATOM      1  C   UNL     1     -25.750 -10.197  -1.785  1.00  0.00     0.044 C 
ATOM      2  C   UNL     1     -25.301 -10.167  -3.216  1.00  0.00    -0.047 A 
ATOM      3  C   UNL     1     -25.456  -9.003  -3.978  1.00  0.00     0.016 A 
ATOM      4  C   UNL     1     -25.005  -8.953  -5.309  1.00  0.00     0.038 A 
ATOM      5  C   UNL     1     -24.384 -10.082  -5.883  1.00  0.00     0.076 A 
ATOM      6  C   UNL     1     -24.204 -11.245  -5.100  1.00  0.00     0.127 A 
ATOM      7  C   UNL     1     -24.659 -11.278  -3.776  1.00  0.00     0.050 A 
ATOM      8  C   UNL     1     -23.950 -10.025  -7.303  1.00  0.00     0.201 C 
ATOM      9  O   UNL     1     -23.738 -11.098  -7.930  1.00  0.00    -0.288 OA
ATOM     10  C   UNL     1     -23.879  -8.717  -8.013  1.00  0.00     0.076 A 
ATOM     11  C   UNL     1     -24.558  -7.610  -7.451  1.00  0.00     0.041 A 
ATOM     12  C   UNL     1     -25.180  -7.720  -6.111  1.00  0.00     0.194 C 
ATOM     13  O   UNL     1     -25.844  -6.754  -5.643  1.00  0.00    -0.289 OA
ATOM     14  C   UNL     1     -24.636  -6.402  -8.165  1.00  0.00     0.059 A 
ATOM     15  C   UNL     1     -24.036  -6.276  -9.416  1.00  0.00     0.120 A 
ATOM     16  C   UNL     1     -23.323  -7.348  -9.954  1.00  0.00     0.093 A 
ATOM     17  C   UNL     1     -23.207  -8.553  -9.255  1.00  0.00     0.131 A 
ENDROOT
BRANCH   6  18
ATOM     18  O   UNL     1     -23.565 -12.367  -5.631  1.00  0.00    -0.507 OA
ATOM     19  H   UNL     1     -23.077 -13.031  -5.041  1.00  0.00     0.293 HD
ENDBRANCH   6  18
BRANCH  17  20
ATOM     20  O   UNL     1     -22.388  -9.538  -9.814  1.00  0.00    -0.507 OA
ATOM     21  H   UNL     1     -22.740 -10.365 -10.274  1.00  0.00     0.293 HD
ENDBRANCH  17  20
BRANCH  15  22
ATOM     22  O   UNL     1     -24.141  -5.072 -10.111  1.00  0.00    -0.508 OA
ATOM     23  H   UNL     1     -23.446  -4.342 -10.014  1.00  0.00     0.293 HD
ENDBRANCH  15  22
TORSDOF 3
ENDMDL
MODEL 5
REMARK VINA RESULT:    -4.669     18.061     18.642
REMARK INTER + INTRA:          -5.078
REMARK INTER:                  -5.078
REMARK INTRA:                   0.000
REMARK UNBOUND:                 0.000
REMARK SMILES Cc1cc(O)c2c(c1)C(=O)c1cc(O)cc(O)c1C2=O
REMARK SMILES IDX 1 1 2 2 8 3 7 4 6 5 4 6 3 7 19 8 20 9 18 10 11 11 9 12 10 13
REMARK SMILES IDX 12 14 13 15 15 16 16 17 5 18 17 20 14 22
REMARK H PARENT 5 19 17 21 14 23
REMARK Flexibility Score: inf
ROOT
ATOM      1  C   UNL     1     -14.856   1.125   0.537  1.00  0.00     0.044 C 
ATOM      2  C   UNL     1     -13.415   0.869   0.209  1.00  0.00    -0.047 A 
ATOM      3  C   UNL     1     -12.516   0.508   1.220  1.00  0.00     0.016 A 
ATOM      4  C   UNL     1     -11.171   0.230   0.918  1.00  0.00     0.038 A 
ATOM      5  C   UNL     1     -10.721   0.307  -0.416  1.00  0.00     0.076 A 
ATOM      6  C   UNL     1     -11.639   0.644  -1.438  1.00  0.00     0.127 A 
ATOM      7  C   UNL     1     -12.975   0.918  -1.119  1.00  0.00     0.050 A 
ATOM      8  C   UNL     1      -9.288   0.050  -0.713  1.00  0.00     0.201 C 
ATOM      9  O   UNL     1      -8.797   0.459  -1.799  1.00  0.00    -0.288 OA
ATOM     10  C   UNL     1      -8.412  -0.581   0.314  1.00  0.00     0.076 A 
ATOM     11  C   UNL     1      -8.856  -0.597   1.657  1.00  0.00     0.041 A 
ATOM     12  C   UNL     1     -10.226  -0.144   1.995  1.00  0.00     0.194 C 
ATOM     13  O   UNL     1     -10.594  -0.093   3.201  1.00  0.00    -0.289 OA
ATOM     14  C   UNL     1      -7.997  -1.052   2.672  1.00  0.00     0.059 A 
ATOM     15  C   UNL     1      -6.714  -1.504   2.367  1.00  0.00     0.120 A 
ATOM     16  C   UNL     1      -6.288  -1.537   1.039  1.00  0.00     0.093 A 
ATOM     17  C   UNL     1      -7.131  -1.116   0.007  1.00  0.00     0.131 A 
ENDROOT
BRANCH   6  18
ATOM     18  O   UNL     1     -11.230   0.699  -2.771  1.00  0.00    -0.507 OA
ATOM     19  H   UNL     1     -11.310   1.547  -3.319  1.00  0.00     0.293 HD
ENDBRANCH   6  18
BRANCH  17  20
ATOM     20  O   UNL     1      -6.669  -1.282  -1.301  1.00  0.00    -0.507 OA
ATOM     21  H   UNL     1      -5.691  -1.348  -1.546  1.00  0.00     0.293 HD
ENDBRANCH  17  20
BRANCH  15  22
ATOM     22  O   UNL     1      -5.875  -1.934   3.394  1.00  0.00    -0.508 OA
ATOM     23  H   UNL     1      -4.981  -1.492   3.568  1.00  0.00     0.293 HD
ENDBRANCH  15  22
TORSDOF 3
ENDMDL
MODEL 6
REMARK VINA RESULT:    -4.254     15.571     17.338
REMARK INTER + INTRA:          -4.627
REMARK INTER:                  -4.627
REMARK INTRA:                   0.000
REMARK UNBOUND:                 0.000
REMARK SMILES Cc1cc(O)c2c(c1)C(=O)c1cc(O)cc(O)c1C2=O
REMARK SMILES IDX 1 1 2 2 8 3 7 4 6 5 4 6 3 7 19 8 20 9 18 10 11 11 9 12 10 13
REMARK SMILES IDX 12 14 13 15 15 16 16 17 5 18 17 20 14 22
REMARK H PARENT 5 19 17 21 14 23
REMARK Flexibility Score: inf
ROOT
ATOM      1  C   UNL     1      -9.615 -14.844  -6.578  1.00  0.00     0.044 C 
ATOM      2  C   UNL     1      -9.175 -13.429  -6.342  1.00  0.00    -0.047 A 
ATOM      3  C   UNL     1      -8.537 -12.710  -7.360  1.00  0.00     0.016 A 
ATOM      4  C   UNL     1      -8.154 -11.372  -7.162  1.00  0.00     0.038 A 
ATOM      5  C   UNL     1      -8.420 -10.742  -5.928  1.00  0.00     0.076 A 
ATOM      6  C   UNL     1      -9.090 -11.463  -4.913  1.00  0.00     0.127 A 
ATOM      7  C   UNL     1      -9.464 -12.795  -5.129  1.00  0.00     0.050 A 
ATOM      8  C   UNL     1      -7.972  -9.340  -5.720  1.00  0.00     0.201 C 
ATOM      9  O   UNL     1      -7.867  -8.890  -4.548  1.00  0.00    -0.288 OA
ATOM     10  C   UNL     1      -7.538  -8.512  -6.880  1.00  0.00     0.076 A 
ATOM     11  C   UNL     1      -7.220  -9.169  -8.093  1.00  0.00     0.041 A 
ATOM     12  C   UNL     1      -7.473 -10.622  -8.241  1.00  0.00     0.194 C 
ATOM     13  O   UNL     1      -7.123 -11.218  -9.298  1.00  0.00    -0.289 OA
ATOM     14  C   UNL     1      -6.670  -8.439  -9.160  1.00  0.00     0.059 A 
ATOM     15  C   UNL     1      -6.449  -7.068  -9.044  1.00  0.00     0.120 A 
ATOM     16  C   UNL     1      -6.807  -6.405  -7.869  1.00  0.00     0.093 A 
ATOM     17  C   UNL     1      -7.380  -7.102  -6.801  1.00  0.00     0.131 A 
ENDROOT
BRANCH   6  18
ATOM     18  O   UNL     1      -9.394 -10.856  -3.693  1.00  0.00    -0.507 OA
ATOM     19  H   UNL     1     -10.264 -11.043  -3.207  1.00  0.00     0.293 HD
ENDBRANCH   6  18
BRANCH  17  20
ATOM     20  O   UNL     1      -7.807  -6.348  -5.705  1.00  0.00    -0.507 OA
ATOM     21  H   UNL     1      -8.728  -5.940  -5.629  1.00  0.00     0.293 HD
ENDBRANCH  17  20
BRANCH  15  22
ATOM     22  O   UNL     1      -5.887  -6.370 -10.111  1.00  0.00    -0.508 OA
ATOM     23  H   UNL     1      -6.242  -5.465 -10.398  1.00  0.00     0.293 HD
ENDBRANCH  15  22
TORSDOF 3
ENDMDL
MODEL 7
REMARK VINA RESULT:    -4.179      3.567      5.781
REMARK INTER + INTRA:          -4.545
REMARK INTER:                  -4.545
REMARK INTRA:                   0.000
REMARK UNBOUND:                 0.000
REMARK SMILES Cc1cc(O)c2c(c1)C(=O)c1cc(O)cc(O)c1C2=O
REMARK SMILES IDX 1 1 2 2 8 3 7 4 6 5 4 6 3 7 19 8 20 9 18 10 11 11 9 12 10 13
REMARK SMILES IDX 12 14 13 15 15 16 16 17 5 18 17 20 14 22
REMARK H PARENT 5 19 17 21 14 23
REMARK Flexibility Score: inf
ROOT
ATOM      1  C   UNL     1     -24.101  -7.572  -6.576  1.00  0.00     0.044 C 
ATOM      2  C   UNL     1     -24.074  -9.048  -6.846  1.00  0.00    -0.047 A 
ATOM      3  C   UNL     1     -22.981  -9.624  -7.504  1.00  0.00     0.016 A 
ATOM      4  C   UNL     1     -22.930 -11.011  -7.729  1.00  0.00     0.038 A 
ATOM      5  C   UNL     1     -23.985 -11.834  -7.283  1.00  0.00     0.076 A 
ATOM      6  C   UNL     1     -25.073 -11.251  -6.593  1.00  0.00     0.127 A 
ATOM      7  C   UNL     1     -25.107  -9.868  -6.378  1.00  0.00     0.050 A 
ATOM      8  C   UNL     1     -23.934 -13.292  -7.565  1.00  0.00     0.201 C 
ATOM      9  O   UNL     1     -24.994 -13.972  -7.509  1.00  0.00    -0.288 OA
ATOM     10  C   UNL     1     -22.664 -13.923  -8.023  1.00  0.00     0.076 A 
ATOM     11  C   UNL     1     -21.640 -13.084  -8.523  1.00  0.00     0.041 A 
ATOM     12  C   UNL     1     -21.774 -11.611  -8.433  1.00  0.00     0.194 C 
ATOM     13  O   UNL     1     -20.891 -10.866  -8.942  1.00  0.00    -0.289 OA
ATOM     14  C   UNL     1     -20.490 -13.651  -9.097  1.00  0.00     0.059 A 
ATOM     15  C   UNL     1     -20.339 -15.035  -9.166  1.00  0.00     0.120 A 
ATOM     16  C   UNL     1     -21.323 -15.867  -8.632  1.00  0.00     0.093 A 
ATOM     17  C   UNL     1     -22.465 -15.330  -8.030  1.00  0.00     0.131 A 
ENDROOT
BRANCH   6  18
ATOM     18  O   UNL     1     -26.116 -12.044  -6.113  1.00  0.00    -0.507 OA
ATOM     19  H   UNL     1     -26.020 -13.048  -6.013  1.00  0.00     0.293 HD
ENDBRANCH   6  18
BRANCH  17  20
ATOM     20  O   UNL     1     -23.348 -16.228  -7.425  1.00  0.00    -0.507 OA
ATOM     21  H   UNL     1     -23.442 -16.334  -6.425  1.00  0.00     0.293 HD
ENDBRANCH  17  20
BRANCH  15  22
ATOM     22  O   UNL     1     -19.196 -15.573  -9.756  1.00  0.00    -0.508 OA
ATOM     23  H   UNL     1     -18.708 -15.091 -10.502  1.00  0.00     0.293 HD
ENDBRANCH  15  22
TORSDOF 3
ENDMDL
MODEL 8
REMARK VINA RESULT:    -4.139     17.967     19.201
REMARK INTER + INTRA:          -4.502
REMARK INTER:                  -4.502
REMARK INTRA:                   0.000
REMARK UNBOUND:                 0.000
REMARK SMILES Cc1cc(O)c2c(c1)C(=O)c1cc(O)cc(O)c1C2=O
REMARK SMILES IDX 1 1 2 2 8 3 7 4 6 5 4 6 3 7 19 8 20 9 18 10 11 11 9 12 10 13
REMARK SMILES IDX 12 14 13 15 15 16 16 17 5 18 17 20 14 22
REMARK H PARENT 5 19 17 21 14 23
REMARK Flexibility Score: inf
ROOT
ATOM      1  C   UNL     1     -13.950   0.350   5.982  1.00  0.00     0.044 C 
ATOM      2  C   UNL     1     -12.813   0.202   5.015  1.00  0.00    -0.047 A 
ATOM      3  C   UNL     1     -13.029   0.374   3.642  1.00  0.00     0.016 A 
ATOM      4  C   UNL     1     -11.963   0.274   2.730  1.00  0.00     0.038 A 
ATOM      5  C   UNL     1     -10.661   0.005   3.200  1.00  0.00     0.076 A 
ATOM      6  C   UNL     1     -10.443  -0.139   4.589  1.00  0.00     0.127 A 
ATOM      7  C   UNL     1     -11.516  -0.036   5.483  1.00  0.00     0.050 A 
ATOM      8  C   UNL     1      -9.553  -0.138   2.220  1.00  0.00     0.201 C 
ATOM      9  O   UNL     1      -8.492  -0.723   2.565  1.00  0.00    -0.288 OA
ATOM     10  C   UNL     1      -9.740   0.302   0.809  1.00  0.00     0.076 A 
ATOM     11  C   UNL     1     -11.059   0.510   0.339  1.00  0.00     0.041 A 
ATOM     12  C   UNL     1     -12.203   0.450   1.280  1.00  0.00     0.194 C 
ATOM     13  O   UNL     1     -13.382   0.566   0.846  1.00  0.00    -0.289 OA
ATOM     14  C   UNL     1     -11.282   0.783  -1.021  1.00  0.00     0.059 A 
ATOM     15  C   UNL     1     -10.215   0.867  -1.913  1.00  0.00     0.120 A 
ATOM     16  C   UNL     1      -8.908   0.711  -1.448  1.00  0.00     0.093 A 
ATOM     17  C   UNL     1      -8.655   0.466  -0.095  1.00  0.00     0.131 A 
ENDROOT
BRANCH   6  18
ATOM     18  O   UNL     1      -9.160  -0.375   5.086  1.00  0.00    -0.507 OA
ATOM     19  H   UNL     1      -8.593  -1.147   4.754  1.00  0.00     0.293 HD
ENDBRANCH   6  18
BRANCH  17  20
ATOM     20  O   UNL     1      -7.317   0.429   0.306  1.00  0.00    -0.507 OA
ATOM     21  H   UNL     1      -6.733  -0.391   0.236  1.00  0.00     0.293 HD
ENDBRANCH  17  20
BRANCH  15  22
ATOM     22  O   UNL     1     -10.464   1.122  -3.261  1.00  0.00    -0.508 OA
ATOM     23  H   UNL     1     -10.030   0.572  -3.993  1.00  0.00     0.293 HD
ENDBRANCH  15  22
TORSDOF 3
ENDMDL
