MODEL 1
REMARK VINA RESULT:    -4.763      0.000      0.000
REMARK INTER + INTRA:          -7.008
REMARK INTER:                  -6.434
REMARK INTRA:                  -0.574
REMARK UNBOUND:                -0.574
REMARK SMILES CC(=O)CCC=C(C)CCC=C(C)C
REMARK SMILES IDX 7 1 6 2 8 3 9 4 10 5 11 6 13 7 12 8 14 9 5 10 4 11 2 12 3 13
REMARK SMILES IDX 1 14
REMARK H PARENT
REMARK Flexibility Score: inf
ROOT
ATOM      1  C   UNL     1      -3.880   4.029  10.033  1.00  0.00    -0.077 C 
ATOM      2  C   UNL     1      -2.641   4.205  10.550  1.00  0.00    -0.028 C 
ATOM      3  C   UNL     1      -5.052   4.877  10.467  1.00  0.00     0.039 C 
ENDROOT
BRANCH   1   4
ATOM      4  C   UNL     1      -4.091   2.961   8.982  1.00  0.00     0.034 C 
BRANCH   4   5
ATOM      5  C   UNL     1      -4.648   3.569   7.689  1.00  0.00     0.032 C 
BRANCH   5   6
ATOM      6  C   UNL     1      -5.644   2.643   7.035  1.00  0.00    -0.028 C 
ATOM      7  C   UNL     1      -7.576   3.982   7.880  1.00  0.00     0.039 C 
ATOM      8  C   UNL     1      -6.980   2.823   7.115  1.00  0.00    -0.080 C 
ATOM      9  C   UNL     1      -7.887   1.839   6.424  1.00  0.00     0.039 C 
ENDBRANCH   5   6
ENDBRANCH   4   5
ENDBRANCH   1   4
BRANCH   2  10
ATOM     10  C   UNL     1      -2.299   5.204  11.626  1.00  0.00     0.035 C 
BRANCH  10  11
ATOM     11  C   UNL     1      -0.949   4.869  12.268  1.00  0.00     0.079 C 
BRANCH  11  12
ATOM     12  C   UNL     1      -1.086   4.730  13.760  1.00  0.00     0.130 C 
ATOM     13  O   UNL     1      -0.922   3.640  14.285  1.00  0.00    -0.300 OA
ATOM     14  C   UNL     1      -1.403   5.924  14.608  1.00  0.00     0.087 C 
ENDBRANCH  11  12
ENDBRANCH  10  11
ENDBRANCH   2  10
TORSDOF 6
ENDMDL
MODEL 2
REMARK VINA RESULT:    -4.755      1.184      1.665
REMARK INTER + INTRA:          -6.997
REMARK INTER:                  -6.495
REMARK INTRA:                  -0.502
REMARK UNBOUND:                -0.574
REMARK SMILES CC(=O)CCC=C(C)CCC=C(C)C
REMARK SMILES IDX 7 1 6 2 8 3 9 4 10 5 11 6 13 7 12 8 14 9 5 10 4 11 2 12 3 13
REMARK SMILES IDX 1 14
REMARK H PARENT
REMARK Flexibility Score: inf
ROOT
ATOM      1  C   UNL     1      -2.897   4.854  10.897  1.00  0.00    -0.077 C 
ATOM      2  C   UNL     1      -1.831   4.501  11.653  1.00  0.00    -0.028 C 
ATOM      3  C   UNL     1      -3.363   6.288  10.796  1.00  0.00     0.039 C 
ENDROOT
BRANCH   1   4
ATOM      4  C   UNL     1      -3.633   3.783  10.121  1.00  0.00     0.034 C 
BRANCH   4   5
ATOM      5  C   UNL     1      -4.018   4.287   8.725  1.00  0.00     0.032 C 
BRANCH   5   6
ATOM      6  C   UNL     1      -5.237   3.568   8.201  1.00  0.00    -0.028 C 
ATOM      7  C   UNL     1      -6.769   5.317   9.113  1.00  0.00     0.039 C 
ATOM      8  C   UNL     1      -6.494   4.029   8.372  1.00  0.00    -0.080 C 
ATOM      9  C   UNL     1      -7.641   3.232   7.808  1.00  0.00     0.039 C 
ENDBRANCH   5   6
ENDBRANCH   4   5
ENDBRANCH   1   4
BRANCH   2  10
ATOM     10  C   UNL     1      -1.032   5.457  12.503  1.00  0.00     0.035 C 
BRANCH  10  11
ATOM     11  C   UNL     1      -1.611   5.537  13.919  1.00  0.00     0.079 C 
BRANCH  11  12
ATOM     12  C   UNL     1      -0.916   4.568  14.837  1.00  0.00     0.130 C 
ATOM     13  O   UNL     1      -1.015   3.368  14.638  1.00  0.00    -0.300 OA
ATOM     14  C   UNL     1      -0.086   5.067  15.980  1.00  0.00     0.087 C 
ENDBRANCH  11  12
ENDBRANCH  10  11
ENDBRANCH   2  10
TORSDOF 6
ENDMDL
MODEL 3
REMARK VINA RESULT:    -4.743      6.588      9.619
REMARK INTER + INTRA:          -6.981
REMARK INTER:                  -6.291
REMARK INTRA:                  -0.690
REMARK UNBOUND:                -0.574
REMARK SMILES CC(=O)CCC=C(C)CCC=C(C)C
REMARK SMILES IDX 7 1 6 2 8 3 9 4 10 5 11 6 13 7 12 8 14 9 5 10 4 11 2 12 3 13
REMARK SMILES IDX 1 14
REMARK H PARENT
REMARK Flexibility Score: inf
ROOT
ATOM      1  C   UNL     1      -0.177   3.241  18.437  1.00  0.00    -0.077 C 
ATOM      2  C   UNL     1      -0.090   2.776  19.706  1.00  0.00    -0.028 C 
ATOM      3  C   UNL     1      -0.453   2.322  17.270  1.00  0.00     0.039 C 
ENDROOT
BRANCH   1   4
ATOM      4  C   UNL     1      -0.006   4.723  18.185  1.00  0.00     0.034 C 
BRANCH   4   5
ATOM      5  C   UNL     1       0.337   4.991  16.715  1.00  0.00     0.032 C 
BRANCH   5   6
ATOM      6  C   UNL     1      -0.498   6.118  16.156  1.00  0.00    -0.028 C 
ATOM      7  C   UNL     1      -1.149   4.762  14.161  1.00  0.00     0.039 C 
ATOM      8  C   UNL     1      -1.179   6.023  14.994  1.00  0.00    -0.080 C 
ATOM      9  C   UNL     1      -1.983   7.208  14.527  1.00  0.00     0.039 C 
ENDBRANCH   5   6
ENDBRANCH   4   5
ENDBRANCH   1   4
BRANCH   2  10
ATOM     10  C   UNL     1      -0.203   1.323  20.093  1.00  0.00     0.035 C 
BRANCH  10  11
ATOM     11  C   UNL     1      -1.589   1.022  20.672  1.00  0.00     0.079 C 
BRANCH  11  12
ATOM     12  C   UNL     1      -1.963  -0.417  20.442  1.00  0.00     0.130 C 
ATOM     13  O   UNL     1      -2.573  -1.030  21.304  1.00  0.00    -0.300 OA
ATOM     14  C   UNL     1      -1.611  -1.096  19.154  1.00  0.00     0.087 C 
ENDBRANCH  11  12
ENDBRANCH  10  11
ENDBRANCH   2  10
TORSDOF 6
ENDMDL
MODEL 4
REMARK VINA RESULT:    -4.648      5.345      9.298
REMARK INTER + INTRA:          -6.853
REMARK INTER:                  -5.893
REMARK INTRA:                  -0.960
REMARK UNBOUND:                -0.574
REMARK SMILES CC(=O)CCC=C(C)CCC=C(C)C
REMARK SMILES IDX 7 1 6 2 8 3 9 4 10 5 11 6 13 7 12 8 14 9 5 10 4 11 2 12 3 13
REMARK SMILES IDX 1 14
REMARK H PARENT
REMARK Flexibility Score: inf
ROOT
ATOM      1  C   UNL     1      -0.597   6.545  17.419  1.00  0.00    -0.077 C 
ATOM      2  C   UNL     1      -0.265   5.987  16.232  1.00  0.00    -0.028 C 
ATOM      3  C   UNL     1      -1.885   7.313  17.606  1.00  0.00     0.039 C 
ENDROOT
BRANCH   1   4
ATOM      4  C   UNL     1       0.342   6.384  18.595  1.00  0.00     0.034 C 
BRANCH   4   5
ATOM      5  C   UNL     1       0.818   4.932  18.719  1.00  0.00     0.032 C 
BRANCH   5   6
ATOM      6  C   UNL     1      -0.205   4.080  19.430  1.00  0.00    -0.028 C 
ATOM      7  C   UNL     1      -0.381   2.516  17.491  1.00  0.00     0.039 C 
ATOM      8  C   UNL     1      -0.757   2.978  18.879  1.00  0.00    -0.080 C 
ATOM      9  C   UNL     1      -1.769   2.199  19.677  1.00  0.00     0.039 C 
ENDBRANCH   5   6
ENDBRANCH   4   5
ENDBRANCH   1   4
BRANCH   2  10
ATOM     10  C   UNL     1      -1.088   6.101  14.973  1.00  0.00     0.035 C 
BRANCH  10  11
ATOM     11  C   UNL     1      -1.082   4.779  14.199  1.00  0.00     0.079 C 
BRANCH  11  12
ATOM     12  C   UNL     1      -1.274   5.022  12.727  1.00  0.00     0.130 C 
ATOM     13  O   UNL     1      -1.851   4.189  12.045  1.00  0.00    -0.300 OA
ATOM     14  C   UNL     1      -0.782   6.288  12.095  1.00  0.00     0.087 C 
ENDBRANCH  11  12
ENDBRANCH  10  11
ENDBRANCH   2  10
TORSDOF 6
ENDMDL
MODEL 5
REMARK VINA RESULT:    -4.567      1.510      2.854
REMARK INTER + INTRA:          -6.743
REMARK INTER:                  -5.696
REMARK INTRA:                  -1.047
REMARK UNBOUND:                -0.574
REMARK SMILES CC(=O)CCC=C(C)CCC=C(C)C
REMARK SMILES IDX 7 1 6 2 8 3 9 4 10 5 11 6 13 7 12 8 14 9 5 10 4 11 2 12 3 13
REMARK SMILES IDX 1 14
REMARK H PARENT
REMARK Flexibility Score: inf
ROOT
ATOM      1  C   UNL     1      -4.146   6.815  11.020  1.00  0.00    -0.077 C 
ATOM      2  C   UNL     1      -3.569   6.360  12.156  1.00  0.00    -0.028 C 
ATOM      3  C   UNL     1      -3.335   7.441   9.909  1.00  0.00     0.039 C 
ENDROOT
BRANCH   1   4
ATOM      4  C   UNL     1      -5.644   6.679  10.852  1.00  0.00     0.034 C 
BRANCH   4   5
ATOM      5  C   UNL     1      -6.061   5.204  10.832  1.00  0.00     0.032 C 
BRANCH   5   6
ATOM      6  C   UNL     1      -5.941   4.621   9.444  1.00  0.00    -0.028 C 
ATOM      7  C   UNL     1      -3.869   3.367  10.053  1.00  0.00     0.039 C 
ATOM      8  C   UNL     1      -4.947   3.784   9.080  1.00  0.00    -0.080 C 
ATOM      9  C   UNL     1      -4.922   3.259   7.668  1.00  0.00     0.039 C 
ENDBRANCH   5   6
ENDBRANCH   4   5
ENDBRANCH   1   4
BRANCH   2  10
ATOM     10  C   UNL     1      -2.097   6.465  12.468  1.00  0.00     0.035 C 
BRANCH  10  11
ATOM     11  C   UNL     1      -1.455   5.075  12.531  1.00  0.00     0.079 C 
BRANCH  11  12
ATOM     12  C   UNL     1      -1.095   4.717  13.947  1.00  0.00     0.130 C 
ATOM     13  O   UNL     1      -0.905   3.548  14.247  1.00  0.00    -0.300 OA
ATOM     14  C   UNL     1      -0.946   5.785  14.986  1.00  0.00     0.087 C 
ENDBRANCH  11  12
ENDBRANCH  10  11
ENDBRANCH   2  10
TORSDOF 6
ENDMDL
MODEL 6
REMARK VINA RESULT:    -4.559      2.706      7.148
REMARK INTER + INTRA:          -6.732
REMARK INTER:                  -5.854
REMARK INTRA:                  -0.878
REMARK UNBOUND:                -0.574
REMARK SMILES CC(=O)CCC=C(C)CCC=C(C)C
REMARK SMILES IDX 7 1 6 2 8 3 9 4 10 5 11 6 13 7 12 8 14 9 5 10 4 11 2 12 3 13
REMARK SMILES IDX 1 14
REMARK H PARENT
REMARK Flexibility Score: inf
ROOT
ATOM      1  C   UNL     1      -3.252   5.781  11.136  1.00  0.00    -0.077 C 
ATOM      2  C   UNL     1      -3.002   4.647  10.440  1.00  0.00    -0.028 C 
ATOM      3  C   UNL     1      -4.587   6.031  11.798  1.00  0.00     0.039 C 
ENDROOT
BRANCH   1   4
ATOM      4  C   UNL     1      -2.159   6.819  11.265  1.00  0.00     0.034 C 
BRANCH   4   5
ATOM      5  C   UNL     1      -0.915   6.223  11.934  1.00  0.00     0.032 C 
BRANCH   5   6
ATOM      6  C   UNL     1      -0.803   6.667  13.373  1.00  0.00    -0.028 C 
ATOM      7  C   UNL     1      -0.991   4.318  14.203  1.00  0.00     0.039 C 
ATOM      8  C   UNL     1      -0.836   5.806  14.413  1.00  0.00    -0.080 C 
ATOM      9  C   UNL     1      -0.715   6.355  15.811  1.00  0.00     0.039 C 
ENDBRANCH   5   6
ENDBRANCH   4   5
ENDBRANCH   1   4
BRANCH   2  10
ATOM     10  C   UNL     1      -4.009   3.550  10.203  1.00  0.00     0.035 C 
BRANCH  10  11
ATOM     11  C   UNL     1      -4.031   3.144   8.726  1.00  0.00     0.079 C 
BRANCH  11  12
ATOM     12  C   UNL     1      -5.404   3.334   8.140  1.00  0.00     0.130 C 
ATOM     13  O   UNL     1      -5.764   2.641   7.201  1.00  0.00    -0.300 OA
ATOM     14  C   UNL     1      -6.340   4.353   8.713  1.00  0.00     0.087 C 
ENDBRANCH  11  12
ENDBRANCH  10  11
ENDBRANCH   2  10
TORSDOF 6
ENDMDL
MODEL 7
REMARK VINA RESULT:    -4.552      4.715      7.666
REMARK INTER + INTRA:          -6.723
REMARK INTER:                  -5.865
REMARK INTRA:                  -0.858
REMARK UNBOUND:                -0.574
REMARK SMILES CC(=O)CCC=C(C)CCC=C(C)C
REMARK SMILES IDX 7 1 6 2 8 3 9 4 10 5 11 6 13 7 12 8 14 9 5 10 4 11 2 12 3 13
REMARK SMILES IDX 1 14
REMARK H PARENT
REMARK Flexibility Score: inf
ROOT
ATOM      1  C   UNL     1      -1.189   6.973  16.949  1.00  0.00    -0.077 C 
ATOM      2  C   UNL     1      -0.196   6.085  17.194  1.00  0.00    -0.028 C 
ATOM      3  C   UNL     1      -2.225   7.317  17.993  1.00  0.00     0.039 C 
ENDROOT
BRANCH   1   4
ATOM      4  C   UNL     1      -1.252   7.647  15.596  1.00  0.00     0.034 C 
BRANCH   4   5
ATOM      5  C   UNL     1      -0.187   7.079  14.651  1.00  0.00     0.032 C 
BRANCH   5   6
ATOM      6  C   UNL     1      -0.803   6.600  13.358  1.00  0.00    -0.028 C 
ATOM      7  C   UNL     1      -0.869   4.237  14.163  1.00  0.00     0.039 C 
ATOM      8  C   UNL     1      -1.118   5.308  13.127  1.00  0.00    -0.080 C 
ATOM      9  C   UNL     1      -1.729   4.937  11.801  1.00  0.00     0.039 C 
ENDBRANCH   5   6
ENDBRANCH   4   5
ENDBRANCH   1   4
BRANCH   2  10
ATOM     10  C   UNL     1      -0.037   5.316  18.481  1.00  0.00     0.035 C 
BRANCH  10  11
ATOM     11  C   UNL     1       0.684   3.987  18.234  1.00  0.00     0.079 C 
BRANCH  11  12
ATOM     12  C   UNL     1      -0.275   2.832  18.334  1.00  0.00     0.130 C 
ATOM     13  O   UNL     1      -0.218   1.924  17.519  1.00  0.00    -0.300 OA
ATOM     14  C   UNL     1      -1.285   2.777  19.439  1.00  0.00     0.087 C 
ENDBRANCH  11  12
ENDBRANCH  10  11
ENDBRANCH   2  10
TORSDOF 6
ENDMDL
MODEL 8
REMARK VINA RESULT:    -4.546     10.240     13.930
REMARK INTER + INTRA:          -6.715
REMARK INTER:                  -5.622
REMARK INTRA:                  -1.092
REMARK UNBOUND:                -0.574
REMARK SMILES CC(=O)CCC=C(C)CCC=C(C)C
REMARK SMILES IDX 7 1 6 2 8 3 9 4 10 5 11 6 13 7 12 8 14 9 5 10 4 11 2 12 3 13
REMARK SMILES IDX 1 14
REMARK H PARENT
REMARK Flexibility Score: inf
ROOT
ATOM      1  C   UNL     1     -15.827  -2.277   4.594  1.00  0.00    -0.077 C 
ATOM      2  C   UNL     1     -14.984  -3.329   4.712  1.00  0.00    -0.028 C 
ATOM      3  C   UNL     1     -17.227  -2.310   5.160  1.00  0.00     0.039 C 
ENDROOT
BRANCH   1   4
ATOM      4  C   UNL     1     -15.347  -1.027   3.888  1.00  0.00     0.034 C 
BRANCH   4   5
ATOM      5  C   UNL     1     -13.823  -1.048   3.714  1.00  0.00     0.032 C 
BRANCH   5   6
ATOM      6  C   UNL     1     -13.157  -0.026   4.604  1.00  0.00    -0.028 C 
ATOM      7  C   UNL     1     -12.071  -1.804   5.982  1.00  0.00     0.039 C 
ATOM      8  C   UNL     1     -12.357  -0.361   5.638  1.00  0.00    -0.080 C 
ATOM      9  C   UNL     1     -11.742   0.739   6.463  1.00  0.00     0.039 C 
ENDBRANCH   5   6
ENDBRANCH   4   5
ENDBRANCH   1   4
BRANCH   2  10
ATOM     10  C   UNL     1     -15.344  -4.644   5.356  1.00  0.00     0.035 C 
BRANCH  10  11
ATOM     11  C   UNL     1     -14.449  -4.917   6.569  1.00  0.00     0.079 C 
BRANCH  11  12
ATOM     12  C   UNL     1     -14.968  -4.203   7.787  1.00  0.00     0.130 C 
ATOM     13  O   UNL     1     -14.299  -3.321   8.303  1.00  0.00    -0.300 OA
ATOM     14  C   UNL     1     -16.308  -4.551   8.359  1.00  0.00     0.087 C 
ENDBRANCH  11  12
ENDBRANCH  10  11
ENDBRANCH   2  10
TORSDOF 6
ENDMDL
MODEL 9
REMARK VINA RESULT:    -4.530      5.392      9.905
REMARK INTER + INTRA:          -6.693
REMARK INTER:                  -6.120
REMARK INTRA:                  -0.573
REMARK UNBOUND:                -0.574
REMARK SMILES CC(=O)CCC=C(C)CCC=C(C)C
REMARK SMILES IDX 7 1 6 2 8 3 9 4 10 5 11 6 13 7 12 8 14 9 5 10 4 11 2 12 3 13
REMARK SMILES IDX 1 14
REMARK H PARENT
REMARK Flexibility Score: inf
ROOT
ATOM      1  C   UNL     1      -8.955   1.164   6.508  1.00  0.00    -0.077 C 
ATOM      2  C   UNL     1      -9.862   0.308   5.981  1.00  0.00    -0.028 C 
ATOM      3  C   UNL     1      -9.357   2.250   7.480  1.00  0.00     0.039 C 
ENDROOT
BRANCH   1   4
ATOM      4  C   UNL     1      -7.499   1.021   6.124  1.00  0.00     0.034 C 
BRANCH   4   5
ATOM      5  C   UNL     1      -6.798   2.384   6.119  1.00  0.00     0.032 C 
BRANCH   5   6
ATOM      6  C   UNL     1      -5.616   2.394   7.058  1.00  0.00    -0.028 C 
ATOM      7  C   UNL     1      -6.411   4.480   8.177  1.00  0.00     0.039 C 
ATOM      8  C   UNL     1      -5.431   3.344   7.999  1.00  0.00    -0.080 C 
ATOM      9  C   UNL     1      -4.217   3.259   8.886  1.00  0.00     0.039 C 
ENDBRANCH   5   6
ENDBRANCH   4   5
ENDBRANCH   1   4
BRANCH   2  10
ATOM     10  C   UNL     1     -11.345   0.361   6.249  1.00  0.00     0.035 C 
BRANCH  10  11
ATOM     11  C   UNL     1     -12.002  -0.986   5.934  1.00  0.00     0.079 C 
BRANCH  11  12
ATOM     12  C   UNL     1     -13.449  -0.801   5.567  1.00  0.00     0.130 C 
ATOM     13  O   UNL     1     -14.321  -1.128   6.357  1.00  0.00    -0.300 OA
ATOM     14  C   UNL     1     -13.828  -0.199   4.249  1.00  0.00     0.087 C 
ENDBRANCH  11  12
ENDBRANCH  10  11
ENDBRANCH   2  10
TORSDOF 6
ENDMDL
