MODEL 1
REMARK VINA RESULT:    -6.412      0.000      0.000
REMARK INTER + INTRA:          -7.594
REMARK INTER:                  -7.349
REMARK INTRA:                  -0.245
REMARK UNBOUND:                -0.245
REMARK SMILES O=c1c(-c2ccc(O)cc2)coc2c(O)c(O)ccc12
REMARK SMILES IDX 3 1 11 2 12 3 13 4 20 5 2 6 1 7 19 8 18 9 16 10 14 11 4 12
REMARK SMILES IDX 5 13 6 14 7 15 10 16 9 17 8 18 15 20 17 22
REMARK H PARENT 8 19 15 21 17 23
REMARK Flexibility Score: inf
ROOT
ATOM      1  C   UNL     1     -29.397 -24.823  -2.587  1.00  0.00     0.065 A 
ATOM      2  C   UNL     1     -29.621 -23.554  -2.030  1.00  0.00     0.208 A 
ATOM      3  O   UNL     1     -29.258 -22.453  -2.675  1.00  0.00    -0.459 OA
ATOM      4  C   UNL     1     -28.669 -22.475  -3.867  1.00  0.00     0.183 A 
ATOM      5  C   UNL     1     -28.399 -23.709  -4.501  1.00  0.00     0.069 A 
ATOM      6  C   UNL     1     -28.766 -24.896  -3.843  1.00  0.00     0.200 A 
ATOM      7  O   UNL     1     -28.513 -26.018  -4.364  1.00  0.00    -0.288 OA
ATOM      8  C   UNL     1     -27.771 -23.717  -5.759  1.00  0.00     0.020 A 
ATOM      9  C   UNL     1     -27.421 -22.516  -6.377  1.00  0.00     0.051 A 
ATOM     10  C   UNL     1     -27.687 -21.293  -5.755  1.00  0.00     0.161 A 
ATOM     11  C   UNL     1     -28.313 -21.267  -4.495  1.00  0.00     0.201 A 
ENDROOT
BRANCH   1  12
ATOM     12  C   UNL     1     -29.818 -26.041  -1.848  1.00  0.00    -0.011 A 
ATOM     13  C   UNL     1     -28.880 -26.780  -1.107  1.00  0.00     0.013 A 
ATOM     14  C   UNL     1     -29.276 -27.923  -0.403  1.00  0.00     0.047 A 
ATOM     15  C   UNL     1     -30.612 -28.336  -0.425  1.00  0.00     0.115 A 
ATOM     16  C   UNL     1     -31.161 -26.458  -1.860  1.00  0.00     0.013 A 
ATOM     17  C   UNL     1     -31.554 -27.600  -1.155  1.00  0.00     0.047 A 
BRANCH  15  18
ATOM     18  O   UNL     1     -30.991 -29.475   0.280  1.00  0.00    -0.508 OA
ATOM     19  H   UNL     1     -31.713 -30.096  -0.066  1.00  0.00     0.293 HD
ENDBRANCH  15  18
ENDBRANCH   1  12
BRANCH  11  20
ATOM     20  O   UNL     1     -28.573 -20.040  -3.882  1.00  0.00    -0.502 OA
ATOM     21  H   UNL     1     -28.904 -19.972  -2.928  1.00  0.00     0.293 HD
ENDBRANCH  11  20
BRANCH  10  22
ATOM     22  O   UNL     1     -27.323 -20.113  -6.403  1.00  0.00    -0.504 OA
ATOM     23  H   UNL     1     -27.453 -19.983  -7.400  1.00  0.00     0.293 HD
ENDBRANCH  10  22
TORSDOF 4
ENDMDL
MODEL 2
REMARK VINA RESULT:    -6.231      1.265      2.537
REMARK INTER + INTRA:          -7.387
REMARK INTER:                  -7.134
REMARK INTRA:                  -0.253
REMARK UNBOUND:                -0.245
REMARK SMILES O=c1c(-c2ccc(O)cc2)coc2c(O)c(O)ccc12
REMARK SMILES IDX 3 1 11 2 12 3 13 4 20 5 2 6 1 7 19 8 18 9 16 10 14 11 4 12
REMARK SMILES IDX 5 13 6 14 7 15 10 16 9 17 8 18 15 20 17 22
REMARK H PARENT 8 19 15 21 17 23
REMARK Flexibility Score: inf
ROOT
ATOM      1  C   UNL     1     -29.022 -24.347  -3.054  1.00  0.00     0.065 A 
ATOM      2  C   UNL     1     -28.405 -24.528  -4.301  1.00  0.00     0.208 A 
ATOM      3  O   UNL     1     -28.101 -23.489  -5.069  1.00  0.00    -0.459 OA
ATOM      4  C   UNL     1     -28.355 -22.232  -4.718  1.00  0.00     0.183 A 
ATOM      5  C   UNL     1     -28.979 -21.955  -3.480  1.00  0.00     0.069 A 
ATOM      6  C   UNL     1     -29.320 -23.033  -2.644  1.00  0.00     0.200 A 
ATOM      7  O   UNL     1     -29.906 -22.826  -1.545  1.00  0.00    -0.288 OA
ATOM      8  C   UNL     1     -29.245 -20.622  -3.123  1.00  0.00     0.020 A 
ATOM      9  C   UNL     1     -28.892 -19.580  -3.983  1.00  0.00     0.051 A 
ATOM     10  C   UNL     1     -28.274 -19.849  -5.207  1.00  0.00     0.161 A 
ATOM     11  C   UNL     1     -28.002 -21.177  -5.581  1.00  0.00     0.201 A 
ENDROOT
BRANCH   1  12
ATOM     12  C   UNL     1     -29.347 -25.525  -2.210  1.00  0.00    -0.011 A 
ATOM     13  C   UNL     1     -30.646 -26.062  -2.213  1.00  0.00     0.013 A 
ATOM     14  C   UNL     1     -30.953 -27.177  -1.426  1.00  0.00     0.047 A 
ATOM     15  C   UNL     1     -29.967 -27.772  -0.634  1.00  0.00     0.115 A 
ATOM     16  C   UNL     1     -28.358 -26.132  -1.416  1.00  0.00     0.013 A 
ATOM     17  C   UNL     1     -28.667 -27.247  -0.631  1.00  0.00     0.047 A 
BRANCH  15  18
ATOM     18  O   UNL     1     -30.286 -28.882   0.145  1.00  0.00    -0.508 OA
ATOM     19  H   UNL     1     -29.655 -29.228   0.858  1.00  0.00     0.293 HD
ENDBRANCH  15  18
ENDBRANCH   1  12
BRANCH  11  20
ATOM     20  O   UNL     1     -27.384 -21.435  -6.805  1.00  0.00    -0.502 OA
ATOM     21  H   UNL     1     -27.221 -22.376  -7.141  1.00  0.00     0.293 HD
ENDBRANCH  11  20
BRANCH  10  22
ATOM     22  O   UNL     1     -27.936 -18.783  -6.040  1.00  0.00    -0.504 OA
ATOM     23  H   UNL     1     -28.638 -18.204  -6.487  1.00  0.00     0.293 HD
ENDBRANCH  10  22
TORSDOF 4
ENDMDL
MODEL 3
REMARK VINA RESULT:    -6.122      0.985      2.376
REMARK INTER + INTRA:          -7.261
REMARK INTER:                  -7.001
REMARK INTRA:                  -0.260
REMARK UNBOUND:                -0.245
REMARK SMILES O=c1c(-c2ccc(O)cc2)coc2c(O)c(O)ccc12
REMARK SMILES IDX 3 1 11 2 12 3 13 4 20 5 2 6 1 7 19 8 18 9 16 10 14 11 4 12
REMARK SMILES IDX 5 13 6 14 7 15 10 16 9 17 8 18 15 20 17 22
REMARK H PARENT 8 19 15 21 17 23
REMARK Flexibility Score: inf
ROOT
ATOM      1  C   UNL     1     -29.359 -25.248  -2.767  1.00  0.00     0.065 A 
ATOM      2  C   UNL     1     -28.740 -25.642  -3.963  1.00  0.00     0.208 A 
ATOM      3  O   UNL     1     -28.268 -24.741  -4.816  1.00  0.00    -0.459 OA
ATOM      4  C   UNL     1     -28.348 -23.431  -4.601  1.00  0.00     0.183 A 
ATOM      5  C   UNL     1     -28.961 -22.943  -3.424  1.00  0.00     0.069 A 
ATOM      6  C   UNL     1     -29.476 -23.871  -2.502  1.00  0.00     0.200 A 
ATOM      7  O   UNL     1     -30.058 -23.471  -1.455  1.00  0.00    -0.288 OA
ATOM      8  C   UNL     1     -29.042 -21.556  -3.213  1.00  0.00     0.020 A 
ATOM      9  C   UNL     1     -28.519 -20.669  -4.155  1.00  0.00     0.051 A 
ATOM     10  C   UNL     1     -27.911 -21.147  -5.319  1.00  0.00     0.161 A 
ATOM     11  C   UNL     1     -27.823 -22.532  -5.548  1.00  0.00     0.201 A 
ENDROOT
BRANCH   1  12
ATOM     12  C   UNL     1     -29.873 -26.275  -1.826  1.00  0.00    -0.011 A 
ATOM     13  C   UNL     1     -31.231 -26.641  -1.848  1.00  0.00     0.013 A 
ATOM     14  C   UNL     1     -31.716 -27.615  -0.969  1.00  0.00     0.047 A 
ATOM     15  C   UNL     1     -30.853 -28.238  -0.064  1.00  0.00     0.115 A 
ATOM     16  C   UNL     1     -29.010 -26.912  -0.918  1.00  0.00     0.013 A 
ATOM     17  C   UNL     1     -29.497 -27.886  -0.041  1.00  0.00     0.047 A 
BRANCH  15  18
ATOM     18  O   UNL     1     -31.350 -29.206   0.805  1.00  0.00    -0.508 OA
ATOM     19  H   UNL     1     -30.744 -29.703   1.448  1.00  0.00     0.293 HD
ENDBRANCH  15  18
ENDBRANCH   1  12
BRANCH  11  20
ATOM     20  O   UNL     1     -27.215 -22.999  -6.714  1.00  0.00    -0.502 OA
ATOM     21  H   UNL     1     -27.011 -23.980  -6.862  1.00  0.00     0.293 HD
ENDBRANCH  11  20
BRANCH  10  22
ATOM     22  O   UNL     1     -27.401 -20.231  -6.238  1.00  0.00    -0.504 OA
ATOM     23  H   UNL     1     -27.403 -20.410  -7.236  1.00  0.00     0.293 HD
ENDBRANCH  10  22
TORSDOF 4
ENDMDL
MODEL 4
REMARK VINA RESULT:    -5.935      2.946      5.725
REMARK INTER + INTRA:          -7.047
REMARK INTER:                  -6.771
REMARK INTRA:                  -0.277
REMARK UNBOUND:                -0.245
REMARK SMILES O=c1c(-c2ccc(O)cc2)coc2c(O)c(O)ccc12
REMARK SMILES IDX 3 1 11 2 12 3 13 4 20 5 2 6 1 7 19 8 18 9 16 10 14 11 4 12
REMARK SMILES IDX 5 13 6 14 7 15 10 16 9 17 8 18 15 20 17 22
REMARK H PARENT 8 19 15 21 17 23
REMARK Flexibility Score: inf
ROOT
ATOM      1  C   UNL     1     -29.588 -21.875  -2.463  1.00  0.00     0.065 A 
ATOM      2  C   UNL     1     -29.856 -23.229  -2.209  1.00  0.00     0.208 A 
ATOM      3  O   UNL     1     -29.416 -24.177  -3.027  1.00  0.00    -0.459 OA
ATOM      4  C   UNL     1     -28.707 -23.915  -4.122  1.00  0.00     0.183 A 
ATOM      5  C   UNL     1     -28.396 -22.578  -4.460  1.00  0.00     0.069 A 
ATOM      6  C   UNL     1     -28.851 -21.549  -3.617  1.00  0.00     0.200 A 
ATOM      7  O   UNL     1     -28.618 -20.342  -3.904  1.00  0.00    -0.288 OA
ATOM      8  C   UNL     1     -27.650 -22.316  -5.622  1.00  0.00     0.020 A 
ATOM      9  C   UNL     1     -27.219 -23.367  -6.433  1.00  0.00     0.051 A 
ATOM     10  C   UNL     1     -27.524 -24.690  -6.102  1.00  0.00     0.161 A 
ATOM     11  C   UNL     1     -28.271 -24.971  -4.943  1.00  0.00     0.201 A 
ENDROOT
BRANCH   1  12
ATOM     12  C   UNL     1     -30.086 -20.833  -1.529  1.00  0.00    -0.011 A 
ATOM     13  C   UNL     1     -31.403 -20.354  -1.639  1.00  0.00     0.013 A 
ATOM     14  C   UNL     1     -31.877 -19.379  -0.755  1.00  0.00     0.047 A 
ATOM     15  C   UNL     1     -31.046 -18.877   0.251  1.00  0.00     0.115 A 
ATOM     16  C   UNL     1     -29.259 -20.330  -0.510  1.00  0.00     0.013 A 
ATOM     17  C   UNL     1     -29.735 -19.356   0.373  1.00  0.00     0.047 A 
BRANCH  15  18
ATOM     18  O   UNL     1     -31.532 -17.907   1.125  1.00  0.00    -0.508 OA
ATOM     19  H   UNL     1     -30.924 -17.438   1.786  1.00  0.00     0.293 HD
ENDBRANCH  15  18
ENDBRANCH   1  12
BRANCH  11  20
ATOM     20  O   UNL     1     -28.570 -26.295  -4.622  1.00  0.00    -0.502 OA
ATOM     21  H   UNL     1     -28.197 -27.077  -5.148  1.00  0.00     0.293 HD
ENDBRANCH  11  20
BRANCH  10  22
ATOM     22  O   UNL     1     -27.076 -25.715  -6.936  1.00  0.00    -0.504 OA
ATOM     23  H   UNL     1     -27.065 -25.621  -7.945  1.00  0.00     0.293 HD
ENDBRANCH  10  22
TORSDOF 4
ENDMDL
MODEL 5
REMARK VINA RESULT:    -5.912      9.279     10.883
REMARK INTER + INTRA:          -7.021
REMARK INTER:                  -7.150
REMARK INTRA:                   0.129
REMARK UNBOUND:                -0.245
REMARK SMILES O=c1c(-c2ccc(O)cc2)coc2c(O)c(O)ccc12
REMARK SMILES IDX 3 1 11 2 12 3 13 4 20 5 2 6 1 7 19 8 18 9 16 10 14 11 4 12
REMARK SMILES IDX 5 13 6 14 7 15 10 16 9 17 8 18 15 20 17 22
REMARK H PARENT 8 19 15 21 17 23
REMARK Flexibility Score: inf
ROOT
ATOM      1  C   UNL     1     -30.288 -33.816  -4.104  1.00  0.00     0.065 A 
ATOM      2  C   UNL     1     -30.042 -34.141  -5.447  1.00  0.00     0.208 A 
ATOM      3  O   UNL     1     -28.887 -34.678  -5.818  1.00  0.00    -0.459 OA
ATOM      4  C   UNL     1     -27.903 -34.940  -4.963  1.00  0.00     0.183 A 
ATOM      5  C   UNL     1     -28.061 -34.639  -3.590  1.00  0.00     0.069 A 
ATOM      6  C   UNL     1     -29.270 -34.064  -3.164  1.00  0.00     0.200 A 
ATOM      7  O   UNL     1     -29.435 -33.754  -1.951  1.00  0.00    -0.288 OA
ATOM      8  C   UNL     1     -27.011 -34.917  -2.698  1.00  0.00     0.020 A 
ATOM      9  C   UNL     1     -25.825 -35.486  -3.163  1.00  0.00     0.051 A 
ATOM     10  C   UNL     1     -25.665 -35.786  -4.519  1.00  0.00     0.161 A 
ATOM     11  C   UNL     1     -26.705 -35.513  -5.426  1.00  0.00     0.201 A 
ENDROOT
BRANCH   1  12
ATOM     12  C   UNL     1     -31.591 -33.221  -3.712  1.00  0.00    -0.011 A 
ATOM     13  C   UNL     1     -32.273 -33.691  -2.576  1.00  0.00     0.013 A 
ATOM     14  C   UNL     1     -33.496 -33.126  -2.200  1.00  0.00     0.047 A 
ATOM     15  C   UNL     1     -34.049 -32.083  -2.948  1.00  0.00     0.115 A 
ATOM     16  C   UNL     1     -32.149 -32.165  -4.455  1.00  0.00     0.013 A 
ATOM     17  C   UNL     1     -33.372 -31.602  -4.076  1.00  0.00     0.047 A 
BRANCH  15  18
ATOM     18  O   UNL     1     -35.267 -31.530  -2.561  1.00  0.00    -0.508 OA
ATOM     19  H   UNL     1     -35.861 -31.042  -3.222  1.00  0.00     0.293 HD
ENDBRANCH  15  18
ENDBRANCH   1  12
BRANCH  11  20
ATOM     20  O   UNL     1     -26.535 -35.816  -6.778  1.00  0.00    -0.502 OA
ATOM     21  H   UNL     1     -25.786 -35.418  -7.331  1.00  0.00     0.293 HD
ENDBRANCH  11  20
BRANCH  10  22
ATOM     22  O   UNL     1     -24.466 -36.355  -4.948  1.00  0.00    -0.504 OA
ATOM     23  H   UNL     1     -24.057 -36.135  -5.849  1.00  0.00     0.293 HD
ENDBRANCH  10  22
TORSDOF 4
ENDMDL
MODEL 6
REMARK VINA RESULT:    -5.801      1.403      7.089
REMARK INTER + INTRA:          -6.894
REMARK INTER:                  -7.443
REMARK INTRA:                   0.549
REMARK UNBOUND:                -0.245
REMARK SMILES O=c1c(-c2ccc(O)cc2)coc2c(O)c(O)ccc12
REMARK SMILES IDX 3 1 11 2 12 3 13 4 20 5 2 6 1 7 19 8 18 9 16 10 14 11 4 12
REMARK SMILES IDX 5 13 6 14 7 15 10 16 9 17 8 18 15 20 17 22
REMARK H PARENT 8 19 15 21 17 23
REMARK Flexibility Score: inf
ROOT
ATOM      1  C   UNL     1     -29.037 -23.942  -3.525  1.00  0.00     0.065 A 
ATOM      2  C   UNL     1     -28.890 -25.330  -3.674  1.00  0.00     0.208 A 
ATOM      3  O   UNL     1     -29.440 -26.172  -2.809  1.00  0.00    -0.459 OA
ATOM      4  C   UNL     1     -30.154 -25.768  -1.762  1.00  0.00     0.183 A 
ATOM      5  C   UNL     1     -30.351 -24.387  -1.530  1.00  0.00     0.069 A 
ATOM      6  C   UNL     1     -29.776 -23.468  -2.424  1.00  0.00     0.200 A 
ATOM      7  O   UNL     1     -29.904 -22.226  -2.231  1.00  0.00    -0.288 OA
ATOM      8  C   UNL     1     -31.104 -23.974  -0.417  1.00  0.00     0.020 A 
ATOM      9  C   UNL     1     -31.656 -24.920   0.448  1.00  0.00     0.051 A 
ATOM     10  C   UNL     1     -31.465 -26.286   0.221  1.00  0.00     0.161 A 
ATOM     11  C   UNL     1     -30.713 -26.717  -0.886  1.00  0.00     0.201 A 
ENDROOT
BRANCH   1  12
ATOM     12  C   UNL     1     -28.416 -23.021  -4.510  1.00  0.00    -0.011 A 
ATOM     13  C   UNL     1     -27.663 -23.531  -5.581  1.00  0.00     0.013 A 
ATOM     14  C   UNL     1     -27.084 -22.666  -6.516  1.00  0.00     0.047 A 
ATOM     15  C   UNL     1     -27.256 -21.284  -6.395  1.00  0.00     0.115 A 
ATOM     16  C   UNL     1     -28.590 -21.630  -4.399  1.00  0.00     0.013 A 
ATOM     17  C   UNL     1     -28.011 -20.767  -5.335  1.00  0.00     0.047 A 
BRANCH  15  18
ATOM     18  O   UNL     1     -26.674 -20.434  -7.333  1.00  0.00    -0.508 OA
ATOM     19  H   UNL     1     -26.503 -19.456  -7.127  1.00  0.00     0.293 HD
ENDBRANCH  15  18
ENDBRANCH   1  12
BRANCH  11  20
ATOM     20  O   UNL     1     -30.528 -28.083  -1.103  1.00  0.00    -0.502 OA
ATOM     21  H   UNL     1     -30.066 -28.442  -1.929  1.00  0.00     0.293 HD
ENDBRANCH  11  20
BRANCH  10  22
ATOM     22  O   UNL     1     -32.032 -27.202   1.108  1.00  0.00    -0.504 OA
ATOM     23  H   UNL     1     -33.034 -27.281   1.234  1.00  0.00     0.293 HD
ENDBRANCH  10  22
TORSDOF 4
ENDMDL
MODEL 7
REMARK VINA RESULT:    -5.640      9.086     10.862
REMARK INTER + INTRA:          -6.709
REMARK INTER:                  -6.543
REMARK INTRA:                  -0.167
REMARK UNBOUND:                -0.245
REMARK SMILES O=c1c(-c2ccc(O)cc2)coc2c(O)c(O)ccc12
REMARK SMILES IDX 3 1 11 2 12 3 13 4 20 5 2 6 1 7 19 8 18 9 16 10 14 11 4 12
REMARK SMILES IDX 5 13 6 14 7 15 10 16 9 17 8 18 15 20 17 22
REMARK H PARENT 8 19 15 21 17 23
REMARK Flexibility Score: inf
ROOT
ATOM      1  C   UNL     1     -30.538 -34.175  -3.688  1.00  0.00     0.065 A 
ATOM      2  C   UNL     1     -31.002 -33.310  -4.692  1.00  0.00     0.208 A 
ATOM      3  O   UNL     1     -32.030 -32.500  -4.473  1.00  0.00    -0.459 OA
ATOM      4  C   UNL     1     -32.678 -32.453  -3.312  1.00  0.00     0.183 A 
ATOM      5  C   UNL     1     -32.284 -33.294  -2.246  1.00  0.00     0.069 A 
ATOM      6  C   UNL     1     -31.202 -34.168  -2.447  1.00  0.00     0.200 A 
ATOM      7  O   UNL     1     -30.841 -34.955  -1.528  1.00  0.00    -0.288 OA
ATOM      8  C   UNL     1     -32.982 -33.236  -1.027  1.00  0.00     0.020 A 
ATOM      9  C   UNL     1     -34.052 -32.355  -0.871  1.00  0.00     0.051 A 
ATOM     10  C   UNL     1     -34.445 -31.521  -1.922  1.00  0.00     0.161 A 
ATOM     11  C   UNL     1     -33.759 -31.567  -3.149  1.00  0.00     0.201 A 
ENDROOT
BRANCH   1  12
ATOM     12  C   UNL     1     -29.382 -35.068  -3.956  1.00  0.00    -0.011 A 
ATOM     13  C   UNL     1     -29.573 -36.455  -4.088  1.00  0.00     0.013 A 
ATOM     14  C   UNL     1     -28.487 -37.297  -4.350  1.00  0.00     0.047 A 
ATOM     15  C   UNL     1     -27.202 -36.766  -4.487  1.00  0.00     0.115 A 
ATOM     16  C   UNL     1     -28.087 -34.540  -4.103  1.00  0.00     0.013 A 
ATOM     17  C   UNL     1     -27.004 -35.384  -4.365  1.00  0.00     0.047 A 
BRANCH  15  18
ATOM     18  O   UNL     1     -26.130 -37.616  -4.747  1.00  0.00    -0.508 OA
ATOM     19  H   UNL     1     -26.139 -38.254  -5.535  1.00  0.00     0.293 HD
ENDBRANCH  15  18
ENDBRANCH   1  12
BRANCH  11  20
ATOM     20  O   UNL     1     -34.160 -30.730  -4.192  1.00  0.00    -0.502 OA
ATOM     21  H   UNL     1     -35.017 -30.883  -4.709  1.00  0.00     0.293 HD
ENDBRANCH  11  20
BRANCH  10  22
ATOM     22  O   UNL     1     -35.519 -30.653  -1.728  1.00  0.00    -0.504 OA
ATOM     23  H   UNL     1     -35.755 -30.282  -0.815  1.00  0.00     0.293 HD
ENDBRANCH  10  22
TORSDOF 4
ENDMDL
MODEL 8
REMARK VINA RESULT:    -5.545      9.370     10.706
REMARK INTER + INTRA:          -6.600
REMARK INTER:                  -6.458
REMARK INTRA:                  -0.142
REMARK UNBOUND:                -0.245
REMARK SMILES O=c1c(-c2ccc(O)cc2)coc2c(O)c(O)ccc12
REMARK SMILES IDX 3 1 11 2 12 3 13 4 20 5 2 6 1 7 19 8 18 9 16 10 14 11 4 12
REMARK SMILES IDX 5 13 6 14 7 15 10 16 9 17 8 18 15 20 17 22
REMARK H PARENT 8 19 15 21 17 23
REMARK Flexibility Score: inf
ROOT
ATOM      1  C   UNL     1     -31.080 -34.035  -2.807  1.00  0.00     0.065 A 
ATOM      2  C   UNL     1     -31.067 -33.965  -1.405  1.00  0.00     0.208 A 
ATOM      3  O   UNL     1     -31.961 -33.235  -0.750  1.00  0.00    -0.459 OA
ATOM      4  C   UNL     1     -32.911 -32.534  -1.363  1.00  0.00     0.183 A 
ATOM      5  C   UNL     1     -32.996 -32.542  -2.775  1.00  0.00     0.069 A 
ATOM      6  C   UNL     1     -32.061 -33.300  -3.499  1.00  0.00     0.200 A 
ATOM      7  O   UNL     1     -32.087 -33.306  -4.762  1.00  0.00    -0.288 OA
ATOM      8  C   UNL     1     -34.002 -31.793  -3.409  1.00  0.00     0.020 A 
ATOM      9  C   UNL     1     -34.910 -31.051  -2.652  1.00  0.00     0.051 A 
ATOM     10  C   UNL     1     -34.830 -31.042  -1.257  1.00  0.00     0.161 A 
ATOM     11  C   UNL     1     -33.829 -31.784  -0.605  1.00  0.00     0.201 A 
ENDROOT
BRANCH   1  12
ATOM     12  C   UNL     1     -30.072 -34.863  -3.516  1.00  0.00    -0.011 A 
ATOM     13  C   UNL     1     -29.071 -34.252  -4.291  1.00  0.00     0.013 A 
ATOM     14  C   UNL     1     -28.115 -35.030  -4.953  1.00  0.00     0.047 A 
ATOM     15  C   UNL     1     -28.143 -36.424  -4.844  1.00  0.00     0.115 A 
ATOM     16  C   UNL     1     -30.090 -36.265  -3.406  1.00  0.00     0.013 A 
ATOM     17  C   UNL     1     -29.133 -37.040  -4.068  1.00  0.00     0.047 A 
BRANCH  15  18
ATOM     18  O   UNL     1     -27.185 -37.185  -5.509  1.00  0.00    -0.508 OA
ATOM     19  H   UNL     1     -27.200 -38.198  -5.479  1.00  0.00     0.293 HD
ENDBRANCH  15  18
ENDBRANCH   1  12
BRANCH  11  20
ATOM     20  O   UNL     1     -33.758 -31.767   0.788  1.00  0.00    -0.502 OA
ATOM     21  H   UNL     1     -33.743 -30.904   1.319  1.00  0.00     0.293 HD
ENDBRANCH  11  20
BRANCH  10  22
ATOM     22  O   UNL     1     -35.755 -30.289  -0.534  1.00  0.00    -0.504 OA
ATOM     23  H   UNL     1     -36.298 -29.547  -0.961  1.00  0.00     0.293 HD
ENDBRANCH  10  22
TORSDOF 4
ENDMDL
MODEL 9
REMARK VINA RESULT:    -4.477      8.815     10.295
REMARK INTER + INTRA:          -5.377
REMARK INTER:                  -5.100
REMARK INTRA:                  -0.277
REMARK UNBOUND:                -0.245
REMARK SMILES O=c1c(-c2ccc(O)cc2)coc2c(O)c(O)ccc12
REMARK SMILES IDX 3 1 11 2 12 3 13 4 20 5 2 6 1 7 19 8 18 9 16 10 14 11 4 12
REMARK SMILES IDX 5 13 6 14 7 15 10 16 9 17 8 18 15 20 17 22
REMARK H PARENT 8 19 15 21 17 23
REMARK Flexibility Score: inf
ROOT
ATOM      1  C   UNL     1     -32.937 -32.364  -2.114  1.00  0.00     0.065 A 
ATOM      2  C   UNL     1     -33.039 -32.320  -3.513  1.00  0.00     0.208 A 
ATOM      3  O   UNL     1     -32.186 -32.987  -4.280  1.00  0.00    -0.459 OA
ATOM      4  C   UNL     1     -31.197 -33.727  -3.787  1.00  0.00     0.183 A 
ATOM      5  C   UNL     1     -31.015 -33.824  -2.389  1.00  0.00     0.069 A 
ATOM      6  C   UNL     1     -31.898 -33.125  -1.547  1.00  0.00     0.200 A 
ATOM      7  O   UNL     1     -31.748 -33.164  -0.294  1.00  0.00    -0.288 OA
ATOM      8  C   UNL     1     -29.962 -34.605  -1.882  1.00  0.00     0.020 A 
ATOM      9  C   UNL     1     -29.106 -35.282  -2.753  1.00  0.00     0.051 A 
ATOM     10  C   UNL     1     -29.283 -35.189  -4.136  1.00  0.00     0.161 A 
ATOM     11  C   UNL     1     -30.330 -34.410  -4.660  1.00  0.00     0.201 A 
ENDROOT
BRANCH   1  12
ATOM     12  C   UNL     1     -33.908 -31.614  -1.277  1.00  0.00    -0.011 A 
ATOM     13  C   UNL     1     -35.053 -32.255  -0.772  1.00  0.00     0.013 A 
ATOM     14  C   UNL     1     -35.964 -31.552   0.024  1.00  0.00     0.047 A 
ATOM     15  C   UNL     1     -35.740 -30.207   0.331  1.00  0.00     0.115 A 
ATOM     16  C   UNL     1     -33.685 -30.262  -0.958  1.00  0.00     0.013 A 
ATOM     17  C   UNL     1     -34.597 -29.563  -0.161  1.00  0.00     0.047 A 
BRANCH  15  18
ATOM     18  O   UNL     1     -36.655 -29.521   1.125  1.00  0.00    -0.508 OA
ATOM     19  H   UNL     1     -36.928 -28.568   0.916  1.00  0.00     0.293 HD
ENDBRANCH  15  18
ENDBRANCH   1  12
BRANCH  11  20
ATOM     20  O   UNL     1     -30.497 -34.324  -6.043  1.00  0.00    -0.502 OA
ATOM     21  H   UNL     1     -29.928 -34.856  -6.691  1.00  0.00     0.293 HD
ENDBRANCH  11  20
BRANCH  10  22
ATOM     22  O   UNL     1     -28.408 -35.879  -4.975  1.00  0.00    -0.504 OA
ATOM     23  H   UNL     1     -28.625 -36.798  -5.342  1.00  0.00     0.293 HD
ENDBRANCH  10  22
TORSDOF 4
ENDMDL
