MODEL 1
REMARK VINA RESULT:    -4.687      0.000      0.000
REMARK INTER + INTRA:          -4.687
REMARK INTER:                  -4.687
REMARK INTRA:                   0.000
REMARK UNBOUND:                 0.000
REMARK SMILES O=c1ccc2ccc3occc3c2o1
REMARK SMILES IDX 6 1 7 2 8 3 12 4 11 5 10 6 9 7 13 8 5 9 4 10 3 11 2 12 1 13
REMARK SMILES IDX 14 14
REMARK H PARENT
REMARK Flexibility Score: inf
ROOT
ATOM      1  C   UNL     1      24.020   6.826  24.856  1.00  0.00     0.016 A 
ATOM      2  C   UNL     1      23.183   6.316  25.868  1.00  0.00     0.048 A 
ATOM      3  C   UNL     1      22.975   4.937  25.913  1.00  0.00     0.137 A 
ATOM      4  C   UNL     1      23.557   4.088  25.010  1.00  0.00     0.064 A 
ATOM      5  C   UNL     1      23.148   2.816  25.337  1.00  0.00     0.054 A 
ATOM      6  C   UNL     1      22.323   2.987  26.444  1.00  0.00     0.196 A 
ATOM      7  O   UNL     1      22.240   4.267  26.764  1.00  0.00    -0.464 OA
ATOM      8  C   UNL     1      24.391   4.554  23.996  1.00  0.00     0.149 A 
ATOM      9  C   UNL     1      24.625   5.951  23.921  1.00  0.00     0.018 A 
ATOM     10  C   UNL     1      25.460   6.425  22.906  1.00  0.00     0.019 A 
ATOM     11  C   UNL     1      26.031   5.519  22.010  1.00  0.00     0.094 A 
ATOM     12  C   UNL     1      25.752   4.154  22.149  1.00  0.00     0.336 A 
ATOM     13  O   UNL     1      26.260   3.326  21.348  1.00  0.00    -0.246 OA
ATOM     14  O   UNL     1      24.954   3.724  23.123  1.00  0.00    -0.422 OA
ENDROOT
TORSDOF 0
ENDMDL
MODEL 2
REMARK VINA RESULT:    -4.246      2.110      3.503
REMARK INTER + INTRA:          -4.246
REMARK INTER:                  -4.246
REMARK INTRA:                   0.000
REMARK UNBOUND:                 0.000
REMARK SMILES O=c1ccc2ccc3occc3c2o1
REMARK SMILES IDX 6 1 7 2 8 3 12 4 11 5 10 6 9 7 13 8 5 9 4 10 3 11 2 12 1 13
REMARK SMILES IDX 14 14
REMARK H PARENT
REMARK Flexibility Score: inf
ROOT
ATOM      1  C   UNL     1      21.302   4.112  27.213  1.00  0.00     0.016 A 
ATOM      2  C   UNL     1      21.335   3.247  28.324  1.00  0.00     0.048 A 
ATOM      3  C   UNL     1      22.349   2.291  28.380  1.00  0.00     0.137 A 
ATOM      4  C   UNL     1      23.294   2.179  27.395  1.00  0.00     0.064 A 
ATOM      5  C   UNL     1      24.132   1.151  27.760  1.00  0.00     0.054 A 
ATOM      6  C   UNL     1      23.623   0.698  28.973  1.00  0.00     0.196 A 
ATOM      7  O   UNL     1      22.557   1.399  29.317  1.00  0.00    -0.464 OA
ATOM      8  C   UNL     1      23.295   3.016  26.281  1.00  0.00     0.149 A 
ATOM      9  C   UNL     1      22.278   4.000  26.192  1.00  0.00     0.018 A 
ATOM     10  C   UNL     1      22.273   4.842  25.076  1.00  0.00     0.019 A 
ATOM     11  C   UNL     1      23.258   4.690  24.099  1.00  0.00     0.094 A 
ATOM     12  C   UNL     1      24.230   3.694  24.258  1.00  0.00     0.336 A 
ATOM     13  O   UNL     1      25.124   3.545  23.385  1.00  0.00    -0.246 OA
ATOM     14  O   UNL     1      24.216   2.902  25.328  1.00  0.00    -0.422 OA
ENDROOT
TORSDOF 0
ENDMDL
MODEL 3
REMARK VINA RESULT:    -4.170      2.298      5.156
REMARK INTER + INTRA:          -4.170
REMARK INTER:                  -4.170
REMARK INTRA:                   0.000
REMARK UNBOUND:                 0.000
REMARK SMILES O=c1ccc2ccc3occc3c2o1
REMARK SMILES IDX 6 1 7 2 8 3 12 4 11 5 10 6 9 7 13 8 5 9 4 10 3 11 2 12 1 13
REMARK SMILES IDX 14 14
REMARK H PARENT
REMARK Flexibility Score: inf
ROOT
ATOM      1  C   UNL     1      21.283   4.269  27.013  1.00  0.00     0.016 A 
ATOM      2  C   UNL     1      21.673   4.959  25.849  1.00  0.00     0.048 A 
ATOM      3  C   UNL     1      22.793   4.498  25.158  1.00  0.00     0.137 A 
ATOM      4  C   UNL     1      23.508   3.410  25.583  1.00  0.00     0.064 A 
ATOM      5  C   UNL     1      24.535   3.231  24.684  1.00  0.00     0.054 A 
ATOM      6  C   UNL     1      24.367   4.251  23.753  1.00  0.00     0.196 A 
ATOM      7  O   UNL     1      23.317   4.992  24.064  1.00  0.00    -0.464 OA
ATOM      8  C   UNL     1      23.154   2.701  26.729  1.00  0.00     0.149 A 
ATOM      9  C   UNL     1      22.019   3.142  27.455  1.00  0.00     0.018 A 
ATOM     10  C   UNL     1      21.659   2.435  28.606  1.00  0.00     0.019 A 
ATOM     11  C   UNL     1      22.419   1.331  28.998  1.00  0.00     0.094 A 
ATOM     12  C   UNL     1      23.527   0.958  28.228  1.00  0.00     0.336 A 
ATOM     13  O   UNL     1      24.222  -0.035  28.568  1.00  0.00    -0.246 OA
ATOM     14  O   UNL     1      23.852   1.645  27.135  1.00  0.00    -0.422 OA
ENDROOT
TORSDOF 0
ENDMDL
MODEL 4
REMARK VINA RESULT:    -4.157      2.995      4.604
REMARK INTER + INTRA:          -4.157
REMARK INTER:                  -4.157
REMARK INTRA:                   0.000
REMARK UNBOUND:                 0.000
REMARK SMILES O=c1ccc2ccc3occc3c2o1
REMARK SMILES IDX 6 1 7 2 8 3 12 4 11 5 10 6 9 7 13 8 5 9 4 10 3 11 2 12 1 13
REMARK SMILES IDX 14 14
REMARK H PARENT
REMARK Flexibility Score: inf
ROOT
ATOM      1  C   UNL     1      23.857   4.069  24.791  1.00  0.00     0.016 A 
ATOM      2  C   UNL     1      24.438   3.000  25.500  1.00  0.00     0.048 A 
ATOM      3  C   UNL     1      23.743   2.485  26.594  1.00  0.00     0.137 A 
ATOM      4  C   UNL     1      22.532   2.989  26.985  1.00  0.00     0.064 A 
ATOM      5  C   UNL     1      22.131   2.262  28.082  1.00  0.00     0.054 A 
ATOM      6  C   UNL     1      23.156   1.343  28.286  1.00  0.00     0.196 A 
ATOM      7  O   UNL     1      24.105   1.501  27.381  1.00  0.00    -0.464 OA
ATOM      8  C   UNL     1      21.925   4.045  26.309  1.00  0.00     0.149 A 
ATOM      9  C   UNL     1      22.604   4.593  25.191  1.00  0.00     0.018 A 
ATOM     10  C   UNL     1      22.000   5.653  24.509  1.00  0.00     0.019 A 
ATOM     11  C   UNL     1      20.763   6.132  24.945  1.00  0.00     0.094 A 
ATOM     12  C   UNL     1      20.155   5.539  26.058  1.00  0.00     0.336 A 
ATOM     13  O   UNL     1      19.040   5.960  26.463  1.00  0.00    -0.246 OA
ATOM     14  O   UNL     1      20.748   4.530  26.693  1.00  0.00    -0.422 OA
ENDROOT
TORSDOF 0
ENDMDL
MODEL 5
REMARK VINA RESULT:    -4.154     10.256     13.038
REMARK INTER + INTRA:          -4.154
REMARK INTER:                  -4.154
REMARK INTRA:                   0.000
REMARK UNBOUND:                 0.000
REMARK SMILES O=c1ccc2ccc3occc3c2o1
REMARK SMILES IDX 6 1 7 2 8 3 12 4 11 5 10 6 9 7 13 8 5 9 4 10 3 11 2 12 1 13
REMARK SMILES IDX 14 14
REMARK H PARENT
REMARK Flexibility Score: inf
ROOT
ATOM      1  C   UNL     1      15.692  -3.775  28.709  1.00  0.00     0.016 A 
ATOM      2  C   UNL     1      16.714  -2.839  28.965  1.00  0.00     0.048 A 
ATOM      3  C   UNL     1      18.032  -3.224  28.720  1.00  0.00     0.137 A 
ATOM      4  C   UNL     1      18.345  -4.470  28.247  1.00  0.00     0.064 A 
ATOM      5  C   UNL     1      19.715  -4.516  28.121  1.00  0.00     0.054 A 
ATOM      6  C   UNL     1      20.147  -3.262  28.538  1.00  0.00     0.196 A 
ATOM      7  O   UNL     1      19.117  -2.512  28.891  1.00  0.00    -0.464 OA
ATOM      8  C   UNL     1      17.364  -5.423  27.982  1.00  0.00     0.149 A 
ATOM      9  C   UNL     1      16.013  -5.065  28.219  1.00  0.00     0.018 A 
ATOM     10  C   UNL     1      15.024  -6.017  27.955  1.00  0.00     0.019 A 
ATOM     11  C   UNL     1      15.394  -7.274  27.473  1.00  0.00     0.094 A 
ATOM     12  C   UNL     1      16.750  -7.552  27.265  1.00  0.00     0.336 A 
ATOM     13  O   UNL     1      17.099  -8.681  26.830  1.00  0.00    -0.246 OA
ATOM     14  O   UNL     1      17.676  -6.631  27.522  1.00  0.00    -0.422 OA
ENDROOT
TORSDOF 0
ENDMDL
MODEL 6
REMARK VINA RESULT:    -4.066      2.801      5.396
REMARK INTER + INTRA:          -4.066
REMARK INTER:                  -4.066
REMARK INTRA:                   0.000
REMARK UNBOUND:                 0.000
REMARK SMILES O=c1ccc2ccc3occc3c2o1
REMARK SMILES IDX 6 1 7 2 8 3 12 4 11 5 10 6 9 7 13 8 5 9 4 10 3 11 2 12 1 13
REMARK SMILES IDX 14 14
REMARK H PARENT
REMARK Flexibility Score: inf
ROOT
ATOM      1  C   UNL     1      24.353   2.985  25.536  1.00  0.00     0.016 A 
ATOM      2  C   UNL     1      23.807   3.983  24.705  1.00  0.00     0.048 A 
ATOM      3  C   UNL     1      22.548   4.488  25.027  1.00  0.00     0.137 A 
ATOM      4  C   UNL     1      21.845   4.038  26.113  1.00  0.00     0.064 A 
ATOM      5  C   UNL     1      20.659   4.737  26.138  1.00  0.00     0.054 A 
ATOM      6  C   UNL     1      20.728   5.583  25.036  1.00  0.00     0.196 A 
ATOM      7  O   UNL     1      21.869   5.410  24.391  1.00  0.00    -0.464 OA
ATOM      8  C   UNL     1      22.350   3.053  26.958  1.00  0.00     0.149 A 
ATOM      9  C   UNL     1      23.629   2.518  26.660  1.00  0.00     0.018 A 
ATOM     10  C   UNL     1      24.141   1.529  27.504  1.00  0.00     0.019 A 
ATOM     11  C   UNL     1      23.387   1.104  28.600  1.00  0.00     0.094 A 
ATOM     12  C   UNL     1      22.131   1.681  28.827  1.00  0.00     0.336 A 
ATOM     13  O   UNL     1      21.439   1.308  29.811  1.00  0.00    -0.246 OA
ATOM     14  O   UNL     1      21.662   2.622  28.011  1.00  0.00    -0.422 OA
ENDROOT
TORSDOF 0
ENDMDL
MODEL 7
REMARK VINA RESULT:    -4.009     14.448     15.924
REMARK INTER + INTRA:          -4.009
REMARK INTER:                  -4.009
REMARK INTRA:                   0.000
REMARK UNBOUND:                 0.000
REMARK SMILES O=c1ccc2ccc3occc3c2o1
REMARK SMILES IDX 6 1 7 2 8 3 12 4 11 5 10 6 9 7 13 8 5 9 4 10 3 11 2 12 1 13
REMARK SMILES IDX 14 14
REMARK H PARENT
REMARK Flexibility Score: inf
ROOT
ATOM      1  C   UNL     1      16.075  -7.219  25.438  1.00  0.00     0.016 A 
ATOM      2  C   UNL     1      16.430  -6.793  26.733  1.00  0.00     0.048 A 
ATOM      3  C   UNL     1      17.044  -7.715  27.580  1.00  0.00     0.137 A 
ATOM      4  C   UNL     1      17.302  -9.001  27.186  1.00  0.00     0.064 A 
ATOM      5  C   UNL     1      17.904  -9.632  28.250  1.00  0.00     0.054 A 
ATOM      6  C   UNL     1      17.972  -8.658  29.242  1.00  0.00     0.196 A 
ATOM      7  O   UNL     1      17.448  -7.524  28.811  1.00  0.00    -0.464 OA
ATOM      8  C   UNL     1      16.966  -9.460  25.914  1.00  0.00     0.149 A 
ATOM      9  C   UNL     1      16.341  -8.548  25.025  1.00  0.00     0.018 A 
ATOM     10  C   UNL     1      16.001  -9.003  23.748  1.00  0.00     0.019 A 
ATOM     11  C   UNL     1      16.285 -10.322  23.392  1.00  0.00     0.094 A 
ATOM     12  C   UNL     1      16.905 -11.163  24.326  1.00  0.00     0.336 A 
ATOM     13  O   UNL     1      17.167 -12.355  24.020  1.00  0.00    -0.246 OA
ATOM     14  O   UNL     1      17.220 -10.710  25.537  1.00  0.00    -0.422 OA
ENDROOT
TORSDOF 0
ENDMDL
MODEL 8
REMARK VINA RESULT:    -3.965      2.239      4.841
REMARK INTER + INTRA:          -3.965
REMARK INTER:                  -3.965
REMARK INTRA:                   0.000
REMARK UNBOUND:                 0.000
REMARK SMILES O=c1ccc2ccc3occc3c2o1
REMARK SMILES IDX 6 1 7 2 8 3 12 4 11 5 10 6 9 7 13 8 5 9 4 10 3 11 2 12 1 13
REMARK SMILES IDX 14 14
REMARK H PARENT
REMARK Flexibility Score: inf
ROOT
ATOM      1  C   UNL     1      23.525   4.326  24.095  1.00  0.00     0.016 A 
ATOM      2  C   UNL     1      24.372   5.405  23.772  1.00  0.00     0.048 A 
ATOM      3  C   UNL     1      25.226   5.887  24.763  1.00  0.00     0.137 A 
ATOM      4  C   UNL     1      25.255   5.345  26.020  1.00  0.00     0.064 A 
ATOM      5  C   UNL     1      26.195   6.049  26.737  1.00  0.00     0.054 A 
ATOM      6  C   UNL     1      26.683   6.995  25.840  1.00  0.00     0.196 A 
ATOM      7  O   UNL     1      26.083   6.873  24.669  1.00  0.00    -0.464 OA
ATOM      8  C   UNL     1      24.434   4.279  26.378  1.00  0.00     0.149 A 
ATOM      9  C   UNL     1      23.553   3.762  25.394  1.00  0.00     0.018 A 
ATOM     10  C   UNL     1      22.726   2.692  25.748  1.00  0.00     0.019 A 
ATOM     11  C   UNL     1      22.793   2.173  27.042  1.00  0.00     0.094 A 
ATOM     12  C   UNL     1      23.689   2.738  27.958  1.00  0.00     0.336 A 
ATOM     13  O   UNL     1      23.761   2.280  29.128  1.00  0.00    -0.246 OA
ATOM     14  O   UNL     1      24.467   3.756  27.601  1.00  0.00    -0.422 OA
ENDROOT
TORSDOF 0
ENDMDL
MODEL 9
REMARK VINA RESULT:    -3.909     14.453     16.605
REMARK INTER + INTRA:          -3.909
REMARK INTER:                  -3.909
REMARK INTRA:                   0.000
REMARK UNBOUND:                 0.000
REMARK SMILES O=c1ccc2ccc3occc3c2o1
REMARK SMILES IDX 6 1 7 2 8 3 12 4 11 5 10 6 9 7 13 8 5 9 4 10 3 11 2 12 1 13
REMARK SMILES IDX 14 14
REMARK H PARENT
REMARK Flexibility Score: inf
ROOT
ATOM      1  C   UNL     1      16.016  -8.990  23.743  1.00  0.00     0.016 A 
ATOM      2  C   UNL     1      16.255 -10.327  23.371  1.00  0.00     0.048 A 
ATOM      3  C   UNL     1      16.820 -11.181  24.318  1.00  0.00     0.137 A 
ATOM      4  C   UNL     1      17.141 -10.751  25.578  1.00  0.00     0.064 A 
ATOM      5  C   UNL     1      17.671 -11.832  26.245  1.00  0.00     0.054 A 
ATOM      6  C   UNL     1      17.634 -12.869  25.317  1.00  0.00     0.196 A 
ATOM      7  O   UNL     1      17.120 -12.448  24.175  1.00  0.00    -0.464 OA
ATOM      8  C   UNL     1      16.920  -9.437  25.984  1.00  0.00     0.149 A 
ATOM      9  C   UNL     1      16.346  -8.542  25.046  1.00  0.00     0.018 A 
ATOM     10  C   UNL     1      16.123  -7.222  25.448  1.00  0.00     0.019 A 
ATOM     11  C   UNL     1      16.467  -6.833  26.743  1.00  0.00     0.094 A 
ATOM     12  C   UNL     1      17.030  -7.775  27.612  1.00  0.00     0.336 A 
ATOM     13  O   UNL     1      17.345  -7.439  28.784  1.00  0.00    -0.246 OA
ATOM     14  O   UNL     1      17.235  -9.027  27.210  1.00  0.00    -0.422 OA
ENDROOT
TORSDOF 0
ENDMDL
