MODEL 1
REMARK VINA RESULT:    -3.673      0.000      0.000
REMARK INTER + INTRA:          -7.468
REMARK INTER:                  -6.464
REMARK INTRA:                  -1.004
REMARK UNBOUND:                -1.004
REMARK SMILES CCCCCCCCCCCCCCC(=O)[O-]
REMARK SMILES IDX 9 1 10 2 11 3 12 4 13 5 14 6 15 7 16 8 17 9 8 10 7 11 6 12
REMARK SMILES IDX 5 13 4 14 3 15 2 16 1 17
REMARK H PARENT
REMARK Flexibility Score: inf
ROOT
ATOM      1  C   UNL     1      34.931  29.054  17.358  1.00  0.00     0.000 C 
ENDROOT
BRANCH   1   2
ATOM      2  C   UNL     1      36.368  28.606  17.047  1.00  0.00     0.000 C 
BRANCH   2   3
ATOM      3  C   UNL     1      36.476  27.842  15.719  1.00  0.00     0.000 C 
BRANCH   3   4
ATOM      4  C   UNL     1      35.254  26.944  15.500  1.00  0.00     0.000 C 
BRANCH   4   5
ATOM      5  C   UNL     1      34.832  26.936  14.024  1.00  0.00     0.006 C 
BRANCH   5   6
ATOM      6  C   UNL     1      33.794  28.021  13.710  1.00  0.00     0.053 C 
BRANCH   6   7
ATOM      7  C   UNL     1      33.911  28.509  12.298  1.00  0.00     0.041 C 
ATOM      8  O   UNL     1      34.098  29.732  12.063  1.00  0.00    -0.550 OA
ATOM      9  O   UNL     1      33.783  27.617  11.241  1.00  0.00    -0.550 OA
ENDBRANCH   6   7
ENDBRANCH   5   6
ENDBRANCH   4   5
ENDBRANCH   3   4
ENDBRANCH   2   3
ENDBRANCH   1   2
BRANCH   1  10
ATOM     10  C   UNL     1      34.438  28.553  18.724  1.00  0.00     0.000 C 
BRANCH  10  11
ATOM     11  C   UNL     1      35.304  27.393  19.229  1.00  0.00    -0.000 C 
BRANCH  11  12
ATOM     12  C   UNL     1      35.747  27.626  20.678  1.00  0.00    -0.000 C 
BRANCH  12  13
ATOM     13  C   UNL     1      35.136  28.920  21.238  1.00  0.00    -0.000 C 
BRANCH  13  14
ATOM     14  C   UNL     1      35.962  29.514  22.388  1.00  0.00    -0.000 C 
BRANCH  14  15
ATOM     15  C   UNL     1      36.483  28.440  23.359  1.00  0.00    -0.000 C 
BRANCH  15  16
ATOM     16  C   UNL     1      35.481  28.126  24.481  1.00  0.00    -0.003 C 
ATOM     17  C   UNL     1      34.464  29.247  24.695  1.00  0.00     0.004 C 
ENDBRANCH  15  16
ENDBRANCH  14  15
ENDBRANCH  13  14
ENDBRANCH  12  13
ENDBRANCH  11  12
ENDBRANCH  10  11
ENDBRANCH   1  10
TORSDOF 13
ENDMDL
MODEL 2
REMARK VINA RESULT:    -3.645      1.395      2.427
REMARK INTER + INTRA:          -7.419
REMARK INTER:                  -6.633
REMARK INTRA:                  -0.786
REMARK UNBOUND:                -1.004
REMARK SMILES CCCCCCCCCCCCCCC(=O)[O-]
REMARK SMILES IDX 9 1 10 2 11 3 12 4 13 5 14 6 15 7 16 8 17 9 8 10 7 11 6 12
REMARK SMILES IDX 5 13 4 14 3 15 2 16 1 17
REMARK H PARENT
REMARK Flexibility Score: inf
ROOT
ATOM      1  C   UNL     1      36.214  28.539  15.646  1.00  0.00     0.000 C 
ENDROOT
BRANCH   1   2
ATOM      2  C   UNL     1      36.559  27.516  14.553  1.00  0.00     0.000 C 
BRANCH   2   3
ATOM      3  C   UNL     1      35.313  26.875  13.925  1.00  0.00     0.000 C 
BRANCH   3   4
ATOM      4  C   UNL     1      35.352  26.979  12.396  1.00  0.00     0.000 C 
BRANCH   4   5
ATOM      5  C   UNL     1      34.048  27.577  11.850  1.00  0.00     0.006 C 
BRANCH   5   6
ATOM      6  C   UNL     1      33.997  29.102  12.007  1.00  0.00     0.053 C 
BRANCH   6   7
ATOM      7  C   UNL     1      32.978  29.522  13.022  1.00  0.00     0.041 C 
ATOM      8  O   UNL     1      32.508  28.682  13.834  1.00  0.00    -0.550 OA
ATOM      9  O   UNL     1      32.525  30.835  13.050  1.00  0.00    -0.550 OA
ENDBRANCH   6   7
ENDBRANCH   5   6
ENDBRANCH   4   5
ENDBRANCH   3   4
ENDBRANCH   2   3
ENDBRANCH   1   2
BRANCH   1  10
ATOM     10  C   UNL     1      37.097  28.393  16.894  1.00  0.00     0.000 C 
BRANCH  10  11
ATOM     11  C   UNL     1      36.482  29.128  18.091  1.00  0.00    -0.000 C 
BRANCH  11  12
ATOM     12  C   UNL     1      34.978  28.845  18.197  1.00  0.00    -0.000 C 
BRANCH  12  13
ATOM     13  C   UNL     1      34.503  28.939  19.655  1.00  0.00    -0.000 C 
BRANCH  13  14
ATOM     14  C   UNL     1      35.663  29.134  20.644  1.00  0.00    -0.000 C 
BRANCH  14  15
ATOM     15  C   UNL     1      35.866  27.918  21.565  1.00  0.00    -0.000 C 
BRANCH  15  16
ATOM     16  C   UNL     1      36.180  28.324  23.014  1.00  0.00    -0.003 C 
ATOM     17  C   UNL     1      35.000  29.009  23.703  1.00  0.00     0.004 C 
ENDBRANCH  15  16
ENDBRANCH  14  15
ENDBRANCH  13  14
ENDBRANCH  12  13
ENDBRANCH  11  12
ENDBRANCH  10  11
ENDBRANCH   1  10
TORSDOF 13
ENDMDL
MODEL 3
REMARK VINA RESULT:    -3.600      3.823      8.385
REMARK INTER + INTRA:          -7.340
REMARK INTER:                  -6.359
REMARK INTRA:                  -0.980
REMARK UNBOUND:                -1.004
REMARK SMILES CCCCCCCCCCCCCCC(=O)[O-]
REMARK SMILES IDX 9 1 10 2 11 3 12 4 13 5 14 6 15 7 16 8 17 9 8 10 7 11 6 12
REMARK SMILES IDX 5 13 4 14 3 15 2 16 1 17
REMARK H PARENT
REMARK Flexibility Score: inf
ROOT
ATOM      1  C   UNL     1      35.354  28.864  16.471  1.00  0.00     0.000 C 
ENDROOT
BRANCH   1   2
ATOM      2  C   UNL     1      35.453  28.945  18.003  1.00  0.00     0.000 C 
BRANCH   2   3
ATOM      3  C   UNL     1      34.494  27.976  18.711  1.00  0.00     0.000 C 
BRANCH   3   4
ATOM      4  C   UNL     1      35.268  26.939  19.533  1.00  0.00     0.000 C 
BRANCH   4   5
ATOM      5  C   UNL     1      36.389  27.603  20.344  1.00  0.00     0.006 C 
BRANCH   5   6
ATOM      6  C   UNL     1      36.117  27.560  21.854  1.00  0.00     0.053 C 
BRANCH   6   7
ATOM      7  C   UNL     1      35.604  28.873  22.363  1.00  0.00     0.041 C 
ATOM      8  O   UNL     1      35.897  29.942  21.766  1.00  0.00    -0.550 OA
ATOM      9  O   UNL     1      34.830  28.917  23.514  1.00  0.00    -0.550 OA
ENDBRANCH   6   7
ENDBRANCH   5   6
ENDBRANCH   4   5
ENDBRANCH   3   4
ENDBRANCH   2   3
ENDBRANCH   1   2
BRANCH   1  10
ATOM     10  C   UNL     1      35.811  27.506  15.918  1.00  0.00     0.000 C 
BRANCH  10  11
ATOM     11  C   UNL     1      36.178  27.613  14.433  1.00  0.00    -0.000 C 
BRANCH  11  12
ATOM     12  C   UNL     1      35.157  26.875  13.559  1.00  0.00    -0.000 C 
BRANCH  12  13
ATOM     13  C   UNL     1      35.217  27.373  12.106  1.00  0.00    -0.000 C 
BRANCH  13  14
ATOM     14  C   UNL     1      33.920  28.070  11.667  1.00  0.00    -0.000 C 
BRANCH  14  15
ATOM     15  C   UNL     1      33.926  29.578  11.972  1.00  0.00    -0.000 C 
BRANCH  15  16
ATOM     16  C   UNL     1      32.885  29.967  13.034  1.00  0.00    -0.003 C 
ATOM     17  C   UNL     1      32.423  28.775  13.872  1.00  0.00     0.004 C 
ENDBRANCH  15  16
ENDBRANCH  14  15
ENDBRANCH  13  14
ENDBRANCH  12  13
ENDBRANCH  11  12
ENDBRANCH  10  11
ENDBRANCH   1  10
TORSDOF 13
ENDMDL
MODEL 4
REMARK VINA RESULT:    -3.573      0.944      1.427
REMARK INTER + INTRA:          -7.293
REMARK INTER:                  -6.158
REMARK INTRA:                  -1.134
REMARK UNBOUND:                -1.004
REMARK SMILES CCCCCCCCCCCCCCC(=O)[O-]
REMARK SMILES IDX 9 1 10 2 11 3 12 4 13 5 14 6 15 7 16 8 17 9 8 10 7 11 6 12
REMARK SMILES IDX 5 13 4 14 3 15 2 16 1 17
REMARK H PARENT
REMARK Flexibility Score: inf
ROOT
ATOM      1  C   UNL     1      34.870  29.001  18.036  1.00  0.00     0.000 C 
ENDROOT
BRANCH   1   2
ATOM      2  C   UNL     1      35.877  28.815  16.890  1.00  0.00     0.000 C 
BRANCH   2   3
ATOM      3  C   UNL     1      35.293  28.024  15.710  1.00  0.00     0.000 C 
BRANCH   3   4
ATOM      4  C   UNL     1      36.368  27.735  14.656  1.00  0.00     0.000 C 
BRANCH   4   5
ATOM      5  C   UNL     1      35.779  26.971  13.462  1.00  0.00     0.006 C 
BRANCH   5   6
ATOM      6  C   UNL     1      34.286  27.266  13.262  1.00  0.00     0.053 C 
BRANCH   6   7
ATOM      7  C   UNL     1      34.044  28.098  12.039  1.00  0.00     0.041 C 
ATOM      8  O   UNL     1      33.819  27.544  10.930  1.00  0.00    -0.550 OA
ATOM      9  O   UNL     1      34.099  29.483  12.119  1.00  0.00    -0.550 OA
ENDBRANCH   6   7
ENDBRANCH   5   6
ENDBRANCH   4   5
ENDBRANCH   3   4
ENDBRANCH   2   3
ENDBRANCH   1   2
BRANCH   1  10
ATOM     10  C   UNL     1      34.491  27.674  18.712  1.00  0.00     0.000 C 
BRANCH  10  11
ATOM     11  C   UNL     1      35.744  26.884  19.110  1.00  0.00    -0.000 C 
BRANCH  11  12
ATOM     12  C   UNL     1      36.041  27.039  20.606  1.00  0.00    -0.000 C 
BRANCH  12  13
ATOM     13  C   UNL     1      37.045  28.176  20.852  1.00  0.00    -0.000 C 
BRANCH  13  14
ATOM     14  C   UNL     1      36.386  29.425  21.455  1.00  0.00    -0.000 C 
BRANCH  14  15
ATOM     15  C   UNL     1      35.033  29.119  22.120  1.00  0.00    -0.000 C 
BRANCH  15  16
ATOM     16  C   UNL     1      35.145  28.986  23.647  1.00  0.00    -0.003 C 
ATOM     17  C   UNL     1      36.388  29.676  24.210  1.00  0.00     0.004 C 
ENDBRANCH  15  16
ENDBRANCH  14  15
ENDBRANCH  13  14
ENDBRANCH  12  13
ENDBRANCH  11  12
ENDBRANCH  10  11
ENDBRANCH   1  10
TORSDOF 13
ENDMDL
MODEL 5
REMARK VINA RESULT:    -3.177      1.615      3.112
REMARK INTER + INTRA:          -6.595
REMARK INTER:                  -5.702
REMARK INTRA:                  -0.893
REMARK UNBOUND:                -1.004
REMARK SMILES CCCCCCCCCCCCCCC(=O)[O-]
REMARK SMILES IDX 9 1 10 2 11 3 12 4 13 5 14 6 15 7 16 8 17 9 8 10 7 11 6 12
REMARK SMILES IDX 5 13 4 14 3 15 2 16 1 17
REMARK H PARENT
REMARK Flexibility Score: inf
ROOT
ATOM      1  C   UNL     1      36.787  27.292  14.900  1.00  0.00     0.000 C 
ENDROOT
BRANCH   1   2
ATOM      2  C   UNL     1      36.515  26.875  13.446  1.00  0.00     0.000 C 
BRANCH   2   3
ATOM      3  C   UNL     1      35.021  26.904  13.091  1.00  0.00     0.000 C 
BRANCH   3   4
ATOM      4  C   UNL     1      34.816  27.190  11.599  1.00  0.00     0.000 C 
BRANCH   4   5
ATOM      5  C   UNL     1      33.948  28.439  11.391  1.00  0.00     0.006 C 
BRANCH   5   6
ATOM      6  C   UNL     1      34.003  29.392  12.592  1.00  0.00     0.053 C 
BRANCH   6   7
ATOM      7  C   UNL     1      32.664  29.536  13.248  1.00  0.00     0.041 C 
ATOM      8  O   UNL     1      31.888  30.468  12.907  1.00  0.00    -0.550 OA
ATOM      9  O   UNL     1      32.287  28.661  14.258  1.00  0.00    -0.550 OA
ENDBRANCH   6   7
ENDBRANCH   5   6
ENDBRANCH   4   5
ENDBRANCH   3   4
ENDBRANCH   2   3
ENDBRANCH   1   2
BRANCH   1  10
ATOM     10  C   UNL     1      35.635  26.923  15.848  1.00  0.00     0.000 C 
BRANCH  10  11
ATOM     11  C   UNL     1      35.189  28.139  16.669  1.00  0.00    -0.000 C 
BRANCH  11  12
ATOM     12  C   UNL     1      36.352  29.114  16.884  1.00  0.00    -0.000 C 
BRANCH  12  13
ATOM     13  C   UNL     1      36.901  29.009  18.316  1.00  0.00    -0.000 C 
BRANCH  13  14
ATOM     14  C   UNL     1      35.787  28.949  19.372  1.00  0.00    -0.000 C 
BRANCH  14  15
ATOM     15  C   UNL     1      36.315  29.167  20.801  1.00  0.00    -0.000 C 
BRANCH  15  16
ATOM     16  C   UNL     1      35.264  28.837  21.873  1.00  0.00    -0.003 C 
ATOM     17  C   UNL     1      35.572  29.488  23.221  1.00  0.00     0.004 C 
ENDBRANCH  15  16
ENDBRANCH  14  15
ENDBRANCH  13  14
ENDBRANCH  12  13
ENDBRANCH  11  12
ENDBRANCH  10  11
ENDBRANCH   1  10
TORSDOF 13
ENDMDL
MODEL 6
REMARK VINA RESULT:    -2.772      4.369      8.850
REMARK INTER + INTRA:          -5.882
REMARK INTER:                  -5.176
REMARK INTRA:                  -0.707
REMARK UNBOUND:                -1.004
REMARK SMILES CCCCCCCCCCCCCCC(=O)[O-]
REMARK SMILES IDX 9 1 10 2 11 3 12 4 13 5 14 6 15 7 16 8 17 9 8 10 7 11 6 12
REMARK SMILES IDX 5 13 4 14 3 15 2 16 1 17
REMARK H PARENT
REMARK Flexibility Score: inf
ROOT
ATOM      1  C   UNL     1      35.011  29.126  18.867  1.00  0.00     0.000 C 
ENDROOT
BRANCH   1   2
ATOM      2  C   UNL     1      34.970  29.122  20.404  1.00  0.00     0.000 C 
BRANCH   2   3
ATOM      3  C   UNL     1      35.705  27.920  21.014  1.00  0.00     0.000 C 
BRANCH   3   4
ATOM      4  C   UNL     1      35.840  28.071  22.533  1.00  0.00     0.000 C 
BRANCH   4   5
ATOM      5  C   UNL     1      36.696  29.294  22.892  1.00  0.00     0.006 C 
BRANCH   5   6
ATOM      6  C   UNL     1      35.985  30.231  23.878  1.00  0.00     0.053 C 
BRANCH   6   7
ATOM      7  C   UNL     1      36.533  31.624  23.813  1.00  0.00     0.041 C 
ATOM      8  O   UNL     1      36.691  32.293  24.868  1.00  0.00    -0.550 OA
ATOM      9  O   UNL     1      36.838  32.194  22.584  1.00  0.00    -0.550 OA
ENDBRANCH   6   7
ENDBRANCH   5   6
ENDBRANCH   4   5
ENDBRANCH   3   4
ENDBRANCH   2   3
ENDBRANCH   1   2
BRANCH   1  10
ATOM     10  C   UNL     1      35.954  28.055  18.297  1.00  0.00     0.000 C 
BRANCH  10  11
ATOM     11  C   UNL     1      35.161  26.884  17.705  1.00  0.00    -0.000 C 
BRANCH  11  12
ATOM     12  C   UNL     1      35.249  26.877  16.174  1.00  0.00    -0.000 C 
BRANCH  12  13
ATOM     13  C   UNL     1      36.496  27.634  15.693  1.00  0.00    -0.000 C 
BRANCH  13  14
ATOM     14  C   UNL     1      36.430  27.993  14.200  1.00  0.00    -0.000 C 
BRANCH  14  15
ATOM     15  C   UNL     1      35.269  27.291  13.474  1.00  0.00    -0.000 C 
BRANCH  15  16
ATOM     16  C   UNL     1      34.377  28.276  12.702  1.00  0.00    -0.003 C 
ATOM     17  C   UNL     1      33.798  27.670  11.424  1.00  0.00     0.004 C 
ENDBRANCH  15  16
ENDBRANCH  14  15
ENDBRANCH  13  14
ENDBRANCH  12  13
ENDBRANCH  11  12
ENDBRANCH  10  11
ENDBRANCH   1  10
TORSDOF 13
ENDMDL
MODEL 7
REMARK VINA RESULT:    -2.484      4.498      8.901
REMARK INTER + INTRA:          -5.376
REMARK INTER:                  -4.924
REMARK INTRA:                  -0.451
REMARK UNBOUND:                -1.004
REMARK SMILES CCCCCCCCCCCCCCC(=O)[O-]
REMARK SMILES IDX 9 1 10 2 11 3 12 4 13 5 14 6 15 7 16 8 17 9 8 10 7 11 6 12
REMARK SMILES IDX 5 13 4 14 3 15 2 16 1 17
REMARK H PARENT
REMARK Flexibility Score: inf
ROOT
ATOM      1  C   UNL     1      35.034  29.270  20.836  1.00  0.00     0.000 C 
ENDROOT
BRANCH   1   2
ATOM      2  C   UNL     1      36.570  29.282  20.881  1.00  0.00     0.000 C 
BRANCH   2   3
ATOM      3  C   UNL     1      37.120  29.811  22.213  1.00  0.00     0.000 C 
BRANCH   3   4
ATOM      4  C   UNL     1      36.174  30.850  22.825  1.00  0.00     0.000 C 
BRANCH   4   5
ATOM      5  C   UNL     1      36.485  31.073  24.312  1.00  0.00     0.006 C 
BRANCH   5   6
ATOM      6  C   UNL     1      36.397  29.775  25.125  1.00  0.00     0.053 C 
BRANCH   6   7
ATOM      7  C   UNL     1      35.203  28.958  24.738  1.00  0.00     0.041 C 
ATOM      8  O   UNL     1      35.350  27.891  24.085  1.00  0.00    -0.550 OA
ATOM      9  O   UNL     1      33.926  29.392  25.070  1.00  0.00    -0.550 OA
ENDBRANCH   6   7
ENDBRANCH   5   6
ENDBRANCH   4   5
ENDBRANCH   3   4
ENDBRANCH   2   3
ENDBRANCH   1   2
BRANCH   1  10
ATOM     10  C   UNL     1      34.480  29.508  19.423  1.00  0.00     0.000 C 
BRANCH  10  11
ATOM     11  C   UNL     1      34.453  28.204  18.617  1.00  0.00    -0.000 C 
BRANCH  11  12
ATOM     12  C   UNL     1      35.427  28.267  17.434  1.00  0.00    -0.000 C 
BRANCH  12  13
ATOM     13  C   UNL     1      35.568  26.891  16.765  1.00  0.00    -0.000 C 
BRANCH  13  14
ATOM     14  C   UNL     1      35.411  26.958  15.238  1.00  0.00    -0.000 C 
BRANCH  14  15
ATOM     15  C   UNL     1      34.615  28.192  14.779  1.00  0.00    -0.000 C 
BRANCH  15  16
ATOM     16  C   UNL     1      34.039  28.027  13.364  1.00  0.00    -0.003 C 
ATOM     17  C   UNL     1      32.910  29.014  13.067  1.00  0.00     0.004 C 
ENDBRANCH  15  16
ENDBRANCH  14  15
ENDBRANCH  13  14
ENDBRANCH  12  13
ENDBRANCH  11  12
ENDBRANCH  10  11
ENDBRANCH   1  10
TORSDOF 13
ENDMDL
MODEL 8
REMARK VINA RESULT:    -2.405     15.843     16.776
REMARK INTER + INTRA:          -5.236
REMARK INTER:                  -4.296
REMARK INTRA:                  -0.940
REMARK UNBOUND:                -1.004
REMARK SMILES CCCCCCCCCCCCCCC(=O)[O-]
REMARK SMILES IDX 9 1 10 2 11 3 12 4 13 5 14 6 15 7 16 8 17 9 8 10 7 11 6 12
REMARK SMILES IDX 5 13 4 14 3 15 2 16 1 17
REMARK H PARENT
REMARK Flexibility Score: inf
ROOT
ATOM      1  C   UNL     1      33.106  45.279  20.820  1.00  0.00     0.000 C 
ENDROOT
BRANCH   1   2
ATOM      2  C   UNL     1      34.457  45.785  21.352  1.00  0.00     0.000 C 
BRANCH   2   3
ATOM      3  C   UNL     1      35.580  44.748  21.199  1.00  0.00     0.000 C 
BRANCH   3   4
ATOM      4  C   UNL     1      36.697  45.278  20.293  1.00  0.00     0.000 C 
BRANCH   4   5
ATOM      5  C   UNL     1      36.988  44.299  19.147  1.00  0.00     0.006 C 
BRANCH   5   6
ATOM      6  C   UNL     1      37.125  45.011  17.794  1.00  0.00     0.053 C 
BRANCH   6   7
ATOM      7  C   UNL     1      36.504  44.219  16.685  1.00  0.00     0.041 C 
ATOM      8  O   UNL     1      35.768  44.788  15.835  1.00  0.00    -0.550 OA
ATOM      9  O   UNL     1      36.712  42.848  16.608  1.00  0.00    -0.550 OA
ENDBRANCH   6   7
ENDBRANCH   5   6
ENDBRANCH   4   5
ENDBRANCH   3   4
ENDBRANCH   2   3
ENDBRANCH   1   2
BRANCH   1  10
ATOM     10  C   UNL     1      32.111  44.955  21.945  1.00  0.00     0.000 C 
BRANCH  10  11
ATOM     11  C   UNL     1      32.358  43.549  22.507  1.00  0.00    -0.000 C 
BRANCH  11  12
ATOM     12  C   UNL     1      31.844  43.435  23.948  1.00  0.00    -0.000 C 
BRANCH  12  13
ATOM     13  C   UNL     1      33.011  43.373  24.944  1.00  0.00    -0.000 C 
BRANCH  13  14
ATOM     14  C   UNL     1      34.224  44.197  24.486  1.00  0.00    -0.000 C 
BRANCH  14  15
ATOM     15  C   UNL     1      35.563  43.552  24.887  1.00  0.00    -0.000 C 
BRANCH  15  16
ATOM     16  C   UNL     1      36.679  44.590  25.085  1.00  0.00    -0.003 C 
ATOM     17  C   UNL     1      36.443  45.870  24.284  1.00  0.00     0.004 C 
ENDBRANCH  15  16
ENDBRANCH  14  15
ENDBRANCH  13  14
ENDBRANCH  12  13
ENDBRANCH  11  12
ENDBRANCH  10  11
ENDBRANCH   1  10
TORSDOF 13
ENDMDL
MODEL 9
REMARK VINA RESULT:    -1.157      4.433      8.560
REMARK INTER + INTRA:          -3.040
REMARK INTER:                  -2.088
REMARK INTRA:                  -0.952
REMARK UNBOUND:                -1.004
REMARK SMILES CCCCCCCCCCCCCCC(=O)[O-]
REMARK SMILES IDX 9 1 10 2 11 3 12 4 13 5 14 6 15 7 16 8 17 9 8 10 7 11 6 12
REMARK SMILES IDX 5 13 4 14 3 15 2 16 1 17
REMARK H PARENT
REMARK Flexibility Score: inf
ROOT
ATOM      1  C   UNL     1      34.905  29.055  17.787  1.00  0.00     0.000 C 
ENDROOT
BRANCH   1   2
ATOM      2  C   UNL     1      34.483  28.415  19.119  1.00  0.00     0.000 C 
BRANCH   2   3
ATOM      3  C   UNL     1      35.383  27.237  19.522  1.00  0.00     0.000 C 
BRANCH   3   4
ATOM      4  C   UNL     1      36.202  27.575  20.773  1.00  0.00     0.000 C 
BRANCH   4   5
ATOM      5  C   UNL     1      35.450  28.562  21.676  1.00  0.00     0.006 C 
BRANCH   5   6
ATOM      6  C   UNL     1      35.628  28.238  23.166  1.00  0.00     0.053 C 
BRANCH   6   7
ATOM      7  C   UNL     1      35.260  29.402  24.034  1.00  0.00     0.041 C 
ATOM      8  O   UNL     1      35.964  30.446  24.027  1.00  0.00    -0.550 OA
ATOM      9  O   UNL     1      34.158  29.321  24.875  1.00  0.00    -0.550 OA
ENDBRANCH   6   7
ENDBRANCH   5   6
ENDBRANCH   4   5
ENDBRANCH   3   4
ENDBRANCH   2   3
ENDBRANCH   1   2
BRANCH   1  10
ATOM     10  C   UNL     1      36.430  29.095  17.606  1.00  0.00     0.000 C 
BRANCH  10  11
ATOM     11  C   UNL     1      36.823  28.711  16.174  1.00  0.00    -0.000 C 
BRANCH  11  12
ATOM     12  C   UNL     1      36.716  27.196  15.962  1.00  0.00    -0.000 C 
BRANCH  12  13
ATOM     13  C   UNL     1      36.071  26.875  14.605  1.00  0.00    -0.000 C 
BRANCH  13  14
ATOM     14  C   UNL     1      34.710  27.563  14.420  1.00  0.00    -0.000 C 
BRANCH  14  15
ATOM     15  C   UNL     1      34.175  27.439  12.983  1.00  0.00    -0.000 C 
BRANCH  15  16
ATOM     16  C   UNL     1      33.874  28.805  12.347  1.00  0.00    -0.003 C 
ATOM     17  C   UNL     1      32.804  29.588  13.107  1.00  0.00     0.004 C 
ENDBRANCH  15  16
ENDBRANCH  14  15
ENDBRANCH  13  14
ENDBRANCH  12  13
ENDBRANCH  11  12
ENDBRANCH  10  11
ENDBRANCH   1  10
TORSDOF 13
ENDMDL
