MODEL 1
REMARK VINA RESULT:    -6.820      0.000      0.000
REMARK INTER + INTRA:          -8.760
REMARK INTER:                  -8.415
REMARK INTRA:                  -0.345
REMARK UNBOUND:                -0.345
REMARK SMILES COc1cc(-c2oc3cc(O)cc(O)c3c(=O)c2O)ccc1O
REMARK SMILES IDX 6 1 18 2 16 3 17 4 15 5 13 6 12 7 10 8 9 9 8 10 7 11 5 12
REMARK SMILES IDX 3 13 22 14 4 15 21 16 20 17 2 18 1 19 23 20 19 22 14 24
REMARK SMILES IDX 11 26
REMARK H PARENT 23 21 19 23 14 25 11 27
REMARK Flexibility Score: inf
ROOT
ATOM      1  C   UNL     1      27.143   1.398  23.145  1.00  0.00     0.180 A 
ATOM      2  C   UNL     1      26.566   1.053  21.912  1.00  0.00     0.208 A 
ATOM      3  C   UNL     1      27.052  -0.071  21.223  1.00  0.00     0.238 A 
ATOM      4  O   UNL     1      26.496  -0.407  20.146  1.00  0.00    -0.285 OA
ATOM      5  C   UNL     1      28.120  -0.823  21.768  1.00  0.00     0.111 A 
ATOM      6  C   UNL     1      28.719  -1.955  21.137  1.00  0.00     0.134 A 
ATOM      7  C   UNL     1      29.681  -2.701  21.828  1.00  0.00     0.093 A 
ATOM      8  C   UNL     1      30.114  -2.318  23.100  1.00  0.00     0.123 A 
ATOM      9  C   UNL     1      29.578  -1.181  23.699  1.00  0.00     0.094 A 
ATOM     10  C   UNL     1      28.590  -0.437  23.050  1.00  0.00     0.146 A 
ATOM     11  O   UNL     1      28.099   0.635  23.661  1.00  0.00    -0.452 OA
ENDROOT
BRANCH   1  12
ATOM     12  C   UNL     1      26.700   2.582  23.919  1.00  0.00     0.025 A 
ATOM     13  C   UNL     1      27.064   4.902  24.600  1.00  0.00     0.161 A 
ATOM     14  C   UNL     1      25.864   4.870  25.324  1.00  0.00     0.157 A 
ATOM     15  C   UNL     1      27.474   3.754  23.892  1.00  0.00     0.062 A 
ATOM     16  C   UNL     1      25.080   3.710  25.335  1.00  0.00     0.051 A 
ATOM     17  C   UNL     1      25.492   2.575  24.633  1.00  0.00     0.016 A 
BRANCH  13  18
ATOM     18  O   UNL     1      27.818   6.086  24.606  1.00  0.00    -0.493 OA
ATOM     19  C   UNL     1      29.031   6.265  25.329  1.00  0.00     0.278 C 
ENDBRANCH  13  18
BRANCH  14  20
ATOM     20  O   UNL     1      25.454   6.002  26.027  1.00  0.00    -0.504 OA
ATOM     21  H   UNL     1      24.565   6.032  26.511  1.00  0.00     0.293 HD
ENDBRANCH  14  20
ENDBRANCH   1  12
BRANCH   2  22
ATOM     22  O   UNL     1      25.497   1.797  21.402  1.00  0.00    -0.502 OA
ATOM     23  H   UNL     1      25.613   2.734  21.035  1.00  0.00     0.293 HD
ENDBRANCH   2  22
BRANCH   6  24
ATOM     24  O   UNL     1      28.426  -2.368  19.834  1.00  0.00    -0.507 OA
ATOM     25  H   UNL     1      27.828  -3.147  19.600  1.00  0.00     0.293 HD
ENDBRANCH   6  24
BRANCH   8  26
ATOM     26  O   UNL     1      31.083  -3.059  23.774  1.00  0.00    -0.508 OA
ATOM     27  H   UNL     1      30.889  -3.495  24.668  1.00  0.00     0.293 HD
ENDBRANCH   8  26
TORSDOF 6
ENDMDL
MODEL 2
REMARK VINA RESULT:    -6.816      0.768      2.008
REMARK INTER + INTRA:          -8.755
REMARK INTER:                  -8.411
REMARK INTRA:                  -0.344
REMARK UNBOUND:                -0.345
REMARK SMILES COc1cc(-c2oc3cc(O)cc(O)c3c(=O)c2O)ccc1O
REMARK SMILES IDX 6 1 18 2 16 3 17 4 15 5 13 6 12 7 10 8 9 9 8 10 7 11 5 12
REMARK SMILES IDX 3 13 22 14 4 15 21 16 20 17 2 18 1 19 23 20 19 22 14 24
REMARK SMILES IDX 11 26
REMARK H PARENT 23 21 19 23 14 25 11 27
REMARK Flexibility Score: inf
ROOT
ATOM      1  C   UNL     1      27.166   1.471  23.078  1.00  0.00     0.180 A 
ATOM      2  C   UNL     1      26.582   1.121  21.849  1.00  0.00     0.208 A 
ATOM      3  C   UNL     1      27.052  -0.016  21.171  1.00  0.00     0.238 A 
ATOM      4  O   UNL     1      26.488  -0.355  20.098  1.00  0.00    -0.285 OA
ATOM      5  C   UNL     1      28.110  -0.778  21.722  1.00  0.00     0.111 A 
ATOM      6  C   UNL     1      28.692  -1.924  21.101  1.00  0.00     0.134 A 
ATOM      7  C   UNL     1      29.645  -2.677  21.798  1.00  0.00     0.093 A 
ATOM      8  C   UNL     1      30.085  -2.287  23.065  1.00  0.00     0.123 A 
ATOM      9  C   UNL     1      29.566  -1.137  23.654  1.00  0.00     0.094 A 
ATOM     10  C   UNL     1      28.587  -0.385  22.998  1.00  0.00     0.146 A 
ATOM     11  O   UNL     1      28.112   0.699  23.600  1.00  0.00    -0.452 OA
ENDROOT
BRANCH   1  12
ATOM     12  C   UNL     1      26.741   2.668  23.840  1.00  0.00     0.025 A 
ATOM     13  C   UNL     1      25.148   3.736  25.356  1.00  0.00     0.161 A 
ATOM     14  C   UNL     1      25.932   4.898  25.350  1.00  0.00     0.157 A 
ATOM     15  C   UNL     1      25.563   2.619  24.603  1.00  0.00     0.062 A 
ATOM     16  C   UNL     1      27.118   4.942  24.607  1.00  0.00     0.051 A 
ATOM     17  C   UNL     1      27.524   3.833  23.862  1.00  0.00     0.016 A 
BRANCH  13  18
ATOM     18  O   UNL     1      23.970   3.728  26.119  1.00  0.00    -0.493 OA
ATOM     19  C   UNL     1      23.488   2.603  26.847  1.00  0.00     0.278 C 
ENDBRANCH  13  18
BRANCH  14  20
ATOM     20  O   UNL     1      25.526   6.007  26.092  1.00  0.00    -0.504 OA
ATOM     21  H   UNL     1      24.709   6.547  25.834  1.00  0.00     0.293 HD
ENDBRANCH  14  20
ENDBRANCH   1  12
BRANCH   2  22
ATOM     22  O   UNL     1      25.523   1.874  21.334  1.00  0.00    -0.502 OA
ATOM     23  H   UNL     1      25.600   2.867  21.151  1.00  0.00     0.293 HD
ENDBRANCH   2  22
BRANCH   6  24
ATOM     24  O   UNL     1      28.391  -2.347  19.803  1.00  0.00    -0.507 OA
ATOM     25  H   UNL     1      27.723  -1.898  19.193  1.00  0.00     0.293 HD
ENDBRANCH   6  24
BRANCH   8  26
ATOM     26  O   UNL     1      31.045  -3.034  23.745  1.00  0.00    -0.508 OA
ATOM     27  H   UNL     1      31.258  -2.860  24.720  1.00  0.00     0.293 HD
ENDBRANCH   8  26
TORSDOF 6
ENDMDL
MODEL 3
REMARK VINA RESULT:    -6.740     10.441     12.576
REMARK INTER + INTRA:          -8.661
REMARK INTER:                  -8.318
REMARK INTRA:                  -0.343
REMARK UNBOUND:                -0.345
REMARK SMILES COc1cc(-c2oc3cc(O)cc(O)c3c(=O)c2O)ccc1O
REMARK SMILES IDX 6 1 18 2 16 3 17 4 15 5 13 6 12 7 10 8 9 9 8 10 7 11 5 12
REMARK SMILES IDX 3 13 22 14 4 15 21 16 20 17 2 18 1 19 23 20 19 22 14 24
REMARK SMILES IDX 11 26
REMARK H PARENT 23 21 19 23 14 25 11 27
REMARK Flexibility Score: inf
ROOT
ATOM      1  C   UNL     1      21.321   6.213  31.208  1.00  0.00     0.180 A 
ATOM      2  C   UNL     1      19.966   6.558  31.341  1.00  0.00     0.208 A 
ATOM      3  C   UNL     1      19.392   7.436  30.406  1.00  0.00     0.238 A 
ATOM      4  O   UNL     1      18.164   7.698  30.499  1.00  0.00    -0.285 OA
ATOM      5  C   UNL     1      20.184   7.970  29.362  1.00  0.00     0.111 A 
ATOM      6  C   UNL     1      19.717   8.899  28.385  1.00  0.00     0.134 A 
ATOM      7  C   UNL     1      20.553   9.260  27.320  1.00  0.00     0.093 A 
ATOM      8  C   UNL     1      21.860   8.776  27.235  1.00  0.00     0.123 A 
ATOM      9  C   UNL     1      22.344   7.915  28.217  1.00  0.00     0.094 A 
ATOM     10  C   UNL     1      21.522   7.509  29.271  1.00  0.00     0.146 A 
ATOM     11  O   UNL     1      22.021   6.679  30.180  1.00  0.00    -0.452 OA
ENDROOT
BRANCH   1  12
ATOM     12  C   UNL     1      22.003   5.313  32.167  1.00  0.00     0.025 A 
ATOM     13  C   UNL     1      23.456   5.030  34.114  1.00  0.00     0.161 A 
ATOM     14  C   UNL     1      23.267   3.643  34.044  1.00  0.00     0.157 A 
ATOM     15  C   UNL     1      22.814   5.862  33.174  1.00  0.00     0.062 A 
ATOM     16  C   UNL     1      22.443   3.094  33.054  1.00  0.00     0.051 A 
ATOM     17  C   UNL     1      21.810   3.923  32.125  1.00  0.00     0.016 A 
BRANCH  13  18
ATOM     18  O   UNL     1      24.283   5.543  35.125  1.00  0.00    -0.493 OA
ATOM     19  C   UNL     1      25.666   5.837  34.964  1.00  0.00     0.278 C 
ENDBRANCH  13  18
BRANCH  14  20
ATOM     20  O   UNL     1      23.900   2.815  34.970  1.00  0.00    -0.504 OA
ATOM     21  H   UNL     1      23.609   1.854  35.107  1.00  0.00     0.293 HD
ENDBRANCH  14  20
ENDBRANCH   1  12
BRANCH   2  22
ATOM     22  O   UNL     1      19.196   6.002  32.367  1.00  0.00    -0.502 OA
ATOM     23  H   UNL     1      19.610   5.549  33.173  1.00  0.00     0.293 HD
ENDBRANCH   2  22
BRANCH   6  24
ATOM     24  O   UNL     1      18.461   9.512  28.427  1.00  0.00    -0.507 OA
ATOM     25  H   UNL     1      18.201  10.327  27.891  1.00  0.00     0.293 HD
ENDBRANCH   6  24
BRANCH   8  26
ATOM     26  O   UNL     1      22.690   9.151  26.180  1.00  0.00    -0.508 OA
ATOM     27  H   UNL     1      23.472   8.576  25.891  1.00  0.00     0.293 HD
ENDBRANCH   8  26
TORSDOF 6
ENDMDL
MODEL 4
REMARK VINA RESULT:    -6.702     10.380     12.612
REMARK INTER + INTRA:          -8.614
REMARK INTER:                  -8.665
REMARK INTRA:                   0.051
REMARK UNBOUND:                -0.345
REMARK SMILES COc1cc(-c2oc3cc(O)cc(O)c3c(=O)c2O)ccc1O
REMARK SMILES IDX 6 1 18 2 16 3 17 4 15 5 13 6 12 7 10 8 9 9 8 10 7 11 5 12
REMARK SMILES IDX 3 13 22 14 4 15 21 16 20 17 2 18 1 19 23 20 19 22 14 24
REMARK SMILES IDX 11 26
REMARK H PARENT 23 21 19 23 14 25 11 27
REMARK Flexibility Score: inf
ROOT
ATOM      1  C   UNL     1      21.630   6.380  31.351  1.00  0.00     0.180 A 
ATOM      2  C   UNL     1      20.240   6.531  31.487  1.00  0.00     0.208 A 
ATOM      3  C   UNL     1      19.535   7.254  30.510  1.00  0.00     0.238 A 
ATOM      4  O   UNL     1      18.284   7.339  30.608  1.00  0.00    -0.285 OA
ATOM      5  C   UNL     1      20.232   7.829  29.420  1.00  0.00     0.111 A 
ATOM      6  C   UNL     1      19.625   8.615  28.395  1.00  0.00     0.134 A 
ATOM      7  C   UNL     1      20.389   9.024  27.295  1.00  0.00     0.093 A 
ATOM      8  C   UNL     1      21.753   8.732  27.217  1.00  0.00     0.123 A 
ATOM      9  C   UNL     1      22.367   8.017  28.242  1.00  0.00     0.094 A 
ATOM     10  C   UNL     1      21.622   7.563  29.334  1.00  0.00     0.146 A 
ATOM     11  O   UNL     1      22.245   6.876  30.284  1.00  0.00    -0.452 OA
ENDROOT
BRANCH   1  12
ATOM     12  C   UNL     1      22.445   5.653  32.352  1.00  0.00     0.025 A 
ATOM     13  C   UNL     1      22.878   3.609  33.624  1.00  0.00     0.161 A 
ATOM     14  C   UNL     1      24.002   4.216  34.202  1.00  0.00     0.157 A 
ATOM     15  C   UNL     1      22.107   4.332  32.692  1.00  0.00     0.062 A 
ATOM     16  C   UNL     1      24.355   5.524  33.850  1.00  0.00     0.051 A 
ATOM     17  C   UNL     1      23.586   6.236  32.926  1.00  0.00     0.016 A 
BRANCH  13  18
ATOM     18  O   UNL     1      22.562   2.294  33.997  1.00  0.00    -0.493 OA
ATOM     19  C   UNL     1      23.256   1.138  33.541  1.00  0.00     0.278 C 
ENDBRANCH  13  18
BRANCH  14  20
ATOM     20  O   UNL     1      24.769   3.506  35.125  1.00  0.00    -0.504 OA
ATOM     21  H   UNL     1      25.773   3.627  35.184  1.00  0.00     0.293 HD
ENDBRANCH  14  20
ENDBRANCH   1  12
BRANCH   2  22
ATOM     22  O   UNL     1      19.569   5.936  32.559  1.00  0.00    -0.502 OA
ATOM     23  H   UNL     1      18.625   5.577  32.478  1.00  0.00     0.293 HD
ENDBRANCH   2  22
BRANCH   6  24
ATOM     24  O   UNL     1      18.293   9.040  28.422  1.00  0.00    -0.507 OA
ATOM     25  H   UNL     1      17.946   9.871  27.966  1.00  0.00     0.293 HD
ENDBRANCH   6  24
BRANCH   8  26
ATOM     26  O   UNL     1      22.509   9.156  26.126  1.00  0.00    -0.508 OA
ATOM     27  H   UNL     1      22.920  10.082  26.094  1.00  0.00     0.293 HD
ENDBRANCH   8  26
TORSDOF 6
ENDMDL
MODEL 5
REMARK VINA RESULT:    -6.289      1.559      7.131
REMARK INTER + INTRA:          -8.104
REMARK INTER:                  -7.711
REMARK INTRA:                  -0.393
REMARK UNBOUND:                -0.345
REMARK SMILES COc1cc(-c2oc3cc(O)cc(O)c3c(=O)c2O)ccc1O
REMARK SMILES IDX 6 1 18 2 16 3 17 4 15 5 13 6 12 7 10 8 9 9 8 10 7 11 5 12
REMARK SMILES IDX 3 13 22 14 4 15 21 16 20 17 2 18 1 19 23 20 19 22 14 24
REMARK SMILES IDX 11 26
REMARK H PARENT 23 21 19 23 14 25 11 27
REMARK Flexibility Score: inf
ROOT
ATOM      1  C   UNL     1      27.550   1.624  23.179  1.00  0.00     0.180 A 
ATOM      2  C   UNL     1      28.206   2.866  23.153  1.00  0.00     0.208 A 
ATOM      3  C   UNL     1      27.666   3.937  23.884  1.00  0.00     0.238 A 
ATOM      4  O   UNL     1      28.288   5.031  23.901  1.00  0.00    -0.285 OA
ATOM      5  C   UNL     1      26.468   3.757  24.616  1.00  0.00     0.111 A 
ATOM      6  C   UNL     1      25.811   4.783  25.359  1.00  0.00     0.134 A 
ATOM      7  C   UNL     1      24.703   4.460  26.152  1.00  0.00     0.093 A 
ATOM      8  C   UNL     1      24.189   3.161  26.177  1.00  0.00     0.123 A 
ATOM      9  C   UNL     1      24.789   2.166  25.409  1.00  0.00     0.094 A 
ATOM     10  C   UNL     1      25.918   2.450  24.636  1.00  0.00     0.146 A 
ATOM     11  O   UNL     1      26.464   1.469  23.927  1.00  0.00    -0.452 OA
ENDROOT
BRANCH   1  12
ATOM     12  C   UNL     1      28.044   0.455  22.416  1.00  0.00     0.025 A 
ATOM     13  C   UNL     1      29.278  -1.656  22.372  1.00  0.00     0.161 A 
ATOM     14  C   UNL     1      28.952  -1.811  21.018  1.00  0.00     0.157 A 
ATOM     15  C   UNL     1      28.814  -0.522  23.069  1.00  0.00     0.062 A 
ATOM     16  C   UNL     1      28.168  -0.849  20.369  1.00  0.00     0.051 A 
ATOM     17  C   UNL     1      27.711   0.273  21.064  1.00  0.00     0.016 A 
BRANCH  13  18
ATOM     18  O   UNL     1      30.060  -2.645  22.989  1.00  0.00    -0.493 OA
ATOM     19  C   UNL     1      30.646  -2.520  24.280  1.00  0.00     0.278 C 
ENDBRANCH  13  18
BRANCH  14  20
ATOM     20  O   UNL     1      29.409  -2.930  20.323  1.00  0.00    -0.504 OA
ATOM     21  H   UNL     1      28.798  -3.461  19.714  1.00  0.00     0.293 HD
ENDBRANCH  14  20
ENDBRANCH   1  12
BRANCH   2  22
ATOM     22  O   UNL     1      29.400   3.016  22.441  1.00  0.00    -0.502 OA
ATOM     23  H   UNL     1      29.508   2.695  21.487  1.00  0.00     0.293 HD
ENDBRANCH   2  22
BRANCH   6  24
ATOM     24  O   UNL     1      26.186   6.130  25.331  1.00  0.00    -0.507 OA
ATOM     25  H   UNL     1      26.669   6.607  26.078  1.00  0.00     0.293 HD
ENDBRANCH   6  24
BRANCH   8  26
ATOM     26  O   UNL     1      23.078   2.851  26.957  1.00  0.00    -0.508 OA
ATOM     27  H   UNL     1      22.467   3.574  27.321  1.00  0.00     0.293 HD
ENDBRANCH   8  26
TORSDOF 6
ENDMDL
MODEL 6
REMARK VINA RESULT:    -6.166      2.076      4.011
REMARK INTER + INTRA:          -7.953
REMARK INTER:                  -7.556
REMARK INTRA:                  -0.397
REMARK UNBOUND:                -0.345
REMARK SMILES COc1cc(-c2oc3cc(O)cc(O)c3c(=O)c2O)ccc1O
REMARK SMILES IDX 6 1 18 2 16 3 17 4 15 5 13 6 12 7 10 8 9 9 8 10 7 11 5 12
REMARK SMILES IDX 3 13 22 14 4 15 21 16 20 17 2 18 1 19 23 20 19 22 14 24
REMARK SMILES IDX 11 26
REMARK H PARENT 23 21 19 23 14 25 11 27
REMARK Flexibility Score: inf
ROOT
ATOM      1  C   UNL     1      27.537   1.156  21.875  1.00  0.00     0.180 A 
ATOM      2  C   UNL     1      28.133  -0.071  22.212  1.00  0.00     0.208 A 
ATOM      3  C   UNL     1      28.291  -1.048  21.215  1.00  0.00     0.238 A 
ATOM      4  O   UNL     1      28.874  -2.123  21.510  1.00  0.00    -0.285 OA
ATOM      5  C   UNL     1      27.835  -0.791  19.900  1.00  0.00     0.111 A 
ATOM      6  C   UNL     1      27.907  -1.724  18.821  1.00  0.00     0.134 A 
ATOM      7  C   UNL     1      27.546  -1.316  17.531  1.00  0.00     0.093 A 
ATOM      8  C   UNL     1      27.053  -0.031  17.293  1.00  0.00     0.123 A 
ATOM      9  C   UNL     1      26.924   0.867  18.349  1.00  0.00     0.094 A 
ATOM     10  C   UNL     1      27.310   0.501  19.642  1.00  0.00     0.146 A 
ATOM     11  O   UNL     1      27.180   1.391  20.618  1.00  0.00    -0.452 OA
ENDROOT
BRANCH   1  12
ATOM     12  C   UNL     1      27.315   2.226  22.876  1.00  0.00     0.025 A 
ATOM     13  C   UNL     1      25.913   3.212  24.621  1.00  0.00     0.161 A 
ATOM     14  C   UNL     1      26.882   4.203  24.829  1.00  0.00     0.157 A 
ATOM     15  C   UNL     1      26.139   2.220  23.645  1.00  0.00     0.062 A 
ATOM     16  C   UNL     1      28.065   4.200  24.078  1.00  0.00     0.051 A 
ATOM     17  C   UNL     1      28.283   3.215  23.113  1.00  0.00     0.016 A 
BRANCH  13  18
ATOM     18  O   UNL     1      24.745   3.244  25.398  1.00  0.00    -0.493 OA
ATOM     19  C   UNL     1      24.321   2.194  26.260  1.00  0.00     0.278 C 
ENDBRANCH  13  18
BRANCH  14  20
ATOM     20  O   UNL     1      26.664   5.188  25.792  1.00  0.00    -0.504 OA
ATOM     21  H   UNL     1      26.513   6.156  25.535  1.00  0.00     0.293 HD
ENDBRANCH  14  20
ENDBRANCH   1  12
BRANCH   2  22
ATOM     22  O   UNL     1      28.596  -0.294  23.512  1.00  0.00    -0.502 OA
ATOM     23  H   UNL     1      29.287   0.300  23.953  1.00  0.00     0.293 HD
ENDBRANCH   2  22
BRANCH   6  24
ATOM     24  O   UNL     1      28.298  -3.058  18.968  1.00  0.00    -0.507 OA
ATOM     25  H   UNL     1      29.086  -3.480  18.501  1.00  0.00     0.293 HD
ENDBRANCH   6  24
BRANCH   8  26
ATOM     26  O   UNL     1      26.682   0.361  16.009  1.00  0.00    -0.508 OA
ATOM     27  H   UNL     1      26.492  -0.319  15.281  1.00  0.00     0.293 HD
ENDBRANCH   8  26
TORSDOF 6
ENDMDL
MODEL 7
REMARK VINA RESULT:    -6.145      2.078      7.140
REMARK INTER + INTRA:          -7.927
REMARK INTER:                  -7.531
REMARK INTRA:                  -0.396
REMARK UNBOUND:                -0.345
REMARK SMILES COc1cc(-c2oc3cc(O)cc(O)c3c(=O)c2O)ccc1O
REMARK SMILES IDX 6 1 18 2 16 3 17 4 15 5 13 6 12 7 10 8 9 9 8 10 7 11 5 12
REMARK SMILES IDX 3 13 22 14 4 15 21 16 20 17 2 18 1 19 23 20 19 22 14 24
REMARK SMILES IDX 11 26
REMARK H PARENT 23 21 19 23 14 25 11 27
REMARK Flexibility Score: inf
ROOT
ATOM      1  C   UNL     1      27.445   3.116  23.673  1.00  0.00     0.180 A 
ATOM      2  C   UNL     1      26.247   3.481  24.310  1.00  0.00     0.208 A 
ATOM      3  C   UNL     1      26.254   4.568  25.201  1.00  0.00     0.238 A 
ATOM      4  O   UNL     1      25.168   4.925  25.727  1.00  0.00    -0.285 OA
ATOM      5  C   UNL     1      27.461   5.263  25.454  1.00  0.00     0.111 A 
ATOM      6  C   UNL     1      27.592   6.352  26.368  1.00  0.00     0.134 A 
ATOM      7  C   UNL     1      28.804   7.049  26.442  1.00  0.00     0.093 A 
ATOM      8  C   UNL     1      29.909   6.655  25.684  1.00  0.00     0.123 A 
ATOM      9  C   UNL     1      29.808   5.557  24.834  1.00  0.00     0.094 A 
ATOM     10  C   UNL     1      28.601   4.863  24.712  1.00  0.00     0.146 A 
ATOM     11  O   UNL     1      28.546   3.828  23.882  1.00  0.00    -0.452 OA
ENDROOT
BRANCH   1  12
ATOM     12  C   UNL     1      27.522   1.968  22.740  1.00  0.00     0.025 A 
ATOM     13  C   UNL     1      27.569   1.126  20.445  1.00  0.00     0.161 A 
ATOM     14  C   UNL     1      27.727  -0.178  20.934  1.00  0.00     0.157 A 
ATOM     15  C   UNL     1      27.474   2.197  21.355  1.00  0.00     0.062 A 
ATOM     16  C   UNL     1      27.796  -0.409  22.313  1.00  0.00     0.051 A 
ATOM     17  C   UNL     1      27.701   0.657  23.211  1.00  0.00     0.016 A 
BRANCH  13  18
ATOM     18  O   UNL     1      27.511   1.317  19.055  1.00  0.00    -0.493 OA
ATOM     19  C   UNL     1      26.514   2.082  18.388  1.00  0.00     0.278 C 
ENDBRANCH  13  18
BRANCH  14  20
ATOM     20  O   UNL     1      27.821  -1.243  20.038  1.00  0.00    -0.504 OA
ATOM     21  H   UNL     1      28.585  -1.906  20.082  1.00  0.00     0.293 HD
ENDBRANCH  14  20
ENDBRANCH   1  12
BRANCH   2  22
ATOM     22  O   UNL     1      25.062   2.796  24.028  1.00  0.00    -0.502 OA
ATOM     23  H   UNL     1      25.055   1.851  23.663  1.00  0.00     0.293 HD
ENDBRANCH   2  22
BRANCH   6  24
ATOM     24  O   UNL     1      26.579   6.769  27.236  1.00  0.00    -0.507 OA
ATOM     25  H   UNL     1      25.934   6.150  27.706  1.00  0.00     0.293 HD
ENDBRANCH   6  24
BRANCH   8  26
ATOM     26  O   UNL     1      31.116   7.345  25.775  1.00  0.00    -0.508 OA
ATOM     27  H   UNL     1      31.715   7.259  26.587  1.00  0.00     0.293 HD
ENDBRANCH   8  26
TORSDOF 6
ENDMDL
MODEL 8
REMARK VINA RESULT:    -6.121      1.633      7.184
REMARK INTER + INTRA:          -7.897
REMARK INTER:                  -7.562
REMARK INTRA:                  -0.336
REMARK UNBOUND:                -0.345
REMARK SMILES COc1cc(-c2oc3cc(O)cc(O)c3c(=O)c2O)ccc1O
REMARK SMILES IDX 6 1 18 2 16 3 17 4 15 5 13 6 12 7 10 8 9 9 8 10 7 11 5 12
REMARK SMILES IDX 3 13 22 14 4 15 21 16 20 17 2 18 1 19 23 20 19 22 14 24
REMARK SMILES IDX 11 26
REMARK H PARENT 23 21 19 23 14 25 11 27
REMARK Flexibility Score: inf
ROOT
ATOM      1  C   UNL     1      27.552   1.661  23.308  1.00  0.00     0.180 A 
ATOM      2  C   UNL     1      28.122   2.942  23.217  1.00  0.00     0.208 A 
ATOM      3  C   UNL     1      27.509   4.009  23.894  1.00  0.00     0.238 A 
ATOM      4  O   UNL     1      28.054   5.143  23.853  1.00  0.00    -0.285 OA
ATOM      5  C   UNL     1      26.326   3.785  24.638  1.00  0.00     0.111 A 
ATOM      6  C   UNL     1      25.599   4.800  25.330  1.00  0.00     0.134 A 
ATOM      7  C   UNL     1      24.516   4.442  26.142  1.00  0.00     0.093 A 
ATOM      8  C   UNL     1      24.093   3.114  26.235  1.00  0.00     0.123 A 
ATOM      9  C   UNL     1      24.760   2.125  25.517  1.00  0.00     0.094 A 
ATOM     10  C   UNL     1      25.867   2.446  24.727  1.00  0.00     0.146 A 
ATOM     11  O   UNL     1      26.479   1.470  24.067  1.00  0.00    -0.452 OA
ENDROOT
BRANCH   1  12
ATOM     12  C   UNL     1      28.126   0.491  22.603  1.00  0.00     0.025 A 
ATOM     13  C   UNL     1      28.526  -0.714  20.513  1.00  0.00     0.161 A 
ATOM     14  C   UNL     1      29.253  -1.683  21.219  1.00  0.00     0.157 A 
ATOM     15  C   UNL     1      27.970   0.376  21.212  1.00  0.00     0.062 A 
ATOM     16  C   UNL     1      29.428  -1.561  22.603  1.00  0.00     0.051 A 
ATOM     17  C   UNL     1      28.875  -0.478  23.290  1.00  0.00     0.016 A 
BRANCH  13  18
ATOM     18  O   UNL     1      28.379  -0.867  19.126  1.00  0.00    -0.493 OA
ATOM     19  C   UNL     1      27.144  -1.138  18.471  1.00  0.00     0.278 C 
ENDBRANCH  13  18
BRANCH  14  20
ATOM     20  O   UNL     1      29.805  -2.764  20.534  1.00  0.00    -0.504 OA
ATOM     21  H   UNL     1      30.536  -3.334  20.944  1.00  0.00     0.293 HD
ENDBRANCH  14  20
ENDBRANCH   1  12
BRANCH   2  22
ATOM     22  O   UNL     1      29.303   3.137  22.494  1.00  0.00    -0.502 OA
ATOM     23  H   UNL     1      29.707   2.416  21.910  1.00  0.00     0.293 HD
ENDBRANCH   2  22
BRANCH   6  24
ATOM     24  O   UNL     1      25.881   6.166  25.232  1.00  0.00    -0.507 OA
ATOM     25  H   UNL     1      26.760   6.550  24.919  1.00  0.00     0.293 HD
ENDBRANCH   6  24
BRANCH   8  26
ATOM     26  O   UNL     1      23.005   2.769  27.033  1.00  0.00    -0.508 OA
ATOM     27  H   UNL     1      22.961   1.876  27.511  1.00  0.00     0.293 HD
ENDBRANCH   8  26
TORSDOF 6
ENDMDL
MODEL 9
REMARK VINA RESULT:    -5.901      2.021      3.605
REMARK INTER + INTRA:          -7.626
REMARK INTER:                  -7.228
REMARK INTRA:                  -0.398
REMARK UNBOUND:                -0.345
REMARK SMILES COc1cc(-c2oc3cc(O)cc(O)c3c(=O)c2O)ccc1O
REMARK SMILES IDX 6 1 18 2 16 3 17 4 15 5 13 6 12 7 10 8 9 9 8 10 7 11 5 12
REMARK SMILES IDX 3 13 22 14 4 15 21 16 20 17 2 18 1 19 23 20 19 22 14 24
REMARK SMILES IDX 11 26
REMARK H PARENT 23 21 19 23 14 25 11 27
REMARK Flexibility Score: inf
ROOT
ATOM      1  C   UNL     1      27.469   1.240  21.856  1.00  0.00     0.180 A 
ATOM      2  C   UNL     1      28.018  -0.010  22.189  1.00  0.00     0.208 A 
ATOM      3  C   UNL     1      28.141  -0.988  21.188  1.00  0.00     0.238 A 
ATOM      4  O   UNL     1      28.684  -2.086  21.479  1.00  0.00    -0.285 OA
ATOM      5  C   UNL     1      27.698  -0.710  19.873  1.00  0.00     0.111 A 
ATOM      6  C   UNL     1      27.737  -1.640  18.791  1.00  0.00     0.134 A 
ATOM      7  C   UNL     1      27.394  -1.214  17.502  1.00  0.00     0.093 A 
ATOM      8  C   UNL     1      26.950   0.090  17.268  1.00  0.00     0.123 A 
ATOM      9  C   UNL     1      26.852   0.987  18.328  1.00  0.00     0.094 A 
ATOM     10  C   UNL     1      27.222   0.602  19.619  1.00  0.00     0.146 A 
ATOM     11  O   UNL     1      27.123   1.493  20.599  1.00  0.00    -0.452 OA
ENDROOT
BRANCH   1  12
ATOM     12  C   UNL     1      27.285   2.312  22.861  1.00  0.00     0.025 A 
ATOM     13  C   UNL     1      28.069   4.393  23.880  1.00  0.00     0.161 A 
ATOM     14  C   UNL     1      26.942   4.401  24.713  1.00  0.00     0.157 A 
ATOM     15  C   UNL     1      28.231   3.347  22.949  1.00  0.00     0.062 A 
ATOM     16  C   UNL     1      25.986   3.382  24.614  1.00  0.00     0.051 A 
ATOM     17  C   UNL     1      26.152   2.348  23.690  1.00  0.00     0.016 A 
BRANCH  13  18
ATOM     18  O   UNL     1      29.000   5.435  24.004  1.00  0.00    -0.493 OA
ATOM     19  C   UNL     1      30.305   5.289  24.552  1.00  0.00     0.278 C 
ENDBRANCH  13  18
BRANCH  14  20
ATOM     20  O   UNL     1      26.776   5.432  25.637  1.00  0.00    -0.504 OA
ATOM     21  H   UNL     1      25.910   5.955  25.697  1.00  0.00     0.293 HD
ENDBRANCH  14  20
ENDBRANCH   1  12
BRANCH   2  22
ATOM     22  O   UNL     1      28.470  -0.256  23.489  1.00  0.00    -0.502 OA
ATOM     23  H   UNL     1      29.405  -0.016  23.794  1.00  0.00     0.293 HD
ENDBRANCH   2  22
BRANCH   6  24
ATOM     24  O   UNL     1      28.077  -2.988  18.932  1.00  0.00    -0.507 OA
ATOM     25  H   UNL     1      28.772  -3.467  18.377  1.00  0.00     0.293 HD
ENDBRANCH   6  24
BRANCH   8  26
ATOM     26  O   UNL     1      26.596   0.501  15.985  1.00  0.00    -0.508 OA
ATOM     27  H   UNL     1      26.666   1.471  15.701  1.00  0.00     0.293 HD
ENDBRANCH   8  26
TORSDOF 6
ENDMDL
