MODEL 1
REMARK VINA RESULT:    -5.982      0.000      0.000
REMARK INTER + INTRA:          -5.982
REMARK INTER:                  -5.982
REMARK INTRA:                   0.000
REMARK UNBOUND:                 0.000
REMARK SMILES C[C@@H]1CCC=C2CC[C@H]3[C@@H](C3(C)C)[C@@]21C
REMARK SMILES IDX 1 1 2 2 3 3 4 4 5 5 6 6 14 7 10 8 9 9 11 10 12 11 13 12 8 13
REMARK SMILES IDX 7 14 15 15
REMARK H PARENT
REMARK Flexibility Score: inf
ROOT
ATOM      1  C   UNL     1     -43.179 -50.344  28.328  1.00  0.00     0.008 C 
ATOM      2  C   UNL     1     -41.917 -50.214  29.202  1.00  0.00    -0.004 C 
ATOM      3  C   UNL     1     -42.304 -49.925  30.659  1.00  0.00     0.008 C 
ATOM      4  C   UNL     1     -41.048 -49.972  31.522  1.00  0.00     0.027 C 
ATOM      5  C   UNL     1     -40.051 -48.959  31.048  1.00  0.00    -0.027 C 
ATOM      6  C   UNL     1     -39.948 -48.586  29.753  1.00  0.00    -0.068 C 
ATOM      7  C   UNL     1     -40.858 -49.180  28.640  1.00  0.00    -0.005 C 
ATOM      8  C   UNL     1     -41.604 -47.919  28.095  1.00  0.00     0.009 C 
ATOM      9  C   UNL     1     -40.500 -47.026  27.418  1.00  0.00    -0.000 C 
ATOM     10  C   UNL     1     -41.888 -47.124  26.829  1.00  0.00    -0.028 C 
ATOM     11  C   UNL     1     -42.766 -45.876  26.981  1.00  0.00     0.012 C 
ATOM     12  C   UNL     1     -42.068 -47.947  25.550  1.00  0.00     0.012 C 
ATOM     13  C   UNL     1     -39.869 -46.303  28.609  1.00  0.00     0.009 C 
ATOM     14  C   UNL     1     -39.080 -47.364  29.419  1.00  0.00     0.031 C 
ATOM     15  C   UNL     1     -39.970 -49.950  27.622  1.00  0.00     0.017 C 
ENDROOT
TORSDOF 0
ENDMDL
MODEL 2
REMARK VINA RESULT:    -5.809      1.539      4.536
REMARK INTER + INTRA:          -5.809
REMARK INTER:                  -5.809
REMARK INTRA:                   0.000
REMARK UNBOUND:                 0.000
REMARK SMILES C[C@@H]1CCC=C2CC[C@H]3[C@@H](C3(C)C)[C@@]21C
REMARK SMILES IDX 1 1 2 2 3 3 4 4 5 5 6 6 14 7 10 8 9 9 11 10 12 11 13 12 8 13
REMARK SMILES IDX 7 14 15 15
REMARK H PARENT
REMARK Flexibility Score: inf
ROOT
ATOM      1  C   UNL     1     -39.769 -49.352  27.750  1.00  0.00     0.008 C 
ATOM      2  C   UNL     1     -40.840 -48.301  27.401  1.00  0.00    -0.004 C 
ATOM      3  C   UNL     1     -40.399 -46.910  27.878  1.00  0.00     0.008 C 
ATOM      4  C   UNL     1     -41.396 -45.875  27.368  1.00  0.00     0.027 C 
ATOM      5  C   UNL     1     -42.771 -46.179  27.882  1.00  0.00    -0.027 C 
ATOM      6  C   UNL     1     -43.196 -47.436  28.133  1.00  0.00    -0.068 C 
ATOM      7  C   UNL     1     -42.292 -48.682  27.906  1.00  0.00    -0.005 C 
ATOM      8  C   UNL     1     -42.197 -49.303  29.337  1.00  0.00     0.009 C 
ATOM      9  C   UNL     1     -43.649 -49.794  29.690  1.00  0.00    -0.000 C 
ATOM     10  C   UNL     1     -42.436 -50.581  30.129  1.00  0.00    -0.028 C 
ATOM     11  C   UNL     1     -42.117 -50.532  31.629  1.00  0.00     0.012 C 
ATOM     12  C   UNL     1     -42.124 -51.889  29.396  1.00  0.00     0.012 C 
ATOM     13  C   UNL     1     -44.340 -48.509  30.149  1.00  0.00     0.009 C 
ATOM     14  C   UNL     1     -44.518 -47.615  28.894  1.00  0.00     0.031 C 
ATOM     15  C   UNL     1     -42.933 -49.576  26.807  1.00  0.00     0.017 C 
ENDROOT
TORSDOF 0
ENDMDL
MODEL 3
REMARK VINA RESULT:    -5.792      1.757      4.504
REMARK INTER + INTRA:          -5.792
REMARK INTER:                  -5.792
REMARK INTRA:                   0.000
REMARK UNBOUND:                 0.000
REMARK SMILES C[C@@H]1CCC=C2CC[C@H]3[C@@H](C3(C)C)[C@@]21C
REMARK SMILES IDX 1 1 2 2 3 3 4 4 5 5 6 6 14 7 10 8 9 9 11 10 12 11 13 12 8 13
REMARK SMILES IDX 7 14 15 15
REMARK H PARENT
REMARK Flexibility Score: inf
ROOT
ATOM      1  C   UNL     1     -40.931 -49.657  31.485  1.00  0.00     0.008 C 
ATOM      2  C   UNL     1     -40.850 -49.644  29.947  1.00  0.00    -0.004 C 
ATOM      3  C   UNL     1     -40.337 -48.286  29.450  1.00  0.00     0.008 C 
ATOM      4  C   UNL     1     -40.108 -48.365  27.944  1.00  0.00     0.027 C 
ATOM      5  C   UNL     1     -41.384 -48.718  27.241  1.00  0.00    -0.027 C 
ATOM      6  C   UNL     1     -42.340 -49.489  27.805  1.00  0.00    -0.068 C 
ATOM      7  C   UNL     1     -42.197 -50.080  29.236  1.00  0.00    -0.005 C 
ATOM      8  C   UNL     1     -43.410 -49.448  29.993  1.00  0.00     0.009 C 
ATOM      9  C   UNL     1     -44.697 -50.057  29.325  1.00  0.00    -0.000 C 
ATOM     10  C   UNL     1     -44.647 -49.789  30.811  1.00  0.00    -0.028 C 
ATOM     11  C   UNL     1     -45.494 -48.610  31.306  1.00  0.00     0.012 C 
ATOM     12  C   UNL     1     -44.515 -50.990  31.753  1.00  0.00     0.012 C 
ATOM     13  C   UNL     1     -44.865 -49.202  28.069  1.00  0.00     0.009 C 
ATOM     14  C   UNL     1     -43.706 -49.573  27.107  1.00  0.00     0.031 C 
ATOM     15  C   UNL     1     -42.176 -51.632  29.140  1.00  0.00     0.017 C 
ENDROOT
TORSDOF 0
ENDMDL
MODEL 4
REMARK VINA RESULT:    -5.733      1.689      3.984
REMARK INTER + INTRA:          -5.733
REMARK INTER:                  -5.733
REMARK INTRA:                   0.000
REMARK UNBOUND:                 0.000
REMARK SMILES C[C@@H]1CCC=C2CC[C@H]3[C@@H](C3(C)C)[C@@]21C
REMARK SMILES IDX 1 1 2 2 3 3 4 4 5 5 6 6 14 7 10 8 9 9 11 10 12 11 13 12 8 13
REMARK SMILES IDX 7 14 15 15
REMARK H PARENT
REMARK Flexibility Score: inf
ROOT
ATOM      1  C   UNL     1     -40.964 -46.627  26.103  1.00  0.00     0.008 C 
ATOM      2  C   UNL     1     -41.226 -47.202  27.508  1.00  0.00    -0.004 C 
ATOM      3  C   UNL     1     -40.099 -48.164  27.910  1.00  0.00     0.008 C 
ATOM      4  C   UNL     1     -40.300 -48.579  29.364  1.00  0.00     0.027 C 
ATOM      5  C   UNL     1     -41.629 -49.250  29.535  1.00  0.00    -0.027 C 
ATOM      6  C   UNL     1     -42.708 -48.937  28.784  1.00  0.00    -0.068 C 
ATOM      7  C   UNL     1     -42.662 -47.848  27.673  1.00  0.00    -0.005 C 
ATOM      8  C   UNL     1     -43.018 -48.657  26.383  1.00  0.00     0.009 C 
ATOM      9  C   UNL     1     -44.508 -49.125  26.567  1.00  0.00    -0.000 C 
ATOM     10  C   UNL     1     -43.984 -48.715  25.210  1.00  0.00    -0.028 C 
ATOM     11  C   UNL     1     -43.779 -49.854  24.203  1.00  0.00     0.012 C 
ATOM     12  C   UNL     1     -44.432 -47.363  24.646  1.00  0.00     0.012 C 
ATOM     13  C   UNL     1     -44.370 -50.357  27.462  1.00  0.00     0.009 C 
ATOM     14  C   UNL     1     -43.937 -49.854  28.864  1.00  0.00     0.031 C 
ATOM     15  C   UNL     1     -43.635 -46.697  28.056  1.00  0.00     0.017 C 
ENDROOT
TORSDOF 0
ENDMDL
MODEL 5
REMARK VINA RESULT:    -5.721      1.554      4.469
REMARK INTER + INTRA:          -5.721
REMARK INTER:                  -5.721
REMARK INTRA:                   0.000
REMARK UNBOUND:                 0.000
REMARK SMILES C[C@@H]1CCC=C2CC[C@H]3[C@@H](C3(C)C)[C@@]21C
REMARK SMILES IDX 1 1 2 2 3 3 4 4 5 5 6 6 14 7 10 8 9 9 11 10 12 11 13 12 8 13
REMARK SMILES IDX 7 14 15 15
REMARK H PARENT
REMARK Flexibility Score: inf
ROOT
ATOM      1  C   UNL     1     -45.070 -49.470  26.552  1.00  0.00     0.008 C 
ATOM      2  C   UNL     1     -44.065 -48.307  26.447  1.00  0.00    -0.004 C 
ATOM      3  C   UNL     1     -43.261 -48.412  25.144  1.00  0.00     0.008 C 
ATOM      4  C   UNL     1     -42.403 -47.159  24.992  1.00  0.00     0.027 C 
ATOM      5  C   UNL     1     -41.472 -47.021  26.157  1.00  0.00    -0.027 C 
ATOM      6  C   UNL     1     -41.781 -47.462  27.397  1.00  0.00    -0.068 C 
ATOM      7  C   UNL     1     -43.138 -48.151  27.720  1.00  0.00    -0.005 C 
ATOM      8  C   UNL     1     -42.695 -49.567  28.216  1.00  0.00     0.009 C 
ATOM      9  C   UNL     1     -41.918 -49.328  29.562  1.00  0.00    -0.000 C 
ATOM     10  C   UNL     1     -42.804 -50.539  29.381  1.00  0.00    -0.028 C 
ATOM     11  C   UNL     1     -42.076 -51.880  29.231  1.00  0.00     0.012 C 
ATOM     12  C   UNL     1     -44.151 -50.559  30.110  1.00  0.00     0.012 C 
ATOM     13  C   UNL     1     -40.527 -48.913  29.083  1.00  0.00     0.009 C 
ATOM     14  C   UNL     1     -40.664 -47.504  28.450  1.00  0.00     0.031 C 
ATOM     15  C   UNL     1     -43.916 -47.275  28.743  1.00  0.00     0.017 C 
ENDROOT
TORSDOF 0
ENDMDL
MODEL 6
REMARK VINA RESULT:    -5.716      3.638      6.224
REMARK INTER + INTRA:          -5.716
REMARK INTER:                  -5.716
REMARK INTRA:                   0.000
REMARK UNBOUND:                 0.000
REMARK SMILES C[C@@H]1CCC=C2CC[C@H]3[C@@H](C3(C)C)[C@@]21C
REMARK SMILES IDX 1 1 2 2 3 3 4 4 5 5 6 6 14 7 10 8 9 9 11 10 12 11 13 12 8 13
REMARK SMILES IDX 7 14 15 15
REMARK H PARENT
REMARK Flexibility Score: inf
ROOT
ATOM      1  C   UNL     1     -45.839 -49.430  29.804  1.00  0.00     0.008 C 
ATOM      2  C   UNL     1     -46.300 -49.972  31.170  1.00  0.00    -0.004 C 
ATOM      3  C   UNL     1     -46.608 -48.813  32.129  1.00  0.00     0.008 C 
ATOM      4  C   UNL     1     -47.220 -49.379  33.406  1.00  0.00     0.027 C 
ATOM      5  C   UNL     1     -46.273 -50.341  34.056  1.00  0.00    -0.027 C 
ATOM      6  C   UNL     1     -45.401 -51.097  33.352  1.00  0.00    -0.068 C 
ATOM      7  C   UNL     1     -45.307 -51.032  31.801  1.00  0.00    -0.005 C 
ATOM      8  C   UNL     1     -43.833 -50.567  31.564  1.00  0.00     0.009 C 
ATOM      9  C   UNL     1     -42.923 -51.744  32.075  1.00  0.00    -0.000 C 
ATOM     10  C   UNL     1     -42.537 -50.936  30.857  1.00  0.00    -0.028 C 
ATOM     11  C   UNL     1     -41.354 -49.978  31.041  1.00  0.00     0.012 C 
ATOM     12  C   UNL     1     -42.691 -51.592  29.482  1.00  0.00     0.012 C 
ATOM     13  C   UNL     1     -42.893 -51.519  33.587  1.00  0.00     0.009 C 
ATOM     14  C   UNL     1     -44.309 -51.851  34.125  1.00  0.00     0.031 C 
ATOM     15  C   UNL     1     -45.695 -52.420  31.215  1.00  0.00     0.017 C 
ENDROOT
TORSDOF 0
ENDMDL
MODEL 7
REMARK VINA RESULT:    -5.710     11.462     13.220
REMARK INTER + INTRA:          -5.710
REMARK INTER:                  -5.710
REMARK INTRA:                   0.000
REMARK UNBOUND:                 0.000
REMARK SMILES C[C@@H]1CCC=C2CC[C@H]3[C@@H](C3(C)C)[C@@]21C
REMARK SMILES IDX 1 1 2 2 3 3 4 4 5 5 6 6 14 7 10 8 9 9 11 10 12 11 13 12 8 13
REMARK SMILES IDX 7 14 15 15
REMARK H PARENT
REMARK Flexibility Score: inf
ROOT
ATOM      1  C   UNL     1     -54.138 -49.325  22.151  1.00  0.00     0.008 C 
ATOM      2  C   UNL     1     -53.037 -48.324  22.550  1.00  0.00    -0.004 C 
ATOM      3  C   UNL     1     -53.493 -46.887  22.263  1.00  0.00     0.008 C 
ATOM      4  C   UNL     1     -52.456 -45.919  22.824  1.00  0.00     0.027 C 
ATOM      5  C   UNL     1     -51.118 -46.167  22.195  1.00  0.00    -0.027 C 
ATOM      6  C   UNL     1     -50.722 -47.389  21.778  1.00  0.00    -0.068 C 
ATOM      7  C   UNL     1     -51.623 -48.649  21.917  1.00  0.00    -0.005 C 
ATOM      8  C   UNL     1     -51.812 -49.104  20.433  1.00  0.00     0.009 C 
ATOM      9  C   UNL     1     -50.389 -49.555  19.937  1.00  0.00    -0.000 C 
ATOM     10  C   UNL     1     -51.635 -50.283  19.488  1.00  0.00    -0.028 C 
ATOM     11  C   UNL     1     -52.044 -50.063  18.026  1.00  0.00     0.012 C 
ATOM     12  C   UNL     1     -51.914 -51.666  20.085  1.00  0.00     0.012 C 
ATOM     13  C   UNL     1     -49.714 -48.229  19.586  1.00  0.00     0.009 C 
ATOM     14  C   UNL     1     -49.451 -47.485  20.920  1.00  0.00     0.031 C 
ATOM     15  C   UNL     1     -50.925 -49.665  22.866  1.00  0.00     0.017 C 
ENDROOT
TORSDOF 0
ENDMDL
MODEL 8
REMARK VINA RESULT:    -5.698     10.058     12.664
REMARK INTER + INTRA:          -5.698
REMARK INTER:                  -5.698
REMARK INTRA:                   0.000
REMARK UNBOUND:                 0.000
REMARK SMILES C[C@@H]1CCC=C2CC[C@H]3[C@@H](C3(C)C)[C@@]21C
REMARK SMILES IDX 1 1 2 2 3 3 4 4 5 5 6 6 14 7 10 8 9 9 11 10 12 11 13 12 8 13
REMARK SMILES IDX 7 14 15 15
REMARK H PARENT
REMARK Flexibility Score: inf
ROOT
ATOM      1  C   UNL     1     -53.400 -46.624  24.005  1.00  0.00     0.008 C 
ATOM      2  C   UNL     1     -53.136 -47.132  22.575  1.00  0.00    -0.004 C 
ATOM      3  C   UNL     1     -54.221 -48.133  22.154  1.00  0.00     0.008 C 
ATOM      4  C   UNL     1     -54.026 -48.482  20.682  1.00  0.00     0.027 C 
ATOM      5  C   UNL     1     -52.669 -49.078  20.464  1.00  0.00    -0.027 C 
ATOM      6  C   UNL     1     -51.593 -48.741  21.209  1.00  0.00    -0.068 C 
ATOM      7  C   UNL     1     -51.673 -47.699  22.362  1.00  0.00    -0.005 C 
ATOM      8  C   UNL     1     -51.255 -48.537  23.613  1.00  0.00     0.009 C 
ATOM      9  C   UNL     1     -49.747 -48.923  23.388  1.00  0.00    -0.000 C 
ATOM     10  C   UNL     1     -50.265 -48.592  24.768  1.00  0.00    -0.028 C 
ATOM     11  C   UNL     1     -50.396 -49.777  25.733  1.00  0.00     0.012 C 
ATOM     12  C   UNL     1     -49.875 -47.242  25.377  1.00  0.00     0.012 C 
ATOM     13  C   UNL     1     -49.840 -50.125  22.448  1.00  0.00     0.009 C 
ATOM     14  C   UNL     1     -50.322 -49.592  21.073  1.00  0.00     0.031 C 
ATOM     15  C   UNL     1     -50.765 -46.487  22.008  1.00  0.00     0.017 C 
ENDROOT
TORSDOF 0
ENDMDL
MODEL 9
REMARK VINA RESULT:    -5.673     10.462     12.972
REMARK INTER + INTRA:          -5.673
REMARK INTER:                  -5.673
REMARK INTRA:                   0.000
REMARK UNBOUND:                 0.000
REMARK SMILES C[C@@H]1CCC=C2CC[C@H]3[C@@H](C3(C)C)[C@@]21C
REMARK SMILES IDX 1 1 2 2 3 3 4 4 5 5 6 6 14 7 10 8 9 9 11 10 12 11 13 12 8 13
REMARK SMILES IDX 7 14 15 15
REMARK H PARENT
REMARK Flexibility Score: inf
ROOT
ATOM      1  C   UNL     1     -49.024 -46.684  22.469  1.00  0.00     0.008 C 
ATOM      2  C   UNL     1     -49.130 -47.857  21.477  1.00  0.00    -0.004 C 
ATOM      3  C   UNL     1     -48.892 -47.366  20.042  1.00  0.00     0.008 C 
ATOM      4  C   UNL     1     -48.835 -48.573  19.111  1.00  0.00     0.027 C 
ATOM      5  C   UNL     1     -50.118 -49.345  19.180  1.00  0.00    -0.027 C 
ATOM      6  C   UNL     1     -50.872 -49.411  20.299  1.00  0.00    -0.068 C 
ATOM      7  C   UNL     1     -50.470 -48.689  21.617  1.00  0.00    -0.005 C 
ATOM      8  C   UNL     1     -51.666 -47.710  21.852  1.00  0.00     0.009 C 
ATOM      9  C   UNL     1     -52.917 -48.620  22.138  1.00  0.00    -0.000 C 
ATOM     10  C   UNL     1     -52.730 -47.306  22.862  1.00  0.00    -0.028 C 
ATOM     11  C   UNL     1     -53.681 -46.176  22.448  1.00  0.00     0.012 C 
ATOM     12  C   UNL     1     -52.306 -47.351  24.333  1.00  0.00     0.012 C 
ATOM     13  C   UNL     1     -53.361 -49.038  20.737  1.00  0.00     0.009 C 
ATOM     14  C   UNL     1     -52.282 -50.008  20.188  1.00  0.00     0.031 C 
ATOM     15  C   UNL     1     -50.226 -49.757  22.722  1.00  0.00     0.017 C 
ENDROOT
TORSDOF 0
ENDMDL
