MODEL 1
REMARK VINA RESULT:    -4.531      0.000      0.000
REMARK INTER + INTRA:          -7.424
REMARK INTER:                  -6.253
REMARK INTRA:                  -1.171
REMARK UNBOUND:                -1.171
REMARK SMILES CCCCc1cccc(O)c1CCCC
REMARK SMILES IDX 5 1 11 2 9 3 8 4 7 5 6 6 4 7 3 8 2 9 1 10 12 11 13 12 14 13
REMARK SMILES IDX 15 14 10 15
REMARK H PARENT 10 16
REMARK Flexibility Score: inf
ROOT
ATOM      1  C   UNL     1      25.992 -40.066   0.293  1.00  0.00    -0.041 A 
ATOM      2  C   UNL     1      26.115 -38.932  -0.565  1.00  0.00    -0.003 A 
ATOM      3  C   UNL     1      26.242 -37.642   0.021  1.00  0.00     0.119 A 
ATOM      4  C   UNL     1      26.190 -37.495   1.409  1.00  0.00     0.046 A 
ATOM      5  C   UNL     1      26.043 -38.604   2.236  1.00  0.00     0.004 A 
ATOM      6  C   UNL     1      25.954 -39.877   1.685  1.00  0.00     0.004 A 
ENDROOT
BRANCH   1   7
ATOM      7  C   UNL     1      25.876 -41.486  -0.229  1.00  0.00     0.036 C 
BRANCH   7   8
ATOM      8  C   UNL     1      27.040 -42.377   0.236  1.00  0.00     0.004 C 
BRANCH   8   9
ATOM      9  C   UNL     1      28.225 -42.352  -0.742  1.00  0.00    -0.003 C 
ATOM     10  C   UNL     1      28.965 -43.686  -0.743  1.00  0.00     0.004 C 
ENDBRANCH   8   9
ENDBRANCH   7   8
ENDBRANCH   1   7
BRANCH   2  11
ATOM     11  C   UNL     1      26.173 -39.090  -2.075  1.00  0.00     0.040 C 
BRANCH  11  12
ATOM     12  C   UNL     1      27.616 -39.333  -2.542  1.00  0.00     0.005 C 
BRANCH  12  13
ATOM     13  C   UNL     1      27.695 -40.292  -3.739  1.00  0.00    -0.003 C 
ATOM     14  C   UNL     1      26.455 -41.177  -3.868  1.00  0.00     0.004 C 
ENDBRANCH  12  13
ENDBRANCH  11  12
ENDBRANCH   2  11
BRANCH   3  15
ATOM     15  O   UNL     1      26.433 -36.483  -0.736  1.00  0.00    -0.508 OA
ATOM     16  H   UNL     1      25.807 -36.171  -1.467  1.00  0.00     0.293 HD
ENDBRANCH   3  15
TORSDOF 7
ENDMDL
MODEL 2
REMARK VINA RESULT:    -4.228      1.557      3.464
REMARK INTER + INTRA:          -7.005
REMARK INTER:                  -5.786
REMARK INTRA:                  -1.219
REMARK UNBOUND:                -1.171
REMARK SMILES CCCCc1cccc(O)c1CCCC
REMARK SMILES IDX 5 1 11 2 9 3 8 4 7 5 6 6 4 7 3 8 2 9 1 10 12 11 13 12 14 13
REMARK SMILES IDX 15 14 10 15
REMARK H PARENT 10 16
REMARK Flexibility Score: inf
ROOT
ATOM      1  C   UNL     1      25.960 -39.185  -0.395  1.00  0.00    -0.041 A 
ATOM      2  C   UNL     1      25.956 -40.231   0.575  1.00  0.00    -0.003 A 
ATOM      3  C   UNL     1      25.970 -39.884   1.955  1.00  0.00     0.119 A 
ATOM      4  C   UNL     1      26.043 -38.543   2.339  1.00  0.00     0.046 A 
ATOM      5  C   UNL     1      26.073 -37.532   1.386  1.00  0.00     0.004 A 
ATOM      6  C   UNL     1      26.023 -37.848   0.032  1.00  0.00     0.004 A 
ENDROOT
BRANCH   1   7
ATOM      7  C   UNL     1      25.920 -39.446  -1.889  1.00  0.00     0.036 C 
BRANCH   7   8
ATOM      8  C   UNL     1      27.291 -39.244  -2.555  1.00  0.00     0.004 C 
BRANCH   8   9
ATOM      9  C   UNL     1      27.464 -40.104  -3.816  1.00  0.00    -0.003 C 
ATOM     10  C   UNL     1      26.334 -41.122  -3.946  1.00  0.00     0.004 C 
ENDBRANCH   8   9
ENDBRANCH   7   8
ENDBRANCH   1   7
BRANCH   2  11
ATOM     11  C   UNL     1      25.876 -41.690   0.160  1.00  0.00     0.040 C 
BRANCH  11  12
ATOM     12  C   UNL     1      27.213 -42.403   0.413  1.00  0.00     0.005 C 
BRANCH  12  13
ATOM     13  C   UNL     1      27.919 -42.813  -0.888  1.00  0.00    -0.003 C 
ATOM     14  C   UNL     1      29.149 -41.956  -1.188  1.00  0.00     0.004 C 
ENDBRANCH  12  13
ENDBRANCH  11  12
ENDBRANCH   2  11
BRANCH   3  15
ATOM     15  O   UNL     1      25.903 -40.837   2.975  1.00  0.00    -0.508 OA
ATOM     16  H   UNL     1      25.334 -41.673   2.938  1.00  0.00     0.293 HD
ENDBRANCH   3  15
TORSDOF 7
ENDMDL
MODEL 3
REMARK VINA RESULT:    -3.439     20.907     22.470
REMARK INTER + INTRA:          -5.916
REMARK INTER:                  -4.498
REMARK INTRA:                  -1.418
REMARK UNBOUND:                -1.171
REMARK SMILES CCCCc1cccc(O)c1CCCC
REMARK SMILES IDX 5 1 11 2 9 3 8 4 7 5 6 6 4 7 3 8 2 9 1 10 12 11 13 12 14 13
REMARK SMILES IDX 15 14 10 15
REMARK H PARENT 10 16
REMARK Flexibility Score: inf
ROOT
ATOM      1  C   UNL     1      43.301 -30.186  11.174  1.00  0.00    -0.041 A 
ATOM      2  C   UNL     1      42.561 -31.399  11.303  1.00  0.00    -0.003 A 
ATOM      3  C   UNL     1      41.282 -31.488  10.686  1.00  0.00     0.119 A 
ATOM      4  C   UNL     1      40.748 -30.384  10.017  1.00  0.00     0.046 A 
ATOM      5  C   UNL     1      41.467 -29.198   9.919  1.00  0.00     0.004 A 
ATOM      6  C   UNL     1      42.734 -29.102  10.483  1.00  0.00     0.004 A 
ENDROOT
BRANCH   1   7
ATOM      7  C   UNL     1      44.683 -29.996  11.771  1.00  0.00     0.036 C 
BRANCH   7   8
ATOM      8  C   UNL     1      45.721 -29.570  10.719  1.00  0.00     0.004 C 
BRANCH   8   9
ATOM      9  C   UNL     1      46.028 -30.687   9.711  1.00  0.00    -0.003 C 
ATOM     10  C   UNL     1      45.606 -30.286   8.301  1.00  0.00     0.004 C 
ENDBRANCH   8   9
ENDBRANCH   7   8
ENDBRANCH   1   7
BRANCH   2  11
ATOM     11  C   UNL     1      43.139 -32.601  12.029  1.00  0.00     0.040 C 
BRANCH  11  12
ATOM     12  C   UNL     1      43.957 -33.477  11.067  1.00  0.00     0.005 C 
BRANCH  12  13
ATOM     13  C   UNL     1      45.355 -33.805  11.612  1.00  0.00    -0.003 C 
ATOM     14  C   UNL     1      45.564 -33.304  13.041  1.00  0.00     0.004 C 
ENDBRANCH  12  13
ENDBRANCH  11  12
ENDBRANCH   2  11
BRANCH   3  15
ATOM     15  O   UNL     1      40.513 -32.656  10.704  1.00  0.00    -0.508 OA
ATOM     16  H   UNL     1      40.898 -33.591  10.727  1.00  0.00     0.293 HD
ENDBRANCH   3  15
TORSDOF 7
ENDMDL
MODEL 4
REMARK VINA RESULT:    -3.417     20.861     22.337
REMARK INTER + INTRA:          -5.887
REMARK INTER:                  -4.837
REMARK INTRA:                  -1.050
REMARK UNBOUND:                -1.171
REMARK SMILES CCCCc1cccc(O)c1CCCC
REMARK SMILES IDX 5 1 11 2 9 3 8 4 7 5 6 6 4 7 3 8 2 9 1 10 12 11 13 12 14 13
REMARK SMILES IDX 15 14 10 15
REMARK H PARENT 10 16
REMARK Flexibility Score: inf
ROOT
ATOM      1  C   UNL     1      44.686 -31.024  11.526  1.00  0.00    -0.041 A 
ATOM      2  C   UNL     1      43.377 -30.627  11.121  1.00  0.00    -0.003 A 
ATOM      3  C   UNL     1      43.207 -30.042   9.836  1.00  0.00     0.119 A 
ATOM      4  C   UNL     1      44.316 -29.813   9.017  1.00  0.00     0.046 A 
ATOM      5  C   UNL     1      45.591 -30.180   9.432  1.00  0.00     0.004 A 
ATOM      6  C   UNL     1      45.775 -30.787  10.669  1.00  0.00     0.004 A 
ENDROOT
BRANCH   1   7
ATOM      7  C   UNL     1      44.972 -31.680  12.864  1.00  0.00     0.036 C 
BRANCH   7   8
ATOM      8  C   UNL     1      45.697 -33.028  12.712  1.00  0.00     0.004 C 
BRANCH   8   9
ATOM      9  C   UNL     1      44.855 -34.064  11.952  1.00  0.00    -0.003 C 
ATOM     10  C   UNL     1      43.855 -34.747  12.880  1.00  0.00     0.004 C 
ENDBRANCH   8   9
ENDBRANCH   7   8
ENDBRANCH   1   7
BRANCH   2  11
ATOM     11  C   UNL     1      42.170 -30.875  12.009  1.00  0.00     0.040 C 
BRANCH  11  12
ATOM     12  C   UNL     1      41.539 -32.242  11.702  1.00  0.00     0.005 C 
BRANCH  12  13
ATOM     13  C   UNL     1      40.016 -32.162  11.521  1.00  0.00    -0.003 C 
ATOM     14  C   UNL     1      39.601 -32.055  10.053  1.00  0.00     0.004 C 
ENDBRANCH  12  13
ENDBRANCH  11  12
ENDBRANCH   2  11
BRANCH   3  15
ATOM     15  O   UNL     1      41.955 -29.682   9.328  1.00  0.00    -0.508 OA
ATOM     16  H   UNL     1      41.795 -28.900   8.708  1.00  0.00     0.293 HD
ENDBRANCH   3  15
TORSDOF 7
ENDMDL
MODEL 5
REMARK VINA RESULT:    -3.328     20.323     21.763
REMARK INTER + INTRA:          -5.764
REMARK INTER:                  -4.351
REMARK INTRA:                  -1.413
REMARK UNBOUND:                -1.171
REMARK SMILES CCCCc1cccc(O)c1CCCC
REMARK SMILES IDX 5 1 11 2 9 3 8 4 7 5 6 6 4 7 3 8 2 9 1 10 12 11 13 12 14 13
REMARK SMILES IDX 15 14 10 15
REMARK H PARENT 10 16
REMARK Flexibility Score: inf
ROOT
ATOM      1  C   UNL     1      41.806 -31.854  12.156  1.00  0.00    -0.041 A 
ATOM      2  C   UNL     1      41.983 -30.867  11.140  1.00  0.00    -0.003 A 
ATOM      3  C   UNL     1      40.875 -30.533  10.312  1.00  0.00     0.119 A 
ATOM      4  C   UNL     1      39.659 -31.204  10.464  1.00  0.00     0.046 A 
ATOM      5  C   UNL     1      39.505 -32.182  11.440  1.00  0.00     0.004 A 
ATOM      6  C   UNL     1      40.564 -32.499  12.284  1.00  0.00     0.004 A 
ENDROOT
BRANCH   1   7
ATOM      7  C   UNL     1      42.915 -32.265  13.108  1.00  0.00     0.036 C 
BRANCH   7   8
ATOM      8  C   UNL     1      43.234 -33.767  13.021  1.00  0.00     0.004 C 
BRANCH   8   9
ATOM      9  C   UNL     1      44.153 -34.103  11.836  1.00  0.00    -0.003 C 
ATOM     10  C   UNL     1      45.617 -34.122  12.264  1.00  0.00     0.004 C 
ENDBRANCH   8   9
ENDBRANCH   7   8
ENDBRANCH   1   7
BRANCH   2  11
ATOM     11  C   UNL     1      43.304 -30.136  10.974  1.00  0.00     0.040 C 
BRANCH  11  12
ATOM     12  C   UNL     1      44.206 -30.864   9.966  1.00  0.00     0.005 C 
BRANCH  12  13
ATOM     13  C   UNL     1      45.683 -30.864  10.388  1.00  0.00    -0.003 C 
ATOM     14  C   UNL     1      45.888 -30.359  11.816  1.00  0.00     0.004 C 
ENDBRANCH  12  13
ENDBRANCH  11  12
ENDBRANCH   2  11
BRANCH   3  15
ATOM     15  O   UNL     1      40.936 -29.535   9.336  1.00  0.00    -0.508 OA
ATOM     16  H   UNL     1      40.127 -29.068   8.948  1.00  0.00     0.293 HD
ENDBRANCH   3  15
TORSDOF 7
ENDMDL
MODEL 6
REMARK VINA RESULT:    -3.273     21.024     22.623
REMARK INTER + INTRA:          -5.687
REMARK INTER:                  -4.520
REMARK INTRA:                  -1.168
REMARK UNBOUND:                -1.171
REMARK SMILES CCCCc1cccc(O)c1CCCC
REMARK SMILES IDX 5 1 11 2 9 3 8 4 7 5 6 6 4 7 3 8 2 9 1 10 12 11 13 12 14 13
REMARK SMILES IDX 15 14 10 15
REMARK H PARENT 10 16
REMARK Flexibility Score: inf
ROOT
ATOM      1  C   UNL     1      43.456 -30.328  11.361  1.00  0.00    -0.041 A 
ATOM      2  C   UNL     1      44.596 -30.939  10.758  1.00  0.00    -0.003 A 
ATOM      3  C   UNL     1      44.965 -30.547   9.441  1.00  0.00     0.119 A 
ATOM      4  C   UNL     1      44.186 -29.623   8.740  1.00  0.00     0.046 A 
ATOM      5  C   UNL     1      43.062 -29.053   9.327  1.00  0.00     0.004 A 
ATOM      6  C   UNL     1      42.704 -29.395  10.627  1.00  0.00     0.004 A 
ENDROOT
BRANCH   1   7
ATOM      7  C   UNL     1      42.993 -30.655  12.768  1.00  0.00     0.036 C 
BRANCH   7   8
ATOM      8  C   UNL     1      41.472 -30.872  12.848  1.00  0.00     0.004 C 
BRANCH   8   9
ATOM      9  C   UNL     1      41.053 -32.267  12.359  1.00  0.00    -0.003 C 
ATOM     10  C   UNL     1      40.165 -32.171  11.122  1.00  0.00     0.004 C 
ENDBRANCH   8   9
ENDBRANCH   7   8
ENDBRANCH   1   7
BRANCH   2  11
ATOM     11  C   UNL     1      45.445 -31.943  11.518  1.00  0.00     0.040 C 
BRANCH  11  12
ATOM     12  C   UNL     1      44.918 -33.371  11.307  1.00  0.00     0.005 C 
BRANCH  12  13
ATOM     13  C   UNL     1      45.129 -34.266  12.538  1.00  0.00    -0.003 C 
ATOM     14  C   UNL     1      43.823 -34.859  13.066  1.00  0.00     0.004 C 
ENDBRANCH  12  13
ENDBRANCH  11  12
ENDBRANCH   2  11
BRANCH   3  15
ATOM     15  O   UNL     1      46.102 -31.043   8.796  1.00  0.00    -0.508 OA
ATOM     16  H   UNL     1      46.230 -31.049   7.793  1.00  0.00     0.293 HD
ENDBRANCH   3  15
TORSDOF 7
ENDMDL
MODEL 7
REMARK VINA RESULT:    -3.049     20.916     22.592
REMARK INTER + INTRA:          -5.379
REMARK INTER:                  -4.313
REMARK INTRA:                  -1.066
REMARK UNBOUND:                -1.171
REMARK SMILES CCCCc1cccc(O)c1CCCC
REMARK SMILES IDX 5 1 11 2 9 3 8 4 7 5 6 6 4 7 3 8 2 9 1 10 12 11 13 12 14 13
REMARK SMILES IDX 15 14 10 15
REMARK H PARENT 10 16
REMARK Flexibility Score: inf
ROOT
ATOM      1  C   UNL     1      43.056 -30.257  10.660  1.00  0.00    -0.041 A 
ATOM      2  C   UNL     1      43.852 -30.572  11.802  1.00  0.00    -0.003 A 
ATOM      3  C   UNL     1      45.266 -30.464  11.700  1.00  0.00     0.119 A 
ATOM      4  C   UNL     1      45.857 -30.110  10.484  1.00  0.00     0.046 A 
ATOM      5  C   UNL     1      45.073 -29.829   9.370  1.00  0.00     0.004 A 
ATOM      6  C   UNL     1      43.687 -29.893   9.458  1.00  0.00     0.004 A 
ENDROOT
BRANCH   1   7
ATOM      7  C   UNL     1      41.540 -30.314  10.671  1.00  0.00     0.036 C 
BRANCH   7   8
ATOM      8  C   UNL     1      41.000 -31.633  10.091  1.00  0.00     0.004 C 
BRANCH   8   9
ATOM      9  C   UNL     1      39.620 -32.001  10.657  1.00  0.00    -0.003 C 
ATOM     10  C   UNL     1      39.328 -31.228  11.939  1.00  0.00     0.004 C 
ENDBRANCH   8   9
ENDBRANCH   7   8
ENDBRANCH   1   7
BRANCH   2  11
ATOM     11  C   UNL     1      43.212 -30.957  13.125  1.00  0.00     0.040 C 
BRANCH  11  12
ATOM     12  C   UNL     1      42.768 -32.428  13.107  1.00  0.00     0.005 C 
BRANCH  12  13
ATOM     13  C   UNL     1      43.949 -33.399  12.955  1.00  0.00    -0.003 C 
ATOM     14  C   UNL     1      43.936 -34.138  11.617  1.00  0.00     0.004 C 
ENDBRANCH  12  13
ENDBRANCH  11  12
ENDBRANCH   2  11
BRANCH   3  15
ATOM     15  O   UNL     1      46.122 -30.690  12.782  1.00  0.00    -0.508 OA
ATOM     16  H   UNL     1      46.311 -30.013  13.510  1.00  0.00     0.293 HD
ENDBRANCH   3  15
TORSDOF 7
ENDMDL
