MODEL 1
REMARK VINA RESULT:    -4.156      0.000      0.000
REMARK INTER + INTRA:          -4.156
REMARK INTER:                  -4.156
REMARK INTRA:                   0.000
REMARK UNBOUND:                 0.000
REMARK SMILES CC1=CC[C@H]2C[C@@H]1C2(C)C
REMARK SMILES IDX 1 1 2 2 3 3 4 4 5 5 6 6 7 7 8 8 9 9 10 10
REMARK H PARENT
REMARK Flexibility Score: inf
ROOT
ATOM      1  C   UNL     1     165.166 169.016 197.204  1.00  0.00     0.039 C 
ATOM      2  C   UNL     1     164.454 168.887 198.516  1.00  0.00    -0.074 C 
ATOM      3  C   UNL     1     164.827 169.624 199.603  1.00  0.00    -0.027 C 
ATOM      4  C   UNL     1     164.070 169.421 200.932  1.00  0.00     0.031 C 
ATOM      5  C   UNL     1     162.923 168.369 200.741  1.00  0.00    -0.000 C 
ATOM      6  C   UNL     1     162.198 168.772 199.441  1.00  0.00     0.013 C 
ATOM      7  C   UNL     1     163.263 167.937 198.701  1.00  0.00     0.021 C 
ATOM      8  C   UNL     1     163.458 167.113 200.000  1.00  0.00    -0.026 C 
ATOM      9  C   UNL     1     164.886 166.600 200.340  1.00  0.00     0.012 C 
ATOM     10  C   UNL     1     162.478 165.916 200.093  1.00  0.00     0.012 C 
ENDROOT
TORSDOF 0
ENDMDL
MODEL 2
REMARK VINA RESULT:    -4.138      4.799      6.941
REMARK INTER + INTRA:          -4.138
REMARK INTER:                  -4.138
REMARK INTRA:                   0.000
REMARK UNBOUND:                 0.000
REMARK SMILES CC1=CC[C@H]2C[C@@H]1C2(C)C
REMARK SMILES IDX 1 1 2 2 3 3 4 4 5 5 6 6 7 7 8 8 9 9 10 10
REMARK H PARENT
REMARK Flexibility Score: inf
ROOT
ATOM      1  C   UNL     1     166.847 162.994 197.227  1.00  0.00     0.039 C 
ATOM      2  C   UNL     1     167.552 163.116 198.544  1.00  0.00    -0.074 C 
ATOM      3  C   UNL     1     167.184 162.361 199.621  1.00  0.00    -0.027 C 
ATOM      4  C   UNL     1     167.933 162.559 200.955  1.00  0.00     0.031 C 
ATOM      5  C   UNL     1     169.068 163.627 200.781  1.00  0.00    -0.000 C 
ATOM      6  C   UNL     1     169.803 163.249 199.479  1.00  0.00     0.013 C 
ATOM      7  C   UNL     1     168.731 164.079 198.744  1.00  0.00     0.021 C 
ATOM      8  C   UNL     1     168.519 164.885 200.053  1.00  0.00    -0.026 C 
ATOM      9  C   UNL     1     167.084 165.376 200.393  1.00  0.00     0.012 C 
ATOM     10  C   UNL     1     169.484 166.093 200.163  1.00  0.00     0.012 C 
ENDROOT
TORSDOF 0
ENDMDL
MODEL 3
REMARK VINA RESULT:    -4.136      4.754      6.704
REMARK INTER + INTRA:          -4.136
REMARK INTER:                  -4.136
REMARK INTRA:                   0.000
REMARK UNBOUND:                 0.000
REMARK SMILES CC1=CC[C@H]2C[C@@H]1C2(C)C
REMARK SMILES IDX 1 1 2 2 3 3 4 4 5 5 6 6 7 7 8 8 9 9 10 10
REMARK H PARENT
REMARK Flexibility Score: inf
ROOT
ATOM      1  C   UNL     1     166.187 165.130 198.108  1.00  0.00     0.039 C 
ATOM      2  C   UNL     1     167.419 164.476 198.656  1.00  0.00    -0.074 C 
ATOM      3  C   UNL     1     168.165 163.618 197.900  1.00  0.00    -0.027 C 
ATOM      4  C   UNL     1     169.405 162.956 198.536  1.00  0.00     0.031 C 
ATOM      5  C   UNL     1     169.594 163.469 200.005  1.00  0.00    -0.000 C 
ATOM      6  C   UNL     1     169.429 165.001 199.937  1.00  0.00     0.013 C 
ATOM      7  C   UNL     1     167.915 164.750 200.082  1.00  0.00     0.021 C 
ATOM      8  C   UNL     1     168.248 163.404 200.778  1.00  0.00    -0.026 C 
ATOM      9  C   UNL     1     167.306 162.192 200.531  1.00  0.00     0.012 C 
ATOM     10  C   UNL     1     168.443 163.563 202.308  1.00  0.00     0.012 C 
ENDROOT
TORSDOF 0
ENDMDL
MODEL 4
REMARK VINA RESULT:    -4.136      1.249      2.340
REMARK INTER + INTRA:          -4.136
REMARK INTER:                  -4.136
REMARK INTRA:                   0.000
REMARK UNBOUND:                 0.000
REMARK SMILES CC1=CC[C@H]2C[C@@H]1C2(C)C
REMARK SMILES IDX 1 1 2 2 3 3 4 4 5 5 6 6 7 7 8 8 9 9 10 10
REMARK H PARENT
REMARK Flexibility Score: inf
ROOT
ATOM      1  C   UNL     1     165.814 166.909 198.121  1.00  0.00     0.039 C 
ATOM      2  C   UNL     1     164.583 167.560 198.676  1.00  0.00    -0.074 C 
ATOM      3  C   UNL     1     163.825 168.408 197.921  1.00  0.00    -0.027 C 
ATOM      4  C   UNL     1     162.588 169.067 198.564  1.00  0.00     0.031 C 
ATOM      5  C   UNL     1     162.416 168.564 200.039  1.00  0.00    -0.000 C 
ATOM      6  C   UNL     1     162.590 167.032 199.981  1.00  0.00     0.013 C 
ATOM      7  C   UNL     1     164.104 167.293 200.109  1.00  0.00     0.021 C 
ATOM      8  C   UNL     1     163.769 168.643 200.799  1.00  0.00    -0.026 C 
ATOM      9  C   UNL     1     164.702 169.858 200.533  1.00  0.00     0.012 C 
ATOM     10  C   UNL     1     163.590 168.493 202.331  1.00  0.00     0.012 C 
ENDROOT
TORSDOF 0
ENDMDL
MODEL 5
REMARK VINA RESULT:    -4.132      5.033      6.620
REMARK INTER + INTRA:          -4.132
REMARK INTER:                  -4.132
REMARK INTRA:                   0.000
REMARK UNBOUND:                 0.000
REMARK SMILES CC1=CC[C@H]2C[C@@H]1C2(C)C
REMARK SMILES IDX 1 1 2 2 3 3 4 4 5 5 6 6 7 7 8 8 9 9 10 10
REMARK H PARENT
REMARK Flexibility Score: inf
ROOT
ATOM      1  C   UNL     1     169.426 166.842 200.425  1.00  0.00     0.039 C 
ATOM      2  C   UNL     1     169.072 165.566 199.721  1.00  0.00    -0.074 C 
ATOM      3  C   UNL     1     168.755 165.552 198.393  1.00  0.00    -0.027 C 
ATOM      4  C   UNL     1     168.372 164.209 197.738  1.00  0.00     0.031 C 
ATOM      5  C   UNL     1     168.472 163.050 198.789  1.00  0.00    -0.000 C 
ATOM      6  C   UNL     1     169.821 163.253 199.509  1.00  0.00     0.013 C 
ATOM      7  C   UNL     1     169.067 164.215 200.449  1.00  0.00     0.021 C 
ATOM      8  C   UNL     1     167.759 163.454 200.109  1.00  0.00    -0.026 C 
ATOM      9  C   UNL     1     166.435 164.264 200.022  1.00  0.00     0.012 C 
ATOM     10  C   UNL     1     167.524 162.240 201.043  1.00  0.00     0.012 C 
ENDROOT
TORSDOF 0
ENDMDL
MODEL 6
REMARK VINA RESULT:    -4.129      1.088      3.209
REMARK INTER + INTRA:          -4.129
REMARK INTER:                  -4.129
REMARK INTRA:                   0.000
REMARK UNBOUND:                 0.000
REMARK SMILES CC1=CC[C@H]2C[C@@H]1C2(C)C
REMARK SMILES IDX 1 1 2 2 3 3 4 4 5 5 6 6 7 7 8 8 9 9 10 10
REMARK H PARENT
REMARK Flexibility Score: inf
ROOT
ATOM      1  C   UNL     1     162.545 165.209 200.563  1.00  0.00     0.039 C 
ATOM      2  C   UNL     1     162.917 166.437 199.787  1.00  0.00    -0.074 C 
ATOM      3  C   UNL     1     163.241 166.368 198.462  1.00  0.00    -0.027 C 
ATOM      4  C   UNL     1     163.644 167.665 197.730  1.00  0.00     0.031 C 
ATOM      5  C   UNL     1     163.553 168.886 198.710  1.00  0.00    -0.000 C 
ATOM      6  C   UNL     1     162.198 168.741 199.433  1.00  0.00     0.013 C 
ATOM      7  C   UNL     1     162.935 167.829 200.433  1.00  0.00     0.021 C 
ATOM      8  C   UNL     1     164.254 168.553 200.056  1.00  0.00    -0.026 C 
ATOM      9  C   UNL     1     165.569 167.724 200.024  1.00  0.00     0.012 C 
ATOM     10  C   UNL     1     164.499 169.818 200.917  1.00  0.00     0.012 C 
ENDROOT
TORSDOF 0
ENDMDL
MODEL 7
REMARK VINA RESULT:    -3.982      1.562      2.351
REMARK INTER + INTRA:          -3.982
REMARK INTER:                  -3.982
REMARK INTRA:                   0.000
REMARK UNBOUND:                 0.000
REMARK SMILES CC1=CC[C@H]2C[C@@H]1C2(C)C
REMARK SMILES IDX 1 1 2 2 3 3 4 4 5 5 6 6 7 7 8 8 9 9 10 10
REMARK H PARENT
REMARK Flexibility Score: inf
ROOT
ATOM      1  C   UNL     1     167.077 170.195 198.488  1.00  0.00     0.039 C 
ATOM      2  C   UNL     1     166.254 169.539 199.556  1.00  0.00    -0.074 C 
ATOM      3  C   UNL     1     166.809 168.659 200.440  1.00  0.00    -0.027 C 
ATOM      4  C   UNL     1     165.899 167.997 201.496  1.00  0.00     0.031 C 
ATOM      5  C   UNL     1     164.433 168.536 201.356  1.00  0.00    -0.000 C 
ATOM      6  C   UNL     1     164.562 170.068 201.232  1.00  0.00     0.013 C 
ATOM      7  C   UNL     1     164.757 169.835 199.721  1.00  0.00     0.021 C 
ATOM      8  C   UNL     1     163.982 168.499 199.870  1.00  0.00    -0.026 C 
ATOM      9  C   UNL     1     164.416 167.292 198.990  1.00  0.00     0.012 C 
ATOM     10  C   UNL     1     162.452 168.685 199.717  1.00  0.00     0.012 C 
ENDROOT
TORSDOF 0
ENDMDL
MODEL 8
REMARK VINA RESULT:    -3.959      5.089      6.692
REMARK INTER + INTRA:          -3.959
REMARK INTER:                  -3.959
REMARK INTRA:                   0.000
REMARK UNBOUND:                 0.000
REMARK SMILES CC1=CC[C@H]2C[C@@H]1C2(C)C
REMARK SMILES IDX 1 1 2 2 3 3 4 4 5 5 6 6 7 7 8 8 9 9 10 10
REMARK H PARENT
REMARK Flexibility Score: inf
ROOT
ATOM      1  C   UNL     1     164.742 161.822 198.719  1.00  0.00     0.039 C 
ATOM      2  C   UNL     1     165.641 162.473 199.726  1.00  0.00    -0.074 C 
ATOM      3  C   UNL     1     165.160 163.376 200.630  1.00  0.00    -0.027 C 
ATOM      4  C   UNL     1     166.145 164.030 201.620  1.00  0.00     0.031 C 
ATOM      5  C   UNL     1     167.588 163.458 201.400  1.00  0.00    -0.000 C 
ATOM      6  C   UNL     1     167.420 161.927 201.306  1.00  0.00     0.013 C 
ATOM      7  C   UNL     1     167.139 162.146 199.806  1.00  0.00     0.021 C 
ATOM      8  C   UNL     1     167.949 163.466 199.889  1.00  0.00    -0.026 C 
ATOM      9  C   UNL     1     167.489 164.671 199.021  1.00  0.00     0.012 C 
ATOM     10  C   UNL     1     169.464 163.244 199.648  1.00  0.00     0.012 C 
ENDROOT
TORSDOF 0
ENDMDL
MODEL 9
REMARK VINA RESULT:    -3.864      3.852      5.845
REMARK INTER + INTRA:          -3.864
REMARK INTER:                  -3.864
REMARK INTRA:                   0.000
REMARK UNBOUND:                 0.000
REMARK SMILES CC1=CC[C@H]2C[C@@H]1C2(C)C
REMARK SMILES IDX 1 1 2 2 3 3 4 4 5 5 6 6 7 7 8 8 9 9 10 10
REMARK H PARENT
REMARK Flexibility Score: inf
ROOT
ATOM      1  C   UNL     1     167.112 161.873 200.010  1.00  0.00     0.039 C 
ATOM      2  C   UNL     1     165.940 162.385 199.228  1.00  0.00    -0.074 C 
ATOM      3  C   UNL     1     166.031 162.623 197.887  1.00  0.00    -0.027 C 
ATOM      4  C   UNL     1     164.795 163.178 197.148  1.00  0.00     0.031 C 
ATOM      5  C   UNL     1     163.594 163.327 198.146  1.00  0.00    -0.000 C 
ATOM      6  C   UNL     1     163.547 162.006 198.942  1.00  0.00     0.013 C 
ATOM      7  C   UNL     1     164.580 162.649 199.888  1.00  0.00     0.021 C 
ATOM      8  C   UNL     1     164.056 164.041 199.446  1.00  0.00    -0.026 C 
ATOM      9  C   UNL     1     165.074 165.211 199.331  1.00  0.00     0.012 C 
ATOM     10  C   UNL     1     162.860 164.521 200.307  1.00  0.00     0.012 C 
ENDROOT
TORSDOF 0
ENDMDL
