MODEL 1
REMARK VINA RESULT:    -3.277      0.000      0.000
REMARK INTER + INTRA:          -5.520
REMARK INTER:                  -5.001
REMARK INTRA:                  -0.519
REMARK UNBOUND:                -0.519
REMARK SMILES CC1=CCC[C@H](C)C(=O)C[C@H](C(C)C)C(=O)C1
REMARK SMILES IDX 8 1 9 2 6 3 7 4 5 5 4 6 3 7 2 8 1 9 10 11 11 12 15 13 16 14
REMARK SMILES IDX 17 15 12 17 13 18 14 19
REMARK H PARENT
REMARK Flexibility Score: 70.00
ROOT
ATOM      1  C   UNL     1     139.807 135.218 123.648  1.00  0.00     0.136 C 
ATOM      2  O   UNL     1     139.076 135.300 124.624  1.00  0.00    -0.299 OA
ENDROOT
BRANCH   1   3
ATOM      3  C   UNL     1     139.298 134.435 122.440  1.00  0.00     0.053 C 
ATOM      4  C   UNL     1     139.008 132.947 122.706  1.00  0.00     0.016 C 
BRANCH   3   5
ATOM      5  C   UNL     1     138.094 135.128 121.750  1.00  0.00     0.015 C 
BRANCH   5   6
ATOM      6  C   UNL     1     138.442 135.966 120.504  1.00  0.00     0.028 C 
BRANCH   6   7
ATOM      7  C   UNL     1     138.666 137.418 120.862  1.00  0.00    -0.028 C 
ATOM      8  C   UNL     1     139.859 138.053 120.853  1.00  0.00    -0.070 CG0
ATOM      9  C   UNL     1     139.885 139.510 121.241  1.00  0.00     0.039 C 
ATOM     10  G   UNL     1     141.158 137.372 120.471  1.00  0.00     0.000 G0
ENDBRANCH   6   7
ENDBRANCH   5   6
ENDBRANCH   3   5
ENDBRANCH   1   3
BRANCH   1  11
ATOM     11  C   UNL     1     141.139 135.948 123.698  1.00  0.00     0.087 C 
BRANCH  11  12
ATOM     12  C   UNL     1     141.962 135.744 122.404  1.00  0.00     0.066 C 
BRANCH  12  13
ATOM     13  C   UNL     1     142.082 137.051 121.631  1.00  0.00     0.140 C 
ATOM     14  O   UNL     1     142.950 137.856 121.934  1.00  0.00    -0.299 OA
BRANCH  13  15
ATOM     15  C   UNL     1     141.184 137.366 120.460  1.00  0.00     0.106 CG0
ATOM     16  G   UNL     1     139.898 138.054 120.874  1.00  0.00     0.000 G0
ENDBRANCH  13  15
ENDBRANCH  12  13
BRANCH  12  17
ATOM     17  C   UNL     1     143.341 135.075 122.682  1.00  0.00    -0.006 C 
ATOM     18  C   UNL     1     143.246 134.056 123.829  1.00  0.00     0.008 C 
ATOM     19  C   UNL     1     143.989 134.420 121.450  1.00  0.00     0.008 C 
ENDBRANCH  12  17
ENDBRANCH  11  12
ENDBRANCH   1  11
TORSDOF 1
ENDMDL
MODEL 2
REMARK VINA RESULT:    -3.276      1.368      1.703
REMARK INTER + INTRA:          -5.518
REMARK INTER:                  -5.069
REMARK INTRA:                  -0.449
REMARK UNBOUND:                -0.519
REMARK SMILES CC1=CCC[C@H](C)C(=O)C[C@H](C(C)C)C(=O)C1
REMARK SMILES IDX 8 1 9 2 6 3 7 4 5 5 4 6 3 7 2 8 1 9 10 11 11 12 15 13 16 14
REMARK SMILES IDX 17 15 12 17 13 18 14 19
REMARK H PARENT
REMARK Flexibility Score: 70.00
ROOT
ATOM      1  C   UNL     1     140.162 135.232 123.903  1.00  0.00     0.136 C 
ATOM      2  O   UNL     1     139.215 135.793 124.435  1.00  0.00    -0.299 OA
ENDROOT
BRANCH   1   3
ATOM      3  C   UNL     1     139.897 134.452 122.617  1.00  0.00     0.053 C 
ATOM      4  C   UNL     1     138.979 133.228 122.778  1.00  0.00     0.016 C 
BRANCH   3   5
ATOM      5  C   UNL     1     139.422 135.365 121.458  1.00  0.00     0.015 C 
BRANCH   5   6
ATOM      6  C   UNL     1     140.544 136.061 120.663  1.00  0.00     0.028 C 
BRANCH   6   7
ATOM      7  C   UNL     1     140.708 137.502 121.090  1.00  0.00    -0.028 C 
ATOM      8  C   UNL     1     141.838 138.048 121.593  1.00  0.00    -0.070 CG0
ATOM      9  C   UNL     1     141.811 139.510 121.964  1.00  0.00     0.039 C 
ATOM     10  G   UNL     1     143.118 137.263 121.796  1.00  0.00     0.000 G0
ENDBRANCH   6   7
ENDBRANCH   5   6
ENDBRANCH   3   5
ENDBRANCH   1   3
BRANCH   1  11
ATOM     11  C   UNL     1     141.533 135.406 124.536  1.00  0.00     0.087 C 
BRANCH  11  12
ATOM     12  C   UNL     1     142.672 135.280 123.496  1.00  0.00     0.066 C 
BRANCH  12  13
ATOM     13  C   UNL     1     143.254 136.648 123.166  1.00  0.00     0.140 C 
ATOM     14  O   UNL     1     143.872 137.265 124.022  1.00  0.00    -0.299 OA
BRANCH  13  15
ATOM     15  C   UNL     1     143.131 137.252 121.790  1.00  0.00     0.106 CG0
ATOM     16  G   UNL     1     141.842 138.027 121.601  1.00  0.00     0.000 G0
ENDBRANCH  13  15
ENDBRANCH  12  13
BRANCH  12  17
ATOM     17  C   UNL     1     143.755 134.248 123.932  1.00  0.00    -0.006 C 
ATOM     18  C   UNL     1     143.138 133.101 124.749  1.00  0.00     0.008 C 
ATOM     19  C   UNL     1     144.591 133.678 122.774  1.00  0.00     0.008 C 
ENDBRANCH  12  17
ENDBRANCH  11  12
ENDBRANCH   1  11
TORSDOF 1
ENDMDL
MODEL 3
REMARK VINA RESULT:    -3.068     11.194     13.636
REMARK INTER + INTRA:          -5.201
REMARK INTER:                  -5.266
REMARK INTRA:                   0.065
REMARK UNBOUND:                -0.519
REMARK SMILES CC1=CCC[C@H](C)C(=O)C[C@H](C(C)C)C(=O)C1
REMARK SMILES IDX 8 1 9 2 6 3 7 4 5 5 4 6 3 7 2 8 1 9 10 11 11 12 15 13 16 14
REMARK SMILES IDX 17 15 12 17 13 18 14 19
REMARK H PARENT
REMARK Flexibility Score: 70.00
ROOT
ATOM      1  C   UNL     1     128.131 141.332 115.020  1.00  0.00     0.136 C 
ATOM      2  O   UNL     1     127.347 140.849 114.216  1.00  0.00    -0.299 OA
ENDROOT
BRANCH   1   3
ATOM      3  C   UNL     1     128.418 142.829 114.922  1.00  0.00     0.053 C 
ATOM      4  C   UNL     1     127.595 143.712 115.875  1.00  0.00     0.016 C 
BRANCH   3   5
ATOM      5  C   UNL     1     129.932 143.149 115.024  1.00  0.00     0.015 C 
BRANCH   5   6
ATOM      6  C   UNL     1     130.443 143.473 116.442  1.00  0.00     0.028 C 
BRANCH   6   7
ATOM      7  C   UNL     1     131.877 143.028 116.625  1.00  0.00    -0.028 C 
ATOM      8  C   UNL     1     132.273 141.794 117.008  1.00  0.00    -0.070 CG0
ATOM      9  C   UNL     1     133.754 141.537 117.137  1.00  0.00     0.039 C 
ATOM     10  G   UNL     1     131.304 140.668 117.309  1.00  0.00     0.000 G0
ENDBRANCH   6   7
ENDBRANCH   5   6
ENDBRANCH   3   5
ENDBRANCH   1   3
BRANCH   1  11
ATOM     11  C   UNL     1     128.710 140.414 116.082  1.00  0.00     0.087 C 
BRANCH  11  12
ATOM     12  C   UNL     1     129.769 139.448 115.499  1.00  0.00     0.066 C 
BRANCH  12  13
ATOM     13  C   UNL     1     131.131 139.692 116.137  1.00  0.00     0.140 C 
ATOM     14  O   UNL     1     132.120 139.136 115.683  1.00  0.00    -0.299 OA
BRANCH  13  15
ATOM     15  C   UNL     1     131.306 140.644 117.295  1.00  0.00     0.106 CG0
ATOM     16  G   UNL     1     132.272 141.771 116.989  1.00  0.00     0.000 G0
ENDBRANCH  13  15
ENDBRANCH  12  13
BRANCH  12  17
ATOM     17  C   UNL     1     129.318 137.959 115.584  1.00  0.00    -0.006 C 
ATOM     18  C   UNL     1     127.873 137.841 116.091  1.00  0.00     0.008 C 
ATOM     19  C   UNL     1     129.480 137.171 114.272  1.00  0.00     0.008 C 
ENDBRANCH  12  17
ENDBRANCH  11  12
ENDBRANCH   1  11
TORSDOF 1
ENDMDL
MODEL 4
REMARK VINA RESULT:    -3.054      2.699      3.539
REMARK INTER + INTRA:          -5.180
REMARK INTER:                  -5.136
REMARK INTRA:                  -0.044
REMARK UNBOUND:                -0.519
REMARK SMILES CC1=CCC[C@H](C)C(=O)C[C@H](C(C)C)C(=O)C1
REMARK SMILES IDX 8 1 9 2 6 3 7 4 5 5 4 6 3 7 2 8 1 9 10 11 11 12 15 13 16 14
REMARK SMILES IDX 17 15 12 17 13 18 14 19
REMARK H PARENT
REMARK Flexibility Score: 70.00
ROOT
ATOM      1  C   UNL     1     140.976 134.902 122.181  1.00  0.00     0.136 C 
ATOM      2  O   UNL     1     141.576 135.678 121.452  1.00  0.00    -0.299 OA
ENDROOT
BRANCH   1   3
ATOM      3  C   UNL     1     139.479 134.717 121.946  1.00  0.00     0.053 C 
ATOM      4  C   UNL     1     138.959 133.286 122.165  1.00  0.00     0.016 C 
BRANCH   3   5
ATOM      5  C   UNL     1     138.626 135.752 122.726  1.00  0.00     0.015 C 
BRANCH   5   6
ATOM      6  C   UNL     1     138.752 135.688 124.261  1.00  0.00     0.028 C 
BRANCH   6   7
ATOM      7  C   UNL     1     139.522 136.874 124.799  1.00  0.00    -0.028 C 
ATOM      8  C   UNL     1     140.697 136.810 125.463  1.00  0.00    -0.070 CG0
ATOM      9  C   UNL     1     141.318 138.105 125.925  1.00  0.00     0.039 C 
ATOM     10  G   UNL     1     141.414 135.507 125.756  1.00  0.00     0.000 G0
ENDBRANCH   6   7
ENDBRANCH   5   6
ENDBRANCH   3   5
ENDBRANCH   1   3
BRANCH   1  11
ATOM     11  C   UNL     1     141.783 134.144 123.223  1.00  0.00     0.087 C 
BRANCH  11  12
ATOM     12  C   UNL     1     143.009 134.954 123.708  1.00  0.00     0.066 C 
BRANCH  12  13
ATOM     13  C   UNL     1     142.806 135.433 125.140  1.00  0.00     0.140 C 
ATOM     14  O   UNL     1     143.770 135.793 125.800  1.00  0.00    -0.299 OA
BRANCH  13  15
ATOM     15  C   UNL     1     141.434 135.521 125.761  1.00  0.00     0.106 CG0
ATOM     16  G   UNL     1     140.726 136.823 125.441  1.00  0.00     0.000 G0
ENDBRANCH  13  15
ENDBRANCH  12  13
BRANCH  12  17
ATOM     17  C   UNL     1     144.343 134.174 123.513  1.00  0.00    -0.006 C 
ATOM     18  C   UNL     1     144.362 132.881 124.343  1.00  0.00     0.008 C 
ATOM     19  C   UNL     1     144.687 133.861 122.046  1.00  0.00     0.008 C 
ENDBRANCH  12  17
ENDBRANCH  11  12
ENDBRANCH   1  11
TORSDOF 1
ENDMDL
MODEL 5
REMARK VINA RESULT:    -3.004      1.581      2.551
REMARK INTER + INTRA:          -5.103
REMARK INTER:                  -4.822
REMARK INTRA:                  -0.281
REMARK UNBOUND:                -0.519
REMARK SMILES CC1=CCC[C@H](C)C(=O)C[C@H](C(C)C)C(=O)C1
REMARK SMILES IDX 8 1 9 2 6 3 7 4 5 5 4 6 3 7 2 8 1 9 10 11 11 12 15 13 16 14
REMARK SMILES IDX 17 15 12 17 13 18 14 19
REMARK H PARENT
REMARK Flexibility Score: 70.00
ROOT
ATOM      1  C   UNL     1     140.873 135.592 124.448  1.00  0.00     0.136 C 
ATOM      2  O   UNL     1     140.033 135.637 125.335  1.00  0.00    -0.299 OA
ENDROOT
BRANCH   1   3
ATOM      3  C   UNL     1     141.187 134.231 123.832  1.00  0.00     0.053 C 
ATOM      4  C   UNL     1     142.222 133.392 124.603  1.00  0.00     0.016 C 
BRANCH   3   5
ATOM      5  C   UNL     1     139.908 133.408 123.530  1.00  0.00     0.015 C 
BRANCH   5   6
ATOM      6  C   UNL     1     139.393 133.497 122.080  1.00  0.00     0.028 C 
BRANCH   6   7
ATOM      7  C   UNL     1     138.480 134.687 121.891  1.00  0.00    -0.028 C 
ATOM      8  C   UNL     1     138.828 135.860 121.316  1.00  0.00    -0.070 CG0
ATOM      9  C   UNL     1     137.776 136.936 121.215  1.00  0.00     0.039 C 
ATOM     10  G   UNL     1     140.215 136.136 120.771  1.00  0.00     0.000 G0
ENDBRANCH   6   7
ENDBRANCH   5   6
ENDBRANCH   3   5
ENDBRANCH   1   3
BRANCH   1  11
ATOM     11  C   UNL     1     141.494 136.904 123.997  1.00  0.00     0.087 C 
BRANCH  11  12
ATOM     12  C   UNL     1     142.042 136.819 122.553  1.00  0.00     0.066 C 
BRANCH  12  13
ATOM     13  C   UNL     1     140.965 137.197 121.544  1.00  0.00     0.140 C 
ATOM     14  O   UNL     1     140.714 138.376 121.340  1.00  0.00    -0.299 OA
BRANCH  13  15
ATOM     15  C   UNL     1     140.222 136.154 120.747  1.00  0.00     0.106 CG0
ATOM     16  G   UNL     1     138.848 135.852 121.309  1.00  0.00     0.000 G0
ENDBRANCH  13  15
ENDBRANCH  12  13
BRANCH  12  17
ATOM     17  C   UNL     1     143.356 137.637 122.373  1.00  0.00    -0.006 C 
ATOM     18  C   UNL     1     143.478 138.739 123.436  1.00  0.00     0.008 C 
ATOM     19  C   UNL     1     144.636 136.784 122.351  1.00  0.00     0.008 C 
ENDBRANCH  12  17
ENDBRANCH  11  12
ENDBRANCH   1  11
TORSDOF 1
ENDMDL
MODEL 6
REMARK VINA RESULT:    -2.919      2.375      4.775
REMARK INTER + INTRA:          -4.974
REMARK INTER:                  -4.994
REMARK INTRA:                   0.020
REMARK UNBOUND:                -0.519
REMARK SMILES CC1=CCC[C@H](C)C(=O)C[C@H](C(C)C)C(=O)C1
REMARK SMILES IDX 8 1 9 2 6 3 7 4 5 5 4 6 3 7 2 8 1 9 10 11 11 12 15 13 16 14
REMARK SMILES IDX 17 15 12 17 13 18 14 19
REMARK H PARENT
REMARK Flexibility Score: 70.00
ROOT
ATOM      1  C   UNL     1     142.801 134.106 123.358  1.00  0.00     0.136 C 
ATOM      2  O   UNL     1     143.744 133.809 122.640  1.00  0.00    -0.299 OA
ENDROOT
BRANCH   1   3
ATOM      3  C   UNL     1     142.888 133.738 124.837  1.00  0.00     0.053 C 
ATOM      4  C   UNL     1     143.552 132.381 125.131  1.00  0.00     0.016 C 
BRANCH   3   5
ATOM      5  C   UNL     1     143.515 134.868 125.693  1.00  0.00     0.015 C 
BRANCH   5   6
ATOM      6  C   UNL     1     143.764 136.196 124.951  1.00  0.00     0.028 C 
BRANCH   6   7
ATOM      7  C   UNL     1     143.049 137.346 125.624  1.00  0.00    -0.028 C 
ATOM      8  C   UNL     1     141.859 137.862 125.242  1.00  0.00    -0.070 CG0
ATOM      9  C   UNL     1     141.300 139.012 126.040  1.00  0.00     0.039 C 
ATOM     10  G   UNL     1     141.070 137.337 124.059  1.00  0.00     0.000 G0
ENDBRANCH   6   7
ENDBRANCH   5   6
ENDBRANCH   3   5
ENDBRANCH   1   3
BRANCH   1  11
ATOM     11  C   UNL     1     141.645 134.865 122.728  1.00  0.00     0.087 C 
BRANCH  11  12
ATOM     12  C   UNL     1     140.378 134.834 123.616  1.00  0.00     0.066 C 
BRANCH  12  13
ATOM     13  C   UNL     1     140.202 136.157 124.349  1.00  0.00     0.140 C 
ATOM     14  O   UNL     1     139.369 136.250 125.239  1.00  0.00    -0.299 OA
BRANCH  13  15
ATOM     15  C   UNL     1     141.062 137.358 124.039  1.00  0.00     0.106 CG0
ATOM     16  G   UNL     1     141.840 137.850 125.244  1.00  0.00     0.000 G0
ENDBRANCH  13  15
ENDBRANCH  12  13
BRANCH  12  17
ATOM     17  C   UNL     1     139.110 134.409 122.818  1.00  0.00    -0.006 C 
ATOM     18  C   UNL     1     139.006 135.170 121.487  1.00  0.00     0.008 C 
ATOM     19  C   UNL     1     138.995 132.896 122.567  1.00  0.00     0.008 C 
ENDBRANCH  12  17
ENDBRANCH  11  12
ENDBRANCH   1  11
TORSDOF 1
ENDMDL
MODEL 7
REMARK VINA RESULT:    -2.915      1.988      4.308
REMARK INTER + INTRA:          -4.968
REMARK INTER:                  -4.745
REMARK INTRA:                  -0.224
REMARK UNBOUND:                -0.519
REMARK SMILES CC1=CCC[C@H](C)C(=O)C[C@H](C(C)C)C(=O)C1
REMARK SMILES IDX 8 1 9 2 6 3 7 4 5 5 4 6 3 7 2 8 1 9 10 11 11 12 15 13 16 14
REMARK SMILES IDX 17 15 12 17 13 18 14 19
REMARK H PARENT
REMARK Flexibility Score: 70.00
ROOT
ATOM      1  C   UNL     1     141.904 133.848 123.744  1.00  0.00     0.136 C 
ATOM      2  O   UNL     1     141.407 132.917 124.362  1.00  0.00    -0.299 OA
ENDROOT
BRANCH   1   3
ATOM      3  C   UNL     1     143.170 134.484 124.312  1.00  0.00     0.053 C 
ATOM      4  C   UNL     1     143.305 134.408 125.843  1.00  0.00     0.016 C 
BRANCH   3   5
ATOM      5  C   UNL     1     144.455 133.976 123.607  1.00  0.00     0.015 C 
BRANCH   5   6
ATOM      6  C   UNL     1     144.913 134.807 122.392  1.00  0.00     0.028 C 
BRANCH   6   7
ATOM      7  C   UNL     1     144.654 136.281 122.604  1.00  0.00    -0.028 C 
ATOM      8  C   UNL     1     143.693 137.005 121.989  1.00  0.00    -0.070 CG0
ATOM      9  C   UNL     1     143.586 138.471 122.330  1.00  0.00     0.039 C 
ATOM     10  G   UNL     1     142.724 136.414 120.984  1.00  0.00     0.000 G0
ENDBRANCH   6   7
ENDBRANCH   5   6
ENDBRANCH   3   5
ENDBRANCH   1   3
BRANCH   1  11
ATOM     11  C   UNL     1     141.250 134.256 122.434  1.00  0.00     0.087 C 
BRANCH  11  12
ATOM     12  C   UNL     1     140.660 135.684 122.501  1.00  0.00     0.066 C 
BRANCH  12  13
ATOM     13  C   UNL     1     141.270 136.570 121.423  1.00  0.00     0.140 C 
ATOM     14  O   UNL     1     140.597 137.456 120.915  1.00  0.00    -0.299 OA
BRANCH  13  15
ATOM     15  C   UNL     1     142.707 136.419 120.990  1.00  0.00     0.106 CG0
ATOM     16  G   UNL     1     143.688 136.987 121.997  1.00  0.00     0.000 G0
ENDBRANCH  13  15
ENDBRANCH  12  13
BRANCH  12  17
ATOM     17  C   UNL     1     139.102 135.679 122.472  1.00  0.00    -0.006 C 
ATOM     18  C   UNL     1     138.559 134.398 121.822  1.00  0.00     0.008 C 
ATOM     19  C   UNL     1     138.441 135.892 123.845  1.00  0.00     0.008 C 
ENDBRANCH  12  17
ENDBRANCH  11  12
ENDBRANCH   1  11
TORSDOF 1
ENDMDL
MODEL 8
REMARK VINA RESULT:    -2.897      2.889      4.178
REMARK INTER + INTRA:          -4.940
REMARK INTER:                  -4.979
REMARK INTRA:                   0.039
REMARK UNBOUND:                -0.519
REMARK SMILES CC1=CCC[C@H](C)C(=O)C[C@H](C(C)C)C(=O)C1
REMARK SMILES IDX 8 1 9 2 6 3 7 4 5 5 4 6 3 7 2 8 1 9 10 11 11 12 15 13 16 14
REMARK SMILES IDX 17 15 12 17 13 18 14 19
REMARK H PARENT
REMARK Flexibility Score: 70.00
ROOT
ATOM      1  C   UNL     1     141.167 134.242 123.657  1.00  0.00     0.136 C 
ATOM      2  O   UNL     1     140.484 133.262 123.398  1.00  0.00    -0.299 OA
ENDROOT
BRANCH   1   3
ATOM      3  C   UNL     1     140.505 135.615 123.569  1.00  0.00     0.053 C 
ATOM      4  C   UNL     1     139.641 135.841 122.316  1.00  0.00     0.016 C 
BRANCH   3   5
ATOM      5  C   UNL     1     139.730 135.982 124.861  1.00  0.00     0.015 C 
BRANCH   5   6
ATOM      6  C   UNL     1     140.560 135.954 126.159  1.00  0.00     0.028 C 
BRANCH   6   7
ATOM      7  C   UNL     1     141.389 137.209 126.310  1.00  0.00    -0.028 C 
ATOM      8  C   UNL     1     142.727 137.291 126.140  1.00  0.00    -0.070 CG0
ATOM      9  C   UNL     1     143.383 138.636 126.333  1.00  0.00     0.039 C 
ATOM     10  G   UNL     1     143.589 136.102 125.763  1.00  0.00     0.000 G0
ENDBRANCH   6   7
ENDBRANCH   5   6
ENDBRANCH   3   5
ENDBRANCH   1   3
BRANCH   1  11
ATOM     11  C   UNL     1     142.601 134.006 124.099  1.00  0.00     0.087 C 
BRANCH  11  12
ATOM     12  C   UNL     1     143.591 134.961 123.390  1.00  0.00     0.066 C 
BRANCH  12  13
ATOM     13  C   UNL     1     144.011 136.091 124.321  1.00  0.00     0.140 C 
ATOM     14  O   UNL     1     144.653 137.032 123.878  1.00  0.00    -0.299 OA
BRANCH  13  15
ATOM     15  C   UNL     1     143.617 136.108 125.777  1.00  0.00     0.106 CG0
ATOM     16  G   UNL     1     142.734 137.288 126.133  1.00  0.00     0.000 G0
ENDBRANCH  13  15
ENDBRANCH  12  13
BRANCH  12  17
ATOM     17  C   UNL     1     144.803 134.200 122.774  1.00  0.00    -0.006 C 
ATOM     18  C   UNL     1     145.193 132.984 123.629  1.00  0.00     0.008 C 
ATOM     19  C   UNL     1     144.606 133.771 121.310  1.00  0.00     0.008 C 
ENDBRANCH  12  17
ENDBRANCH  11  12
ENDBRANCH   1  11
TORSDOF 1
ENDMDL
MODEL 9
REMARK VINA RESULT:    -2.785      3.598      5.415
REMARK INTER + INTRA:          -4.769
REMARK INTER:                  -4.386
REMARK INTRA:                  -0.383
REMARK UNBOUND:                -0.519
REMARK SMILES CC1=CCC[C@H](C)C(=O)C[C@H](C(C)C)C(=O)C1
REMARK SMILES IDX 8 1 9 2 6 3 7 4 5 5 4 6 3 7 2 8 1 9 10 11 11 12 15 13 16 14
REMARK SMILES IDX 17 15 12 17 13 18 14 19
REMARK H PARENT
REMARK Flexibility Score: 70.00
ROOT
ATOM      1  C   UNL     1     140.664 139.646 121.580  1.00  0.00     0.136 C 
ATOM      2  O   UNL     1     139.639 139.415 122.204  1.00  0.00    -0.299 OA
ENDROOT
BRANCH   1   3
ATOM      3  C   UNL     1     141.437 138.457 121.015  1.00  0.00     0.053 C 
ATOM      4  C   UNL     1     142.061 137.527 122.070  1.00  0.00     0.016 C 
BRANCH   3   5
ATOM      5  C   UNL     1     140.613 137.656 119.974  1.00  0.00     0.015 C 
BRANCH   5   6
ATOM      6  C   UNL     1     140.882 138.017 118.500  1.00  0.00     0.028 C 
BRANCH   6   7
ATOM      7  C   UNL     1     139.831 138.963 117.965  1.00  0.00    -0.028 C 
ATOM      8  C   UNL     1     140.034 140.258 117.637  1.00  0.00    -0.070 CG0
ATOM      9  C   UNL     1     138.859 141.047 117.115  1.00  0.00     0.039 C 
ATOM     10  G   UNL     1     141.379 140.945 117.765  1.00  0.00     0.000 G0
ENDBRANCH   6   7
ENDBRANCH   5   6
ENDBRANCH   3   5
ENDBRANCH   1   3
BRANCH   1  11
ATOM     11  C   UNL     1     141.052 141.101 121.373  1.00  0.00     0.087 C 
BRANCH  11  12
ATOM     12  C   UNL     1     142.131 141.263 120.277  1.00  0.00     0.066 C 
BRANCH  12  13
ATOM     13  C   UNL     1     141.516 141.798 118.990  1.00  0.00     0.140 C 
ATOM     14  O   UNL     1     141.148 142.963 118.934  1.00  0.00    -0.299 OA
BRANCH  13  15
ATOM     15  C   UNL     1     141.387 140.941 117.755  1.00  0.00     0.106 CG0
ATOM     16  G   UNL     1     140.042 140.250 117.657  1.00  0.00     0.000 G0
ENDBRANCH  13  15
ENDBRANCH  12  13
BRANCH  12  17
ATOM     17  C   UNL     1     143.346 142.107 120.766  1.00  0.00    -0.006 C 
ATOM     18  C   UNL     1     142.917 143.154 121.806  1.00  0.00     0.008 C 
ATOM     19  C   UNL     1     144.519 141.275 121.312  1.00  0.00     0.008 C 
ENDBRANCH  12  17
ENDBRANCH  11  12
ENDBRANCH   1  11
TORSDOF 1
ENDMDL
