MODEL 1
REMARK VINA RESULT:    -4.348      0.000      0.000
REMARK INTER + INTRA:          -7.180
REMARK INTER:                  -6.001
REMARK INTRA:                  -1.179
REMARK UNBOUND:                -1.179
REMARK SMILES CCCCc1cccc(O)c1CCCC
REMARK SMILES IDX 5 1 11 2 9 3 8 4 7 5 6 6 4 7 3 8 2 9 1 10 12 11 13 12 14 13
REMARK SMILES IDX 15 14 10 15
REMARK H PARENT 10 16
REMARK Flexibility Score: inf
ROOT
ATOM      1  C   UNL     1     160.746 175.398 186.029  1.00  0.00    -0.041 A 
ATOM      2  C   UNL     1     160.601 176.802 185.813  1.00  0.00    -0.003 A 
ATOM      3  C   UNL     1     160.401 177.280 184.495  1.00  0.00     0.119 A 
ATOM      4  C   UNL     1     160.425 176.397 183.412  1.00  0.00     0.046 A 
ATOM      5  C   UNL     1     160.657 175.042 183.615  1.00  0.00     0.004 A 
ATOM      6  C   UNL     1     160.825 174.548 184.906  1.00  0.00     0.004 A 
ENDROOT
BRANCH   1   7
ATOM      7  C   UNL     1     160.892 174.772 187.412  1.00  0.00     0.036 C 
BRANCH   7   8
ATOM      8  C   UNL     1     162.114 173.839 187.541  1.00  0.00     0.004 C 
BRANCH   8   9
ATOM      9  C   UNL     1     163.424 174.586 187.852  1.00  0.00    -0.003 C 
ATOM     10  C   UNL     1     164.352 174.649 186.639  1.00  0.00     0.004 C 
ENDBRANCH   8   9
ENDBRANCH   7   8
ENDBRANCH   1   7
BRANCH   2  11
ATOM     11  C   UNL     1     160.654 177.816 186.942  1.00  0.00     0.040 C 
BRANCH  11  12
ATOM     12  C   UNL     1     162.079 177.949 187.495  1.00  0.00     0.005 C 
BRANCH  12  13
ATOM     13  C   UNL     1     163.123 178.177 186.391  1.00  0.00    -0.003 C 
ATOM     14  C   UNL     1     164.333 178.973 186.880  1.00  0.00     0.004 C 
ENDBRANCH  12  13
ENDBRANCH  11  12
ENDBRANCH   2  11
BRANCH   3  15
ATOM     15  O   UNL     1     160.185 178.640 184.265  1.00  0.00    -0.508 OA
ATOM     16  H   UNL     1     159.269 179.059 184.371  1.00  0.00     0.293 HD
ENDBRANCH   3  15
TORSDOF 7
ENDMDL
MODEL 2
REMARK VINA RESULT:    -4.347      2.166      4.156
REMARK INTER + INTRA:          -7.177
REMARK INTER:                  -5.970
REMARK INTRA:                  -1.207
REMARK UNBOUND:                -1.179
REMARK SMILES CCCCc1cccc(O)c1CCCC
REMARK SMILES IDX 5 1 11 2 9 3 8 4 7 5 6 6 4 7 3 8 2 9 1 10 12 11 13 12 14 13
REMARK SMILES IDX 15 14 10 15
REMARK H PARENT 10 16
REMARK Flexibility Score: inf
ROOT
ATOM      1  C   UNL     1     164.129 175.701 187.176  1.00  0.00    -0.041 A 
ATOM      2  C   UNL     1     164.268 177.049 186.725  1.00  0.00    -0.003 A 
ATOM      3  C   UNL     1     165.458 177.434 186.061  1.00  0.00     0.119 A 
ATOM      4  C   UNL     1     166.513 176.529 185.921  1.00  0.00     0.046 A 
ATOM      5  C   UNL     1     166.411 175.244 186.441  1.00  0.00     0.004 A 
ATOM      6  C   UNL     1     165.238 174.837 187.070  1.00  0.00     0.004 A 
ENDROOT
BRANCH   1   7
ATOM      7  C   UNL     1     162.863 175.164 187.836  1.00  0.00     0.036 C 
BRANCH   7   8
ATOM      8  C   UNL     1     162.255 173.948 187.106  1.00  0.00     0.004 C 
BRANCH   8   9
ATOM      9  C   UNL     1     160.842 174.210 186.552  1.00  0.00    -0.003 C 
ATOM     10  C   UNL     1     159.880 174.697 187.637  1.00  0.00     0.004 C 
ENDBRANCH   8   9
ENDBRANCH   7   8
ENDBRANCH   1   7
BRANCH   2  11
ATOM     11  C   UNL     1     163.190 178.098 186.928  1.00  0.00     0.040 C 
BRANCH  11  12
ATOM     12  C   UNL     1     162.081 177.957 185.876  1.00  0.00     0.005 C 
BRANCH  12  13
ATOM     13  C   UNL     1     160.679 178.187 186.461  1.00  0.00    -0.003 C 
ATOM     14  C   UNL     1     160.676 178.223 187.988  1.00  0.00     0.004 C 
ENDBRANCH  12  13
ENDBRANCH  11  12
ENDBRANCH   2  11
BRANCH   3  15
ATOM     15  O   UNL     1     165.591 178.725 185.547  1.00  0.00    -0.508 OA
ATOM     16  H   UNL     1     166.498 179.122 185.331  1.00  0.00     0.293 HD
ENDBRANCH   3  15
TORSDOF 7
ENDMDL
MODEL 3
REMARK VINA RESULT:    -4.277      2.236      4.045
REMARK INTER + INTRA:          -7.080
REMARK INTER:                  -5.776
REMARK INTRA:                  -1.304
REMARK UNBOUND:                -1.179
REMARK SMILES CCCCc1cccc(O)c1CCCC
REMARK SMILES IDX 5 1 11 2 9 3 8 4 7 5 6 6 4 7 3 8 2 9 1 10 12 11 13 12 14 13
REMARK SMILES IDX 15 14 10 15
REMARK H PARENT 10 16
REMARK Flexibility Score: inf
ROOT
ATOM      1  C   UNL     1     161.221 176.092 187.370  1.00  0.00    -0.041 A 
ATOM      2  C   UNL     1     162.516 175.526 187.577  1.00  0.00    -0.003 A 
ATOM      3  C   UNL     1     162.653 174.118 187.635  1.00  0.00     0.119 A 
ATOM      4  C   UNL     1     161.524 173.296 187.571  1.00  0.00     0.046 A 
ATOM      5  C   UNL     1     160.255 173.852 187.462  1.00  0.00     0.004 A 
ATOM      6  C   UNL     1     160.102 175.233 187.373  1.00  0.00     0.004 A 
ENDROOT
BRANCH   1   7
ATOM      7  C   UNL     1     160.974 177.589 187.220  1.00  0.00     0.036 C 
BRANCH   7   8
ATOM      8  C   UNL     1     160.471 177.994 185.818  1.00  0.00     0.004 C 
BRANCH   8   9
ATOM      9  C   UNL     1     161.342 177.446 184.674  1.00  0.00    -0.003 C 
ATOM     10  C   UNL     1     160.536 176.594 183.693  1.00  0.00     0.004 C 
ENDBRANCH   8   9
ENDBRANCH   7   8
ENDBRANCH   1   7
BRANCH   2  11
ATOM     11  C   UNL     1     163.765 176.373 187.739  1.00  0.00     0.040 C 
BRANCH  11  12
ATOM     12  C   UNL     1     164.471 176.577 186.392  1.00  0.00     0.005 C 
BRANCH  12  13
ATOM     13  C   UNL     1     165.129 177.960 186.271  1.00  0.00    -0.003 C 
ATOM     14  C   UNL     1     164.270 179.075 186.866  1.00  0.00     0.004 C 
ENDBRANCH  12  13
ENDBRANCH  11  12
ENDBRANCH   2  11
BRANCH   3  15
ATOM     15  O   UNL     1     163.915 173.537 187.763  1.00  0.00    -0.508 OA
ATOM     16  H   UNL     1     164.214 172.775 187.166  1.00  0.00     0.293 HD
ENDBRANCH   3  15
TORSDOF 7
ENDMDL
MODEL 4
REMARK VINA RESULT:    -4.228      2.300      5.113
REMARK INTER + INTRA:          -7.013
REMARK INTER:                  -5.812
REMARK INTRA:                  -1.201
REMARK UNBOUND:                -1.179
REMARK SMILES CCCCc1cccc(O)c1CCCC
REMARK SMILES IDX 5 1 11 2 9 3 8 4 7 5 6 6 4 7 3 8 2 9 1 10 12 11 13 12 14 13
REMARK SMILES IDX 15 14 10 15
REMARK H PARENT 10 16
REMARK Flexibility Score: inf
ROOT
ATOM      1  C   UNL     1     163.023 177.409 187.387  1.00  0.00    -0.041 A 
ATOM      2  C   UNL     1     163.522 176.073 187.458  1.00  0.00    -0.003 A 
ATOM      3  C   UNL     1     164.879 175.826 187.136  1.00  0.00     0.119 A 
ATOM      4  C   UNL     1     165.696 176.862 186.678  1.00  0.00     0.046 A 
ATOM      5  C   UNL     1     165.184 178.145 186.522  1.00  0.00     0.004 A 
ATOM      6  C   UNL     1     163.861 178.415 186.862  1.00  0.00     0.004 A 
ENDROOT
BRANCH   1   7
ATOM      7  C   UNL     1     161.602 177.796 187.781  1.00  0.00     0.036 C 
BRANCH   7   8
ATOM      8  C   UNL     1     160.732 178.250 186.590  1.00  0.00     0.004 C 
BRANCH   8   9
ATOM      9  C   UNL     1     160.628 177.196 185.473  1.00  0.00    -0.003 C 
ATOM     10  C   UNL     1     160.248 177.817 184.129  1.00  0.00     0.004 C 
ENDBRANCH   8   9
ENDBRANCH   7   8
ENDBRANCH   1   7
BRANCH   2  11
ATOM     11  C   UNL     1     162.657 174.894 187.866  1.00  0.00     0.040 C 
BRANCH  11  12
ATOM     12  C   UNL     1     162.143 174.137 186.634  1.00  0.00     0.005 C 
BRANCH  12  13
ATOM     13  C   UNL     1     160.711 173.611 186.818  1.00  0.00    -0.003 C 
ATOM     14  C   UNL     1     159.875 174.491 187.747  1.00  0.00     0.004 C 
ENDBRANCH  12  13
ENDBRANCH  11  12
ENDBRANCH   2  11
BRANCH   3  15
ATOM     15  O   UNL     1     165.410 174.542 187.267  1.00  0.00    -0.508 OA
ATOM     16  H   UNL     1     165.123 173.919 188.013  1.00  0.00     0.293 HD
ENDBRANCH   3  15
TORSDOF 7
ENDMDL
MODEL 5
REMARK VINA RESULT:    -4.221      1.588      3.869
REMARK INTER + INTRA:          -7.003
REMARK INTER:                  -6.209
REMARK INTRA:                  -0.795
REMARK UNBOUND:                -1.179
REMARK SMILES CCCCc1cccc(O)c1CCCC
REMARK SMILES IDX 5 1 11 2 9 3 8 4 7 5 6 6 4 7 3 8 2 9 1 10 12 11 13 12 14 13
REMARK SMILES IDX 15 14 10 15
REMARK H PARENT 10 16
REMARK Flexibility Score: inf
ROOT
ATOM      1  C   UNL     1     160.857 177.019 186.396  1.00  0.00    -0.041 A 
ATOM      2  C   UNL     1     160.798 175.611 186.161  1.00  0.00    -0.003 A 
ATOM      3  C   UNL     1     160.759 175.136 184.828  1.00  0.00     0.119 A 
ATOM      4  C   UNL     1     160.697 176.034 183.759  1.00  0.00     0.046 A 
ATOM      5  C   UNL     1     160.663 177.403 183.993  1.00  0.00     0.004 A 
ATOM      6  C   UNL     1     160.732 177.892 185.295  1.00  0.00     0.004 A 
ENDROOT
BRANCH   1   7
ATOM      7  C   UNL     1     160.977 177.633 187.786  1.00  0.00     0.036 C 
BRANCH   7   8
ATOM      8  C   UNL     1     162.415 177.621 188.346  1.00  0.00     0.004 C 
BRANCH   8   9
ATOM      9  C   UNL     1     163.495 177.526 187.254  1.00  0.00    -0.003 C 
ATOM     10  C   UNL     1     164.090 178.892 186.911  1.00  0.00     0.004 C 
ENDBRANCH   8   9
ENDBRANCH   7   8
ENDBRANCH   1   7
BRANCH   2  11
ATOM     11  C   UNL     1     160.774 174.592 187.286  1.00  0.00     0.040 C 
BRANCH  11  12
ATOM     12  C   UNL     1     162.185 174.064 187.579  1.00  0.00     0.005 C 
BRANCH  12  13
ATOM     13  C   UNL     1     162.194 172.572 187.945  1.00  0.00    -0.003 C 
ATOM     14  C   UNL     1     160.815 171.926 187.815  1.00  0.00     0.004 C 
ENDBRANCH  12  13
ENDBRANCH  11  12
ENDBRANCH   2  11
BRANCH   3  15
ATOM     15  O   UNL     1     160.773 173.764 184.569  1.00  0.00    -0.508 OA
ATOM     16  H   UNL     1     160.796 173.081 185.317  1.00  0.00     0.293 HD
ENDBRANCH   3  15
TORSDOF 7
ENDMDL
MODEL 6
REMARK VINA RESULT:    -4.215      2.265      3.319
REMARK INTER + INTRA:          -6.996
REMARK INTER:                  -5.518
REMARK INTRA:                  -1.478
REMARK UNBOUND:                -1.179
REMARK SMILES CCCCc1cccc(O)c1CCCC
REMARK SMILES IDX 5 1 11 2 9 3 8 4 7 5 6 6 4 7 3 8 2 9 1 10 12 11 13 12 14 13
REMARK SMILES IDX 15 14 10 15
REMARK H PARENT 10 16
REMARK Flexibility Score: inf
ROOT
ATOM      1  C   UNL     1     162.474 176.404 184.571  1.00  0.00    -0.041 A 
ATOM      2  C   UNL     1     163.252 177.422 185.203  1.00  0.00    -0.003 A 
ATOM      3  C   UNL     1     164.586 177.632 184.779  1.00  0.00     0.119 A 
ATOM      4  C   UNL     1     165.160 176.803 183.812  1.00  0.00     0.046 A 
ATOM      5  C   UNL     1     164.430 175.754 183.263  1.00  0.00     0.004 A 
ATOM      6  C   UNL     1     163.107 175.549 183.644  1.00  0.00     0.004 A 
ENDROOT
BRANCH   1   7
ATOM      7  C   UNL     1     161.008 176.143 184.899  1.00  0.00     0.036 C 
BRANCH   7   8
ATOM      8  C   UNL     1     160.722 174.692 185.340  1.00  0.00     0.004 C 
BRANCH   8   9
ATOM      9  C   UNL     1     160.654 174.520 186.868  1.00  0.00    -0.003 C 
ATOM     10  C   UNL     1     161.964 173.982 187.446  1.00  0.00     0.004 C 
ENDBRANCH   8   9
ENDBRANCH   7   8
ENDBRANCH   1   7
BRANCH   2  11
ATOM     11  C   UNL     1     162.709 178.295 186.319  1.00  0.00     0.040 C 
BRANCH  11  12
ATOM     12  C   UNL     1     162.883 177.616 187.684  1.00  0.00     0.005 C 
BRANCH  12  13
ATOM     13  C   UNL     1     161.585 177.596 188.505  1.00  0.00    -0.003 C 
ATOM     14  C   UNL     1     160.434 178.318 187.806  1.00  0.00     0.004 C 
ENDBRANCH  12  13
ENDBRANCH  11  12
ENDBRANCH   2  11
BRANCH   3  15
ATOM     15  O   UNL     1     165.344 178.667 185.329  1.00  0.00    -0.508 OA
ATOM     16  H   UNL     1     165.842 178.556 186.205  1.00  0.00     0.293 HD
ENDBRANCH   3  15
TORSDOF 7
ENDMDL
MODEL 7
REMARK VINA RESULT:    -4.187      2.041      3.512
REMARK INTER + INTRA:          -6.956
REMARK INTER:                  -5.829
REMARK INTRA:                  -1.128
REMARK UNBOUND:                -1.179
REMARK SMILES CCCCc1cccc(O)c1CCCC
REMARK SMILES IDX 5 1 11 2 9 3 8 4 7 5 6 6 4 7 3 8 2 9 1 10 12 11 13 12 14 13
REMARK SMILES IDX 15 14 10 15
REMARK H PARENT 10 16
REMARK Flexibility Score: inf
ROOT
ATOM      1  C   UNL     1     160.667 176.149 186.477  1.00  0.00    -0.041 A 
ATOM      2  C   UNL     1     160.956 175.661 185.166  1.00  0.00    -0.003 A 
ATOM      3  C   UNL     1     160.732 174.294 184.874  1.00  0.00     0.119 A 
ATOM      4  C   UNL     1     160.310 173.418 185.877  1.00  0.00     0.046 A 
ATOM      5  C   UNL     1     160.117 173.875 187.175  1.00  0.00     0.004 A 
ATOM      6  C   UNL     1     160.302 175.222 187.476  1.00  0.00     0.004 A 
ENDROOT
BRANCH   1   7
ATOM      7  C   UNL     1     160.802 177.615 186.876  1.00  0.00     0.036 C 
BRANCH   7   8
ATOM      8  C   UNL     1     161.818 177.854 188.013  1.00  0.00     0.004 C 
BRANCH   8   9
ATOM      9  C   UNL     1     163.269 177.532 187.613  1.00  0.00    -0.003 C 
ATOM     10  C   UNL     1     163.960 178.720 186.944  1.00  0.00     0.004 C 
ENDBRANCH   8   9
ENDBRANCH   7   8
ENDBRANCH   1   7
BRANCH   2  11
ATOM     11  C   UNL     1     161.498 176.550 184.061  1.00  0.00     0.040 C 
BRANCH  11  12
ATOM     12  C   UNL     1     163.033 176.550 184.059  1.00  0.00     0.005 C 
BRANCH  12  13
ATOM     13  C   UNL     1     163.623 177.767 183.331  1.00  0.00    -0.003 C 
ATOM     14  C   UNL     1     162.950 178.032 181.985  1.00  0.00     0.004 C 
ENDBRANCH  12  13
ENDBRANCH  11  12
ENDBRANCH   2  11
BRANCH   3  15
ATOM     15  O   UNL     1     160.937 173.808 183.582  1.00  0.00    -0.508 OA
ATOM     16  H   UNL     1     160.395 174.142 182.794  1.00  0.00     0.293 HD
ENDBRANCH   3  15
TORSDOF 7
ENDMDL
MODEL 8
REMARK VINA RESULT:    -4.175      8.039     10.804
REMARK INTER + INTRA:          -6.940
REMARK INTER:                  -6.229
REMARK INTRA:                  -0.712
REMARK UNBOUND:                -1.179
REMARK SMILES CCCCc1cccc(O)c1CCCC
REMARK SMILES IDX 5 1 11 2 9 3 8 4 7 5 6 6 4 7 3 8 2 9 1 10 12 11 13 12 14 13
REMARK SMILES IDX 15 14 10 15
REMARK H PARENT 10 16
REMARK Flexibility Score: inf
ROOT
ATOM      1  C   UNL     1     172.274 179.383 186.229  1.00  0.00    -0.041 A 
ATOM      2  C   UNL     1     170.848 179.412 186.155  1.00  0.00    -0.003 A 
ATOM      3  C   UNL     1     170.223 179.381 184.885  1.00  0.00     0.119 A 
ATOM      4  C   UNL     1     170.992 179.403 183.719  1.00  0.00     0.046 A 
ATOM      5  C   UNL     1     172.378 179.467 183.792  1.00  0.00     0.004 A 
ATOM      6  C   UNL     1     173.013 179.467 185.031  1.00  0.00     0.004 A 
ENDROOT
BRANCH   1   7
ATOM      7  C   UNL     1     173.045 179.339 187.544  1.00  0.00     0.036 C 
BRANCH   7   8
ATOM      8  C   UNL     1     174.494 179.857 187.428  1.00  0.00     0.004 C 
BRANCH   8   9
ATOM      9  C   UNL     1     175.547 178.839 187.904  1.00  0.00    -0.003 C 
ATOM     10  C   UNL     1     176.233 178.131 186.735  1.00  0.00     0.004 C 
ENDBRANCH   8   9
ENDBRANCH   7   8
ENDBRANCH   1   7
BRANCH   2  11
ATOM     11  C   UNL     1     169.964 179.476 187.387  1.00  0.00     0.040 C 
BRANCH  11  12
ATOM     12  C   UNL     1     169.622 178.067 187.893  1.00  0.00     0.005 C 
BRANCH  12  13
ATOM     13  C   UNL     1     168.222 177.988 188.521  1.00  0.00    -0.003 C 
ATOM     14  C   UNL     1     167.114 177.866 187.476  1.00  0.00     0.004 C 
ENDBRANCH  12  13
ENDBRANCH  11  12
ENDBRANCH   2  11
BRANCH   3  15
ATOM     15  O   UNL     1     168.831 179.335 184.787  1.00  0.00    -0.508 OA
ATOM     16  H   UNL     1     168.318 178.468 184.888  1.00  0.00     0.293 HD
ENDBRANCH   3  15
TORSDOF 7
ENDMDL
MODEL 9
REMARK VINA RESULT:    -4.174     10.080     12.760
REMARK INTER + INTRA:          -6.939
REMARK INTER:                  -5.809
REMARK INTRA:                  -1.129
REMARK UNBOUND:                -1.179
REMARK SMILES CCCCc1cccc(O)c1CCCC
REMARK SMILES IDX 5 1 11 2 9 3 8 4 7 5 6 6 4 7 3 8 2 9 1 10 12 11 13 12 14 13
REMARK SMILES IDX 15 14 10 15
REMARK H PARENT 10 16
REMARK Flexibility Score: inf
ROOT
ATOM      1  C   UNL     1     173.333 179.783 186.499  1.00  0.00    -0.041 A 
ATOM      2  C   UNL     1     172.943 179.376 185.187  1.00  0.00    -0.003 A 
ATOM      3  C   UNL     1     171.571 179.166 184.910  1.00  0.00     0.119 A 
ATOM      4  C   UNL     1     170.619 179.278 185.928  1.00  0.00     0.046 A 
ATOM      5  C   UNL     1     171.011 179.585 187.225  1.00  0.00     0.004 A 
ATOM      6  C   UNL     1     172.353 179.825 187.512  1.00  0.00     0.004 A 
ENDROOT
BRANCH   1   7
ATOM      7  C   UNL     1     174.773 180.106 186.884  1.00  0.00     0.036 C 
BRANCH   7   8
ATOM      8  C   UNL     1     175.332 179.201 188.002  1.00  0.00     0.004 C 
BRANCH   8   9
ATOM      9  C   UNL     1     175.580 177.751 187.548  1.00  0.00    -0.003 C 
ATOM     10  C   UNL     1     176.953 177.579 186.897  1.00  0.00     0.004 C 
ENDBRANCH   8   9
ENDBRANCH   7   8
ENDBRANCH   1   7
BRANCH   2  11
ATOM     11  C   UNL     1     173.942 179.154 184.066  1.00  0.00     0.040 C 
BRANCH  11  12
ATOM     12  C   UNL     1     174.452 177.707 184.062  1.00  0.00     0.005 C 
BRANCH  12  13
ATOM     13  C   UNL     1     175.788 177.552 183.319  1.00  0.00    -0.003 C 
ATOM     14  C   UNL     1     175.853 178.391 182.043  1.00  0.00     0.004 C 
ENDBRANCH  12  13
ENDBRANCH  11  12
ENDBRANCH   2  11
BRANCH   3  15
ATOM     15  O   UNL     1     171.155 178.838 183.619  1.00  0.00    -0.508 OA
ATOM     16  H   UNL     1     171.081 179.537 182.889  1.00  0.00     0.293 HD
ENDBRANCH   3  15
TORSDOF 7
ENDMDL
