MODEL 1
REMARK VINA RESULT:    -4.251      0.000      0.000
REMARK INTER + INTRA:          -7.233
REMARK INTER:                  -6.736
REMARK INTRA:                  -0.497
REMARK UNBOUND:                -0.497
REMARK SMILES CCCCCCCCCCCC(=O)[O-]
REMARK SMILES IDX 7 1 8 2 9 3 10 4 11 5 12 6 13 7 14 8 6 9 5 10 4 11 3 12 2 13
REMARK SMILES IDX 1 14
REMARK H PARENT
REMARK Flexibility Score: inf
ROOT
ATOM      1  C   UNL     1       5.127  -1.940  -3.996  1.00  0.00     0.000 C 
ENDROOT
BRANCH   1   2
ATOM      2  C   UNL     1       5.836  -0.798  -3.252  1.00  0.00     0.000 C 
BRANCH   2   3
ATOM      3  C   UNL     1       6.134  -1.134  -1.780  1.00  0.00     0.000 C 
BRANCH   3   4
ATOM      4  C   UNL     1       5.359  -0.289  -0.748  1.00  0.00     0.006 C 
BRANCH   4   5
ATOM      5  C   UNL     1       6.247   0.506   0.222  1.00  0.00     0.053 C 
BRANCH   5   6
ATOM      6  C   UNL     1       5.588   0.700   1.554  1.00  0.00     0.041 C 
ATOM      7  O   UNL     1       5.216   1.847   1.916  1.00  0.00    -0.550 OA
ATOM      8  O   UNL     1       5.355  -0.393   2.381  1.00  0.00    -0.550 OA
ENDBRANCH   5   6
ENDBRANCH   4   5
ENDBRANCH   3   4
ENDBRANCH   2   3
ENDBRANCH   1   2
BRANCH   1   9
ATOM      9  C   UNL     1       4.170  -1.388  -5.064  1.00  0.00     0.000 C 
BRANCH   9  10
ATOM     10  C   UNL     1       2.710  -1.323  -4.580  1.00  0.00    -0.000 C 
BRANCH  10  11
ATOM     11  C   UNL     1       2.214  -2.578  -3.836  1.00  0.00    -0.000 C 
BRANCH  11  12
ATOM     12  C   UNL     1       2.051  -3.837  -4.713  1.00  0.00    -0.000 C 
BRANCH  12  13
ATOM     13  C   UNL     1       1.272  -4.988  -4.052  1.00  0.00    -0.003 C 
ATOM     14  C   UNL     1       0.674  -4.603  -2.700  1.00  0.00     0.004 C 
ENDBRANCH  12  13
ENDBRANCH  11  12
ENDBRANCH  10  11
ENDBRANCH   9  10
ENDBRANCH   1   9
TORSDOF 10
ENDMDL
MODEL 2
REMARK VINA RESULT:    -4.163      1.090      1.935
REMARK INTER + INTRA:          -7.093
REMARK INTER:                  -6.444
REMARK INTRA:                  -0.649
REMARK UNBOUND:                -0.497
REMARK SMILES CCCCCCCCCCCC(=O)[O-]
REMARK SMILES IDX 7 1 8 2 9 3 10 4 11 5 12 6 13 7 14 8 6 9 5 10 4 11 3 12 2 13
REMARK SMILES IDX 1 14
REMARK H PARENT
REMARK Flexibility Score: inf
ROOT
ATOM      1  C   UNL     1       6.017  -1.636  -2.871  1.00  0.00     0.000 C 
ENDROOT
BRANCH   1   2
ATOM      2  C   UNL     1       7.061  -1.988  -1.801  1.00  0.00     0.000 C 
BRANCH   2   3
ATOM      3  C   UNL     1       6.678  -1.482  -0.399  1.00  0.00     0.000 C 
BRANCH   3   4
ATOM      4  C   UNL     1       5.602  -0.376  -0.376  1.00  0.00     0.006 C 
BRANCH   4   5
ATOM      5  C   UNL     1       5.903   0.788   0.580  1.00  0.00     0.053 C 
BRANCH   5   6
ATOM      6  C   UNL     1       6.167   0.313   1.976  1.00  0.00     0.041 C 
ATOM      7  O   UNL     1       5.273  -0.302   2.616  1.00  0.00    -0.550 OA
ATOM      8  O   UNL     1       7.412   0.519   2.558  1.00  0.00    -0.550 OA
ENDBRANCH   5   6
ENDBRANCH   4   5
ENDBRANCH   3   4
ENDBRANCH   2   3
ENDBRANCH   1   2
BRANCH   1   9
ATOM      9  C   UNL     1       6.140  -2.570  -4.085  1.00  0.00     0.000 C 
BRANCH   9  10
ATOM     10  C   UNL     1       4.924  -2.489  -5.026  1.00  0.00    -0.000 C 
BRANCH  10  11
ATOM     11  C   UNL     1       4.023  -1.256  -4.821  1.00  0.00    -0.000 C 
BRANCH  11  12
ATOM     12  C   UNL     1       2.573  -1.568  -4.396  1.00  0.00    -0.000 C 
BRANCH  12  13
ATOM     13  C   UNL     1       2.086  -2.983  -4.751  1.00  0.00    -0.003 C 
ATOM     14  C   UNL     1       1.430  -3.700  -3.571  1.00  0.00     0.004 C 
ENDBRANCH  12  13
ENDBRANCH  11  12
ENDBRANCH  10  11
ENDBRANCH   9  10
ENDBRANCH   1   9
TORSDOF 10
ENDMDL
MODEL 3
REMARK VINA RESULT:    -4.081      3.470      6.321
REMARK INTER + INTRA:          -6.963
REMARK INTER:                  -6.116
REMARK INTRA:                  -0.847
REMARK UNBOUND:                -0.497
REMARK SMILES CCCCCCCCCCCC(=O)[O-]
REMARK SMILES IDX 7 1 8 2 9 3 10 4 11 5 12 6 13 7 14 8 6 9 5 10 4 11 3 12 2 13
REMARK SMILES IDX 1 14
REMARK H PARENT
REMARK Flexibility Score: inf
ROOT
ATOM      1  C   UNL     1       5.129  -1.751  -3.842  1.00  0.00     0.000 C 
ENDROOT
BRANCH   1   2
ATOM      2  C   UNL     1       4.276  -1.111  -4.947  1.00  0.00     0.000 C 
BRANCH   2   3
ATOM      3  C   UNL     1       2.764  -1.286  -4.717  1.00  0.00     0.000 C 
BRANCH   3   4
ATOM      4  C   UNL     1       2.379  -2.427  -3.754  1.00  0.00     0.006 C 
BRANCH   4   5
ATOM      5  C   UNL     1       1.809  -3.678  -4.442  1.00  0.00     0.053 C 
BRANCH   5   6
ATOM      6  C   UNL     1       1.191  -4.625  -3.459  1.00  0.00     0.041 C 
ATOM      7  O   UNL     1       0.229  -4.251  -2.738  1.00  0.00    -0.550 OA
ATOM      8  O   UNL     1       1.656  -5.931  -3.364  1.00  0.00    -0.550 OA
ENDBRANCH   5   6
ENDBRANCH   4   5
ENDBRANCH   3   4
ENDBRANCH   2   3
ENDBRANCH   1   2
BRANCH   1   9
ATOM      9  C   UNL     1       5.768  -0.676  -2.950  1.00  0.00     0.000 C 
BRANCH   9  10
ATOM     10  C   UNL     1       5.326  -0.780  -1.479  1.00  0.00    -0.000 C 
BRANCH  10  11
ATOM     11  C   UNL     1       6.470  -0.708  -0.449  1.00  0.00    -0.000 C 
BRANCH  11  12
ATOM     12  C   UNL     1       7.733  -1.515  -0.815  1.00  0.00    -0.000 C 
BRANCH  12  13
ATOM     13  C   UNL     1       7.570  -3.042  -0.733  1.00  0.00    -0.003 C 
ATOM     14  C   UNL     1       7.929  -3.750  -2.039  1.00  0.00     0.004 C 
ENDBRANCH  12  13
ENDBRANCH  11  12
ENDBRANCH  10  11
ENDBRANCH   9  10
ENDBRANCH   1   9
TORSDOF 10
ENDMDL
MODEL 4
REMARK VINA RESULT:    -4.066      1.535      3.096
REMARK INTER + INTRA:          -6.940
REMARK INTER:                  -6.245
REMARK INTRA:                  -0.695
REMARK UNBOUND:                -0.497
REMARK SMILES CCCCCCCCCCCC(=O)[O-]
REMARK SMILES IDX 7 1 8 2 9 3 10 4 11 5 12 6 13 7 14 8 6 9 5 10 4 11 3 12 2 13
REMARK SMILES IDX 1 14
REMARK H PARENT
REMARK Flexibility Score: inf
ROOT
ATOM      1  C   UNL     1       5.856  -0.311  -0.807  1.00  0.00     0.000 C 
ENDROOT
BRANCH   1   2
ATOM      2  C   UNL     1       6.818  -1.402  -0.316  1.00  0.00     0.000 C 
BRANCH   2   3
ATOM      3  C   UNL     1       8.055  -0.834   0.404  1.00  0.00     0.000 C 
BRANCH   3   4
ATOM      4  C   UNL     1       7.811   0.475   1.184  1.00  0.00     0.006 C 
BRANCH   4   5
ATOM      5  C   UNL     1       7.943   0.343   2.710  1.00  0.00     0.053 C 
BRANCH   5   6
ATOM      6  C   UNL     1       6.607   0.329   3.388  1.00  0.00     0.041 C 
ATOM      7  O   UNL     1       6.482   0.797   4.550  1.00  0.00    -0.550 OA
ATOM      8  O   UNL     1       5.493  -0.169   2.723  1.00  0.00    -0.550 OA
ENDBRANCH   5   6
ENDBRANCH   4   5
ENDBRANCH   3   4
ENDBRANCH   2   3
ENDBRANCH   1   2
BRANCH   1   9
ATOM      9  C   UNL     1       5.024  -0.809  -1.998  1.00  0.00     0.000 C 
BRANCH   9  10
ATOM     10  C   UNL     1       5.857  -1.613  -3.013  1.00  0.00    -0.000 C 
BRANCH  10  11
ATOM     11  C   UNL     1       5.063  -2.167  -4.213  1.00  0.00    -0.000 C 
BRANCH  11  12
ATOM     12  C   UNL     1       4.231  -1.124  -4.986  1.00  0.00    -0.000 C 
BRANCH  12  13
ATOM     13  C   UNL     1       2.708  -1.328  -4.913  1.00  0.00    -0.003 C 
ATOM     14  C   UNL     1       2.304  -2.463  -3.972  1.00  0.00     0.004 C 
ENDBRANCH  12  13
ENDBRANCH  11  12
ENDBRANCH  10  11
ENDBRANCH   9  10
ENDBRANCH   1   9
TORSDOF 10
ENDMDL
MODEL 5
REMARK VINA RESULT:    -3.971      1.850      2.853
REMARK INTER + INTRA:          -6.790
REMARK INTER:                  -6.303
REMARK INTRA:                  -0.488
REMARK UNBOUND:                -0.497
REMARK SMILES CCCCCCCCCCCC(=O)[O-]
REMARK SMILES IDX 7 1 8 2 9 3 10 4 11 5 12 6 13 7 14 8 6 9 5 10 4 11 3 12 2 13
REMARK SMILES IDX 1 14
REMARK H PARENT
REMARK Flexibility Score: inf
ROOT
ATOM      1  C   UNL     1       2.741  -1.418  -4.971  1.00  0.00     0.000 C 
ENDROOT
BRANCH   1   2
ATOM      2  C   UNL     1       4.263  -1.218  -5.034  1.00  0.00     0.000 C 
BRANCH   2   3
ATOM      3  C   UNL     1       4.990  -1.740  -3.782  1.00  0.00     0.000 C 
BRANCH   3   4
ATOM      4  C   UNL     1       5.745  -0.666  -2.972  1.00  0.00     0.006 C 
BRANCH   4   5
ATOM      5  C   UNL     1       5.482  -0.705  -1.458  1.00  0.00     0.053 C 
BRANCH   5   6
ATOM      6  C   UNL     1       6.706  -1.095  -0.687  1.00  0.00     0.041 C 
ATOM      7  O   UNL     1       7.374  -0.220  -0.075  1.00  0.00    -0.550 OA
ATOM      8  O   UNL     1       7.089  -2.429  -0.616  1.00  0.00    -0.550 OA
ENDBRANCH   5   6
ENDBRANCH   4   5
ENDBRANCH   3   4
ENDBRANCH   2   3
ENDBRANCH   1   2
BRANCH   1   9
ATOM      9  C   UNL     1       2.352  -2.281  -3.761  1.00  0.00     0.000 C 
BRANCH   9  10
ATOM     10  C   UNL     1       1.742  -3.635  -4.165  1.00  0.00    -0.000 C 
BRANCH  10  11
ATOM     11  C   UNL     1       0.849  -4.293  -3.095  1.00  0.00    -0.000 C 
BRANCH  11  12
ATOM     12  C   UNL     1       1.179  -5.767  -2.782  1.00  0.00    -0.000 C 
BRANCH  12  13
ATOM     13  C   UNL     1       1.102  -6.145  -1.293  1.00  0.00    -0.003 C 
ATOM     14  C   UNL     1       0.979  -7.651  -1.066  1.00  0.00     0.004 C 
ENDBRANCH  12  13
ENDBRANCH  11  12
ENDBRANCH  10  11
ENDBRANCH   9  10
ENDBRANCH   1   9
TORSDOF 10
ENDMDL
MODEL 6
REMARK VINA RESULT:    -3.937      3.747      6.602
REMARK INTER + INTRA:          -6.736
REMARK INTER:                  -6.119
REMARK INTRA:                  -0.617
REMARK UNBOUND:                -0.497
REMARK SMILES CCCCCCCCCCCC(=O)[O-]
REMARK SMILES IDX 7 1 8 2 9 3 10 4 11 5 12 6 13 7 14 8 6 9 5 10 4 11 3 12 2 13
REMARK SMILES IDX 1 14
REMARK H PARENT
REMARK Flexibility Score: inf
ROOT
ATOM      1  C   UNL     1       2.573  -1.230  -4.854  1.00  0.00     0.000 C 
ENDROOT
BRANCH   1   2
ATOM      2  C   UNL     1       2.491  -2.413  -5.829  1.00  0.00     0.000 C 
BRANCH   2   3
ATOM      3  C   UNL     1       2.630  -3.778  -5.130  1.00  0.00     0.000 C 
BRANCH   3   4
ATOM      4  C   UNL     1       1.303  -4.404  -4.652  1.00  0.00     0.006 C 
BRANCH   4   5
ATOM      5  C   UNL     1       1.036  -4.261  -3.145  1.00  0.00     0.053 C 
BRANCH   5   6
ATOM      6  C   UNL     1       0.056  -5.280  -2.652  1.00  0.00     0.041 C 
ATOM      7  O   UNL     1      -1.087  -5.366  -3.174  1.00  0.00    -0.550 OA
ATOM      8  O   UNL     1       0.416  -6.158  -1.636  1.00  0.00    -0.550 OA
ENDBRANCH   5   6
ENDBRANCH   4   5
ENDBRANCH   3   4
ENDBRANCH   2   3
ENDBRANCH   1   2
BRANCH   1   9
ATOM      9  C   UNL     1       3.541  -1.534  -3.701  1.00  0.00     0.000 C 
BRANCH   9  10
ATOM     10  C   UNL     1       4.995  -1.146  -4.025  1.00  0.00    -0.000 C 
BRANCH  10  11
ATOM     11  C   UNL     1       6.028  -1.530  -2.947  1.00  0.00    -0.000 C 
BRANCH  11  12
ATOM     12  C   UNL     1       5.818  -0.861  -1.572  1.00  0.00    -0.000 C 
BRANCH  12  13
ATOM     13  C   UNL     1       6.763  -1.355  -0.463  1.00  0.00    -0.003 C 
ATOM     14  C   UNL     1       7.413  -2.699  -0.789  1.00  0.00     0.004 C 
ENDBRANCH  12  13
ENDBRANCH  11  12
ENDBRANCH  10  11
ENDBRANCH   9  10
ENDBRANCH   1   9
TORSDOF 10
ENDMDL
MODEL 7
REMARK VINA RESULT:    -3.905      3.517      6.334
REMARK INTER + INTRA:          -6.685
REMARK INTER:                  -5.674
REMARK INTRA:                  -1.011
REMARK UNBOUND:                -0.497
REMARK SMILES CCCCCCCCCCCC(=O)[O-]
REMARK SMILES IDX 7 1 8 2 9 3 10 4 11 5 12 6 13 7 14 8 6 9 5 10 4 11 3 12 2 13
REMARK SMILES IDX 1 14
REMARK H PARENT
REMARK Flexibility Score: inf
ROOT
ATOM      1  C   UNL     1       6.726  -1.392  -4.161  1.00  0.00     0.000 C 
ENDROOT
BRANCH   1   2
ATOM      2  C   UNL     1       5.334  -0.806  -4.439  1.00  0.00     0.000 C 
BRANCH   2   3
ATOM      3  C   UNL     1       4.202  -1.595  -3.754  1.00  0.00     0.000 C 
BRANCH   3   4
ATOM      4  C   UNL     1       2.814  -1.446  -4.410  1.00  0.00     0.006 C 
BRANCH   4   5
ATOM      5  C   UNL     1       2.379  -2.649  -5.262  1.00  0.00     0.053 C 
BRANCH   5   6
ATOM      6  C   UNL     1       1.898  -3.788  -4.418  1.00  0.00     0.041 C 
ATOM      7  O   UNL     1       1.247  -3.565  -3.363  1.00  0.00    -0.550 OA
ATOM      8  O   UNL     1       2.139  -5.099  -4.813  1.00  0.00    -0.550 OA
ENDBRANCH   5   6
ENDBRANCH   4   5
ENDBRANCH   3   4
ENDBRANCH   2   3
ENDBRANCH   1   2
BRANCH   1   9
ATOM      9  C   UNL     1       6.619  -2.737  -3.428  1.00  0.00     0.000 C 
BRANCH   9  10
ATOM     10  C   UNL     1       7.814  -3.006  -2.497  1.00  0.00    -0.000 C 
BRANCH  10  11
ATOM     11  C   UNL     1       7.501  -2.915  -0.990  1.00  0.00    -0.000 C 
BRANCH  11  12
ATOM     12  C   UNL     1       7.709  -1.522  -0.362  1.00  0.00    -0.000 C 
BRANCH  12  13
ATOM     13  C   UNL     1       6.471  -0.939   0.343  1.00  0.00    -0.003 C 
ATOM     14  C   UNL     1       5.540  -0.192  -0.611  1.00  0.00     0.004 C 
ENDBRANCH  12  13
ENDBRANCH  11  12
ENDBRANCH  10  11
ENDBRANCH   9  10
ENDBRANCH   1   9
TORSDOF 10
ENDMDL
MODEL 8
REMARK VINA RESULT:    -3.866      1.408      2.665
REMARK INTER + INTRA:          -6.623
REMARK INTER:                  -5.979
REMARK INTRA:                  -0.644
REMARK UNBOUND:                -0.497
REMARK SMILES CCCCCCCCCCCC(=O)[O-]
REMARK SMILES IDX 7 1 8 2 9 3 10 4 11 5 12 6 13 7 14 8 6 9 5 10 4 11 3 12 2 13
REMARK SMILES IDX 1 14
REMARK H PARENT
REMARK Flexibility Score: inf
ROOT
ATOM      1  C   UNL     1       7.153  -2.481  -1.434  1.00  0.00     0.000 C 
ENDROOT
BRANCH   1   2
ATOM      2  C   UNL     1       6.864  -1.417  -0.366  1.00  0.00     0.000 C 
BRANCH   2   3
ATOM      3  C   UNL     1       5.694  -0.490  -0.742  1.00  0.00     0.000 C 
BRANCH   3   4
ATOM      4  C   UNL     1       6.022   1.018  -0.714  1.00  0.00     0.006 C 
BRANCH   4   5
ATOM      5  C   UNL     1       6.687   1.502   0.584  1.00  0.00     0.053 C 
BRANCH   5   6
ATOM      6  C   UNL     1       5.739   1.473   1.744  1.00  0.00     0.041 C 
ATOM      7  O   UNL     1       4.928   2.420   1.923  1.00  0.00    -0.550 OA
ATOM      8  O   UNL     1       5.728   0.384   2.608  1.00  0.00    -0.550 OA
ENDBRANCH   5   6
ENDBRANCH   4   5
ENDBRANCH   3   4
ENDBRANCH   2   3
ENDBRANCH   1   2
BRANCH   1   9
ATOM      9  C   UNL     1       7.229  -1.849  -2.832  1.00  0.00     0.000 C 
BRANCH   9  10
ATOM     10  C   UNL     1       6.107  -2.334  -3.768  1.00  0.00    -0.000 C 
BRANCH  10  11
ATOM     11  C   UNL     1       5.034  -1.279  -4.100  1.00  0.00    -0.000 C 
BRANCH  11  12
ATOM     12  C   UNL     1       4.231  -1.545  -5.390  1.00  0.00    -0.000 C 
BRANCH  12  13
ATOM     13  C   UNL     1       2.707  -1.639  -5.195  1.00  0.00    -0.003 C 
ATOM     14  C   UNL     1       2.315  -2.356  -3.904  1.00  0.00     0.004 C 
ENDBRANCH  12  13
ENDBRANCH  11  12
ENDBRANCH  10  11
ENDBRANCH   9  10
ENDBRANCH   1   9
TORSDOF 10
ENDMDL
MODEL 9
REMARK VINA RESULT:    -3.664      4.277      5.395
REMARK INTER + INTRA:          -6.304
REMARK INTER:                  -5.630
REMARK INTRA:                  -0.674
REMARK UNBOUND:                -0.497
REMARK SMILES CCCCCCCCCCCC(=O)[O-]
REMARK SMILES IDX 7 1 8 2 9 3 10 4 11 5 12 6 13 7 14 8 6 9 5 10 4 11 3 12 2 13
REMARK SMILES IDX 1 14
REMARK H PARENT
REMARK Flexibility Score: inf
ROOT
ATOM      1  C   UNL     1       2.801  -3.794  -5.262  1.00  0.00     0.000 C 
ENDROOT
BRANCH   1   2
ATOM      2  C   UNL     1       2.174  -2.473  -5.731  1.00  0.00     0.000 C 
BRANCH   2   3
ATOM      3  C   UNL     1       2.680  -1.252  -4.941  1.00  0.00     0.000 C 
BRANCH   3   4
ATOM      4  C   UNL     1       4.093  -1.405  -4.340  1.00  0.00     0.006 C 
BRANCH   4   5
ATOM      5  C   UNL     1       5.193  -0.641  -5.092  1.00  0.00     0.053 C 
BRANCH   5   6
ATOM      6  C   UNL     1       5.953  -1.530  -6.027  1.00  0.00     0.041 C 
ATOM      7  O   UNL     1       5.428  -1.912  -7.107  1.00  0.00    -0.550 OA
ATOM      8  O   UNL     1       7.255  -1.911  -5.723  1.00  0.00    -0.550 OA
ENDBRANCH   5   6
ENDBRANCH   4   5
ENDBRANCH   3   4
ENDBRANCH   2   3
ENDBRANCH   1   2
BRANCH   1   9
ATOM      9  C   UNL     1       1.783  -4.634  -4.475  1.00  0.00     0.000 C 
BRANCH   9  10
ATOM     10  C   UNL     1       1.187  -3.878  -3.274  1.00  0.00    -0.000 C 
BRANCH  10  11
ATOM     11  C   UNL     1       0.058  -4.621  -2.532  1.00  0.00    -0.000 C 
BRANCH  11  12
ATOM     12  C   UNL     1       0.307  -6.125  -2.298  1.00  0.00    -0.000 C 
BRANCH  12  13
ATOM     13  C   UNL     1       1.163  -6.454  -1.062  1.00  0.00    -0.003 C 
ATOM     14  C   UNL     1       1.975  -7.738  -1.224  1.00  0.00     0.004 C 
ENDBRANCH  12  13
ENDBRANCH  11  12
ENDBRANCH  10  11
ENDBRANCH   9  10
ENDBRANCH   1   9
TORSDOF 10
ENDMDL
