MODEL 1
REMARK VINA RESULT:    -6.015      0.000      0.000
REMARK INTER + INTRA:          -7.996
REMARK INTER:                  -7.422
REMARK INTRA:                  -0.574
REMARK UNBOUND:                -0.574
REMARK SMILES CC(C)=CCC[C@@H](C)c1ccc(C)cc1
REMARK SMILES IDX 6 1 7 2 8 3 9 4 13 5 12 6 11 7 14 8 10 9 15 10 5 11 4 12
REMARK SMILES IDX 2 13 1 14 3 15
REMARK H PARENT
REMARK Flexibility Score: inf
ROOT
ATOM      1  C   UNL     1      45.001  23.121  -0.141  1.00  0.00     0.012 C 
ENDROOT
BRANCH   1   2
ATOM      2  C   UNL     1      46.165  24.124  -0.321  1.00  0.00     0.016 C 
ATOM      3  C   UNL     1      46.321  25.069   0.879  1.00  0.00     0.013 C 
BRANCH   2   4
ATOM      4  C   UNL     1      47.463  23.378  -0.579  1.00  0.00    -0.045 A 
ATOM      5  C   UNL     1      51.144  21.250  -1.341  1.00  0.00     0.044 C 
ATOM      6  C   UNL     1      49.856  21.965  -1.060  1.00  0.00    -0.051 A 
ATOM      7  C   UNL     1      48.778  21.857  -1.950  1.00  0.00     0.004 A 
ATOM      8  C   UNL     1      49.741  22.800   0.060  1.00  0.00     0.004 A 
ATOM      9  C   UNL     1      47.589  22.551  -1.709  1.00  0.00     0.004 A 
ATOM     10  C   UNL     1      48.553  23.496   0.303  1.00  0.00     0.004 A 
ENDBRANCH   2   4
ENDBRANCH   1   2
BRANCH   1  11
ATOM     11  C   UNL     1      43.898  23.248  -1.212  1.00  0.00     0.028 C 
BRANCH  11  12
ATOM     12  C   UNL     1      43.501  21.909  -1.789  1.00  0.00    -0.028 C 
ATOM     13  C   UNL     1      42.224  21.509  -1.985  1.00  0.00    -0.080 C 
ATOM     14  C   UNL     1      41.984  20.149  -2.588  1.00  0.00     0.039 C 
ATOM     15  C   UNL     1      41.044  22.366  -1.590  1.00  0.00     0.039 C 
ENDBRANCH  11  12
ENDBRANCH   1  11
TORSDOF 4
ENDMDL
MODEL 2
REMARK VINA RESULT:    -5.602      1.554      6.769
REMARK INTER + INTRA:          -7.486
REMARK INTER:                  -6.930
REMARK INTRA:                  -0.556
REMARK UNBOUND:                -0.574
REMARK SMILES CC(C)=CCC[C@@H](C)c1ccc(C)cc1
REMARK SMILES IDX 6 1 7 2 8 3 9 4 13 5 12 6 11 7 14 8 10 9 15 10 5 11 4 12
REMARK SMILES IDX 2 13 1 14 3 15
REMARK H PARENT
REMARK Flexibility Score: inf
ROOT
ATOM      1  C   UNL     1      47.769  23.474  -0.780  1.00  0.00     0.012 C 
ENDROOT
BRANCH   1   2
ATOM      2  C   UNL     1      47.156  22.982  -2.113  1.00  0.00     0.016 C 
ATOM      3  C   UNL     1      47.873  21.744  -2.671  1.00  0.00     0.013 C 
BRANCH   2   4
ATOM      4  C   UNL     1      45.674  22.699  -1.933  1.00  0.00    -0.045 A 
ATOM      5  C   UNL     1      41.462  21.906  -1.395  1.00  0.00     0.044 C 
ATOM      6  C   UNL     1      42.930  22.151  -1.577  1.00  0.00    -0.051 A 
ATOM      7  C   UNL     1      43.729  22.504  -0.481  1.00  0.00     0.004 A 
ATOM      8  C   UNL     1      43.502  22.095  -2.856  1.00  0.00     0.004 A 
ATOM      9  C   UNL     1      45.091  22.769  -0.656  1.00  0.00     0.004 A 
ATOM     10  C   UNL     1      44.863  22.360  -3.033  1.00  0.00     0.004 A 
ENDBRANCH   2   4
ENDBRANCH   1   2
BRANCH   1  11
ATOM     11  C   UNL     1      49.176  22.909  -0.496  1.00  0.00     0.028 C 
BRANCH  11  12
ATOM     12  C   UNL     1      49.597  23.113   0.941  1.00  0.00    -0.028 C 
ATOM     13  C   UNL     1      50.359  24.141   1.376  1.00  0.00    -0.080 C 
ATOM     14  C   UNL     1      50.683  24.221   2.846  1.00  0.00     0.039 C 
ATOM     15  C   UNL     1      50.915  25.184   0.434  1.00  0.00     0.039 C 
ENDBRANCH  11  12
ENDBRANCH   1  11
TORSDOF 4
ENDMDL
MODEL 3
REMARK VINA RESULT:    -5.392      1.355      5.406
REMARK INTER + INTRA:          -7.227
REMARK INTER:                  -5.847
REMARK INTRA:                  -1.380
REMARK UNBOUND:                -0.574
REMARK SMILES CC(C)=CCC[C@@H](C)c1ccc(C)cc1
REMARK SMILES IDX 6 1 7 2 8 3 9 4 13 5 12 6 11 7 14 8 10 9 15 10 5 11 4 12
REMARK SMILES IDX 2 13 1 14 3 15
REMARK H PARENT
REMARK Flexibility Score: inf
ROOT
ATOM      1  C   UNL     1      46.934  23.953   0.575  1.00  0.00     0.012 C 
ENDROOT
BRANCH   1   2
ATOM      2  C   UNL     1      45.776  24.873   0.121  1.00  0.00     0.016 C 
ATOM      3  C   UNL     1      46.270  26.111  -0.640  1.00  0.00     0.013 C 
BRANCH   2   4
ATOM      4  C   UNL     1      44.788  24.090  -0.727  1.00  0.00    -0.045 A 
ATOM      5  C   UNL     1      41.980  21.841  -3.118  1.00  0.00     0.044 C 
ATOM      6  C   UNL     1      42.978  22.613  -2.307  1.00  0.00    -0.051 A 
ATOM      7  C   UNL     1      43.647  22.001  -1.238  1.00  0.00     0.004 A 
ATOM      8  C   UNL     1      43.200  23.973  -2.570  1.00  0.00     0.004 A 
ATOM      9  C   UNL     1      44.550  22.731  -0.459  1.00  0.00     0.004 A 
ATOM     10  C   UNL     1      44.102  24.704  -1.791  1.00  0.00     0.004 A 
ENDBRANCH   2   4
ENDBRANCH   1   2
BRANCH   1  11
ATOM     11  C   UNL     1      48.193  24.050  -0.311  1.00  0.00     0.028 C 
BRANCH  11  12
ATOM     12  C   UNL     1      48.570  22.720  -0.922  1.00  0.00    -0.028 C 
ATOM     13  C   UNL     1      48.192  22.310  -2.154  1.00  0.00    -0.080 C 
ATOM     14  C   UNL     1      48.662  20.962  -2.635  1.00  0.00     0.039 C 
ATOM     15  C   UNL     1      47.294  23.144  -3.038  1.00  0.00     0.039 C 
ENDBRANCH  11  12
ENDBRANCH   1  11
TORSDOF 4
ENDMDL
MODEL 4
REMARK VINA RESULT:    -5.384      1.137      6.706
REMARK INTER + INTRA:          -7.217
REMARK INTER:                  -6.650
REMARK INTRA:                  -0.568
REMARK UNBOUND:                -0.574
REMARK SMILES CC(C)=CCC[C@@H](C)c1ccc(C)cc1
REMARK SMILES IDX 6 1 7 2 8 3 9 4 13 5 12 6 11 7 14 8 10 9 15 10 5 11 4 12
REMARK SMILES IDX 2 13 1 14 3 15
REMARK H PARENT
REMARK Flexibility Score: inf
ROOT
ATOM      1  C   UNL     1      46.190  22.649  -2.009  1.00  0.00     0.012 C 
ENDROOT
BRANCH   1   2
ATOM      2  C   UNL     1      45.206  22.651  -0.815  1.00  0.00     0.016 C 
ATOM      3  C   UNL     1      45.540  23.732   0.223  1.00  0.00     0.013 C 
BRANCH   2   4
ATOM      4  C   UNL     1      43.780  22.818  -1.313  1.00  0.00    -0.045 A 
ATOM      5  C   UNL     1      39.717  23.273  -2.709  1.00  0.00     0.044 C 
ATOM      6  C   UNL     1      41.134  23.097  -2.249  1.00  0.00    -0.051 A 
ATOM      7  C   UNL     1      41.468  22.059  -1.368  1.00  0.00     0.004 A 
ATOM      8  C   UNL     1      42.123  24.009  -2.643  1.00  0.00     0.004 A 
ATOM      9  C   UNL     1      42.781  21.916  -0.909  1.00  0.00     0.004 A 
ATOM     10  C   UNL     1      43.437  23.868  -2.186  1.00  0.00     0.004 A 
ENDBRANCH   2   4
ENDBRANCH   1   2
BRANCH   1  11
ATOM     11  C   UNL     1      47.549  23.309  -1.697  1.00  0.00     0.028 C 
BRANCH  11  12
ATOM     12  C   UNL     1      48.713  22.506  -2.231  1.00  0.00    -0.028 C 
ATOM     13  C   UNL     1      49.716  22.016  -1.468  1.00  0.00    -0.080 C 
ATOM     14  C   UNL     1      50.802  21.217  -2.141  1.00  0.00     0.039 C 
ATOM     15  C   UNL     1      49.793  22.271   0.019  1.00  0.00     0.039 C 
ENDBRANCH  11  12
ENDBRANCH   1  11
TORSDOF 4
ENDMDL
MODEL 5
REMARK VINA RESULT:    -5.321      1.685      2.192
REMARK INTER + INTRA:          -7.139
REMARK INTER:                  -6.618
REMARK INTRA:                  -0.521
REMARK UNBOUND:                -0.574
REMARK SMILES CC(C)=CCC[C@@H](C)c1ccc(C)cc1
REMARK SMILES IDX 6 1 7 2 8 3 9 4 13 5 12 6 11 7 14 8 10 9 15 10 5 11 4 12
REMARK SMILES IDX 2 13 1 14 3 15
REMARK H PARENT
REMARK Flexibility Score: inf
ROOT
ATOM      1  C   UNL     1      45.233  23.244  -0.102  1.00  0.00     0.012 C 
ENDROOT
BRANCH   1   2
ATOM      2  C   UNL     1      46.005  24.494  -0.587  1.00  0.00     0.016 C 
ATOM      3  C   UNL     1      45.355  25.806  -0.123  1.00  0.00     0.013 C 
BRANCH   2   4
ATOM      4  C   UNL     1      47.451  24.428  -0.126  1.00  0.00    -0.045 A 
ATOM      5  C   UNL     1      51.560  24.210   1.190  1.00  0.00     0.044 C 
ATOM      6  C   UNL     1      50.125  24.298   0.761  1.00  0.00    -0.051 A 
ATOM      7  C   UNL     1      49.257  23.218   0.969  1.00  0.00     0.004 A 
ATOM      8  C   UNL     1      49.658  25.436   0.087  1.00  0.00     0.004 A 
ATOM      9  C   UNL     1      47.929  23.284   0.536  1.00  0.00     0.004 A 
ATOM     10  C   UNL     1      48.331  25.504  -0.347  1.00  0.00     0.004 A 
ENDBRANCH   2   4
ENDBRANCH   1   2
BRANCH   1  11
ATOM     11  C   UNL     1      44.511  22.480  -1.230  1.00  0.00     0.028 C 
BRANCH  11  12
ATOM     12  C   UNL     1      43.060  22.883  -1.359  1.00  0.00    -0.028 C 
ATOM     13  C   UNL     1      42.077  22.068  -1.806  1.00  0.00    -0.080 C 
ATOM     14  C   UNL     1      40.671  22.607  -1.862  1.00  0.00     0.039 C 
ATOM     15  C   UNL     1      42.354  20.659  -2.276  1.00  0.00     0.039 C 
ENDBRANCH  11  12
ENDBRANCH   1  11
TORSDOF 4
ENDMDL
MODEL 6
REMARK VINA RESULT:    -5.258      1.123      2.305
REMARK INTER + INTRA:          -7.061
REMARK INTER:                  -6.395
REMARK INTRA:                  -0.667
REMARK UNBOUND:                -0.574
REMARK SMILES CC(C)=CCC[C@@H](C)c1ccc(C)cc1
REMARK SMILES IDX 6 1 7 2 8 3 9 4 13 5 12 6 11 7 14 8 10 9 15 10 5 11 4 12
REMARK SMILES IDX 2 13 1 14 3 15
REMARK H PARENT
REMARK Flexibility Score: inf
ROOT
ATOM      1  C   UNL     1      45.586  23.944  -1.739  1.00  0.00     0.012 C 
ENDROOT
BRANCH   1   2
ATOM      2  C   UNL     1      46.546  22.731  -1.717  1.00  0.00     0.016 C 
ATOM      3  C   UNL     1      46.976  22.293  -3.125  1.00  0.00     0.013 C 
BRANCH   2   4
ATOM      4  C   UNL     1      47.765  23.043  -0.865  1.00  0.00    -0.045 A 
ATOM      5  C   UNL     1      51.211  23.943   1.578  1.00  0.00     0.044 C 
ATOM      6  C   UNL     1      50.022  23.654   0.711  1.00  0.00    -0.051 A 
ATOM      7  C   UNL     1      48.781  24.241   0.994  1.00  0.00     0.004 A 
ATOM      8  C   UNL     1      50.125  22.742  -0.349  1.00  0.00     0.004 A 
ATOM      9  C   UNL     1      47.663  23.944   0.208  1.00  0.00     0.004 A 
ATOM     10  C   UNL     1      49.009  22.443  -1.135  1.00  0.00     0.004 A 
ENDBRANCH   2   4
ENDBRANCH   1   2
BRANCH   1  11
ATOM     11  C   UNL     1      44.182  23.637  -1.179  1.00  0.00     0.028 C 
BRANCH  11  12
ATOM     12  C   UNL     1      43.721  22.238  -1.516  1.00  0.00    -0.028 C 
ATOM     13  C   UNL     1      42.523  21.940  -2.068  1.00  0.00    -0.080 C 
ATOM     14  C   UNL     1      42.212  20.495  -2.365  1.00  0.00     0.039 C 
ATOM     15  C   UNL     1      41.488  22.999  -2.363  1.00  0.00     0.039 C 
ENDBRANCH  11  12
ENDBRANCH   1  11
TORSDOF 4
ENDMDL
MODEL 7
REMARK VINA RESULT:    -5.189      1.751      6.817
REMARK INTER + INTRA:          -6.976
REMARK INTER:                  -6.481
REMARK INTRA:                  -0.496
REMARK UNBOUND:                -0.574
REMARK SMILES CC(C)=CCC[C@@H](C)c1ccc(C)cc1
REMARK SMILES IDX 6 1 7 2 8 3 9 4 13 5 12 6 11 7 14 8 10 9 15 10 5 11 4 12
REMARK SMILES IDX 2 13 1 14 3 15
REMARK H PARENT
REMARK Flexibility Score: inf
ROOT
ATOM      1  C   UNL     1      47.325  23.454  -0.329  1.00  0.00     0.012 C 
ENDROOT
BRANCH   1   2
ATOM      2  C   UNL     1      46.047  24.034   0.322  1.00  0.00     0.016 C 
ATOM      3  C   UNL     1      46.142  25.547   0.563  1.00  0.00     0.013 C 
BRANCH   2   4
ATOM      4  C   UNL     1      44.832  23.709  -0.531  1.00  0.00    -0.045 A 
ATOM      5  C   UNL     1      41.385  22.808  -2.973  1.00  0.00     0.044 C 
ATOM      6  C   UNL     1      42.563  23.134  -2.104  1.00  0.00    -0.051 A 
ATOM      7  C   UNL     1      43.261  24.337  -2.280  1.00  0.00     0.004 A 
ATOM      8  C   UNL     1      43.018  22.209  -1.154  1.00  0.00     0.004 A 
ATOM      9  C   UNL     1      44.382  24.626  -1.496  1.00  0.00     0.004 A 
ATOM     10  C   UNL     1      44.138  22.495  -0.368  1.00  0.00     0.004 A 
ENDBRANCH   2   4
ENDBRANCH   1   2
BRANCH   1  11
ATOM     11  C   UNL     1      48.506  23.293   0.651  1.00  0.00     0.028 C 
BRANCH  11  12
ATOM     12  C   UNL     1      49.708  24.113   0.243  1.00  0.00    -0.028 C 
ATOM     13  C   UNL     1      50.685  24.510   1.089  1.00  0.00    -0.080 C 
ATOM     14  C   UNL     1      51.834  25.310   0.531  1.00  0.00     0.039 C 
ATOM     15  C   UNL     1      50.641  24.204   2.568  1.00  0.00     0.039 C 
ENDBRANCH  11  12
ENDBRANCH   1  11
TORSDOF 4
ENDMDL
MODEL 8
REMARK VINA RESULT:    -5.159      1.313      5.450
REMARK INTER + INTRA:          -6.939
REMARK INTER:                  -5.769
REMARK INTRA:                  -1.170
REMARK UNBOUND:                -0.574
REMARK SMILES CC(C)=CCC[C@@H](C)c1ccc(C)cc1
REMARK SMILES IDX 6 1 7 2 8 3 9 4 13 5 12 6 11 7 14 8 10 9 15 10 5 11 4 12
REMARK SMILES IDX 2 13 1 14 3 15
REMARK H PARENT
REMARK Flexibility Score: inf
ROOT
ATOM      1  C   UNL     1      48.553  23.715   0.943  1.00  0.00     0.012 C 
ENDROOT
BRANCH   1   2
ATOM      2  C   UNL     1      47.590  24.658   0.184  1.00  0.00     0.016 C 
ATOM      3  C   UNL     1      48.309  25.514  -0.869  1.00  0.00     0.013 C 
BRANCH   2   4
ATOM      4  C   UNL     1      46.472  23.855  -0.460  1.00  0.00    -0.045 A 
ATOM      5  C   UNL     1      43.311  21.570  -2.316  1.00  0.00     0.044 C 
ATOM      6  C   UNL     1      44.393  22.390  -1.678  1.00  0.00    -0.051 A 
ATOM      7  C   UNL     1      45.479  22.844  -2.439  1.00  0.00     0.004 A 
ATOM      8  C   UNL     1      44.361  22.651  -0.300  1.00  0.00     0.004 A 
ATOM      9  C   UNL     1      46.507  23.576  -1.837  1.00  0.00     0.004 A 
ATOM     10  C   UNL     1      45.388  23.384   0.303  1.00  0.00     0.004 A 
ENDBRANCH   2   4
ENDBRANCH   1   2
BRANCH   1  11
ATOM     11  C   UNL     1      49.787  23.290   0.121  1.00  0.00     0.028 C 
BRANCH  11  12
ATOM     12  C   UNL     1      49.517  22.074  -0.734  1.00  0.00    -0.028 C 
ATOM     13  C   UNL     1      49.749  22.008  -2.065  1.00  0.00    -0.080 C 
ATOM     14  C   UNL     1      49.445  20.718  -2.782  1.00  0.00     0.039 C 
ATOM     15  C   UNL     1      50.268  23.190  -2.849  1.00  0.00     0.039 C 
ENDBRANCH  11  12
ENDBRANCH   1  11
TORSDOF 4
ENDMDL
MODEL 9
REMARK VINA RESULT:    -4.839      3.309      5.301
REMARK INTER + INTRA:          -6.545
REMARK INTER:                  -5.050
REMARK INTRA:                  -1.495
REMARK UNBOUND:                -0.574
REMARK SMILES CC(C)=CCC[C@@H](C)c1ccc(C)cc1
REMARK SMILES IDX 6 1 7 2 8 3 9 4 13 5 12 6 11 7 14 8 10 9 15 10 5 11 4 12
REMARK SMILES IDX 2 13 1 14 3 15
REMARK H PARENT
REMARK Flexibility Score: inf
ROOT
ATOM      1  C   UNL     1      49.369  21.606  -2.788  1.00  0.00     0.012 C 
ENDROOT
BRANCH   1   2
ATOM      2  C   UNL     1      50.646  21.365  -1.948  1.00  0.00     0.016 C 
ATOM      3  C   UNL     1      51.933  21.643  -2.737  1.00  0.00     0.013 C 
BRANCH   2   4
ATOM      4  C   UNL     1      50.607  22.208  -0.685  1.00  0.00    -0.045 A 
ATOM      5  C   UNL     1      50.521  24.621   2.897  1.00  0.00     0.044 C 
ATOM      6  C   UNL     1      50.566  23.761   1.669  1.00  0.00    -0.051 A 
ATOM      7  C   UNL     1      51.627  23.880   0.761  1.00  0.00     0.004 A 
ATOM      8  C   UNL     1      49.514  22.879   1.386  1.00  0.00     0.004 A 
ATOM      9  C   UNL     1      51.651  23.105  -0.403  1.00  0.00     0.004 A 
ATOM     10  C   UNL     1      49.536  22.103   0.223  1.00  0.00     0.004 A 
ENDBRANCH   2   4
ENDBRANCH   1   2
BRANCH   1  11
ATOM     11  C   UNL     1      49.115  23.090  -3.125  1.00  0.00     0.028 C 
BRANCH  11  12
ATOM     12  C   UNL     1      47.826  23.603  -2.526  1.00  0.00    -0.028 C 
ATOM     13  C   UNL     1      47.730  24.701  -1.743  1.00  0.00    -0.080 C 
ATOM     14  C   UNL     1      46.370  25.100  -1.232  1.00  0.00     0.039 C 
ATOM     15  C   UNL     1      48.941  25.511  -1.344  1.00  0.00     0.039 C 
ENDBRANCH  11  12
ENDBRANCH   1  11
TORSDOF 4
ENDMDL
