MODEL 1
REMARK VINA RESULT:    -5.406      0.000      0.000
REMARK INTER + INTRA:         -14.528
REMARK INTER:                 -12.359
REMARK INTRA:                  -2.169
REMARK UNBOUND:                -2.169
REMARK SMILES CCCCCCCCCCCCCCCCCCCCCCCC(=O)[O-]
REMARK SMILES IDX 13 1 14 2 15 3 16 4 17 5 18 6 19 7 20 8 21 9 22 10 23 11
REMARK SMILES IDX 24 12 25 13 26 14 12 15 11 16 10 17 9 18 8 19 7 20 6 21 5 22
REMARK SMILES IDX 4 23 3 24 2 25 1 26
REMARK H PARENT
REMARK Flexibility Score: inf
ROOT
ATOM      1  C   UNL     1     -16.614  37.304  18.141  1.00  0.00     0.000 C 
ENDROOT
BRANCH   1   2
ATOM      2  C   UNL     1     -17.581  38.401  18.611  1.00  0.00     0.000 C 
BRANCH   2   3
ATOM      3  C   UNL     1     -16.944  39.800  18.591  1.00  0.00     0.000 C 
BRANCH   3   4
ATOM      4  C   UNL     1     -17.991  40.923  18.487  1.00  0.00     0.000 C 
BRANCH   4   5
ATOM      5  C   UNL     1     -19.139  40.757  19.495  1.00  0.00     0.000 C 
BRANCH   5   6
ATOM      6  C   UNL     1     -18.843  41.431  20.844  1.00  0.00     0.000 C 
BRANCH   6   7
ATOM      7  C   UNL     1     -17.841  40.607  21.660  1.00  0.00     0.000 C 
BRANCH   7   8
ATOM      8  C   UNL     1     -16.587  41.427  21.985  1.00  0.00     0.000 C 
BRANCH   8   9
ATOM      9  C   UNL     1     -16.763  42.891  21.554  1.00  0.00     0.000 C 
BRANCH   9  10
ATOM     10  C   UNL     1     -15.837  43.854  22.319  1.00  0.00     0.006 C 
BRANCH  10  11
ATOM     11  C   UNL     1     -16.577  44.883  23.189  1.00  0.00     0.053 C 
BRANCH  11  12
ATOM     12  C   UNL     1     -16.543  46.254  22.587  1.00  0.00     0.041 C 
ATOM     13  O   UNL     1     -16.599  47.273  23.326  1.00  0.00    -0.550 OA
ATOM     14  O   UNL     1     -16.482  46.408  21.208  1.00  0.00    -0.550 OA
ENDBRANCH  11  12
ENDBRANCH  10  11
ENDBRANCH   9  10
ENDBRANCH   8   9
ENDBRANCH   7   8
ENDBRANCH   6   7
ENDBRANCH   5   6
ENDBRANCH   4   5
ENDBRANCH   3   4
ENDBRANCH   2   3
ENDBRANCH   1   2
BRANCH   1  15
ATOM     15  C   UNL     1     -16.592  37.213  16.609  1.00  0.00     0.000 C 
BRANCH  15  16
ATOM     16  C   UNL     1     -15.776  36.014  16.091  1.00  0.00     0.000 C 
BRANCH  16  17
ATOM     17  C   UNL     1     -14.408  36.369  15.472  1.00  0.00     0.000 C 
BRANCH  17  18
ATOM     18  C   UNL     1     -14.399  36.533  13.941  1.00  0.00    -0.000 C 
BRANCH  18  19
ATOM     19  C   UNL     1     -14.742  37.963  13.491  1.00  0.00    -0.000 C 
BRANCH  19  20
ATOM     20  C   UNL     1     -16.160  38.075  12.912  1.00  0.00    -0.000 C 
BRANCH  20  21
ATOM     21  C   UNL     1     -16.769  36.710  12.552  1.00  0.00    -0.000 C 
BRANCH  21  22
ATOM     22  C   UNL     1     -18.183  36.571  13.135  1.00  0.00    -0.000 C 
BRANCH  22  23
ATOM     23  C   UNL     1     -18.369  35.269  13.928  1.00  0.00    -0.000 C 
BRANCH  23  24
ATOM     24  C   UNL     1     -17.590  34.089  13.322  1.00  0.00    -0.000 C 
BRANCH  24  25
ATOM     25  C   UNL     1     -18.241  32.732  13.633  1.00  0.00    -0.003 C 
ATOM     26  C   UNL     1     -17.550  31.569  12.920  1.00  0.00     0.004 C 
ENDBRANCH  24  25
ENDBRANCH  23  24
ENDBRANCH  22  23
ENDBRANCH  21  22
ENDBRANCH  20  21
ENDBRANCH  19  20
ENDBRANCH  18  19
ENDBRANCH  17  18
ENDBRANCH  16  17
ENDBRANCH  15  16
ENDBRANCH   1  15
TORSDOF 22
ENDMDL
MODEL 2
REMARK VINA RESULT:    -5.383      1.070      2.177
REMARK INTER + INTRA:         -14.475
REMARK INTER:                 -12.126
REMARK INTRA:                  -2.348
REMARK UNBOUND:                -2.169
REMARK SMILES CCCCCCCCCCCCCCCCCCCCCCCC(=O)[O-]
REMARK SMILES IDX 13 1 14 2 15 3 16 4 17 5 18 6 19 7 20 8 21 9 22 10 23 11
REMARK SMILES IDX 24 12 25 13 26 14 12 15 11 16 10 17 9 18 8 19 7 20 6 21 5 22
REMARK SMILES IDX 4 23 3 24 2 25 1 26
REMARK H PARENT
REMARK Flexibility Score: inf
ROOT
ATOM      1  C   UNL     1     -18.000  38.956  18.869  1.00  0.00     0.000 C 
ENDROOT
BRANCH   1   2
ATOM      2  C   UNL     1     -17.342  40.344  18.843  1.00  0.00     0.000 C 
BRANCH   2   3
ATOM      3  C   UNL     1     -18.019  41.338  19.801  1.00  0.00     0.000 C 
BRANCH   3   4
ATOM      4  C   UNL     1     -18.216  40.755  21.212  1.00  0.00     0.000 C 
BRANCH   4   5
ATOM      5  C   UNL     1     -16.984  39.983  21.710  1.00  0.00     0.000 C 
BRANCH   5   6
ATOM      6  C   UNL     1     -16.337  40.634  22.942  1.00  0.00     0.000 C 
BRANCH   6   7
ATOM      7  C   UNL     1     -14.908  41.096  22.632  1.00  0.00     0.000 C 
BRANCH   7   8
ATOM      8  C   UNL     1     -14.774  42.616  22.783  1.00  0.00     0.000 C 
BRANCH   8   9
ATOM      9  C   UNL     1     -15.558  43.347  21.683  1.00  0.00     0.000 C 
BRANCH   9  10
ATOM     10  C   UNL     1     -16.754  44.146  22.234  1.00  0.00     0.006 C 
BRANCH  10  11
ATOM     11  C   UNL     1     -16.385  45.159  23.329  1.00  0.00     0.053 C 
BRANCH  11  12
ATOM     12  C   UNL     1     -16.412  46.569  22.822  1.00  0.00     0.041 C 
ATOM     13  O   UNL     1     -16.732  47.514  23.592  1.00  0.00    -0.550 OA
ATOM     14  O   UNL     1     -16.115  46.836  21.492  1.00  0.00    -0.550 OA
ENDBRANCH  11  12
ENDBRANCH  10  11
ENDBRANCH   9  10
ENDBRANCH   8   9
ENDBRANCH   7   8
ENDBRANCH   6   7
ENDBRANCH   5   6
ENDBRANCH   4   5
ENDBRANCH   3   4
ENDBRANCH   2   3
ENDBRANCH   1   2
BRANCH   1  15
ATOM     15  C   UNL     1     -16.985  37.863  18.509  1.00  0.00     0.000 C 
BRANCH  15  16
ATOM     16  C   UNL     1     -16.747  37.740  16.993  1.00  0.00     0.000 C 
BRANCH  16  17
ATOM     17  C   UNL     1     -16.183  36.382  16.524  1.00  0.00     0.000 C 
BRANCH  17  18
ATOM     18  C   UNL     1     -15.165  36.455  15.371  1.00  0.00    -0.000 C 
BRANCH  18  19
ATOM     19  C   UNL     1     -15.202  37.798  14.624  1.00  0.00    -0.000 C 
BRANCH  19  20
ATOM     20  C   UNL     1     -15.457  37.630  13.118  1.00  0.00    -0.000 C 
BRANCH  20  21
ATOM     21  C   UNL     1     -14.711  36.428  12.516  1.00  0.00    -0.000 C 
BRANCH  21  22
ATOM     22  C   UNL     1     -15.504  35.819  11.351  1.00  0.00    -0.000 C 
BRANCH  22  23
ATOM     23  C   UNL     1     -16.948  35.465  11.740  1.00  0.00    -0.000 C 
BRANCH  23  24
ATOM     24  C   UNL     1     -17.047  34.128  12.496  1.00  0.00    -0.000 C 
BRANCH  24  25
ATOM     25  C   UNL     1     -17.793  34.261  13.832  1.00  0.00    -0.003 C 
ATOM     26  C   UNL     1     -18.637  35.534  13.913  1.00  0.00     0.004 C 
ENDBRANCH  24  25
ENDBRANCH  23  24
ENDBRANCH  22  23
ENDBRANCH  21  22
ENDBRANCH  20  21
ENDBRANCH  19  20
ENDBRANCH  18  19
ENDBRANCH  17  18
ENDBRANCH  16  17
ENDBRANCH  15  16
ENDBRANCH   1  15
TORSDOF 22
ENDMDL
MODEL 3
REMARK VINA RESULT:    -5.353      3.147      6.312
REMARK INTER + INTRA:         -14.408
REMARK INTER:                 -12.315
REMARK INTRA:                  -2.093
REMARK UNBOUND:                -2.169
REMARK SMILES CCCCCCCCCCCCCCCCCCCCCCCC(=O)[O-]
REMARK SMILES IDX 13 1 14 2 15 3 16 4 17 5 18 6 19 7 20 8 21 9 22 10 23 11
REMARK SMILES IDX 24 12 25 13 26 14 12 15 11 16 10 17 9 18 8 19 7 20 6 21 5 22
REMARK SMILES IDX 4 23 3 24 2 25 1 26
REMARK H PARENT
REMARK Flexibility Score: inf
ROOT
ATOM      1  C   UNL     1     -17.567  37.973  13.444  1.00  0.00     0.000 C 
ENDROOT
BRANCH   1   2
ATOM      2  C   UNL     1     -16.277  38.208  12.644  1.00  0.00     0.000 C 
BRANCH   2   3
ATOM      3  C   UNL     1     -15.044  38.379  13.546  1.00  0.00     0.000 C 
BRANCH   3   4
ATOM      4  C   UNL     1     -14.196  37.098  13.634  1.00  0.00     0.000 C 
BRANCH   4   5
ATOM      5  C   UNL     1     -14.139  36.524  15.058  1.00  0.00     0.000 C 
BRANCH   5   6
ATOM      6  C   UNL     1     -15.477  35.913  15.504  1.00  0.00     0.000 C 
BRANCH   6   7
ATOM      7  C   UNL     1     -15.804  36.305  16.950  1.00  0.00     0.000 C 
BRANCH   7   8
ATOM      8  C   UNL     1     -16.706  37.545  16.995  1.00  0.00     0.000 C 
BRANCH   8   9
ATOM      9  C   UNL     1     -17.095  37.886  18.441  1.00  0.00     0.000 C 
BRANCH   9  10
ATOM     10  C   UNL     1     -17.317  39.394  18.659  1.00  0.00     0.006 C 
BRANCH  10  11
ATOM     11  C   UNL     1     -17.497  39.799  20.131  1.00  0.00     0.053 C 
BRANCH  11  12
ATOM     12  C   UNL     1     -18.314  41.046  20.275  1.00  0.00     0.041 C 
ATOM     13  O   UNL     1     -19.363  41.201  19.594  1.00  0.00    -0.550 OA
ATOM     14  O   UNL     1     -17.899  42.054  21.137  1.00  0.00    -0.550 OA
ENDBRANCH  11  12
ENDBRANCH  10  11
ENDBRANCH   9  10
ENDBRANCH   8   9
ENDBRANCH   7   8
ENDBRANCH   6   7
ENDBRANCH   5   6
ENDBRANCH   4   5
ENDBRANCH   3   4
ENDBRANCH   2   3
ENDBRANCH   1   2
BRANCH   1  15
ATOM     15  C   UNL     1     -18.135  36.574  13.169  1.00  0.00     0.000 C 
BRANCH  15  16
ATOM     16  C   UNL     1     -17.139  35.654  12.440  1.00  0.00     0.000 C 
BRANCH  16  17
ATOM     17  C   UNL     1     -17.350  34.143  12.670  1.00  0.00     0.000 C 
BRANCH  17  18
ATOM     18  C   UNL     1     -18.493  33.777  13.635  1.00  0.00    -0.000 C 
BRANCH  18  19
ATOM     19  C   UNL     1     -18.573  32.268  13.922  1.00  0.00    -0.000 C 
BRANCH  19  20
ATOM     20  C   UNL     1     -20.016  31.740  13.905  1.00  0.00    -0.000 C 
BRANCH  20  21
ATOM     21  C   UNL     1     -21.032  32.760  14.443  1.00  0.00    -0.000 C 
BRANCH  21  22
ATOM     22  C   UNL     1     -22.340  32.067  14.852  1.00  0.00    -0.000 C 
BRANCH  22  23
ATOM     23  C   UNL     1     -22.688  30.879  13.942  1.00  0.00    -0.000 C 
BRANCH  23  24
ATOM     24  C   UNL     1     -24.070  31.025  13.281  1.00  0.00    -0.000 C 
BRANCH  24  25
ATOM     25  C   UNL     1     -24.794  32.311  13.707  1.00  0.00    -0.003 C 
ATOM     26  C   UNL     1     -25.305  33.123  12.516  1.00  0.00     0.004 C 
ENDBRANCH  24  25
ENDBRANCH  23  24
ENDBRANCH  22  23
ENDBRANCH  21  22
ENDBRANCH  20  21
ENDBRANCH  19  20
ENDBRANCH  18  19
ENDBRANCH  17  18
ENDBRANCH  16  17
ENDBRANCH  15  16
ENDBRANCH   1  15
TORSDOF 22
ENDMDL
MODEL 4
REMARK VINA RESULT:    -5.198      4.842     10.944
REMARK INTER + INTRA:         -14.053
REMARK INTER:                 -12.167
REMARK INTRA:                  -1.886
REMARK UNBOUND:                -2.169
REMARK SMILES CCCCCCCCCCCCCCCCCCCCCCCC(=O)[O-]
REMARK SMILES IDX 13 1 14 2 15 3 16 4 17 5 18 6 19 7 20 8 21 9 22 10 23 11
REMARK SMILES IDX 24 12 25 13 26 14 12 15 11 16 10 17 9 18 8 19 7 20 6 21 5 22
REMARK SMILES IDX 4 23 3 24 2 25 1 26
REMARK H PARENT
REMARK Flexibility Score: inf
ROOT
ATOM      1  C   UNL     1     -16.549  36.848  12.579  1.00  0.00     0.000 C 
ENDROOT
BRANCH   1   2
ATOM      2  C   UNL     1     -16.282  35.706  11.588  1.00  0.00     0.000 C 
BRANCH   2   3
ATOM      3  C   UNL     1     -16.997  34.403  11.981  1.00  0.00     0.000 C 
BRANCH   3   4
ATOM      4  C   UNL     1     -17.545  34.442  13.419  1.00  0.00     0.000 C 
BRANCH   4   5
ATOM      5  C   UNL     1     -18.125  33.091  13.867  1.00  0.00     0.000 C 
BRANCH   5   6
ATOM      6  C   UNL     1     -17.749  31.942  12.918  1.00  0.00     0.000 C 
BRANCH   6   7
ATOM      7  C   UNL     1     -17.882  30.586  13.621  1.00  0.00     0.000 C 
BRANCH   7   8
ATOM      8  C   UNL     1     -19.221  29.920  13.285  1.00  0.00     0.000 C 
BRANCH   8   9
ATOM      9  C   UNL     1     -20.243  30.145  14.410  1.00  0.00     0.000 C 
BRANCH   9  10
ATOM     10  C   UNL     1     -21.381  31.099  14.000  1.00  0.00     0.006 C 
BRANCH  10  11
ATOM     11  C   UNL     1     -21.414  32.417  14.789  1.00  0.00     0.053 C 
BRANCH  11  12
ATOM     12  C   UNL     1     -22.588  32.488  15.716  1.00  0.00     0.041 C 
ATOM     13  O   UNL     1     -22.434  32.861  16.909  1.00  0.00    -0.550 OA
ATOM     14  O   UNL     1     -23.850  32.113  15.270  1.00  0.00    -0.550 OA
ENDBRANCH  11  12
ENDBRANCH  10  11
ENDBRANCH   9  10
ENDBRANCH   8   9
ENDBRANCH   7   8
ENDBRANCH   6   7
ENDBRANCH   5   6
ENDBRANCH   4   5
ENDBRANCH   3   4
ENDBRANCH   2   3
ENDBRANCH   1   2
BRANCH   1  15
ATOM     15  C   UNL     1     -15.255  37.610  12.899  1.00  0.00     0.000 C 
BRANCH  15  16
ATOM     16  C   UNL     1     -14.910  37.604  14.399  1.00  0.00     0.000 C 
BRANCH  16  17
ATOM     17  C   UNL     1     -14.949  36.218  15.077  1.00  0.00     0.000 C 
BRANCH  17  18
ATOM     18  C   UNL     1     -15.855  36.116  16.317  1.00  0.00    -0.000 C 
BRANCH  18  19
ATOM     19  C   UNL     1     -16.627  37.415  16.602  1.00  0.00    -0.000 C 
BRANCH  19  20
ATOM     20  C   UNL     1     -16.904  37.620  18.100  1.00  0.00    -0.000 C 
BRANCH  20  21
ATOM     21  C   UNL     1     -17.076  39.099  18.479  1.00  0.00    -0.000 C 
BRANCH  21  22
ATOM     22  C   UNL     1     -18.004  39.248  19.694  1.00  0.00    -0.000 C 
BRANCH  22  23
ATOM     23  C   UNL     1     -18.896  40.496  19.606  1.00  0.00    -0.000 C 
BRANCH  23  24
ATOM     24  C   UNL     1     -18.190  41.767  20.110  1.00  0.00    -0.000 C 
BRANCH  24  25
ATOM     25  C   UNL     1     -17.258  41.490  21.299  1.00  0.00    -0.003 C 
ATOM     26  C   UNL     1     -16.642  42.765  21.875  1.00  0.00     0.004 C 
ENDBRANCH  24  25
ENDBRANCH  23  24
ENDBRANCH  22  23
ENDBRANCH  21  22
ENDBRANCH  20  21
ENDBRANCH  19  20
ENDBRANCH  18  19
ENDBRANCH  17  18
ENDBRANCH  16  17
ENDBRANCH  15  16
ENDBRANCH   1  15
TORSDOF 22
ENDMDL
MODEL 5
REMARK VINA RESULT:    -5.161      1.900      3.709
REMARK INTER + INTRA:         -13.968
REMARK INTER:                 -12.195
REMARK INTRA:                  -1.774
REMARK UNBOUND:                -2.169
REMARK SMILES CCCCCCCCCCCCCCCCCCCCCCCC(=O)[O-]
REMARK SMILES IDX 13 1 14 2 15 3 16 4 17 5 18 6 19 7 20 8 21 9 22 10 23 11
REMARK SMILES IDX 24 12 25 13 26 14 12 15 11 16 10 17 9 18 8 19 7 20 6 21 5 22
REMARK SMILES IDX 4 23 3 24 2 25 1 26
REMARK H PARENT
REMARK Flexibility Score: inf
ROOT
ATOM      1  C   UNL     1     -16.167  36.269  16.993  1.00  0.00     0.000 C 
ENDROOT
BRANCH   1   2
ATOM      2  C   UNL     1     -16.637  37.729  17.075  1.00  0.00     0.000 C 
BRANCH   2   3
ATOM      3  C   UNL     1     -17.292  38.065  18.424  1.00  0.00     0.000 C 
BRANCH   3   4
ATOM      4  C   UNL     1     -16.957  39.488  18.905  1.00  0.00     0.000 C 
BRANCH   4   5
ATOM      5  C   UNL     1     -18.068  40.498  18.582  1.00  0.00     0.000 C 
BRANCH   5   6
ATOM      6  C   UNL     1     -18.433  41.381  19.786  1.00  0.00     0.000 C 
BRANCH   6   7
ATOM      7  C   UNL     1     -17.942  40.751  21.095  1.00  0.00     0.000 C 
BRANCH   7   8
ATOM      8  C   UNL     1     -16.900  41.644  21.780  1.00  0.00     0.000 C 
BRANCH   8   9
ATOM      9  C   UNL     1     -17.186  43.128  21.505  1.00  0.00     0.000 C 
BRANCH   9  10
ATOM     10  C   UNL     1     -16.225  44.069  22.256  1.00  0.00     0.006 C 
BRANCH  10  11
ATOM     11  C   UNL     1     -16.926  45.113  23.139  1.00  0.00     0.053 C 
BRANCH  11  12
ATOM     12  C   UNL     1     -16.378  46.490  22.924  1.00  0.00     0.041 C 
ATOM     13  O   UNL     1     -15.984  47.177  23.904  1.00  0.00    -0.550 OA
ATOM     14  O   UNL     1     -16.330  47.029  21.644  1.00  0.00    -0.550 OA
ENDBRANCH  11  12
ENDBRANCH  10  11
ENDBRANCH   9  10
ENDBRANCH   8   9
ENDBRANCH   7   8
ENDBRANCH   6   7
ENDBRANCH   5   6
ENDBRANCH   4   5
ENDBRANCH   3   4
ENDBRANCH   2   3
ENDBRANCH   1   2
BRANCH   1  15
ATOM     15  C   UNL     1     -15.736  35.912  15.564  1.00  0.00     0.000 C 
BRANCH  15  16
ATOM     16  C   UNL     1     -14.411  36.579  15.152  1.00  0.00     0.000 C 
BRANCH  16  17
ATOM     17  C   UNL     1     -14.255  36.853  13.641  1.00  0.00     0.000 C 
BRANCH  17  18
ATOM     18  C   UNL     1     -15.301  36.177  12.737  1.00  0.00    -0.000 C 
BRANCH  18  19
ATOM     19  C   UNL     1     -16.236  37.184  12.048  1.00  0.00    -0.000 C 
BRANCH  19  20
ATOM     20  C   UNL     1     -17.472  37.519  12.898  1.00  0.00    -0.000 C 
BRANCH  20  21
ATOM     21  C   UNL     1     -17.750  39.028  12.980  1.00  0.00    -0.000 C 
BRANCH  21  22
ATOM     22  C   UNL     1     -16.619  39.830  12.320  1.00  0.00    -0.000 C 
BRANCH  22  23
ATOM     23  C   UNL     1     -17.079  41.213  11.836  1.00  0.00    -0.000 C 
BRANCH  23  24
ATOM     24  C   UNL     1     -17.535  41.206  10.366  1.00  0.00    -0.000 C 
BRANCH  24  25
ATOM     25  C   UNL     1     -16.538  40.487   9.444  1.00  0.00    -0.003 C 
ATOM     26  C   UNL     1     -15.466  41.425   8.889  1.00  0.00     0.004 C 
ENDBRANCH  24  25
ENDBRANCH  23  24
ENDBRANCH  22  23
ENDBRANCH  21  22
ENDBRANCH  20  21
ENDBRANCH  19  20
ENDBRANCH  18  19
ENDBRANCH  17  18
ENDBRANCH  16  17
ENDBRANCH  15  16
ENDBRANCH   1  15
TORSDOF 22
ENDMDL
MODEL 6
REMARK VINA RESULT:    -5.147      2.993      4.986
REMARK INTER + INTRA:         -13.936
REMARK INTER:                 -12.266
REMARK INTRA:                  -1.670
REMARK UNBOUND:                -2.169
REMARK SMILES CCCCCCCCCCCCCCCCCCCCCCCC(=O)[O-]
REMARK SMILES IDX 13 1 14 2 15 3 16 4 17 5 18 6 19 7 20 8 21 9 22 10 23 11
REMARK SMILES IDX 24 12 25 13 26 14 12 15 11 16 10 17 9 18 8 19 7 20 6 21 5 22
REMARK SMILES IDX 4 23 3 24 2 25 1 26
REMARK H PARENT
REMARK Flexibility Score: inf
ROOT
ATOM      1  C   UNL     1     -15.811  37.759  13.703  1.00  0.00     0.000 C 
ENDROOT
BRANCH   1   2
ATOM      2  C   UNL     1     -16.665  37.225  14.863  1.00  0.00     0.000 C 
BRANCH   2   3
ATOM      3  C   UNL     1     -15.845  36.403  15.871  1.00  0.00     0.000 C 
BRANCH   3   4
ATOM      4  C   UNL     1     -16.269  36.662  17.327  1.00  0.00     0.000 C 
BRANCH   4   5
ATOM      5  C   UNL     1     -16.992  38.006  17.502  1.00  0.00     0.000 C 
BRANCH   5   6
ATOM      6  C   UNL     1     -17.031  38.470  18.967  1.00  0.00     0.000 C 
BRANCH   6   7
ATOM      7  C   UNL     1     -18.325  39.236  19.265  1.00  0.00     0.000 C 
BRANCH   7   8
ATOM      8  C   UNL     1     -18.264  40.662  18.704  1.00  0.00     0.000 C 
BRANCH   8   9
ATOM      9  C   UNL     1     -18.808  41.675  19.723  1.00  0.00     0.000 C 
BRANCH   9  10
ATOM     10  C   UNL     1     -18.181  41.510  21.120  1.00  0.00     0.006 C 
BRANCH  10  11
ATOM     11  C   UNL     1     -16.845  42.248  21.303  1.00  0.00     0.053 C 
BRANCH  11  12
ATOM     12  C   UNL     1     -15.957  41.565  22.298  1.00  0.00     0.041 C 
ATOM     13  O   UNL     1     -14.861  42.087  22.634  1.00  0.00    -0.550 OA
ATOM     14  O   UNL     1     -16.325  40.336  22.831  1.00  0.00    -0.550 OA
ENDBRANCH  11  12
ENDBRANCH  10  11
ENDBRANCH   9  10
ENDBRANCH   8   9
ENDBRANCH   7   8
ENDBRANCH   6   7
ENDBRANCH   5   6
ENDBRANCH   4   5
ENDBRANCH   3   4
ENDBRANCH   2   3
ENDBRANCH   1   2
BRANCH   1  15
ATOM     15  C   UNL     1     -15.846  36.794  12.509  1.00  0.00     0.000 C 
BRANCH  15  16
ATOM     16  C   UNL     1     -17.136  35.955  12.452  1.00  0.00     0.000 C 
BRANCH  16  17
ATOM     17  C   UNL     1     -16.940  34.474  12.063  1.00  0.00     0.000 C 
BRANCH  17  18
ATOM     18  C   UNL     1     -17.642  33.454  12.978  1.00  0.00    -0.000 C 
BRANCH  18  19
ATOM     19  C   UNL     1     -18.605  34.113  13.980  1.00  0.00    -0.000 C 
BRANCH  19  20
ATOM     20  C   UNL     1     -19.952  33.381  14.073  1.00  0.00    -0.000 C 
BRANCH  20  21
ATOM     21  C   UNL     1     -19.812  31.854  13.963  1.00  0.00    -0.000 C 
BRANCH  21  22
ATOM     22  C   UNL     1     -21.149  31.159  14.259  1.00  0.00    -0.000 C 
BRANCH  22  23
ATOM     23  C   UNL     1     -22.356  32.090  14.059  1.00  0.00    -0.000 C 
BRANCH  23  24
ATOM     24  C   UNL     1     -23.506  31.787  15.035  1.00  0.00    -0.000 C 
BRANCH  24  25
ATOM     25  C   UNL     1     -23.729  32.917  16.052  1.00  0.00    -0.003 C 
ATOM     26  C   UNL     1     -24.337  32.419  17.363  1.00  0.00     0.004 C 
ENDBRANCH  24  25
ENDBRANCH  23  24
ENDBRANCH  22  23
ENDBRANCH  21  22
ENDBRANCH  20  21
ENDBRANCH  19  20
ENDBRANCH  18  19
ENDBRANCH  17  18
ENDBRANCH  16  17
ENDBRANCH  15  16
ENDBRANCH   1  15
TORSDOF 22
ENDMDL
MODEL 7
REMARK VINA RESULT:    -5.135      4.873      9.830
REMARK INTER + INTRA:         -13.909
REMARK INTER:                 -12.218
REMARK INTRA:                  -1.690
REMARK UNBOUND:                -2.169
REMARK SMILES CCCCCCCCCCCCCCCCCCCCCCCC(=O)[O-]
REMARK SMILES IDX 13 1 14 2 15 3 16 4 17 5 18 6 19 7 20 8 21 9 22 10 23 11
REMARK SMILES IDX 24 12 25 13 26 14 12 15 11 16 10 17 9 18 8 19 7 20 6 21 5 22
REMARK SMILES IDX 4 23 3 24 2 25 1 26
REMARK H PARENT
REMARK Flexibility Score: inf
ROOT
ATOM      1  C   UNL     1     -17.692  36.451  13.037  1.00  0.00     0.000 C 
ENDROOT
BRANCH   1   2
ATOM      2  C   UNL     1     -17.737  37.795  13.781  1.00  0.00     0.000 C 
BRANCH   2   3
ATOM      3  C   UNL     1     -17.599  38.998  12.835  1.00  0.00     0.000 C 
BRANCH   3   4
ATOM      4  C   UNL     1     -16.150  39.219  12.368  1.00  0.00     0.000 C 
BRANCH   4   5
ATOM      5  C   UNL     1     -15.949  40.581  11.686  1.00  0.00     0.000 C 
BRANCH   5   6
ATOM      6  C   UNL     1     -17.277  41.263  11.325  1.00  0.00     0.000 C 
BRANCH   6   7
ATOM      7  C   UNL     1     -17.477  41.305   9.806  1.00  0.00     0.000 C 
BRANCH   7   8
ATOM      8  C   UNL     1     -16.329  40.595   9.078  1.00  0.00     0.000 C 
BRANCH   8   9
ATOM      9  C   UNL     1     -15.862  41.412   7.864  1.00  0.00     0.000 C 
BRANCH   9  10
ATOM     10  C   UNL     1     -14.697  42.362   8.198  1.00  0.00     0.006 C 
BRANCH  10  11
ATOM     11  C   UNL     1     -14.824  43.760   7.572  1.00  0.00     0.053 C 
BRANCH  11  12
ATOM     12  C   UNL     1     -15.924  44.559   8.201  1.00  0.00     0.041 C 
ATOM     13  O   UNL     1     -17.122  44.371   7.857  1.00  0.00    -0.550 OA
ATOM     14  O   UNL     1     -15.625  45.534   9.144  1.00  0.00    -0.550 OA
ENDBRANCH  11  12
ENDBRANCH  10  11
ENDBRANCH   9  10
ENDBRANCH   8   9
ENDBRANCH   7   8
ENDBRANCH   6   7
ENDBRANCH   5   6
ENDBRANCH   4   5
ENDBRANCH   3   4
ENDBRANCH   2   3
ENDBRANCH   1   2
BRANCH   1  15
ATOM     15  C   UNL     1     -16.645  35.516  13.659  1.00  0.00     0.000 C 
BRANCH  15  16
ATOM     16  C   UNL     1     -15.326  36.235  14.000  1.00  0.00     0.000 C 
BRANCH  16  17
ATOM     17  C   UNL     1     -15.093  36.502  15.502  1.00  0.00     0.000 C 
BRANCH  17  18
ATOM     18  C   UNL     1     -16.029  35.743  16.459  1.00  0.00    -0.000 C 
BRANCH  18  19
ATOM     19  C   UNL     1     -16.293  36.507  17.768  1.00  0.00    -0.000 C 
BRANCH  19  20
ATOM     20  C   UNL     1     -16.962  37.870  17.531  1.00  0.00    -0.000 C 
BRANCH  20  21
ATOM     21  C   UNL     1     -17.204  38.652  18.831  1.00  0.00    -0.000 C 
BRANCH  21  22
ATOM     22  C   UNL     1     -17.642  40.093  18.530  1.00  0.00    -0.000 C 
BRANCH  22  23
ATOM     23  C   UNL     1     -17.819  40.935  19.803  1.00  0.00    -0.000 C 
BRANCH  23  24
ATOM     24  C   UNL     1     -17.322  40.210  21.067  1.00  0.00    -0.000 C 
BRANCH  24  25
ATOM     25  C   UNL     1     -16.788  41.181  22.131  1.00  0.00    -0.003 C 
ATOM     26  C   UNL     1     -16.436  42.553  21.554  1.00  0.00     0.004 C 
ENDBRANCH  24  25
ENDBRANCH  23  24
ENDBRANCH  22  23
ENDBRANCH  21  22
ENDBRANCH  20  21
ENDBRANCH  19  20
ENDBRANCH  18  19
ENDBRANCH  17  18
ENDBRANCH  16  17
ENDBRANCH  15  16
ENDBRANCH   1  15
TORSDOF 22
ENDMDL
MODEL 8
REMARK VINA RESULT:    -5.097      2.814      4.578
REMARK INTER + INTRA:         -13.821
REMARK INTER:                 -12.696
REMARK INTRA:                  -1.125
REMARK UNBOUND:                -2.169
REMARK SMILES CCCCCCCCCCCCCCCCCCCCCCCC(=O)[O-]
REMARK SMILES IDX 13 1 14 2 15 3 16 4 17 5 18 6 19 7 20 8 21 9 22 10 23 11
REMARK SMILES IDX 24 12 25 13 26 14 12 15 11 16 10 17 9 18 8 19 7 20 6 21 5 22
REMARK SMILES IDX 4 23 3 24 2 25 1 26
REMARK H PARENT
REMARK Flexibility Score: inf
ROOT
ATOM      1  C   UNL     1     -16.629  37.677  17.088  1.00  0.00     0.000 C 
ENDROOT
BRANCH   1   2
ATOM      2  C   UNL     1     -17.005  37.440  18.559  1.00  0.00     0.000 C 
BRANCH   2   3
ATOM      3  C   UNL     1     -17.209  38.751  19.335  1.00  0.00     0.000 C 
BRANCH   3   4
ATOM      4  C   UNL     1     -17.393  39.964  18.406  1.00  0.00     0.000 C 
BRANCH   4   5
ATOM      5  C   UNL     1     -18.284  41.052  19.024  1.00  0.00     0.000 C 
BRANCH   5   6
ATOM      6  C   UNL     1     -18.696  40.728  20.469  1.00  0.00     0.000 C 
BRANCH   6   7
ATOM      7  C   UNL     1     -17.722  41.358  21.471  1.00  0.00     0.000 C 
BRANCH   7   8
ATOM      8  C   UNL     1     -17.361  42.792  21.065  1.00  0.00     0.000 C 
BRANCH   8   9
ATOM      9  C   UNL     1     -16.135  43.290  21.844  1.00  0.00     0.000 C 
BRANCH   9  10
ATOM     10  C   UNL     1     -16.448  44.509  22.732  1.00  0.00     0.006 C 
BRANCH  10  11
ATOM     11  C   UNL     1     -16.525  45.841  21.970  1.00  0.00     0.053 C 
BRANCH  11  12
ATOM     12  C   UNL     1     -16.400  47.020  22.886  1.00  0.00     0.041 C 
ATOM     13  O   UNL     1     -16.499  48.191  22.430  1.00  0.00    -0.550 OA
ATOM     14  O   UNL     1     -16.142  46.828  24.237  1.00  0.00    -0.550 OA
ENDBRANCH  11  12
ENDBRANCH  10  11
ENDBRANCH   9  10
ENDBRANCH   8   9
ENDBRANCH   7   8
ENDBRANCH   6   7
ENDBRANCH   5   6
ENDBRANCH   4   5
ENDBRANCH   3   4
ENDBRANCH   2   3
ENDBRANCH   1   2
BRANCH   1  15
ATOM     15  C   UNL     1     -16.223  36.362  16.408  1.00  0.00     0.000 C 
BRANCH  15  16
ATOM     16  C   UNL     1     -16.239  36.451  14.871  1.00  0.00     0.000 C 
BRANCH  16  17
ATOM     17  C   UNL     1     -14.886  36.810  14.220  1.00  0.00     0.000 C 
BRANCH  17  18
ATOM     18  C   UNL     1     -14.810  38.213  13.589  1.00  0.00    -0.000 C 
BRANCH  18  19
ATOM     19  C   UNL     1     -15.911  38.459  12.544  1.00  0.00    -0.000 C 
BRANCH  19  20
ATOM     20  C   UNL     1     -16.003  39.933  12.120  1.00  0.00    -0.000 C 
BRANCH  20  21
ATOM     21  C   UNL     1     -17.434  40.364  11.763  1.00  0.00    -0.000 C 
BRANCH  21  22
ATOM     22  C   UNL     1     -17.444  41.234  10.497  1.00  0.00    -0.000 C 
BRANCH  22  23
ATOM     23  C   UNL     1     -16.493  40.707   9.411  1.00  0.00    -0.000 C 
BRANCH  23  24
ATOM     24  C   UNL     1     -16.289  41.712   8.264  1.00  0.00    -0.000 C 
BRANCH  24  25
ATOM     25  C   UNL     1     -17.129  42.986   8.440  1.00  0.00    -0.003 C 
ATOM     26  C   UNL     1     -16.539  44.188   7.702  1.00  0.00     0.004 C 
ENDBRANCH  24  25
ENDBRANCH  23  24
ENDBRANCH  22  23
ENDBRANCH  21  22
ENDBRANCH  20  21
ENDBRANCH  19  20
ENDBRANCH  18  19
ENDBRANCH  17  18
ENDBRANCH  16  17
ENDBRANCH  15  16
ENDBRANCH   1  15
TORSDOF 22
ENDMDL
MODEL 9
REMARK VINA RESULT:    -5.042      4.530     10.499
REMARK INTER + INTRA:         -13.694
REMARK INTER:                 -12.338
REMARK INTRA:                  -1.357
REMARK UNBOUND:                -2.169
REMARK SMILES CCCCCCCCCCCCCCCCCCCCCCCC(=O)[O-]
REMARK SMILES IDX 13 1 14 2 15 3 16 4 17 5 18 6 19 7 20 8 21 9 22 10 23 11
REMARK SMILES IDX 24 12 25 13 26 14 12 15 11 16 10 17 9 18 8 19 7 20 6 21 5 22
REMARK SMILES IDX 4 23 3 24 2 25 1 26
REMARK H PARENT
REMARK Flexibility Score: inf
ROOT
ATOM      1  C   UNL     1     -16.261  35.487  15.012  1.00  0.00     0.000 C 
ENDROOT
BRANCH   1   2
ATOM      2  C   UNL     1     -17.496  36.147  14.379  1.00  0.00     0.000 C 
BRANCH   2   3
ATOM      3  C   UNL     1     -17.378  36.280  12.852  1.00  0.00     0.000 C 
BRANCH   3   4
ATOM      4  C   UNL     1     -16.144  37.095  12.425  1.00  0.00     0.000 C 
BRANCH   4   5
ATOM      5  C   UNL     1     -16.225  38.565  12.865  1.00  0.00     0.000 C 
BRANCH   5   6
ATOM      6  C   UNL     1     -17.581  39.207  12.533  1.00  0.00     0.000 C 
BRANCH   6   7
ATOM      7  C   UNL     1     -17.391  40.528  11.778  1.00  0.00     0.000 C 
BRANCH   7   8
ATOM      8  C   UNL     1     -16.079  40.528  10.986  1.00  0.00     0.000 C 
BRANCH   8   9
ATOM      9  C   UNL     1     -16.348  40.374   9.481  1.00  0.00     0.000 C 
BRANCH   9  10
ATOM     10  C   UNL     1     -15.556  41.382   8.627  1.00  0.00     0.006 C 
BRANCH  10  11
ATOM     11  C   UNL     1     -16.408  42.145   7.602  1.00  0.00     0.053 C 
BRANCH  11  12
ATOM     12  C   UNL     1     -16.658  43.562   8.021  1.00  0.00     0.041 C 
ATOM     13  O   UNL     1     -17.804  43.918   8.402  1.00  0.00    -0.550 OA
ATOM     14  O   UNL     1     -15.631  44.496   7.962  1.00  0.00    -0.550 OA
ENDBRANCH  11  12
ENDBRANCH  10  11
ENDBRANCH   9  10
ENDBRANCH   8   9
ENDBRANCH   7   8
ENDBRANCH   6   7
ENDBRANCH   5   6
ENDBRANCH   4   5
ENDBRANCH   3   4
ENDBRANCH   2   3
ENDBRANCH   1   2
BRANCH   1  15
ATOM     15  C   UNL     1     -15.536  36.466  15.945  1.00  0.00     0.000 C 
BRANCH  15  16
ATOM     16  C   UNL     1     -16.272  36.679  17.281  1.00  0.00     0.000 C 
BRANCH  16  17
ATOM     17  C   UNL     1     -16.991  38.037  17.427  1.00  0.00     0.000 C 
BRANCH  17  18
ATOM     18  C   UNL     1     -17.009  38.623  18.851  1.00  0.00    -0.000 C 
BRANCH  18  19
ATOM     19  C   UNL     1     -18.407  39.090  19.287  1.00  0.00    -0.000 C 
BRANCH  19  20
ATOM     20  C   UNL     1     -18.543  40.621  19.295  1.00  0.00    -0.000 C 
BRANCH  20  21
ATOM     21  C   UNL     1     -18.641  41.205  20.713  1.00  0.00    -0.000 C 
BRANCH  21  22
ATOM     22  C   UNL     1     -17.741  42.441  20.859  1.00  0.00    -0.000 C 
BRANCH  22  23
ATOM     23  C   UNL     1     -16.504  42.171  21.730  1.00  0.00    -0.000 C 
BRANCH  23  24
ATOM     24  C   UNL     1     -15.913  43.456  22.335  1.00  0.00    -0.000 C 
BRANCH  24  25
ATOM     25  C   UNL     1     -16.790  44.689  22.069  1.00  0.00    -0.003 C 
ATOM     26  C   UNL     1     -16.609  45.780  23.125  1.00  0.00     0.004 C 
ENDBRANCH  24  25
ENDBRANCH  23  24
ENDBRANCH  22  23
ENDBRANCH  21  22
ENDBRANCH  20  21
ENDBRANCH  19  20
ENDBRANCH  18  19
ENDBRANCH  17  18
ENDBRANCH  16  17
ENDBRANCH  15  16
ENDBRANCH   1  15
TORSDOF 22
ENDMDL
