MODEL 1
REMARK VINA RESULT:     8.366      0.000      0.000
REMARK INTER + INTRA:          14.038
REMARK INTER:                  14.724
REMARK INTRA:                  -0.686
REMARK UNBOUND:                -0.686
REMARK SMILES CCCCCCCCCCCCCCC(=O)[O-]
REMARK SMILES IDX 9 1 10 2 11 3 12 4 13 5 14 6 15 7 16 8 17 9 8 10 7 11 6 12
REMARK SMILES IDX 5 13 4 14 3 15 2 16 1 17
REMARK H PARENT
REMARK Flexibility Score: inf
ROOT
ATOM      1  C   UNL     1     -34.567  14.794  17.553  1.00  0.00     0.000 C 
ENDROOT
BRANCH   1   2
ATOM      2  C   UNL     1     -34.253  13.723  16.494  1.00  0.00     0.000 C 
BRANCH   2   3
ATOM      3  C   UNL     1     -33.989  12.341  17.112  1.00  0.00     0.000 C 
BRANCH   3   4
ATOM      4  C   UNL     1     -32.699  12.302  17.944  1.00  0.00     0.000 C 
BRANCH   4   5
ATOM      5  C   UNL     1     -32.891  11.466  19.216  1.00  0.00     0.006 C 
BRANCH   5   6
ATOM      6  C   UNL     1     -33.714  12.231  20.257  1.00  0.00     0.053 C 
BRANCH   6   7
ATOM      7  C   UNL     1     -34.129  11.322  21.369  1.00  0.00     0.041 C 
ATOM      8  O   UNL     1     -34.419  11.794  22.499  1.00  0.00    -0.550 OA
ATOM      9  O   UNL     1     -34.148   9.946  21.172  1.00  0.00    -0.550 OA
ENDBRANCH   6   7
ENDBRANCH   5   6
ENDBRANCH   4   5
ENDBRANCH   3   4
ENDBRANCH   2   3
ENDBRANCH   1   2
BRANCH   1  10
ATOM     10  C   UNL     1     -34.972  16.139  16.928  1.00  0.00     0.000 C 
BRANCH  10  11
ATOM     11  C   UNL     1     -35.272  17.215  17.987  1.00  0.00    -0.000 C 
BRANCH  11  12
ATOM     12  C   UNL     1     -36.766  17.294  18.337  1.00  0.00    -0.000 C 
BRANCH  12  13
ATOM     13  C   UNL     1     -37.558  16.077  17.828  1.00  0.00    -0.000 C 
BRANCH  13  14
ATOM     14  C   UNL     1     -38.451  15.464  18.927  1.00  0.00    -0.000 C 
BRANCH  14  15
ATOM     15  C   UNL     1     -39.950  15.758  18.738  1.00  0.00    -0.000 C 
BRANCH  15  16
ATOM     16  C   UNL     1     -40.337  15.962  17.268  1.00  0.00    -0.003 C 
ATOM     17  C   UNL     1     -40.945  17.344  17.045  1.00  0.00     0.004 C 
ENDBRANCH  15  16
ENDBRANCH  14  15
ENDBRANCH  13  14
ENDBRANCH  12  13
ENDBRANCH  11  12
ENDBRANCH  10  11
ENDBRANCH   1  10
TORSDOF 13
ENDMDL
MODEL 2
REMARK VINA RESULT:     8.505      0.533      0.975
REMARK INTER + INTRA:          14.283
REMARK INTER:                  14.984
REMARK INTRA:                  -0.702
REMARK UNBOUND:                -0.686
REMARK SMILES CCCCCCCCCCCCCCC(=O)[O-]
REMARK SMILES IDX 9 1 10 2 11 3 12 4 13 5 14 6 15 7 16 8 17 9 8 10 7 11 6 12
REMARK SMILES IDX 5 13 4 14 3 15 2 16 1 17
REMARK H PARENT
REMARK Flexibility Score: inf
ROOT
ATOM      1  C   UNL     1     -34.645  14.653  17.387  1.00  0.00     0.000 C 
ENDROOT
BRANCH   1   2
ATOM      2  C   UNL     1     -33.922  13.622  16.504  1.00  0.00     0.000 C 
BRANCH   2   3
ATOM      3  C   UNL     1     -33.737  12.268  17.208  1.00  0.00     0.000 C 
BRANCH   3   4
ATOM      4  C   UNL     1     -32.341  12.113  17.830  1.00  0.00     0.000 C 
BRANCH   4   5
ATOM      5  C   UNL     1     -32.437  11.579  19.265  1.00  0.00     0.006 C 
BRANCH   5   6
ATOM      6  C   UNL     1     -33.697  12.101  19.962  1.00  0.00     0.053 C 
BRANCH   6   7
ATOM      7  C   UNL     1     -34.037  11.245  21.140  1.00  0.00     0.041 C 
ATOM      8  O   UNL     1     -34.098   9.993  21.017  1.00  0.00    -0.550 OA
ATOM      9  O   UNL     1     -34.336  11.832  22.364  1.00  0.00    -0.550 OA
ENDBRANCH   6   7
ENDBRANCH   5   6
ENDBRANCH   4   5
ENDBRANCH   3   4
ENDBRANCH   2   3
ENDBRANCH   1   2
BRANCH   1  10
ATOM     10  C   UNL     1     -35.089  15.896  16.598  1.00  0.00     0.000 C 
BRANCH  10  11
ATOM     11  C   UNL     1     -35.020  17.184  17.438  1.00  0.00    -0.000 C 
BRANCH  11  12
ATOM     12  C   UNL     1     -36.075  17.214  18.555  1.00  0.00    -0.000 C 
BRANCH  12  13
ATOM     13  C   UNL     1     -37.471  16.796  18.061  1.00  0.00    -0.000 C 
BRANCH  13  14
ATOM     14  C   UNL     1     -37.918  15.445  18.657  1.00  0.00    -0.000 C 
BRANCH  14  15
ATOM     15  C   UNL     1     -39.445  15.258  18.683  1.00  0.00    -0.000 C 
BRANCH  15  16
ATOM     16  C   UNL     1     -40.210  16.548  18.357  1.00  0.00    -0.003 C 
ATOM     17  C   UNL     1     -40.739  16.526  16.926  1.00  0.00     0.004 C 
ENDBRANCH  15  16
ENDBRANCH  14  15
ENDBRANCH  13  14
ENDBRANCH  12  13
ENDBRANCH  11  12
ENDBRANCH  10  11
ENDBRANCH   1  10
TORSDOF 13
ENDMDL
MODEL 3
REMARK VINA RESULT:     8.657      3.042      7.295
REMARK INTER + INTRA:          14.551
REMARK INTER:                  14.971
REMARK INTRA:                  -0.421
REMARK UNBOUND:                -0.686
REMARK SMILES CCCCCCCCCCCCCCC(=O)[O-]
REMARK SMILES IDX 9 1 10 2 11 3 12 4 13 5 14 6 15 7 16 8 17 9 8 10 7 11 6 12
REMARK SMILES IDX 5 13 4 14 3 15 2 16 1 17
REMARK H PARENT
REMARK Flexibility Score: inf
ROOT
ATOM      1  C   UNL     1     -34.107  13.541  16.699  1.00  0.00     0.000 C 
ENDROOT
BRANCH   1   2
ATOM      2  C   UNL     1     -34.538  14.604  17.724  1.00  0.00     0.000 C 
BRANCH   2   3
ATOM      3  C   UNL     1     -35.012  15.906  17.059  1.00  0.00     0.000 C 
BRANCH   3   4
ATOM      4  C   UNL     1     -35.307  17.016  18.078  1.00  0.00     0.000 C 
BRANCH   4   5
ATOM      5  C   UNL     1     -36.818  17.208  18.259  1.00  0.00     0.006 C 
BRANCH   5   6
ATOM      6  C   UNL     1     -37.591  15.984  17.756  1.00  0.00     0.053 C 
BRANCH   6   7
ATOM      7  C   UNL     1     -38.857  15.808  18.532  1.00  0.00     0.041 C 
ATOM      8  O   UNL     1     -38.862  15.124  19.589  1.00  0.00    -0.550 OA
ATOM      9  O   UNL     1     -40.043  16.359  18.063  1.00  0.00    -0.550 OA
ENDBRANCH   6   7
ENDBRANCH   5   6
ENDBRANCH   4   5
ENDBRANCH   3   4
ENDBRANCH   2   3
ENDBRANCH   1   2
BRANCH   1  10
ATOM     10  C   UNL     1     -32.907  12.710  17.183  1.00  0.00     0.000 C 
BRANCH  10  11
ATOM     11  C   UNL     1     -33.314  11.614  18.184  1.00  0.00    -0.000 C 
BRANCH  11  12
ATOM     12  C   UNL     1     -32.953  11.978  19.633  1.00  0.00    -0.000 C 
BRANCH  12  13
ATOM     13  C   UNL     1     -33.971  11.434  20.650  1.00  0.00    -0.000 C 
BRANCH  13  14
ATOM     14  C   UNL     1     -34.067   9.894  20.610  1.00  0.00    -0.000 C 
BRANCH  14  15
ATOM     15  C   UNL     1     -33.969   9.234  21.996  1.00  0.00    -0.000 C 
BRANCH  15  16
ATOM     16  C   UNL     1     -33.631   7.739  21.923  1.00  0.00    -0.003 C 
ATOM     17  C   UNL     1     -34.567   6.920  22.807  1.00  0.00     0.004 C 
ENDBRANCH  15  16
ENDBRANCH  14  15
ENDBRANCH  13  14
ENDBRANCH  12  13
ENDBRANCH  11  12
ENDBRANCH  10  11
ENDBRANCH   1  10
TORSDOF 13
ENDMDL
MODEL 4
REMARK VINA RESULT:     8.951      2.713      6.611
REMARK INTER + INTRA:          15.068
REMARK INTER:                  15.068
REMARK INTRA:                  -0.000
REMARK UNBOUND:                -0.686
REMARK SMILES CCCCCCCCCCCCCCC(=O)[O-]
REMARK SMILES IDX 9 1 10 2 11 3 12 4 13 5 14 6 15 7 16 8 17 9 8 10 7 11 6 12
REMARK SMILES IDX 5 13 4 14 3 15 2 16 1 17
REMARK H PARENT
REMARK Flexibility Score: inf
ROOT
ATOM      1  C   UNL     1     -34.668  14.428  17.563  1.00  0.00     0.000 C 
ENDROOT
BRANCH   1   2
ATOM      2  C   UNL     1     -34.931  15.487  16.479  1.00  0.00     0.000 C 
BRANCH   2   3
ATOM      3  C   UNL     1     -34.796  16.923  17.013  1.00  0.00     0.000 C 
BRANCH   3   4
ATOM      4  C   UNL     1     -35.516  17.124  18.354  1.00  0.00     0.000 C 
BRANCH   4   5
ATOM      5  C   UNL     1     -37.038  17.058  18.175  1.00  0.00     0.006 C 
BRANCH   5   6
ATOM      6  C   UNL     1     -37.539  15.612  18.263  1.00  0.00     0.053 C 
BRANCH   6   7
ATOM      7  C   UNL     1     -38.978  15.580  18.671  1.00  0.00     0.041 C 
ATOM      8  O   UNL     1     -39.353  14.836  19.614  1.00  0.00    -0.550 OA
ATOM      9  O   UNL     1     -39.915  16.336  17.976  1.00  0.00    -0.550 OA
ENDBRANCH   6   7
ENDBRANCH   5   6
ENDBRANCH   4   5
ENDBRANCH   3   4
ENDBRANCH   2   3
ENDBRANCH   1   2
BRANCH   1  10
ATOM     10  C   UNL     1     -34.236  13.076  16.971  1.00  0.00     0.000 C 
BRANCH  10  11
ATOM     11  C   UNL     1     -32.706  12.913  16.926  1.00  0.00    -0.000 C 
BRANCH  11  12
ATOM     12  C   UNL     1     -32.158  12.171  18.154  1.00  0.00    -0.000 C 
BRANCH  12  13
ATOM     13  C   UNL     1     -33.204  12.026  19.274  1.00  0.00    -0.000 C 
BRANCH  13  14
ATOM     14  C   UNL     1     -33.321  10.572  19.775  1.00  0.00    -0.000 C 
BRANCH  14  15
ATOM     15  C   UNL     1     -34.033  10.444  21.133  1.00  0.00    -0.000 C 
BRANCH  15  16
ATOM     16  C   UNL     1     -34.297  11.801  21.799  1.00  0.00    -0.003 C 
ATOM     17  C   UNL     1     -34.264  11.683  23.320  1.00  0.00     0.004 C 
ENDBRANCH  15  16
ENDBRANCH  14  15
ENDBRANCH  13  14
ENDBRANCH  12  13
ENDBRANCH  11  12
ENDBRANCH  10  11
ENDBRANCH   1  10
TORSDOF 13
ENDMDL
MODEL 5
REMARK VINA RESULT:     9.112      2.933      6.981
REMARK INTER + INTRA:          15.350
REMARK INTER:                  16.001
REMARK INTRA:                  -0.650
REMARK UNBOUND:                -0.686
REMARK SMILES CCCCCCCCCCCCCCC(=O)[O-]
REMARK SMILES IDX 9 1 10 2 11 3 12 4 13 5 14 6 15 7 16 8 17 9 8 10 7 11 6 12
REMARK SMILES IDX 5 13 4 14 3 15 2 16 1 17
REMARK H PARENT
REMARK Flexibility Score: inf
ROOT
ATOM      1  C   UNL     1     -33.993  13.115  17.108  1.00  0.00     0.000 C 
ENDROOT
BRANCH   1   2
ATOM      2  C   UNL     1     -34.402  14.307  17.990  1.00  0.00     0.000 C 
BRANCH   2   3
ATOM      3  C   UNL     1     -34.934  15.493  17.170  1.00  0.00     0.000 C 
BRANCH   3   4
ATOM      4  C   UNL     1     -35.232  16.725  18.038  1.00  0.00     0.000 C 
BRANCH   4   5
ATOM      5  C   UNL     1     -36.743  16.961  18.154  1.00  0.00     0.006 C 
BRANCH   5   6
ATOM      6  C   UNL     1     -37.524  15.673  17.872  1.00  0.00     0.053 C 
BRANCH   6   7
ATOM      7  C   UNL     1     -38.851  15.703  18.560  1.00  0.00     0.041 C 
ATOM      8  O   UNL     1     -39.029  15.049  19.621  1.00  0.00    -0.550 OA
ATOM      9  O   UNL     1     -39.908  16.413  18.003  1.00  0.00    -0.550 OA
ENDBRANCH   6   7
ENDBRANCH   5   6
ENDBRANCH   4   5
ENDBRANCH   3   4
ENDBRANCH   2   3
ENDBRANCH   1   2
BRANCH   1  10
ATOM     10  C   UNL     1     -32.908  12.244  17.762  1.00  0.00     0.000 C 
BRANCH  10  11
ATOM     11  C   UNL     1     -33.084  12.128  19.287  1.00  0.00    -0.000 C 
BRANCH  11  12
ATOM     12  C   UNL     1     -33.362  10.685  19.737  1.00  0.00    -0.000 C 
BRANCH  12  13
ATOM     13  C   UNL     1     -34.145  10.620  21.061  1.00  0.00    -0.000 C 
BRANCH  13  14
ATOM     14  C   UNL     1     -34.142  11.971  21.805  1.00  0.00    -0.000 C 
BRANCH  14  15
ATOM     15  C   UNL     1     -34.736  11.895  23.223  1.00  0.00    -0.000 C 
BRANCH  15  16
ATOM     16  C   UNL     1     -33.763  11.296  24.246  1.00  0.00    -0.003 C 
ATOM     17  C   UNL     1     -34.512  10.548  25.346  1.00  0.00     0.004 C 
ENDBRANCH  15  16
ENDBRANCH  14  15
ENDBRANCH  13  14
ENDBRANCH  12  13
ENDBRANCH  11  12
ENDBRANCH  10  11
ENDBRANCH   1  10
TORSDOF 13
ENDMDL
MODEL 6
REMARK VINA RESULT:     9.333      1.407      2.297
REMARK INTER + INTRA:          15.740
REMARK INTER:                  16.422
REMARK INTRA:                  -0.682
REMARK UNBOUND:                -0.686
REMARK SMILES CCCCCCCCCCCCCCC(=O)[O-]
REMARK SMILES IDX 9 1 10 2 11 3 12 4 13 5 14 6 15 7 16 8 17 9 8 10 7 11 6 12
REMARK SMILES IDX 5 13 4 14 3 15 2 16 1 17
REMARK H PARENT
REMARK Flexibility Score: inf
ROOT
ATOM      1  C   UNL     1     -33.807  13.314  16.869  1.00  0.00     0.000 C 
ENDROOT
BRANCH   1   2
ATOM      2  C   UNL     1     -33.645  11.994  17.643  1.00  0.00     0.000 C 
BRANCH   2   3
ATOM      3  C   UNL     1     -32.822  12.163  18.931  1.00  0.00     0.000 C 
BRANCH   3   4
ATOM      4  C   UNL     1     -33.573  11.678  20.179  1.00  0.00     0.000 C 
BRANCH   4   5
ATOM      5  C   UNL     1     -33.781  10.159  20.139  1.00  0.00     0.006 C 
BRANCH   5   6
ATOM      6  C   UNL     1     -34.248   9.631  21.499  1.00  0.00     0.053 C 
BRANCH   6   7
ATOM      7  C   UNL     1     -33.541   8.358  21.838  1.00  0.00     0.041 C 
ATOM      8  O   UNL     1     -32.362   8.163  21.443  1.00  0.00    -0.550 OA
ATOM      9  O   UNL     1     -34.202   7.363  22.549  1.00  0.00    -0.550 OA
ENDBRANCH   6   7
ENDBRANCH   5   6
ENDBRANCH   4   5
ENDBRANCH   3   4
ENDBRANCH   2   3
ENDBRANCH   1   2
BRANCH   1  10
ATOM     10  C   UNL     1     -34.453  14.420  17.720  1.00  0.00     0.000 C 
BRANCH  10  11
ATOM     11  C   UNL     1     -35.008  15.573  16.865  1.00  0.00    -0.000 C 
BRANCH  11  12
ATOM     12  C   UNL     1     -35.095  16.894  17.645  1.00  0.00    -0.000 C 
BRANCH  12  13
ATOM     13  C   UNL     1     -36.397  17.016  18.457  1.00  0.00    -0.000 C 
BRANCH  13  14
ATOM     14  C   UNL     1     -37.577  16.292  17.776  1.00  0.00    -0.000 C 
BRANCH  14  15
ATOM     15  C   UNL     1     -38.429  15.456  18.747  1.00  0.00    -0.000 C 
BRANCH  15  16
ATOM     16  C   UNL     1     -39.920  15.815  18.692  1.00  0.00    -0.003 C 
ATOM     17  C   UNL     1     -40.257  16.571  17.410  1.00  0.00     0.004 C 
ENDBRANCH  15  16
ENDBRANCH  14  15
ENDBRANCH  13  14
ENDBRANCH  12  13
ENDBRANCH  11  12
ENDBRANCH  10  11
ENDBRANCH   1  10
TORSDOF 13
ENDMDL
MODEL 7
REMARK VINA RESULT:     9.579      2.377      4.028
REMARK INTER + INTRA:          16.173
REMARK INTER:                  16.560
REMARK INTRA:                  -0.387
REMARK UNBOUND:                -0.686
REMARK SMILES CCCCCCCCCCCCCCC(=O)[O-]
REMARK SMILES IDX 9 1 10 2 11 3 12 4 13 5 14 6 15 7 16 8 17 9 8 10 7 11 6 12
REMARK SMILES IDX 5 13 4 14 3 15 2 16 1 17
REMARK H PARENT
REMARK Flexibility Score: inf
ROOT
ATOM      1  C   UNL     1     -33.266  11.531  18.312  1.00  0.00     0.000 C 
ENDROOT
BRANCH   1   2
ATOM      2  C   UNL     1     -33.142  11.913  19.797  1.00  0.00     0.000 C 
BRANCH   2   3
ATOM      3  C   UNL     1     -34.025  11.044  20.706  1.00  0.00     0.000 C 
BRANCH   3   4
ATOM      4  C   UNL     1     -33.377   9.692  21.041  1.00  0.00     0.000 C 
BRANCH   4   5
ATOM      5  C   UNL     1     -34.355   8.789  21.803  1.00  0.00     0.006 C 
BRANCH   5   6
ATOM      6  C   UNL     1     -33.678   7.482  22.229  1.00  0.00     0.053 C 
BRANCH   6   7
ATOM      7  C   UNL     1     -34.639   6.614  22.976  1.00  0.00     0.041 C 
ATOM      8  O   UNL     1     -35.457   5.889  22.351  1.00  0.00    -0.550 OA
ATOM      9  O   UNL     1     -34.666   6.641  24.365  1.00  0.00    -0.550 OA
ENDBRANCH   6   7
ENDBRANCH   5   6
ENDBRANCH   4   5
ENDBRANCH   3   4
ENDBRANCH   2   3
ENDBRANCH   1   2
BRANCH   1  10
ATOM     10  C   UNL     1     -32.886  12.688  17.373  1.00  0.00     0.000 C 
BRANCH  10  11
ATOM     11  C   UNL     1     -34.116  13.450  16.849  1.00  0.00    -0.000 C 
BRANCH  11  12
ATOM     12  C   UNL     1     -34.554  14.580  17.794  1.00  0.00    -0.000 C 
BRANCH  12  13
ATOM     13  C   UNL     1     -35.092  15.808  17.039  1.00  0.00    -0.000 C 
BRANCH  13  14
ATOM     14  C   UNL     1     -35.458  16.963  17.994  1.00  0.00    -0.000 C 
BRANCH  14  15
ATOM     15  C   UNL     1     -36.969  17.094  18.251  1.00  0.00    -0.000 C 
BRANCH  15  16
ATOM     16  C   UNL     1     -37.663  15.738  18.438  1.00  0.00    -0.003 C 
ATOM     17  C   UNL     1     -39.181  15.890  18.417  1.00  0.00     0.004 C 
ENDBRANCH  15  16
ENDBRANCH  14  15
ENDBRANCH  13  14
ENDBRANCH  12  13
ENDBRANCH  11  12
ENDBRANCH  10  11
ENDBRANCH   1  10
TORSDOF 13
ENDMDL
MODEL 8
REMARK VINA RESULT:     9.881      2.108      4.029
REMARK INTER + INTRA:          16.704
REMARK INTER:                  17.248
REMARK INTRA:                  -0.543
REMARK UNBOUND:                -0.686
REMARK SMILES CCCCCCCCCCCCCCC(=O)[O-]
REMARK SMILES IDX 9 1 10 2 11 3 12 4 13 5 14 6 15 7 16 8 17 9 8 10 7 11 6 12
REMARK SMILES IDX 5 13 4 14 3 15 2 16 1 17
REMARK H PARENT
REMARK Flexibility Score: inf
ROOT
ATOM      1  C   UNL     1     -33.253  12.276  19.274  1.00  0.00     0.000 C 
ENDROOT
BRANCH   1   2
ATOM      2  C   UNL     1     -33.255  10.857  19.868  1.00  0.00     0.000 C 
BRANCH   2   3
ATOM      3  C   UNL     1     -34.228  10.713  21.050  1.00  0.00     0.000 C 
BRANCH   3   4
ATOM      4  C   UNL     1     -33.998  11.775  22.136  1.00  0.00     0.000 C 
BRANCH   4   5
ATOM      5  C   UNL     1     -34.661  11.361  23.456  1.00  0.00     0.006 C 
BRANCH   5   6
ATOM      6  C   UNL     1     -33.631  11.284  24.588  1.00  0.00     0.053 C 
BRANCH   6   7
ATOM      7  C   UNL     1     -34.121  10.392  25.683  1.00  0.00     0.041 C 
ATOM      8  O   UNL     1     -33.301   9.806  26.438  1.00  0.00    -0.550 OA
ATOM      9  O   UNL     1     -35.483  10.166  25.840  1.00  0.00    -0.550 OA
ENDBRANCH   6   7
ENDBRANCH   5   6
ENDBRANCH   4   5
ENDBRANCH   3   4
ENDBRANCH   2   3
ENDBRANCH   1   2
BRANCH   1  10
ATOM     10  C   UNL     1     -32.985  12.280  17.760  1.00  0.00     0.000 C 
BRANCH  10  11
ATOM     11  C   UNL     1     -33.933  13.222  16.996  1.00  0.00    -0.000 C 
BRANCH  11  12
ATOM     12  C   UNL     1     -34.430  14.387  17.865  1.00  0.00    -0.000 C 
BRANCH  12  13
ATOM     13  C   UNL     1     -35.022  15.536  17.031  1.00  0.00    -0.000 C 
BRANCH  13  14
ATOM     14  C   UNL     1     -35.315  16.786  17.888  1.00  0.00    -0.000 C 
BRANCH  14  15
ATOM     15  C   UNL     1     -36.806  16.970  18.221  1.00  0.00    -0.000 C 
BRANCH  15  16
ATOM     16  C   UNL     1     -37.627  15.693  18.003  1.00  0.00    -0.003 C 
ATOM     17  C   UNL     1     -38.909  15.716  18.831  1.00  0.00     0.004 C 
ENDBRANCH  15  16
ENDBRANCH  14  15
ENDBRANCH  13  14
ENDBRANCH  12  13
ENDBRANCH  11  12
ENDBRANCH  10  11
ENDBRANCH   1  10
TORSDOF 13
ENDMDL
