MODEL 1
REMARK VINA RESULT:    -5.290      0.000      0.000
REMARK INTER + INTRA:          -6.291
REMARK INTER:                  -6.217
REMARK INTRA:                  -0.073
REMARK UNBOUND:                -0.073
REMARK SMILES O=c1c(O)c(-c2ccc(O)c(O)c2)oc2cc(O)ccc12
REMARK SMILES IDX 5 1 3 2 2 3 1 4 21 5 15 6 14 7 16 8 17 9 19 10 20 11 6 12
REMARK SMILES IDX 7 13 8 14 9 15 13 16 11 17 10 18 12 20 4 22 18 24
REMARK H PARENT 10 19 12 21 4 23 18 25
REMARK Flexibility Score: inf
ROOT
ATOM      1  C   UNL     1      -4.089 -11.841  31.505  1.00  0.00     0.180 A 
ATOM      2  C   UNL     1      -2.785 -11.398  31.206  1.00  0.00     0.208 A 
ATOM      3  C   UNL     1      -2.218 -11.747  29.971  1.00  0.00     0.235 A 
ATOM      4  O   UNL     1      -1.047 -11.372  29.685  1.00  0.00    -0.285 OA
ATOM      5  C   UNL     1      -2.967 -12.506  29.058  1.00  0.00     0.069 A 
ATOM      6  C   UNL     1      -4.275 -12.890  29.423  1.00  0.00     0.142 A 
ATOM      7  O   UNL     1      -4.771 -12.548  30.606  1.00  0.00    -0.452 OA
ATOM      8  C   UNL     1      -5.057 -13.640  28.536  1.00  0.00     0.094 A 
ATOM      9  C   UNL     1      -4.548 -14.013  27.289  1.00  0.00     0.119 A 
ATOM     10  C   UNL     1      -3.248 -13.635  26.923  1.00  0.00     0.047 A 
ATOM     11  C   UNL     1      -2.459 -12.885  27.801  1.00  0.00     0.020 A 
ENDROOT
BRANCH   1  12
ATOM     12  C   UNL     1      -4.749 -11.531  32.794  1.00  0.00     0.025 A 
ATOM     13  C   UNL     1      -4.950 -10.192  33.162  1.00  0.00     0.016 A 
ATOM     14  C   UNL     1      -5.590  -9.876  34.364  1.00  0.00     0.051 A 
ATOM     15  C   UNL     1      -6.051 -10.895  35.206  1.00  0.00     0.157 A 
ATOM     16  C   UNL     1      -5.233 -12.551  33.633  1.00  0.00     0.062 A 
ATOM     17  C   UNL     1      -5.876 -12.234  34.839  1.00  0.00     0.158 A 
BRANCH  15  18
ATOM     18  O   UNL     1      -6.688 -10.585  36.408  1.00  0.00    -0.504 OA
ATOM     19  H   UNL     1      -6.952 -11.306  37.068  1.00  0.00     0.293 HD
ENDBRANCH  15  18
BRANCH  17  20
ATOM     20  O   UNL     1      -6.349 -13.246  35.673  1.00  0.00    -0.504 OA
ATOM     21  H   UNL     1      -7.271 -13.201  36.091  1.00  0.00     0.293 HD
ENDBRANCH  17  20
ENDBRANCH   1  12
BRANCH   2  22
ATOM     22  O   UNL     1      -2.082 -10.602  32.114  1.00  0.00    -0.502 OA
ATOM     23  H   UNL     1      -1.200 -10.891  32.519  1.00  0.00     0.293 HD
ENDBRANCH   2  22
BRANCH   9  24
ATOM     24  O   UNL     1      -5.339 -14.760  26.418  1.00  0.00    -0.508 OA
ATOM     25  H   UNL     1      -5.009 -15.629  26.016  1.00  0.00     0.293 HD
ENDBRANCH   9  24
TORSDOF 5
ENDMDL
MODEL 2
REMARK VINA RESULT:    -4.629      1.950      2.524
REMARK INTER + INTRA:          -5.515
REMARK INTER:                  -5.548
REMARK INTRA:                   0.033
REMARK UNBOUND:                -0.073
REMARK SMILES O=c1c(O)c(-c2ccc(O)c(O)c2)oc2cc(O)ccc12
REMARK SMILES IDX 5 1 3 2 2 3 1 4 21 5 15 6 14 7 16 8 17 9 19 10 20 11 6 12
REMARK SMILES IDX 7 13 8 14 9 15 13 16 11 17 10 18 12 20 4 22 18 24
REMARK H PARENT 10 19 12 21 4 23 18 25
REMARK Flexibility Score: inf
ROOT
ATOM      1  C   UNL     1      -4.134 -11.508  31.838  1.00  0.00     0.180 A 
ATOM      2  C   UNL     1      -4.483 -10.768  30.690  1.00  0.00     0.208 A 
ATOM      3  C   UNL     1      -3.751 -10.965  29.509  1.00  0.00     0.235 A 
ATOM      4  O   UNL     1      -4.037 -10.305  28.472  1.00  0.00    -0.285 OA
ATOM      5  C   UNL     1      -2.709 -11.905  29.492  1.00  0.00     0.069 A 
ATOM      6  C   UNL     1      -2.437 -12.623  30.676  1.00  0.00     0.142 A 
ATOM      7  O   UNL     1      -3.147 -12.401  31.776  1.00  0.00    -0.452 OA
ATOM      8  C   UNL     1      -1.411 -13.576  30.696  1.00  0.00     0.094 A 
ATOM      9  C   UNL     1      -0.651 -13.819  29.549  1.00  0.00     0.119 A 
ATOM     10  C   UNL     1      -0.917 -13.106  28.371  1.00  0.00     0.047 A 
ATOM     11  C   UNL     1      -1.939 -12.153  28.340  1.00  0.00     0.020 A 
ENDROOT
BRANCH   1  12
ATOM     12  C   UNL     1      -4.845 -11.344  33.127  1.00  0.00     0.025 A 
ATOM     13  C   UNL     1      -5.053 -10.055  33.641  1.00  0.00     0.016 A 
ATOM     14  C   UNL     1      -5.740  -9.876  34.845  1.00  0.00     0.051 A 
ATOM     15  C   UNL     1      -6.242 -10.982  35.542  1.00  0.00     0.157 A 
ATOM     16  C   UNL     1      -5.370 -12.450  33.819  1.00  0.00     0.062 A 
ATOM     17  C   UNL     1      -6.060 -12.271  35.026  1.00  0.00     0.158 A 
BRANCH  15  18
ATOM     18  O   UNL     1      -6.926 -10.808  36.745  1.00  0.00    -0.504 OA
ATOM     19  H   UNL     1      -7.299  -9.906  37.015  1.00  0.00     0.293 HD
ENDBRANCH  15  18
BRANCH  17  20
ATOM     20  O   UNL     1      -6.574 -13.368  35.715  1.00  0.00    -0.504 OA
ATOM     21  H   UNL     1      -7.571 -13.489  35.853  1.00  0.00     0.293 HD
ENDBRANCH  17  20
ENDBRANCH   1  12
BRANCH   2  22
ATOM     22  O   UNL     1      -5.557  -9.875  30.723  1.00  0.00    -0.502 OA
ATOM     23  H   UNL     1      -5.864  -9.427  31.578  1.00  0.00     0.293 HD
ENDBRANCH   2  22
BRANCH   9  24
ATOM     24  O   UNL     1       0.367 -14.770  29.586  1.00  0.00    -0.508 OA
ATOM     25  H   UNL     1       0.169 -15.762  29.522  1.00  0.00     0.293 HD
ENDBRANCH   9  24
TORSDOF 5
ENDMDL
MODEL 3
REMARK VINA RESULT:    -4.292      1.965      6.918
REMARK INTER + INTRA:          -5.118
REMARK INTER:                  -4.964
REMARK INTRA:                  -0.154
REMARK UNBOUND:                -0.073
REMARK SMILES O=c1c(O)c(-c2ccc(O)c(O)c2)oc2cc(O)ccc12
REMARK SMILES IDX 5 1 3 2 2 3 1 4 21 5 15 6 14 7 16 8 17 9 19 10 20 11 6 12
REMARK SMILES IDX 7 13 8 14 9 15 13 16 11 17 10 18 12 20 4 22 18 24
REMARK H PARENT 10 19 12 21 4 23 18 25
REMARK Flexibility Score: inf
ROOT
ATOM      1  C   UNL     1      -4.487 -12.729  31.368  1.00  0.00     0.180 A 
ATOM      2  C   UNL     1      -4.852 -14.046  31.715  1.00  0.00     0.208 A 
ATOM      3  C   UNL     1      -5.417 -14.282  32.978  1.00  0.00     0.235 A 
ATOM      4  O   UNL     1      -5.741 -15.454  33.315  1.00  0.00    -0.285 OA
ATOM      5  C   UNL     1      -5.624 -13.204  33.853  1.00  0.00     0.069 A 
ATOM      6  C   UNL     1      -5.254 -11.913  33.422  1.00  0.00     0.142 A 
ATOM      7  O   UNL     1      -4.714 -11.733  32.223  1.00  0.00    -0.452 OA
ATOM      8  C   UNL     1      -5.453 -10.811  34.263  1.00  0.00     0.094 A 
ATOM      9  C   UNL     1      -6.016 -10.983  35.530  1.00  0.00     0.119 A 
ATOM     10  C   UNL     1      -6.384 -12.266  35.963  1.00  0.00     0.047 A 
ATOM     11  C   UNL     1      -6.190 -13.372  35.131  1.00  0.00     0.020 A 
ENDROOT
BRANCH   1  12
ATOM     12  C   UNL     1      -3.869 -12.402  30.063  1.00  0.00     0.025 A 
ATOM     13  C   UNL     1      -4.502 -11.484  29.210  1.00  0.00     0.016 A 
ATOM     14  C   UNL     1      -3.926 -11.145  27.983  1.00  0.00     0.051 A 
ATOM     15  C   UNL     1      -2.701 -11.706  27.599  1.00  0.00     0.157 A 
ATOM     16  C   UNL     1      -2.629 -12.946  29.683  1.00  0.00     0.062 A 
ATOM     17  C   UNL     1      -2.050 -12.605  28.452  1.00  0.00     0.158 A 
BRANCH  15  18
ATOM     18  O   UNL     1      -2.124 -11.372  26.375  1.00  0.00    -0.504 OA
ATOM     19  H   UNL     1      -1.846 -12.083  25.709  1.00  0.00     0.293 HD
ENDBRANCH  15  18
BRANCH  17  20
ATOM     20  O   UNL     1      -0.824 -13.150  28.074  1.00  0.00    -0.504 OA
ATOM     21  H   UNL     1       0.018 -12.990  28.615  1.00  0.00     0.293 HD
ENDBRANCH  17  20
ENDBRANCH   1  12
BRANCH   2  22
ATOM     22  O   UNL     1      -4.680 -15.092  30.804  1.00  0.00    -0.502 OA
ATOM     23  H   UNL     1      -4.906 -14.997  29.821  1.00  0.00     0.293 HD
ENDBRANCH   2  22
BRANCH   9  24
ATOM     24  O   UNL     1      -6.207  -9.876  36.355  1.00  0.00    -0.508 OA
ATOM     25  H   UNL     1      -7.129  -9.610  36.680  1.00  0.00     0.293 HD
ENDBRANCH   9  24
TORSDOF 5
ENDMDL
MODEL 4
REMARK VINA RESULT:    -3.800      2.059      3.960
REMARK INTER + INTRA:          -4.539
REMARK INTER:                  -4.439
REMARK INTRA:                  -0.100
REMARK UNBOUND:                -0.073
REMARK SMILES O=c1c(O)c(-c2ccc(O)c(O)c2)oc2cc(O)ccc12
REMARK SMILES IDX 5 1 3 2 2 3 1 4 21 5 15 6 14 7 16 8 17 9 19 10 20 11 6 12
REMARK SMILES IDX 7 13 8 14 9 15 13 16 11 17 10 18 12 20 4 22 18 24
REMARK H PARENT 10 19 12 21 4 23 18 25
REMARK Flexibility Score: inf
ROOT
ATOM      1  C   UNL     1      -3.841 -13.243  31.938  1.00  0.00     0.180 A 
ATOM      2  C   UNL     1      -4.151 -13.520  30.591  1.00  0.00     0.208 A 
ATOM      3  C   UNL     1      -3.126 -13.458  29.634  1.00  0.00     0.235 A 
ATOM      4  O   UNL     1      -3.381 -13.690  28.421  1.00  0.00    -0.285 OA
ATOM      5  C   UNL     1      -1.820 -13.146  30.043  1.00  0.00     0.069 A 
ATOM      6  C   UNL     1      -1.587 -12.905  31.413  1.00  0.00     0.142 A 
ATOM      7  O   UNL     1      -2.586 -12.964  32.286  1.00  0.00    -0.452 OA
ATOM      8  C   UNL     1      -0.296 -12.600  31.861  1.00  0.00     0.094 A 
ATOM      9  C   UNL     1       0.766 -12.529  30.955  1.00  0.00     0.119 A 
ATOM     10  C   UNL     1       0.539 -12.765  29.591  1.00  0.00     0.047 A 
ATOM     11  C   UNL     1      -0.746 -13.072  29.135  1.00  0.00     0.020 A 
ENDROOT
BRANCH   1  12
ATOM     12  C   UNL     1      -4.870 -13.269  33.004  1.00  0.00     0.025 A 
ATOM     13  C   UNL     1      -5.553 -14.465  33.273  1.00  0.00     0.016 A 
ATOM     14  C   UNL     1      -6.514 -14.517  34.288  1.00  0.00     0.051 A 
ATOM     15  C   UNL     1      -6.791 -13.380  35.057  1.00  0.00     0.157 A 
ATOM     16  C   UNL     1      -5.136 -12.135  33.792  1.00  0.00     0.062 A 
ATOM     17  C   UNL     1      -6.098 -12.188  34.811  1.00  0.00     0.158 A 
BRANCH  15  18
ATOM     18  O   UNL     1      -7.749 -13.427  36.069  1.00  0.00    -0.504 OA
ATOM     19  H   UNL     1      -8.673 -13.032  35.941  1.00  0.00     0.293 HD
ENDBRANCH  15  18
BRANCH  17  20
ATOM     20  O   UNL     1      -6.366 -11.062  35.587  1.00  0.00    -0.504 OA
ATOM     21  H   UNL     1      -6.475 -11.124  36.593  1.00  0.00     0.293 HD
ENDBRANCH  17  20
ENDBRANCH   1  12
BRANCH   2  22
ATOM     22  O   UNL     1      -5.451 -13.877  30.222  1.00  0.00    -0.502 OA
ATOM     23  H   UNL     1      -5.797 -13.761  29.278  1.00  0.00     0.293 HD
ENDBRANCH   2  22
BRANCH   9  24
ATOM     24  O   UNL     1       2.045 -12.222  31.416  1.00  0.00    -0.508 OA
ATOM     25  H   UNL     1       2.308 -11.275  31.658  1.00  0.00     0.293 HD
ENDBRANCH   9  24
TORSDOF 5
ENDMDL
MODEL 5
REMARK VINA RESULT:    -3.435      1.664      1.743
REMARK INTER + INTRA:          -4.111
REMARK INTER:                  -4.072
REMARK INTRA:                  -0.039
REMARK UNBOUND:                -0.073
REMARK SMILES O=c1c(O)c(-c2ccc(O)c(O)c2)oc2cc(O)ccc12
REMARK SMILES IDX 5 1 3 2 2 3 1 4 21 5 15 6 14 7 16 8 17 9 19 10 20 11 6 12
REMARK SMILES IDX 7 13 8 14 9 15 13 16 11 17 10 18 12 20 4 22 18 24
REMARK H PARENT 10 19 12 21 4 23 18 25
REMARK Flexibility Score: inf
ROOT
ATOM      1  C   UNL     1      -3.891 -12.203  31.570  1.00  0.00     0.180 A 
ATOM      2  C   UNL     1      -2.841 -13.141  31.625  1.00  0.00     0.208 A 
ATOM      3  C   UNL     1      -2.178 -13.486  30.437  1.00  0.00     0.235 A 
ATOM      4  O   UNL     1      -1.242 -14.332  30.460  1.00  0.00    -0.285 OA
ATOM      5  C   UNL     1      -2.560 -12.875  29.233  1.00  0.00     0.069 A 
ATOM      6  C   UNL     1      -3.604 -11.928  29.264  1.00  0.00     0.142 A 
ATOM      7  O   UNL     1      -4.213 -11.636  30.408  1.00  0.00    -0.452 OA
ATOM      8  C   UNL     1      -4.008 -11.290  28.085  1.00  0.00     0.094 A 
ATOM      9  C   UNL     1      -3.381 -11.589  26.872  1.00  0.00     0.119 A 
ATOM     10  C   UNL     1      -2.343 -12.532  26.835  1.00  0.00     0.047 A 
ATOM     11  C   UNL     1      -1.932 -13.173  28.008  1.00  0.00     0.020 A 
ENDROOT
BRANCH   1  12
ATOM     12  C   UNL     1      -4.652 -11.801  32.776  1.00  0.00     0.025 A 
ATOM     13  C   UNL     1      -4.850 -10.438  33.044  1.00  0.00     0.016 A 
ATOM     14  C   UNL     1      -5.582 -10.036  34.165  1.00  0.00     0.051 A 
ATOM     15  C   UNL     1      -6.139 -10.993  35.023  1.00  0.00     0.157 A 
ATOM     16  C   UNL     1      -5.231 -12.758  33.629  1.00  0.00     0.062 A 
ATOM     17  C   UNL     1      -5.967 -12.355  34.753  1.00  0.00     0.158 A 
BRANCH  15  18
ATOM     18  O   UNL     1      -6.868 -10.597  36.144  1.00  0.00    -0.504 OA
ATOM     19  H   UNL     1      -7.845 -10.336  36.075  1.00  0.00     0.293 HD
ENDBRANCH  15  18
BRANCH  17  20
ATOM     20  O   UNL     1      -6.535 -13.304  35.601  1.00  0.00    -0.504 OA
ATOM     21  H   UNL     1      -5.966 -13.867  36.223  1.00  0.00     0.293 HD
ENDBRANCH  17  20
ENDBRANCH   1  12
BRANCH   2  22
ATOM     22  O   UNL     1      -2.450 -13.696  32.847  1.00  0.00    -0.502 OA
ATOM     23  H   UNL     1      -1.735 -13.276  33.429  1.00  0.00     0.293 HD
ENDBRANCH   2  22
BRANCH   9  24
ATOM     24  O   UNL     1      -3.795 -10.947  25.707  1.00  0.00    -0.508 OA
ATOM     25  H   UNL     1      -4.704 -10.504  25.640  1.00  0.00     0.293 HD
ENDBRANCH   9  24
TORSDOF 5
ENDMDL
MODEL 6
REMARK VINA RESULT:    -3.270      2.112      7.033
REMARK INTER + INTRA:          -3.916
REMARK INTER:                  -3.600
REMARK INTRA:                  -0.317
REMARK UNBOUND:                -0.073
REMARK SMILES O=c1c(O)c(-c2ccc(O)c(O)c2)oc2cc(O)ccc12
REMARK SMILES IDX 5 1 3 2 2 3 1 4 21 5 15 6 14 7 16 8 17 9 19 10 20 11 6 12
REMARK SMILES IDX 7 13 8 14 9 15 13 16 11 17 10 18 12 20 4 22 18 24
REMARK H PARENT 10 19 12 21 4 23 18 25
REMARK Flexibility Score: inf
ROOT
ATOM      1  C   UNL     1      -4.024 -13.181  32.375  1.00  0.00     0.180 A 
ATOM      2  C   UNL     1      -4.709 -14.403  32.535  1.00  0.00     0.208 A 
ATOM      3  C   UNL     1      -5.724 -14.488  33.501  1.00  0.00     0.235 A 
ATOM      4  O   UNL     1      -6.344 -15.574  33.671  1.00  0.00    -0.285 OA
ATOM      5  C   UNL     1      -6.046 -13.355  34.265  1.00  0.00     0.069 A 
ATOM      6  C   UNL     1      -5.330 -12.163  34.028  1.00  0.00     0.142 A 
ATOM      7  O   UNL     1      -4.371 -12.126  33.111  1.00  0.00    -0.452 OA
ATOM      8  C   UNL     1      -5.629 -11.009  34.763  1.00  0.00     0.094 A 
ATOM      9  C   UNL     1      -6.633 -11.033  35.735  1.00  0.00     0.119 A 
ATOM     10  C   UNL     1      -7.345 -12.216  35.975  1.00  0.00     0.047 A 
ATOM     11  C   UNL     1      -7.056 -13.373  35.246  1.00  0.00     0.020 A 
ENDROOT
BRANCH   1  12
ATOM     12  C   UNL     1      -2.929 -13.016  31.391  1.00  0.00     0.025 A 
ATOM     13  C   UNL     1      -1.615 -13.339  31.761  1.00  0.00     0.016 A 
ATOM     14  C   UNL     1      -0.569 -13.211  30.843  1.00  0.00     0.051 A 
ATOM     15  C   UNL     1      -0.827 -12.773  29.538  1.00  0.00     0.157 A 
ATOM     16  C   UNL     1      -3.186 -12.597  30.073  1.00  0.00     0.062 A 
ATOM     17  C   UNL     1      -2.138 -12.470  29.151  1.00  0.00     0.158 A 
BRANCH  15  18
ATOM     18  O   UNL     1       0.214 -12.642  28.618  1.00  0.00    -0.504 OA
ATOM     19  H   UNL     1       0.667 -13.452  28.214  1.00  0.00     0.293 HD
ENDBRANCH  15  18
BRANCH  17  20
ATOM     20  O   UNL     1      -2.392 -12.048  27.847  1.00  0.00    -0.504 OA
ATOM     21  H   UNL     1      -3.183 -11.453  27.627  1.00  0.00     0.293 HD
ENDBRANCH  17  20
ENDBRANCH   1  12
BRANCH   2  22
ATOM     22  O   UNL     1      -4.401 -15.499  31.726  1.00  0.00    -0.502 OA
ATOM     23  H   UNL     1      -3.514 -15.985  31.786  1.00  0.00     0.293 HD
ENDBRANCH   2  22
BRANCH   9  24
ATOM     24  O   UNL     1      -6.916  -9.876  36.459  1.00  0.00    -0.508 OA
ATOM     25  H   UNL     1      -7.282  -9.045  36.009  1.00  0.00     0.293 HD
ENDBRANCH   9  24
TORSDOF 5
ENDMDL
