MODEL 1
REMARK VINA RESULT:    -3.265      0.000      0.000
REMARK INTER + INTRA:          -6.551
REMARK INTER:                  -5.174
REMARK INTRA:                  -1.377
REMARK UNBOUND:                -1.377
REMARK SMILES CCCCCCCCCCCC(=O)[O-]
REMARK SMILES IDX 7 1 8 2 9 3 10 4 11 5 12 6 13 7 14 8 6 9 5 10 4 11 3 12 2 13
REMARK SMILES IDX 1 14
REMARK H PARENT
REMARK Flexibility Score: inf
ROOT
ATOM      1  C   UNL     1      43.594  28.998  89.492  1.00  0.00     0.000 C 
ENDROOT
BRANCH   1   2
ATOM      2  C   UNL     1      43.709  29.873  88.234  1.00  0.00     0.000 C 
BRANCH   2   3
ATOM      3  C   UNL     1      42.961  31.208  88.370  1.00  0.00     0.000 C 
BRANCH   3   4
ATOM      4  C   UNL     1      41.829  31.311  87.340  1.00  0.00     0.006 C 
BRANCH   4   5
ATOM      5  C   UNL     1      40.477  30.967  87.972  1.00  0.00     0.053 C 
BRANCH   5   6
ATOM      6  C   UNL     1      40.183  29.509  87.818  1.00  0.00     0.041 C 
ATOM      7  O   UNL     1      39.601  28.879  88.740  1.00  0.00    -0.550 OA
ATOM      8  O   UNL     1      40.594  28.834  86.675  1.00  0.00    -0.550 OA
ENDBRANCH   5   6
ENDBRANCH   4   5
ENDBRANCH   3   4
ENDBRANCH   2   3
ENDBRANCH   1   2
BRANCH   1   9
ATOM      9  C   UNL     1      42.697  29.629  90.574  1.00  0.00     0.000 C 
BRANCH   9  10
ATOM     10  C   UNL     1      43.466  29.894  91.885  1.00  0.00    -0.000 C 
BRANCH  10  11
ATOM     11  C   UNL     1      44.983  30.058  91.685  1.00  0.00    -0.000 C 
BRANCH  11  12
ATOM     12  C   UNL     1      45.381  31.483  91.269  1.00  0.00    -0.000 C 
BRANCH  12  13
ATOM     13  C   UNL     1      46.470  31.499  90.187  1.00  0.00    -0.003 C 
ATOM     14  C   UNL     1      47.184  30.155  90.049  1.00  0.00     0.004 C 
ENDBRANCH  12  13
ENDBRANCH  11  12
ENDBRANCH  10  11
ENDBRANCH   9  10
ENDBRANCH   1   9
TORSDOF 10
ENDMDL
MODEL 2
REMARK VINA RESULT:    -3.233      3.210      5.334
REMARK INTER + INTRA:          -6.501
REMARK INTER:                  -5.093
REMARK INTRA:                  -1.408
REMARK UNBOUND:                -1.377
REMARK SMILES CCCCCCCCCCCC(=O)[O-]
REMARK SMILES IDX 7 1 8 2 9 3 10 4 11 5 12 6 13 7 14 8 6 9 5 10 4 11 3 12 2 13
REMARK SMILES IDX 1 14
REMARK H PARENT
REMARK Flexibility Score: inf
ROOT
ATOM      1  C   UNL     1      42.423  30.146  87.105  1.00  0.00     0.000 C 
ENDROOT
BRANCH   1   2
ATOM      2  C   UNL     1      43.780  30.222  87.823  1.00  0.00     0.000 C 
BRANCH   2   3
ATOM      3  C   UNL     1      43.806  31.287  88.930  1.00  0.00     0.000 C 
BRANCH   3   4
ATOM      4  C   UNL     1      44.057  30.647  90.301  1.00  0.00     0.006 C 
BRANCH   4   5
ATOM      5  C   UNL     1      45.231  31.322  91.017  1.00  0.00     0.053 C 
BRANCH   5   6
ATOM      6  C   UNL     1      46.531  30.874  90.428  1.00  0.00     0.041 C 
ATOM      7  O   UNL     1      47.020  29.758  90.748  1.00  0.00    -0.550 OA
ATOM      8  O   UNL     1      47.226  31.708  89.561  1.00  0.00    -0.550 OA
ENDBRANCH   5   6
ENDBRANCH   4   5
ENDBRANCH   3   4
ENDBRANCH   2   3
ENDBRANCH   1   2
BRANCH   1   9
ATOM      9  C   UNL     1      41.453  31.255  87.552  1.00  0.00     0.000 C 
BRANCH   9  10
ATOM     10  C   UNL     1      40.170  30.683  88.190  1.00  0.00    -0.000 C 
BRANCH  10  11
ATOM     11  C   UNL     1      40.390  30.097  89.596  1.00  0.00    -0.000 C 
BRANCH  11  12
ATOM     12  C   UNL     1      40.292  28.564  89.626  1.00  0.00    -0.000 C 
BRANCH  12  13
ATOM     13  C   UNL     1      41.582  27.901  90.130  1.00  0.00    -0.003 C 
ATOM     14  C   UNL     1      42.246  27.022  89.070  1.00  0.00     0.004 C 
ENDBRANCH  12  13
ENDBRANCH  11  12
ENDBRANCH  10  11
ENDBRANCH   9  10
ENDBRANCH   1   9
TORSDOF 10
ENDMDL
MODEL 3
REMARK VINA RESULT:    -3.166      1.549      2.336
REMARK INTER + INTRA:          -6.394
REMARK INTER:                  -5.321
REMARK INTRA:                  -1.073
REMARK UNBOUND:                -1.377
REMARK SMILES CCCCCCCCCCCC(=O)[O-]
REMARK SMILES IDX 7 1 8 2 9 3 10 4 11 5 12 6 13 7 14 8 6 9 5 10 4 11 3 12 2 13
REMARK SMILES IDX 1 14
REMARK H PARENT
REMARK Flexibility Score: inf
ROOT
ATOM      1  C   UNL     1      42.599  29.624  90.870  1.00  0.00     0.000 C 
ENDROOT
BRANCH   1   2
ATOM      2  C   UNL     1      42.025  28.383  90.168  1.00  0.00     0.000 C 
BRANCH   2   3
ATOM      3  C   UNL     1      40.734  28.684  89.395  1.00  0.00     0.000 C 
BRANCH   3   4
ATOM      4  C   UNL     1      40.381  30.175  89.475  1.00  0.00     0.006 C 
BRANCH   4   5
ATOM      5  C   UNL     1      40.277  30.792  88.077  1.00  0.00     0.053 C 
BRANCH   5   6
ATOM      6  C   UNL     1      41.627  30.865  87.436  1.00  0.00     0.041 C 
ATOM      7  O   UNL     1      41.888  30.158  86.427  1.00  0.00    -0.550 OA
ATOM      8  O   UNL     1      42.612  31.679  87.981  1.00  0.00    -0.550 OA
ENDBRANCH   5   6
ENDBRANCH   4   5
ENDBRANCH   3   4
ENDBRANCH   2   3
ENDBRANCH   1   2
BRANCH   1   9
ATOM      9  C   UNL     1      43.412  29.270  92.130  1.00  0.00     0.000 C 
BRANCH   9  10
ATOM     10  C   UNL     1      44.466  30.346  92.463  1.00  0.00    -0.000 C 
BRANCH  10  11
ATOM     11  C   UNL     1      44.637  31.402  91.356  1.00  0.00    -0.000 C 
BRANCH  11  12
ATOM     12  C   UNL     1      46.014  31.336  90.676  1.00  0.00    -0.000 C 
BRANCH  12  13
ATOM     13  C   UNL     1      45.914  31.300  89.144  1.00  0.00    -0.003 C 
ATOM     14  C   UNL     1      45.507  29.927  88.612  1.00  0.00     0.004 C 
ENDBRANCH  12  13
ENDBRANCH  11  12
ENDBRANCH  10  11
ENDBRANCH   9  10
ENDBRANCH   1   9
TORSDOF 10
ENDMDL
MODEL 4
REMARK VINA RESULT:    -3.166      1.216      2.461
REMARK INTER + INTRA:          -6.394
REMARK INTER:                  -5.276
REMARK INTRA:                  -1.118
REMARK UNBOUND:                -1.377
REMARK SMILES CCCCCCCCCCCC(=O)[O-]
REMARK SMILES IDX 7 1 8 2 9 3 10 4 11 5 12 6 13 7 14 8 6 9 5 10 4 11 3 12 2 13
REMARK SMILES IDX 1 14
REMARK H PARENT
REMARK Flexibility Score: inf
ROOT
ATOM      1  C   UNL     1      44.316  30.495  88.431  1.00  0.00     0.000 C 
ENDROOT
BRANCH   1   2
ATOM      2  C   UNL     1      42.997  31.221  88.736  1.00  0.00     0.000 C 
BRANCH   2   3
ATOM      3  C   UNL     1      42.025  31.206  87.547  1.00  0.00     0.000 C 
BRANCH   3   4
ATOM      4  C   UNL     1      40.622  30.771  87.991  1.00  0.00     0.006 C 
BRANCH   4   5
ATOM      5  C   UNL     1      40.666  30.083  89.358  1.00  0.00     0.053 C 
BRANCH   5   6
ATOM      6  C   UNL     1      40.412  28.616  89.215  1.00  0.00     0.041 C 
ATOM      7  O   UNL     1      39.748  28.000  90.090  1.00  0.00    -0.550 OA
ATOM      8  O   UNL     1      40.949  27.920  88.140  1.00  0.00    -0.550 OA
ENDBRANCH   5   6
ENDBRANCH   4   5
ENDBRANCH   3   4
ENDBRANCH   2   3
ENDBRANCH   1   2
BRANCH   1   9
ATOM      9  C   UNL     1      45.544  31.229  89.002  1.00  0.00     0.000 C 
BRANCH   9  10
ATOM     10  C   UNL     1      45.882  30.769  90.435  1.00  0.00    -0.000 C 
BRANCH  10  11
ATOM     11  C   UNL     1      45.337  31.708  91.526  1.00  0.00    -0.000 C 
BRANCH  11  12
ATOM     12  C   UNL     1      44.237  31.056  92.379  1.00  0.00    -0.000 C 
BRANCH  12  13
ATOM     13  C   UNL     1      44.328  29.523  92.387  1.00  0.00    -0.003 C 
ATOM     14  C   UNL     1      43.027  28.854  91.945  1.00  0.00     0.004 C 
ENDBRANCH  12  13
ENDBRANCH  11  12
ENDBRANCH  10  11
ENDBRANCH   9  10
ENDBRANCH   1   9
TORSDOF 10
ENDMDL
MODEL 5
REMARK VINA RESULT:    -3.160      1.471      2.779
REMARK INTER + INTRA:          -6.385
REMARK INTER:                  -5.619
REMARK INTRA:                  -0.766
REMARK UNBOUND:                -1.377
REMARK SMILES CCCCCCCCCCCC(=O)[O-]
REMARK SMILES IDX 7 1 8 2 9 3 10 4 11 5 12 6 13 7 14 8 6 9 5 10 4 11 3 12 2 13
REMARK SMILES IDX 1 14
REMARK H PARENT
REMARK Flexibility Score: inf
ROOT
ATOM      1  C   UNL     1      42.912  30.599  88.297  1.00  0.00     0.000 C 
ENDROOT
BRANCH   1   2
ATOM      2  C   UNL     1      41.862  31.256  87.387  1.00  0.00     0.000 C 
BRANCH   2   3
ATOM      3  C   UNL     1      40.439  31.157  87.956  1.00  0.00     0.000 C 
BRANCH   3   4
ATOM      4  C   UNL     1      40.211  29.798  88.631  1.00  0.00     0.006 C 
BRANCH   4   5
ATOM      5  C   UNL     1      39.769  28.745  87.612  1.00  0.00     0.053 C 
BRANCH   5   6
ATOM      6  C   UNL     1      38.309  28.457  87.756  1.00  0.00     0.041 C 
ATOM      7  O   UNL     1      37.458  29.210  87.213  1.00  0.00    -0.550 OA
ATOM      8  O   UNL     1      37.885  27.384  88.531  1.00  0.00    -0.550 OA
ENDBRANCH   5   6
ENDBRANCH   4   5
ENDBRANCH   3   4
ENDBRANCH   2   3
ENDBRANCH   1   2
BRANCH   1   9
ATOM      9  C   UNL     1      43.803  31.629  89.015  1.00  0.00     0.000 C 
BRANCH   9  10
ATOM     10  C   UNL     1      45.253  31.127  89.183  1.00  0.00    -0.000 C 
BRANCH  10  11
ATOM     11  C   UNL     1      45.806  31.314  90.607  1.00  0.00    -0.000 C 
BRANCH  11  12
ATOM     12  C   UNL     1      44.700  31.422  91.668  1.00  0.00    -0.000 C 
BRANCH  12  13
ATOM     13  C   UNL     1      44.448  30.093  92.394  1.00  0.00    -0.003 C 
ATOM     14  C   UNL     1      43.207  29.365  91.877  1.00  0.00     0.004 C 
ENDBRANCH  12  13
ENDBRANCH  11  12
ENDBRANCH  10  11
ENDBRANCH   9  10
ENDBRANCH   1   9
TORSDOF 10
ENDMDL
MODEL 6
REMARK VINA RESULT:    -3.141      3.096      5.272
REMARK INTER + INTRA:          -6.354
REMARK INTER:                  -5.179
REMARK INTRA:                  -1.175
REMARK UNBOUND:                -1.377
REMARK SMILES CCCCCCCCCCCC(=O)[O-]
REMARK SMILES IDX 7 1 8 2 9 3 10 4 11 5 12 6 13 7 14 8 6 9 5 10 4 11 3 12 2 13
REMARK SMILES IDX 1 14
REMARK H PARENT
REMARK Flexibility Score: inf
ROOT
ATOM      1  C   UNL     1      42.189  28.500  90.639  1.00  0.00     0.000 C 
ENDROOT
BRANCH   1   2
ATOM      2  C   UNL     1      42.737  29.857  91.107  1.00  0.00     0.000 C 
BRANCH   2   3
ATOM      3  C   UNL     1      43.771  29.722  92.235  1.00  0.00     0.000 C 
BRANCH   3   4
ATOM      4  C   UNL     1      45.189  29.991  91.715  1.00  0.00     0.006 C 
BRANCH   4   5
ATOM      5  C   UNL     1      45.196  31.145  90.709  1.00  0.00     0.053 C 
BRANCH   5   6
ATOM      6  C   UNL     1      46.546  31.282  90.079  1.00  0.00     0.041 C 
ATOM      7  O   UNL     1      47.532  30.659  90.554  1.00  0.00    -0.550 OA
ATOM      8  O   UNL     1      46.726  32.136  88.998  1.00  0.00    -0.550 OA
ENDBRANCH   5   6
ENDBRANCH   4   5
ENDBRANCH   3   4
ENDBRANCH   2   3
ENDBRANCH   1   2
BRANCH   1   9
ATOM      9  C   UNL     1      40.965  28.640  89.715  1.00  0.00     0.000 C 
BRANCH   9  10
ATOM     10  C   UNL     1      40.499  30.105  89.587  1.00  0.00    -0.000 C 
BRANCH  10  11
ATOM     11  C   UNL     1      40.426  30.602  88.132  1.00  0.00    -0.000 C 
BRANCH  11  12
ATOM     12  C   UNL     1      41.764  31.161  87.624  1.00  0.00    -0.000 C 
BRANCH  12  13
ATOM     13  C   UNL     1      42.576  30.123  86.836  1.00  0.00    -0.003 C 
ATOM     14  C   UNL     1      43.904  29.778  87.509  1.00  0.00     0.004 C 
ENDBRANCH  12  13
ENDBRANCH  11  12
ENDBRANCH  10  11
ENDBRANCH   9  10
ENDBRANCH   1   9
TORSDOF 10
ENDMDL
MODEL 7
REMARK VINA RESULT:    -3.105      2.645      5.080
REMARK INTER + INTRA:          -6.298
REMARK INTER:                  -4.767
REMARK INTRA:                  -1.531
REMARK UNBOUND:                -1.377
REMARK SMILES CCCCCCCCCCCC(=O)[O-]
REMARK SMILES IDX 7 1 8 2 9 3 10 4 11 5 12 6 13 7 14 8 6 9 5 10 4 11 3 12 2 13
REMARK SMILES IDX 1 14
REMARK H PARENT
REMARK Flexibility Score: inf
ROOT
ATOM      1  C   UNL     1      44.013  30.285  88.073  1.00  0.00     0.000 C 
ENDROOT
BRANCH   1   2
ATOM      2  C   UNL     1      44.037  31.523  88.983  1.00  0.00     0.000 C 
BRANCH   2   3
ATOM      3  C   UNL     1      44.479  31.197  90.416  1.00  0.00     0.000 C 
BRANCH   3   4
ATOM      4  C   UNL     1      44.204  29.726  90.755  1.00  0.00     0.006 C 
BRANCH   4   5
ATOM      5  C   UNL     1      43.265  29.605  91.958  1.00  0.00     0.053 C 
BRANCH   5   6
ATOM      6  C   UNL     1      43.404  28.259  92.597  1.00  0.00     0.041 C 
ATOM      7  O   UNL     1      42.397  27.686  93.091  1.00  0.00    -0.550 OA
ATOM      8  O   UNL     1      44.653  27.659  92.689  1.00  0.00    -0.550 OA
ENDBRANCH   5   6
ENDBRANCH   4   5
ENDBRANCH   3   4
ENDBRANCH   2   3
ENDBRANCH   1   2
BRANCH   1   9
ATOM      9  C   UNL     1      42.804  30.271  87.120  1.00  0.00     0.000 C 
BRANCH   9  10
ATOM     10  C   UNL     1      41.687  31.228  87.585  1.00  0.00    -0.000 C 
BRANCH  10  11
ATOM     11  C   UNL     1      40.421  30.503  88.076  1.00  0.00    -0.000 C 
BRANCH  11  12
ATOM     12  C   UNL     1      40.512  30.074  89.549  1.00  0.00    -0.000 C 
BRANCH  12  13
ATOM     13  C   UNL     1      40.277  28.569  89.740  1.00  0.00    -0.003 C 
ATOM     14  C   UNL     1      41.433  27.719  89.214  1.00  0.00     0.004 C 
ENDBRANCH  12  13
ENDBRANCH  11  12
ENDBRANCH  10  11
ENDBRANCH   9  10
ENDBRANCH   1   9
TORSDOF 10
ENDMDL
MODEL 8
REMARK VINA RESULT:    -3.078      2.609      5.114
REMARK INTER + INTRA:          -6.254
REMARK INTER:                  -4.981
REMARK INTRA:                  -1.274
REMARK UNBOUND:                -1.377
REMARK SMILES CCCCCCCCCCCC(=O)[O-]
REMARK SMILES IDX 7 1 8 2 9 3 10 4 11 5 12 6 13 7 14 8 6 9 5 10 4 11 3 12 2 13
REMARK SMILES IDX 1 14
REMARK H PARENT
REMARK Flexibility Score: inf
ROOT
ATOM      1  C   UNL     1      43.376  29.221  92.115  1.00  0.00     0.000 C 
ENDROOT
BRANCH   1   2
ATOM      2  C   UNL     1      44.751  29.897  92.235  1.00  0.00     0.000 C 
BRANCH   2   3
ATOM      3  C   UNL     1      44.828  31.222  91.463  1.00  0.00     0.000 C 
BRANCH   3   4
ATOM      4  C   UNL     1      46.207  31.401  90.816  1.00  0.00     0.006 C 
BRANCH   4   5
ATOM      5  C   UNL     1      46.087  31.554  89.297  1.00  0.00     0.053 C 
BRANCH   5   6
ATOM      6  C   UNL     1      46.614  30.337  88.605  1.00  0.00     0.041 C 
ATOM      7  O   UNL     1      47.382  29.545  89.214  1.00  0.00    -0.550 OA
ATOM      8  O   UNL     1      46.297  30.101  87.273  1.00  0.00    -0.550 OA
ENDBRANCH   5   6
ENDBRANCH   4   5
ENDBRANCH   3   4
ENDBRANCH   2   3
ENDBRANCH   1   2
BRANCH   1   9
ATOM      9  C   UNL     1      42.578  29.709  90.892  1.00  0.00     0.000 C 
BRANCH   9  10
ATOM     10  C   UNL     1      42.740  28.769  89.679  1.00  0.00    -0.000 C 
BRANCH  10  11
ATOM     11  C   UNL     1      42.940  29.514  88.347  1.00  0.00    -0.000 C 
BRANCH  11  12
ATOM     12  C   UNL     1      42.586  31.006  88.438  1.00  0.00    -0.000 C 
BRANCH  12  13
ATOM     13  C   UNL     1      41.303  31.355  87.670  1.00  0.00    -0.003 C 
ATOM     14  C   UNL     1      40.036  30.941  88.418  1.00  0.00     0.004 C 
ENDBRANCH  12  13
ENDBRANCH  11  12
ENDBRANCH  10  11
ENDBRANCH   9  10
ENDBRANCH   1   9
TORSDOF 10
ENDMDL
MODEL 9
REMARK VINA RESULT:    -3.045      2.949      5.266
REMARK INTER + INTRA:          -6.203
REMARK INTER:                  -4.860
REMARK INTRA:                  -1.343
REMARK UNBOUND:                -1.377
REMARK SMILES CCCCCCCCCCCC(=O)[O-]
REMARK SMILES IDX 7 1 8 2 9 3 10 4 11 5 12 6 13 7 14 8 6 9 5 10 4 11 3 12 2 13
REMARK SMILES IDX 1 14
REMARK H PARENT
REMARK Flexibility Score: inf
ROOT
ATOM      1  C   UNL     1      41.662  31.052  87.428  1.00  0.00     0.000 C 
ENDROOT
BRANCH   1   2
ATOM      2  C   UNL     1      42.908  31.309  88.290  1.00  0.00     0.000 C 
BRANCH   2   3
ATOM      3  C   UNL     1      43.891  30.129  88.276  1.00  0.00     0.000 C 
BRANCH   3   4
ATOM      4  C   UNL     1      44.580  29.973  89.638  1.00  0.00     0.006 C 
BRANCH   4   5
ATOM      5  C   UNL     1      44.468  31.259  90.462  1.00  0.00     0.053 C 
BRANCH   5   6
ATOM      6  C   UNL     1      44.510  30.948  91.925  1.00  0.00     0.041 C 
ATOM      7  O   UNL     1      44.310  31.859  92.771  1.00  0.00    -0.550 OA
ATOM      8  O   UNL     1      44.817  29.663  92.354  1.00  0.00    -0.550 OA
ENDBRANCH   5   6
ENDBRANCH   4   5
ENDBRANCH   3   4
ENDBRANCH   2   3
ENDBRANCH   1   2
BRANCH   1   9
ATOM      9  C   UNL     1      40.373  30.948  88.265  1.00  0.00     0.000 C 
BRANCH   9  10
ATOM     10  C   UNL     1      39.871  29.494  88.381  1.00  0.00    -0.000 C 
BRANCH  10  11
ATOM     11  C   UNL     1      40.488  28.724  89.562  1.00  0.00    -0.000 C 
BRANCH  11  12
ATOM     12  C   UNL     1      41.378  27.554  89.112  1.00  0.00    -0.000 C 
BRANCH  12  13
ATOM     13  C   UNL     1      41.076  27.102  87.676  1.00  0.00    -0.003 C 
ATOM     14  C   UNL     1      42.297  27.191  86.762  1.00  0.00     0.004 C 
ENDBRANCH  12  13
ENDBRANCH  11  12
ENDBRANCH  10  11
ENDBRANCH   9  10
ENDBRANCH   1   9
TORSDOF 10
ENDMDL
