MODEL 1
REMARK VINA RESULT:    -5.948      0.000      0.000
REMARK INTER + INTRA:          -6.858
REMARK INTER:                  -6.644
REMARK INTRA:                  -0.214
REMARK UNBOUND:                -0.214
REMARK SMILES CC(C)c1ccc(C(=O)[O-])cc1
REMARK SMILES IDX 7 1 6 2 11 3 5 4 12 5 4 6 8 7 9 8 10 9 2 10 1 11 3 12
REMARK H PARENT
REMARK Flexibility Score: inf
ROOT
ATOM      1  C   UNL     1     149.487 169.506 150.269  1.00  0.00    -0.003 A 
ATOM      2  C   UNL     1     150.672 168.777 150.463  1.00  0.00     0.010 A 
ATOM      3  C   UNL     1     149.216 170.602 151.106  1.00  0.00     0.010 A 
ATOM      4  C   UNL     1     151.567 169.136 151.475  1.00  0.00     0.004 A 
ATOM      5  C   UNL     1     150.112 170.960 152.117  1.00  0.00     0.004 A 
ATOM      6  C   UNL     1     151.297 170.232 152.314  1.00  0.00    -0.045 A 
ENDROOT
BRANCH   1   7
ATOM      7  C   UNL     1     148.541 169.122 149.198  1.00  0.00     0.071 C 
ATOM      8  O   UNL     1     148.906 169.113 147.993  1.00  0.00    -0.545 OA
ATOM      9  O   UNL     1     147.233 168.764 149.507  1.00  0.00    -0.545 OA
ENDBRANCH   1   7
BRANCH   6  10
ATOM     10  C   UNL     1     152.261 170.632 153.414  1.00  0.00     0.013 C 
ATOM     11  C   UNL     1     153.703 170.264 153.047  1.00  0.00     0.012 C 
ATOM     12  C   UNL     1     152.139 172.125 153.741  1.00  0.00     0.012 C 
ENDBRANCH   6  10
TORSDOF 2
ENDMDL
MODEL 2
REMARK VINA RESULT:    -5.922     14.423     15.226
REMARK INTER + INTRA:          -6.829
REMARK INTER:                  -6.608
REMARK INTRA:                  -0.220
REMARK UNBOUND:                -0.214
REMARK SMILES CC(C)c1ccc(C(=O)[O-])cc1
REMARK SMILES IDX 7 1 6 2 11 3 5 4 12 5 4 6 8 7 9 8 10 9 2 10 1 11 3 12
REMARK H PARENT
REMARK Flexibility Score: inf
ROOT
ATOM      1  C   UNL     1     149.441 158.240 158.993  1.00  0.00    -0.003 A 
ATOM      2  C   UNL     1     149.649 157.413 160.109  1.00  0.00     0.010 A 
ATOM      3  C   UNL     1     150.335 158.162 157.911  1.00  0.00     0.010 A 
ATOM      4  C   UNL     1     150.730 156.527 160.143  1.00  0.00     0.004 A 
ATOM      5  C   UNL     1     151.415 157.275 157.946  1.00  0.00     0.004 A 
ATOM      6  C   UNL     1     151.626 156.448 159.062  1.00  0.00    -0.045 A 
ENDROOT
BRANCH   1   7
ATOM      7  C   UNL     1     148.297 159.177 158.960  1.00  0.00     0.071 C 
ATOM      8  O   UNL     1     147.969 159.752 157.888  1.00  0.00    -0.545 OA
ATOM      9  O   UNL     1     147.566 159.437 160.114  1.00  0.00    -0.545 OA
ENDBRANCH   1   7
BRANCH   6  10
ATOM     10  C   UNL     1     152.801 155.490 159.086  1.00  0.00     0.013 C 
ATOM     11  C   UNL     1     152.621 154.421 160.170  1.00  0.00     0.012 C 
ATOM     12  C   UNL     1     153.022 154.849 157.711  1.00  0.00     0.012 C 
ENDBRANCH   6  10
TORSDOF 2
ENDMDL
MODEL 3
REMARK VINA RESULT:    -5.897     15.600     16.358
REMARK INTER + INTRA:          -6.801
REMARK INTER:                  -6.587
REMARK INTRA:                  -0.214
REMARK UNBOUND:                -0.214
REMARK SMILES CC(C)c1ccc(C(=O)[O-])cc1
REMARK SMILES IDX 7 1 6 2 11 3 5 4 12 5 4 6 8 7 9 8 10 9 2 10 1 11 3 12
REMARK H PARENT
REMARK Flexibility Score: inf
ROOT
ATOM      1  C   UNL     1     150.778 157.225 159.189  1.00  0.00    -0.003 A 
ATOM      2  C   UNL     1     151.780 156.784 158.309  1.00  0.00     0.010 A 
ATOM      3  C   UNL     1     150.791 156.772 160.519  1.00  0.00     0.010 A 
ATOM      4  C   UNL     1     152.776 155.908 158.751  1.00  0.00     0.004 A 
ATOM      5  C   UNL     1     151.788 155.897 160.961  1.00  0.00     0.004 A 
ATOM      6  C   UNL     1     152.791 155.454 160.082  1.00  0.00    -0.045 A 
ENDROOT
BRANCH   1   7
ATOM      7  C   UNL     1     149.725 158.151 158.718  1.00  0.00     0.071 C 
ATOM      8  O   UNL     1     149.635 158.452 157.498  1.00  0.00    -0.545 OA
ATOM      9  O   UNL     1     148.817 158.702 159.615  1.00  0.00    -0.545 OA
ENDBRANCH   1   7
BRANCH   6  10
ATOM     10  C   UNL     1     153.866 154.504 160.575  1.00  0.00     0.013 C 
ATOM     11  C   UNL     1     153.942 154.502 162.106  1.00  0.00     0.012 C 
ATOM     12  C   UNL     1     153.645 153.088 160.031  1.00  0.00     0.012 C 
ENDBRANCH   6  10
TORSDOF 2
ENDMDL
MODEL 4
REMARK VINA RESULT:    -5.807      3.464      5.079
REMARK INTER + INTRA:          -6.700
REMARK INTER:                  -6.488
REMARK INTRA:                  -0.212
REMARK UNBOUND:                -0.214
REMARK SMILES CC(C)c1ccc(C(=O)[O-])cc1
REMARK SMILES IDX 7 1 6 2 11 3 5 4 12 5 4 6 8 7 9 8 10 9 2 10 1 11 3 12
REMARK H PARENT
REMARK Flexibility Score: inf
ROOT
ATOM      1  C   UNL     1     152.929 169.586 152.590  1.00  0.00    -0.003 A 
ATOM      2  C   UNL     1     152.316 168.804 151.596  1.00  0.00     0.010 A 
ATOM      3  C   UNL     1     152.238 170.695 153.107  1.00  0.00     0.010 A 
ATOM      4  C   UNL     1     151.038 169.125 151.129  1.00  0.00     0.004 A 
ATOM      5  C   UNL     1     150.959 171.015 152.640  1.00  0.00     0.004 A 
ATOM      6  C   UNL     1     150.345 170.235 151.646  1.00  0.00    -0.045 A 
ENDROOT
BRANCH   1   7
ATOM      7  C   UNL     1     154.282 169.244 153.081  1.00  0.00     0.071 C 
ATOM      8  O   UNL     1     154.430 168.558 154.127  1.00  0.00    -0.545 OA
ATOM      9  O   UNL     1     155.411 169.673 152.392  1.00  0.00    -0.545 OA
ENDBRANCH   1   7
BRANCH   6  10
ATOM     10  C   UNL     1     148.958 170.594 151.149  1.00  0.00     0.013 C 
ATOM     11  C   UNL     1     148.750 172.113 151.139  1.00  0.00     0.012 C 
ATOM     12  C   UNL     1     148.693 169.992 149.764  1.00  0.00     0.012 C 
ENDBRANCH   6  10
TORSDOF 2
ENDMDL
MODEL 5
REMARK VINA RESULT:    -5.805      3.473      5.237
REMARK INTER + INTRA:          -6.698
REMARK INTER:                  -6.485
REMARK INTRA:                  -0.213
REMARK UNBOUND:                -0.214
REMARK SMILES CC(C)c1ccc(C(=O)[O-])cc1
REMARK SMILES IDX 7 1 6 2 11 3 5 4 12 5 4 6 8 7 9 8 10 9 2 10 1 11 3 12
REMARK H PARENT
REMARK Flexibility Score: inf
ROOT
ATOM      1  C   UNL     1     152.925 169.576 152.642  1.00  0.00    -0.003 A 
ATOM      2  C   UNL     1     152.237 170.686 153.160  1.00  0.00     0.010 A 
ATOM      3  C   UNL     1     152.318 168.807 151.635  1.00  0.00     0.010 A 
ATOM      4  C   UNL     1     150.967 171.020 152.681  1.00  0.00     0.004 A 
ATOM      5  C   UNL     1     151.048 169.141 151.156  1.00  0.00     0.004 A 
ATOM      6  C   UNL     1     150.358 170.251 151.673  1.00  0.00    -0.045 A 
ENDROOT
BRANCH   1   7
ATOM      7  C   UNL     1     154.269 169.225 153.153  1.00  0.00     0.071 C 
ATOM      8  O   UNL     1     154.397 168.561 154.215  1.00  0.00    -0.545 OA
ATOM      9  O   UNL     1     155.410 169.623 152.466  1.00  0.00    -0.545 OA
ENDBRANCH   1   7
BRANCH   6  10
ATOM     10  C   UNL     1     148.981 170.602 151.143  1.00  0.00     0.013 C 
ATOM     11  C   UNL     1     148.780 172.122 151.093  1.00  0.00     0.012 C 
ATOM     12  C   UNL     1     148.738 169.969 149.769  1.00  0.00     0.012 C 
ENDBRANCH   6  10
TORSDOF 2
ENDMDL
MODEL 6
REMARK VINA RESULT:    -5.768     15.633     16.390
REMARK INTER + INTRA:          -6.656
REMARK INTER:                  -6.442
REMARK INTRA:                  -0.214
REMARK UNBOUND:                -0.214
REMARK SMILES CC(C)c1ccc(C(=O)[O-])cc1
REMARK SMILES IDX 7 1 6 2 11 3 5 4 12 5 4 6 8 7 9 8 10 9 2 10 1 11 3 12
REMARK H PARENT
REMARK Flexibility Score: inf
ROOT
ATOM      1  C   UNL     1     151.059 157.079 158.919  1.00  0.00    -0.003 A 
ATOM      2  C   UNL     1     150.877 156.775 160.278  1.00  0.00     0.010 A 
ATOM      3  C   UNL     1     152.074 156.421 158.204  1.00  0.00     0.010 A 
ATOM      4  C   UNL     1     151.693 155.831 160.909  1.00  0.00     0.004 A 
ATOM      5  C   UNL     1     152.889 155.477 158.835  1.00  0.00     0.004 A 
ATOM      6  C   UNL     1     152.709 155.172 160.195  1.00  0.00    -0.045 A 
ENDROOT
BRANCH   1   7
ATOM      7  C   UNL     1     150.195 158.079 158.255  1.00  0.00     0.071 C 
ATOM      8  O   UNL     1     149.635 157.815 157.158  1.00  0.00    -0.545 OA
ATOM      9  O   UNL     1     149.986 159.326 158.833  1.00  0.00    -0.545 OA
ENDBRANCH   1   7
BRANCH   6  10
ATOM     10  C   UNL     1     153.601 154.145 160.867  1.00  0.00     0.013 C 
ATOM     11  C   UNL     1     155.079 154.409 160.556  1.00  0.00     0.012 C 
ATOM     12  C   UNL     1     153.355 154.105 162.380  1.00  0.00     0.012 C 
ENDBRANCH   6  10
TORSDOF 2
ENDMDL
MODEL 7
REMARK VINA RESULT:    -5.754     16.040     16.926
REMARK INTER + INTRA:          -6.641
REMARK INTER:                  -6.429
REMARK INTRA:                  -0.212
REMARK UNBOUND:                -0.214
REMARK SMILES CC(C)c1ccc(C(=O)[O-])cc1
REMARK SMILES IDX 7 1 6 2 11 3 5 4 12 5 4 6 8 7 9 8 10 9 2 10 1 11 3 12
REMARK H PARENT
REMARK Flexibility Score: inf
ROOT
ATOM      1  C   UNL     1     153.002 155.123 160.015  1.00  0.00    -0.003 A 
ATOM      2  C   UNL     1     152.122 155.660 160.969  1.00  0.00     0.010 A 
ATOM      3  C   UNL     1     152.943 155.594 158.692  1.00  0.00     0.010 A 
ATOM      4  C   UNL     1     151.200 156.647 160.608  1.00  0.00     0.004 A 
ATOM      5  C   UNL     1     152.022 156.583 158.332  1.00  0.00     0.004 A 
ATOM      6  C   UNL     1     151.140 157.120 159.285  1.00  0.00    -0.045 A 
ENDROOT
BRANCH   1   7
ATOM      7  C   UNL     1     153.975 154.077 160.401  1.00  0.00     0.071 C 
ATOM      8  O   UNL     1     153.668 152.858 160.329  1.00  0.00    -0.545 OA
ATOM      9  O   UNL     1     155.245 154.426 160.849  1.00  0.00    -0.545 OA
ENDBRANCH   1   7
BRANCH   6  10
ATOM     10  C   UNL     1     150.146 158.191 158.880  1.00  0.00     0.013 C 
ATOM     11  C   UNL     1     149.743 158.042 157.408  1.00  0.00     0.012 C 
ATOM     12  C   UNL     1     148.915 158.178 159.793  1.00  0.00     0.012 C 
ENDBRANCH   6  10
TORSDOF 2
ENDMDL
MODEL 8
REMARK VINA RESULT:    -5.674      1.486      2.256
REMARK INTER + INTRA:          -6.552
REMARK INTER:                  -6.347
REMARK INTRA:                  -0.204
REMARK UNBOUND:                -0.214
REMARK SMILES CC(C)c1ccc(C(=O)[O-])cc1
REMARK SMILES IDX 7 1 6 2 11 3 5 4 12 5 4 6 8 7 9 8 10 9 2 10 1 11 3 12
REMARK H PARENT
REMARK Flexibility Score: inf
ROOT
ATOM      1  C   UNL     1     150.089 170.328 151.619  1.00  0.00    -0.003 A 
ATOM      2  C   UNL     1     150.887 169.253 151.191  1.00  0.00     0.010 A 
ATOM      3  C   UNL     1     150.605 171.222 152.573  1.00  0.00     0.010 A 
ATOM      4  C   UNL     1     152.174 169.076 151.707  1.00  0.00     0.004 A 
ATOM      5  C   UNL     1     151.893 171.045 153.088  1.00  0.00     0.004 A 
ATOM      6  C   UNL     1     152.692 169.970 152.662  1.00  0.00    -0.045 A 
ENDROOT
BRANCH   1   7
ATOM      7  C   UNL     1     148.727 170.511 151.072  1.00  0.00     0.071 C 
ATOM      8  O   UNL     1     148.477 170.233 149.869  1.00  0.00    -0.545 OA
ATOM      9  O   UNL     1     147.702 170.991 151.879  1.00  0.00    -0.545 OA
ENDBRANCH   1   7
BRANCH   6  10
ATOM     10  C   UNL     1     154.087 169.790 153.229  1.00  0.00     0.013 C 
ATOM     11  C   UNL     1     154.211 168.458 153.978  1.00  0.00     0.012 C 
ATOM     12  C   UNL     1     155.150 169.907 152.131  1.00  0.00     0.012 C 
ENDBRANCH   6  10
TORSDOF 2
ENDMDL
MODEL 9
REMARK VINA RESULT:    -5.652      2.055      3.074
REMARK INTER + INTRA:          -6.527
REMARK INTER:                  -6.324
REMARK INTRA:                  -0.203
REMARK UNBOUND:                -0.214
REMARK SMILES CC(C)c1ccc(C(=O)[O-])cc1
REMARK SMILES IDX 7 1 6 2 11 3 5 4 12 5 4 6 8 7 9 8 10 9 2 10 1 11 3 12
REMARK H PARENT
REMARK Flexibility Score: inf
ROOT
ATOM      1  C   UNL     1     150.264 170.732 152.113  1.00  0.00    -0.003 A 
ATOM      2  C   UNL     1     151.058 171.555 152.929  1.00  0.00     0.010 A 
ATOM      3  C   UNL     1     150.818 169.550 151.593  1.00  0.00     0.010 A 
ATOM      4  C   UNL     1     152.380 171.202 153.219  1.00  0.00     0.004 A 
ATOM      5  C   UNL     1     152.140 169.198 151.884  1.00  0.00     0.004 A 
ATOM      6  C   UNL     1     152.936 170.020 152.699  1.00  0.00    -0.045 A 
ENDROOT
BRANCH   1   7
ATOM      7  C   UNL     1     148.866 171.109 151.808  1.00  0.00     0.071 C 
ATOM      8  O   UNL     1     148.615 172.125 151.107  1.00  0.00    -0.545 OA
ATOM      9  O   UNL     1     147.809 170.344 152.289  1.00  0.00    -0.545 OA
ENDBRANCH   1   7
BRANCH   6  10
ATOM     10  C   UNL     1     154.368 169.625 153.006  1.00  0.00     0.013 C 
ATOM     11  C   UNL     1     154.421 168.519 154.066  1.00  0.00     0.012 C 
ATOM     12  C   UNL     1     155.112 169.206 151.734  1.00  0.00     0.012 C 
ENDBRANCH   6  10
TORSDOF 2
ENDMDL
