MODEL 1
REMARK VINA RESULT:    -3.011      0.000      0.000
REMARK INTER + INTRA:          -3.403
REMARK INTER:                  -3.363
REMARK INTRA:                  -0.040
REMARK UNBOUND:                -0.040
REMARK SMILES CCCC(=O)[O-]
REMARK SMILES IDX 3 1 4 2 5 3 6 4 2 5 1 6
REMARK H PARENT
REMARK Flexibility Score: inf
ROOT
ATOM      1  C   UNL     1      -3.910   3.938  32.669  1.00  0.00     0.052 C 
ENDROOT
BRANCH   1   2
ATOM      2  C   UNL     1      -4.485   4.040  34.049  1.00  0.00     0.041 C 
ATOM      3  O   UNL     1      -4.863   3.006  34.658  1.00  0.00    -0.550 OA
ATOM      4  O   UNL     1      -4.571   5.278  34.675  1.00  0.00    -0.550 OA
ENDBRANCH   1   2
BRANCH   1   5
ATOM      5  C   UNL     1      -4.963   4.230  31.593  1.00  0.00     0.003 C 
ATOM      6  C   UNL     1      -4.901   5.674  31.096  1.00  0.00     0.004 C 
ENDBRANCH   1   5
TORSDOF 2
ENDMDL
MODEL 2
REMARK VINA RESULT:    -2.998      2.054      3.019
REMARK INTER + INTRA:          -3.388
REMARK INTER:                  -3.329
REMARK INTRA:                  -0.060
REMARK UNBOUND:                -0.040
REMARK SMILES CCCC(=O)[O-]
REMARK SMILES IDX 3 1 4 2 5 3 6 4 2 5 1 6
REMARK H PARENT
REMARK Flexibility Score: inf
ROOT
ATOM      1  C   UNL     1      -3.892   4.043  32.540  1.00  0.00     0.052 C 
ENDROOT
BRANCH   1   2
ATOM      2  C   UNL     1      -5.025   4.687  31.801  1.00  0.00     0.041 C 
ATOM      3  O   UNL     1      -5.721   4.015  30.996  1.00  0.00    -0.550 OA
ATOM      4  O   UNL     1      -5.332   6.023  32.028  1.00  0.00    -0.550 OA
ENDBRANCH   1   2
BRANCH   1   5
ATOM      5  C   UNL     1      -4.034   4.216  34.058  1.00  0.00     0.003 C 
ATOM      6  C   UNL     1      -5.050   3.245  34.661  1.00  0.00     0.004 C 
ENDBRANCH   1   5
TORSDOF 2
ENDMDL
MODEL 3
REMARK VINA RESULT:    -2.998     13.200     13.752
REMARK INTER + INTRA:          -3.388
REMARK INTER:                  -3.375
REMARK INTRA:                  -0.013
REMARK UNBOUND:                -0.040
REMARK SMILES CCCC(=O)[O-]
REMARK SMILES IDX 3 1 4 2 5 3 6 4 2 5 1 6
REMARK H PARENT
REMARK Flexibility Score: inf
ROOT
ATOM      1  C   UNL     1     -16.977  -1.027  32.402  1.00  0.00     0.052 C 
ENDROOT
BRANCH   1   2
ATOM      2  C   UNL     1     -17.405  -2.418  32.753  1.00  0.00     0.041 C 
ATOM      3  O   UNL     1     -18.389  -2.945  32.172  1.00  0.00    -0.550 OA
ATOM      4  O   UNL     1     -16.695  -3.146  33.700  1.00  0.00    -0.550 OA
ENDBRANCH   1   2
BRANCH   1   5
ATOM      5  C   UNL     1     -16.126  -0.999  31.126  1.00  0.00     0.003 C 
ATOM      6  C   UNL     1     -14.789  -0.287  31.333  1.00  0.00     0.004 C 
ENDBRANCH   1   5
TORSDOF 2
ENDMDL
MODEL 4
REMARK VINA RESULT:    -2.984     14.368     14.905
REMARK INTER + INTRA:          -3.372
REMARK INTER:                  -3.327
REMARK INTRA:                  -0.046
REMARK UNBOUND:                -0.040
REMARK SMILES CCCC(=O)[O-]
REMARK SMILES IDX 3 1 4 2 5 3 6 4 2 5 1 6
REMARK H PARENT
REMARK Flexibility Score: inf
ROOT
ATOM      1  C   UNL     1     -16.788  -1.351  31.005  1.00  0.00     0.052 C 
ENDROOT
BRANCH   1   2
ATOM      2  C   UNL     1     -18.005  -1.337  30.132  1.00  0.00     0.041 C 
ATOM      3  O   UNL     1     -18.979  -0.590  30.412  1.00  0.00    -0.550 OA
ATOM      4  O   UNL     1     -18.049  -2.125  28.988  1.00  0.00    -0.550 OA
ENDBRANCH   1   2
BRANCH   1   5
ATOM      5  C   UNL     1     -17.154  -1.225  32.490  1.00  0.00     0.003 C 
ATOM      6  C   UNL     1     -17.512  -2.573  33.117  1.00  0.00     0.004 C 
ENDBRANCH   1   5
TORSDOF 2
ENDMDL
MODEL 5
REMARK VINA RESULT:    -2.971      2.460      3.607
REMARK INTER + INTRA:          -3.358
REMARK INTER:                  -3.324
REMARK INTRA:                  -0.035
REMARK UNBOUND:                -0.040
REMARK SMILES CCCC(=O)[O-]
REMARK SMILES IDX 3 1 4 2 5 3 6 4 2 5 1 6
REMARK H PARENT
REMARK Flexibility Score: inf
ROOT
ATOM      1  C   UNL     1      -4.697   5.948  30.842  1.00  0.00     0.052 C 
ENDROOT
BRANCH   1   2
ATOM      2  C   UNL     1      -5.358   7.111  31.514  1.00  0.00     0.041 C 
ATOM      3  O   UNL     1      -4.987   7.478  32.660  1.00  0.00    -0.550 OA
ATOM      4  O   UNL     1      -6.364   7.812  30.860  1.00  0.00    -0.550 OA
ENDBRANCH   1   2
BRANCH   1   5
ATOM      5  C   UNL     1      -5.120   4.614  31.471  1.00  0.00     0.003 C 
ATOM      6  C   UNL     1      -4.071   4.069  32.440  1.00  0.00     0.004 C 
ENDBRANCH   1   5
TORSDOF 2
ENDMDL
MODEL 6
REMARK VINA RESULT:    -2.923      2.224      3.346
REMARK INTER + INTRA:          -3.305
REMARK INTER:                  -3.278
REMARK INTRA:                  -0.026
REMARK UNBOUND:                -0.040
REMARK SMILES CCCC(=O)[O-]
REMARK SMILES IDX 3 1 4 2 5 3 6 4 2 5 1 6
REMARK H PARENT
REMARK Flexibility Score: inf
ROOT
ATOM      1  C   UNL     1      -5.040   4.431  31.920  1.00  0.00     0.052 C 
ENDROOT
BRANCH   1   2
ATOM      2  C   UNL     1      -4.989   5.866  31.493  1.00  0.00     0.041 C 
ATOM      3  O   UNL     1      -4.625   6.169  30.327  1.00  0.00    -0.550 OA
ATOM      4  O   UNL     1      -5.375   6.867  32.376  1.00  0.00    -0.550 OA
ENDBRANCH   1   2
BRANCH   1   5
ATOM      5  C   UNL     1      -3.995   4.122  32.999  1.00  0.00     0.003 C 
ATOM      6  C   UNL     1      -4.617   3.500  34.250  1.00  0.00     0.004 C 
ENDBRANCH   1   5
TORSDOF 2
ENDMDL
MODEL 7
REMARK VINA RESULT:    -2.917     10.313     11.214
REMARK INTER + INTRA:          -3.298
REMARK INTER:                  -3.273
REMARK INTRA:                  -0.025
REMARK UNBOUND:                -0.040
REMARK SMILES CCCC(=O)[O-]
REMARK SMILES IDX 3 1 4 2 5 3 6 4 2 5 1 6
REMARK H PARENT
REMARK Flexibility Score: inf
ROOT
ATOM      1  C   UNL     1      -6.724   9.728  24.365  1.00  0.00     0.052 C 
ENDROOT
BRANCH   1   2
ATOM      2  C   UNL     1      -8.036   9.006  24.322  1.00  0.00     0.041 C 
ATOM      3  O   UNL     1      -8.620   8.687  25.390  1.00  0.00    -0.550 OA
ATOM      4  O   UNL     1      -8.629   8.716  23.099  1.00  0.00    -0.550 OA
ENDBRANCH   1   2
BRANCH   1   5
ATOM      5  C   UNL     1      -6.473  10.526  23.079  1.00  0.00     0.003 C 
ATOM      6  C   UNL     1      -6.470  12.035  23.323  1.00  0.00     0.004 C 
ENDBRANCH   1   5
TORSDOF 2
ENDMDL
MODEL 8
REMARK VINA RESULT:    -2.893     13.629     14.147
REMARK INTER + INTRA:          -3.271
REMARK INTER:                  -3.200
REMARK INTRA:                  -0.070
REMARK UNBOUND:                -0.040
REMARK SMILES CCCC(=O)[O-]
REMARK SMILES IDX 3 1 4 2 5 3 6 4 2 5 1 6
REMARK H PARENT
REMARK Flexibility Score: inf
ROOT
ATOM      1  C   UNL     1     -16.819  -2.730  30.953  1.00  0.00     0.052 C 
ENDROOT
BRANCH   1   2
ATOM      2  C   UNL     1     -16.586  -1.430  31.660  1.00  0.00     0.041 C 
ATOM      3  O   UNL     1     -17.356  -1.063  32.585  1.00  0.00    -0.550 OA
ATOM      4  O   UNL     1     -15.495  -0.639  31.318  1.00  0.00    -0.550 OA
ENDBRANCH   1   2
BRANCH   1   5
ATOM      5  C   UNL     1     -18.179  -2.753  30.243  1.00  0.00     0.003 C 
ATOM      6  C   UNL     1     -18.309  -1.644  29.198  1.00  0.00     0.004 C 
ENDBRANCH   1   5
TORSDOF 2
ENDMDL
MODEL 9
REMARK VINA RESULT:    -2.854     16.519     17.131
REMARK INTER + INTRA:          -3.227
REMARK INTER:                  -3.165
REMARK INTRA:                  -0.063
REMARK UNBOUND:                -0.040
REMARK SMILES CCCC(=O)[O-]
REMARK SMILES IDX 3 1 4 2 5 3 6 4 2 5 1 6
REMARK H PARENT
REMARK Flexibility Score: inf
ROOT
ATOM      1  C   UNL     1     -19.828   1.616  27.882  1.00  0.00     0.052 C 
ENDROOT
BRANCH   1   2
ATOM      2  C   UNL     1     -20.967   0.891  27.234  1.00  0.00     0.041 C 
ATOM      3  O   UNL     1     -22.085   0.822  27.808  1.00  0.00    -0.550 OA
ATOM      4  O   UNL     1     -20.801   0.319  25.978  1.00  0.00    -0.550 OA
ENDBRANCH   1   2
BRANCH   1   5
ATOM      5  C   UNL     1     -18.516   0.828  27.771  1.00  0.00     0.003 C 
ATOM      6  C   UNL     1     -18.531  -0.446  28.616  1.00  0.00     0.004 C 
ENDBRANCH   1   5
TORSDOF 2
ENDMDL
