MODEL 1
REMARK VINA RESULT:    -5.313      0.000      0.000
REMARK INTER + INTRA:          -7.803
REMARK INTER:                  -8.108
REMARK INTRA:                   0.306
REMARK UNBOUND:                 0.306
REMARK SMILES CC1=CCC[C@@H](C)C(=O)C[C@@H](C(C)C)C(=O)C1
REMARK SMILES IDX 8 1 9 2 6 3 7 4 5 5 4 6 3 7 2 8 1 9 10 11 11 12 15 13 16 14
REMARK SMILES IDX 17 15 12 17 13 18 14 19
REMARK H PARENT
REMARK Flexibility Score: 70.00
ROOT
ATOM      1  C   UNL     1     -14.006 -32.790  30.552  1.00  0.00     0.136 C 
ATOM      2  O   UNL     1     -14.739 -31.811  30.523  1.00  0.00    -0.299 OA
ENDROOT
BRANCH   1   3
ATOM      3  C   UNL     1     -13.827 -33.565  31.847  1.00  0.00     0.053 C 
ATOM      4  C   UNL     1     -14.880 -33.143  32.883  1.00  0.00     0.016 C 
BRANCH   3   5
ATOM      5  C   UNL     1     -12.396 -33.378  32.407  1.00  0.00     0.015 C 
BRANCH   5   6
ATOM      6  C   UNL     1     -11.380 -34.343  31.763  1.00  0.00     0.028 C 
BRANCH   6   7
ATOM      7  C   UNL     1     -11.893 -35.761  31.763  1.00  0.00    -0.028 C 
ATOM      8  C   UNL     1     -12.225 -36.460  30.651  1.00  0.00    -0.070 CG0
ATOM      9  C   UNL     1     -12.674 -37.889  30.821  1.00  0.00     0.039 C 
ATOM     10  G   UNL     1     -12.162 -35.867  29.250  1.00  0.00     0.000 G0
ENDBRANCH   6   7
ENDBRANCH   5   6
ENDBRANCH   3   5
ENDBRANCH   1   3
BRANCH   1  11
ATOM     11  C   UNL     1     -13.271 -33.197  29.295  1.00  0.00     0.087 C 
BRANCH  11  12
ATOM     12  C   UNL     1     -14.042 -34.217  28.409  1.00  0.00     0.066 C 
BRANCH  12  13
ATOM     13  C   UNL     1     -13.515 -35.628  28.638  1.00  0.00     0.140 C 
ATOM     14  O   UNL     1     -14.227 -36.591  28.385  1.00  0.00    -0.299 OA
BRANCH  13  15
ATOM     15  C   UNL     1     -12.149 -35.852  29.237  1.00  0.00     0.106 CG0
ATOM     16  G   UNL     1     -12.225 -36.441  30.638  1.00  0.00     0.000 G0
ENDBRANCH  13  15
ENDBRANCH  12  13
BRANCH  12  17
ATOM     17  C   UNL     1     -14.076 -33.861  26.884  1.00  0.00    -0.006 C 
ATOM     18  C   UNL     1     -14.682 -32.462  26.662  1.00  0.00     0.008 C 
ATOM     19  C   UNL     1     -12.682 -33.906  26.232  1.00  0.00     0.008 C 
ENDBRANCH  12  17
ENDBRANCH  11  12
ENDBRANCH   1  11
TORSDOF 1
ENDMDL
MODEL 2
REMARK VINA RESULT:    -5.258      1.887      4.763
REMARK INTER + INTRA:          -7.719
REMARK INTER:                  -7.468
REMARK INTRA:                  -0.251
REMARK UNBOUND:                 0.306
REMARK SMILES CC1=CCC[C@@H](C)C(=O)C[C@@H](C(C)C)C(=O)C1
REMARK SMILES IDX 8 1 9 2 6 3 7 4 5 5 4 6 3 7 2 8 1 9 10 11 11 12 15 13 16 14
REMARK SMILES IDX 17 15 12 17 13 18 14 19
REMARK H PARENT
REMARK Flexibility Score: 70.00
ROOT
ATOM      1  C   UNL     1     -11.970 -35.062  31.170  1.00  0.00     0.136 C 
ATOM      2  O   UNL     1     -10.810 -35.413  31.337  1.00  0.00    -0.299 OA
ENDROOT
BRANCH   1   3
ATOM      3  C   UNL     1     -13.006 -36.068  30.692  1.00  0.00     0.053 C 
ATOM      4  C   UNL     1     -12.971 -37.337  31.558  1.00  0.00     0.016 C 
BRANCH   3   5
ATOM      5  C   UNL     1     -12.788 -36.413  29.199  1.00  0.00     0.015 C 
BRANCH   5   6
ATOM      6  C   UNL     1     -12.210 -35.228  28.398  1.00  0.00     0.028 C 
BRANCH   6   7
ATOM      7  C   UNL     1     -13.275 -34.548  27.576  1.00  0.00    -0.028 C 
ATOM      8  C   UNL     1     -13.717 -33.283  27.780  1.00  0.00    -0.070 CG0
ATOM      9  C   UNL     1     -14.754 -32.735  26.833  1.00  0.00     0.039 C 
ATOM     10  G   UNL     1     -13.212 -32.403  28.914  1.00  0.00     0.000 G0
ENDBRANCH   6   7
ENDBRANCH   5   6
ENDBRANCH   3   5
ENDBRANCH   1   3
BRANCH   1  11
ATOM     11  C   UNL     1     -12.347 -33.620  31.424  1.00  0.00     0.087 C 
BRANCH  11  12
ATOM     12  C   UNL     1     -13.868 -33.325  31.282  1.00  0.00     0.066 C 
BRANCH  12  13
ATOM     13  C   UNL     1     -14.121 -32.380  30.114  1.00  0.00     0.140 C 
ATOM     14  O   UNL     1     -15.101 -31.648  30.126  1.00  0.00    -0.299 OA
BRANCH  13  15
ATOM     15  C   UNL     1     -13.212 -32.383  28.910  1.00  0.00     0.106 CG0
ATOM     16  G   UNL     1     -13.729 -33.289  27.801  1.00  0.00     0.000 G0
ENDBRANCH  13  15
ENDBRANCH  12  13
BRANCH  12  17
ATOM     17  C   UNL     1     -14.558 -32.811  32.591  1.00  0.00    -0.006 C 
ATOM     18  C   UNL     1     -15.475 -33.895  33.187  1.00  0.00     0.008 C 
ATOM     19  C   UNL     1     -13.544 -32.375  33.666  1.00  0.00     0.008 C 
ENDBRANCH  12  17
ENDBRANCH  11  12
ENDBRANCH   1  11
TORSDOF 1
ENDMDL
MODEL 3
REMARK VINA RESULT:    -5.014      2.015      3.567
REMARK INTER + INTRA:          -7.347
REMARK INTER:                  -7.698
REMARK INTRA:                   0.352
REMARK UNBOUND:                 0.306
REMARK SMILES CC1=CCC[C@@H](C)C(=O)C[C@@H](C(C)C)C(=O)C1
REMARK SMILES IDX 8 1 9 2 6 3 7 4 5 5 4 6 3 7 2 8 1 9 10 11 11 12 15 13 16 14
REMARK SMILES IDX 17 15 12 17 13 18 14 19
REMARK H PARENT
REMARK Flexibility Score: 70.00
ROOT
ATOM      1  C   UNL     1     -13.362 -36.471  29.250  1.00  0.00     0.136 C 
ATOM      2  O   UNL     1     -13.730 -37.488  28.677  1.00  0.00    -0.299 OA
ENDROOT
BRANCH   1   3
ATOM      3  C   UNL     1     -12.932 -36.536  30.707  1.00  0.00     0.053 C 
ATOM      4  C   UNL     1     -12.754 -37.994  31.158  1.00  0.00     0.016 C 
BRANCH   3   5
ATOM      5  C   UNL     1     -13.949 -35.800  31.613  1.00  0.00     0.015 C 
BRANCH   5   6
ATOM      6  C   UNL     1     -13.687 -34.281  31.682  1.00  0.00     0.028 C 
BRANCH   6   7
ATOM      7  C   UNL     1     -12.278 -33.987  32.130  1.00  0.00    -0.028 C 
ATOM      8  C   UNL     1     -11.317 -33.442  31.344  1.00  0.00    -0.070 CG0
ATOM      9  C   UNL     1      -9.971 -33.164  31.964  1.00  0.00     0.039 C 
ATOM     10  G   UNL     1     -11.541 -33.103  29.878  1.00  0.00     0.000 G0
ENDBRANCH   6   7
ENDBRANCH   5   6
ENDBRANCH   3   5
ENDBRANCH   1   3
BRANCH   1  11
ATOM     11  C   UNL     1     -13.363 -35.160  28.498  1.00  0.00     0.087 C 
BRANCH  11  12
ATOM     12  C   UNL     1     -11.989 -34.783  27.872  1.00  0.00     0.066 C 
BRANCH  12  13
ATOM     13  C   UNL     1     -11.060 -34.209  28.934  1.00  0.00     0.140 C 
ATOM     14  O   UNL     1      -9.937 -34.674  29.074  1.00  0.00    -0.299 OA
BRANCH  13  15
ATOM     15  C   UNL     1     -11.530 -33.114  29.858  1.00  0.00     0.106 CG0
ATOM     16  G   UNL     1     -11.284 -33.452  31.322  1.00  0.00     0.000 G0
ENDBRANCH  13  15
ENDBRANCH  12  13
BRANCH  12  17
ATOM     17  C   UNL     1     -12.078 -33.845  26.622  1.00  0.00    -0.006 C 
ATOM     18  C   UNL     1     -11.409 -34.500  25.398  1.00  0.00     0.008 C 
ATOM     19  C   UNL     1     -13.528 -33.479  26.255  1.00  0.00     0.008 C 
ENDBRANCH  12  17
ENDBRANCH  11  12
ENDBRANCH   1  11
TORSDOF 1
ENDMDL
MODEL 4
REMARK VINA RESULT:    -4.992      2.050      4.567
REMARK INTER + INTRA:          -7.312
REMARK INTER:                  -7.642
REMARK INTRA:                   0.330
REMARK UNBOUND:                 0.306
REMARK SMILES CC1=CCC[C@@H](C)C(=O)C[C@@H](C(C)C)C(=O)C1
REMARK SMILES IDX 8 1 9 2 6 3 7 4 5 5 4 6 3 7 2 8 1 9 10 11 11 12 15 13 16 14
REMARK SMILES IDX 17 15 12 17 13 18 14 19
REMARK H PARENT
REMARK Flexibility Score: 70.00
ROOT
ATOM      1  C   UNL     1     -13.690 -36.563  30.580  1.00  0.00     0.136 C 
ATOM      2  O   UNL     1     -12.989 -37.533  30.838  1.00  0.00    -0.299 OA
ENDROOT
BRANCH   1   3
ATOM      3  C   UNL     1     -14.345 -36.444  29.213  1.00  0.00     0.053 C 
ATOM      4  C   UNL     1     -14.111 -37.716  28.385  1.00  0.00     0.016 C 
BRANCH   3   5
ATOM      5  C   UNL     1     -13.826 -35.194  28.463  1.00  0.00     0.015 C 
BRANCH   5   6
ATOM      6  C   UNL     1     -12.357 -35.343  28.014  1.00  0.00     0.028 C 
BRANCH   6   7
ATOM      7  C   UNL     1     -11.611 -34.038  28.132  1.00  0.00    -0.028 C 
ATOM      8  C   UNL     1     -10.894 -33.656  29.216  1.00  0.00    -0.070 CG0
ATOM      9  C   UNL     1     -10.164 -32.339  29.152  1.00  0.00     0.039 C 
ATOM     10  G   UNL     1     -10.795 -34.496  30.481  1.00  0.00     0.000 G0
ENDBRANCH   6   7
ENDBRANCH   5   6
ENDBRANCH   3   5
ENDBRANCH   1   3
BRANCH   1  11
ATOM     11  C   UNL     1     -13.873 -35.488  31.626  1.00  0.00     0.087 C 
BRANCH  11  12
ATOM     12  C   UNL     1     -13.266 -34.109  31.236  1.00  0.00     0.066 C 
BRANCH  12  13
ATOM     13  C   UNL     1     -11.773 -34.079  31.537  1.00  0.00     0.140 C 
ATOM     14  O   UNL     1     -11.382 -33.674  32.624  1.00  0.00    -0.299 OA
BRANCH  13  15
ATOM     15  C   UNL     1     -10.767 -34.481  30.489  1.00  0.00     0.106 CG0
ATOM     16  G   UNL     1     -10.900 -33.656  29.217  1.00  0.00     0.000 G0
ENDBRANCH  13  15
ENDBRANCH  12  13
BRANCH  12  17
ATOM     17  C   UNL     1     -14.000 -32.874  31.859  1.00  0.00    -0.006 C 
ATOM     18  C   UNL     1     -14.747 -32.077  30.772  1.00  0.00     0.008 C 
ATOM     19  C   UNL     1     -15.003 -33.270  32.958  1.00  0.00     0.008 C 
ENDBRANCH  12  17
ENDBRANCH  11  12
ENDBRANCH   1  11
TORSDOF 1
ENDMDL
MODEL 5
REMARK VINA RESULT:    -4.935      2.136      4.689
REMARK INTER + INTRA:          -7.226
REMARK INTER:                  -7.523
REMARK INTRA:                   0.297
REMARK UNBOUND:                 0.306
REMARK SMILES CC1=CCC[C@@H](C)C(=O)C[C@@H](C(C)C)C(=O)C1
REMARK SMILES IDX 8 1 9 2 6 3 7 4 5 5 4 6 3 7 2 8 1 9 10 11 11 12 15 13 16 14
REMARK SMILES IDX 17 15 12 17 13 18 14 19
REMARK H PARENT
REMARK Flexibility Score: 70.00
ROOT
ATOM      1  C   UNL     1     -11.685 -34.543  28.327  1.00  0.00     0.136 C 
ATOM      2  O   UNL     1     -10.657 -33.916  28.111  1.00  0.00    -0.299 OA
ENDROOT
BRANCH   1   3
ATOM      3  C   UNL     1     -12.840 -34.469  27.340  1.00  0.00     0.053 C 
ATOM      4  C   UNL     1     -12.334 -34.105  25.937  1.00  0.00     0.016 C 
BRANCH   3   5
ATOM      5  C   UNL     1     -13.909 -33.458  27.821  1.00  0.00     0.015 C 
BRANCH   5   6
ATOM      6  C   UNL     1     -13.313 -32.349  28.713  1.00  0.00     0.028 C 
BRANCH   6   7
ATOM      7  C   UNL     1     -14.246 -31.992  29.842  1.00  0.00    -0.028 C 
ATOM      8  C   UNL     1     -14.150 -32.477  31.103  1.00  0.00    -0.070 CG0
ATOM      9  C   UNL     1     -15.135 -31.978  32.130  1.00  0.00     0.039 C 
ATOM     10  G   UNL     1     -13.099 -33.496  31.521  1.00  0.00     0.000 G0
ENDBRANCH   6   7
ENDBRANCH   5   6
ENDBRANCH   3   5
ENDBRANCH   1   3
BRANCH   1  11
ATOM     11  C   UNL     1     -11.794 -35.366  29.591  1.00  0.00     0.087 C 
BRANCH  11  12
ATOM     12  C   UNL     1     -13.255 -35.674  30.026  1.00  0.00     0.066 C 
BRANCH  12  13
ATOM     13  C   UNL     1     -13.601 -34.921  31.304  1.00  0.00     0.140 C 
ATOM     14  O   UNL     1     -14.333 -35.441  32.136  1.00  0.00    -0.299 OA
BRANCH  13  15
ATOM     15  C   UNL     1     -13.105 -33.515  31.529  1.00  0.00     0.106 CG0
ATOM     16  G   UNL     1     -14.135 -32.470  31.124  1.00  0.00     0.000 G0
ENDBRANCH  13  15
ENDBRANCH  12  13
BRANCH  12  17
ATOM     17  C   UNL     1     -13.589 -37.199  30.153  1.00  0.00    -0.006 C 
ATOM     18  C   UNL     1     -13.754 -37.841  28.762  1.00  0.00     0.008 C 
ATOM     19  C   UNL     1     -12.516 -37.980  30.934  1.00  0.00     0.008 C 
ENDBRANCH  12  17
ENDBRANCH  11  12
ENDBRANCH   1  11
TORSDOF 1
ENDMDL
MODEL 6
REMARK VINA RESULT:    -4.891      2.015      2.850
REMARK INTER + INTRA:          -7.159
REMARK INTER:                  -7.449
REMARK INTRA:                   0.290
REMARK UNBOUND:                 0.306
REMARK SMILES CC1=CCC[C@@H](C)C(=O)C[C@@H](C(C)C)C(=O)C1
REMARK SMILES IDX 8 1 9 2 6 3 7 4 5 5 4 6 3 7 2 8 1 9 10 11 11 12 15 13 16 14
REMARK SMILES IDX 17 15 12 17 13 18 14 19
REMARK H PARENT
REMARK Flexibility Score: 70.00
ROOT
ATOM      1  C   UNL     1     -10.849 -33.776  29.772  1.00  0.00     0.136 C 
ATOM      2  O   UNL     1      -9.968 -34.501  29.330  1.00  0.00    -0.299 OA
ENDROOT
BRANCH   1   3
ATOM      3  C   UNL     1     -11.191 -33.815  31.253  1.00  0.00     0.053 C 
ATOM      4  C   UNL     1     -10.044 -33.232  32.092  1.00  0.00     0.016 C 
BRANCH   3   5
ATOM      5  C   UNL     1     -11.524 -35.259  31.702  1.00  0.00     0.015 C 
BRANCH   5   6
ATOM      6  C   UNL     1     -13.002 -35.626  31.457  1.00  0.00     0.028 C 
BRANCH   6   7
ATOM      7  C   UNL     1     -13.130 -36.759  30.469  1.00  0.00    -0.028 C 
ATOM      8  C   UNL     1     -13.742 -36.664  29.264  1.00  0.00    -0.070 CG0
ATOM      9  C   UNL     1     -13.738 -37.880  28.372  1.00  0.00     0.039 C 
ATOM     10  G   UNL     1     -14.427 -35.394  28.780  1.00  0.00     0.000 G0
ENDBRANCH   6   7
ENDBRANCH   5   6
ENDBRANCH   3   5
ENDBRANCH   1   3
BRANCH   1  11
ATOM     11  C   UNL     1     -11.597 -32.865  28.826  1.00  0.00     0.087 C 
BRANCH  11  12
ATOM     12  C   UNL     1     -13.134 -33.108  28.790  1.00  0.00     0.066 C 
BRANCH  12  13
ATOM     13  C   UNL     1     -13.448 -34.444  28.130  1.00  0.00     0.140 C 
ATOM     14  O   UNL     1     -12.944 -34.721  27.050  1.00  0.00    -0.299 OA
BRANCH  13  15
ATOM     15  C   UNL     1     -14.425 -35.404  28.761  1.00  0.00     0.106 CG0
ATOM     16  G   UNL     1     -13.749 -36.680  29.241  1.00  0.00     0.000 G0
ENDBRANCH  13  15
ENDBRANCH  12  13
BRANCH  12  17
ATOM     17  C   UNL     1     -13.962 -31.944  28.148  1.00  0.00    -0.006 C 
ATOM     18  C   UNL     1     -14.752 -32.446  26.924  1.00  0.00     0.008 C 
ATOM     19  C   UNL     1     -14.947 -31.297  29.140  1.00  0.00     0.008 C 
ENDBRANCH  12  17
ENDBRANCH  11  12
ENDBRANCH   1  11
TORSDOF 1
ENDMDL
MODEL 7
REMARK VINA RESULT:    -4.886      1.734      4.158
REMARK INTER + INTRA:          -7.151
REMARK INTER:                  -7.464
REMARK INTRA:                   0.313
REMARK UNBOUND:                 0.306
REMARK SMILES CC1=CCC[C@@H](C)C(=O)C[C@@H](C(C)C)C(=O)C1
REMARK SMILES IDX 8 1 9 2 6 3 7 4 5 5 4 6 3 7 2 8 1 9 10 11 11 12 15 13 16 14
REMARK SMILES IDX 17 15 12 17 13 18 14 19
REMARK H PARENT
REMARK Flexibility Score: 70.00
ROOT
ATOM      1  C   UNL     1     -12.834 -32.911  29.156  1.00  0.00     0.136 C 
ATOM      2  O   UNL     1     -11.644 -32.721  29.370  1.00  0.00    -0.299 OA
ENDROOT
BRANCH   1   3
ATOM      3  C   UNL     1     -13.324 -33.113  27.731  1.00  0.00     0.053 C 
ATOM      4  C   UNL     1     -14.725 -32.511  27.547  1.00  0.00     0.016 C 
BRANCH   3   5
ATOM      5  C   UNL     1     -13.316 -34.615  27.355  1.00  0.00     0.015 C 
BRANCH   5   6
ATOM      6  C   UNL     1     -14.230 -35.457  28.270  1.00  0.00     0.028 C 
BRANCH   6   7
ATOM      7  C   UNL     1     -13.485 -36.623  28.868  1.00  0.00    -0.028 C 
ATOM      8  C   UNL     1     -13.310 -36.826  30.196  1.00  0.00    -0.070 CG0
ATOM      9  C   UNL     1     -12.582 -38.072  30.631  1.00  0.00     0.039 C 
ATOM     10  G   UNL     1     -13.813 -35.856  31.256  1.00  0.00     0.000 G0
ENDBRANCH   6   7
ENDBRANCH   5   6
ENDBRANCH   3   5
ENDBRANCH   1   3
BRANCH   1  11
ATOM     11  C   UNL     1     -13.799 -32.921  30.319  1.00  0.00     0.087 C 
BRANCH  11  12
ATOM     12  C   UNL     1     -13.160 -33.342  31.674  1.00  0.00     0.066 C 
BRANCH  12  13
ATOM     13  C   UNL     1     -12.793 -34.821  31.653  1.00  0.00     0.140 C 
ATOM     14  O   UNL     1     -11.642 -35.164  31.890  1.00  0.00    -0.299 OA
BRANCH  13  15
ATOM     15  C   UNL     1     -13.817 -35.864  31.282  1.00  0.00     0.106 CG0
ATOM     16  G   UNL     1     -13.310 -36.808  30.201  1.00  0.00     0.000 G0
ENDBRANCH  13  15
ENDBRANCH  12  13
BRANCH  12  17
ATOM     17  C   UNL     1     -14.013 -32.983  32.937  1.00  0.00    -0.006 C 
ATOM     18  C   UNL     1     -13.140 -32.309  34.013  1.00  0.00     0.008 C 
ATOM     19  C   UNL     1     -15.198 -32.055  32.610  1.00  0.00     0.008 C 
ENDBRANCH  12  17
ENDBRANCH  11  12
ENDBRANCH   1  11
TORSDOF 1
ENDMDL
MODEL 8
REMARK VINA RESULT:    -4.694      1.368      1.983
REMARK INTER + INTRA:          -6.857
REMARK INTER:                  -6.897
REMARK INTRA:                   0.040
REMARK UNBOUND:                 0.306
REMARK SMILES CC1=CCC[C@@H](C)C(=O)C[C@@H](C(C)C)C(=O)C1
REMARK SMILES IDX 8 1 9 2 6 3 7 4 5 5 4 6 3 7 2 8 1 9 10 11 11 12 15 13 16 14
REMARK SMILES IDX 17 15 12 17 13 18 14 19
REMARK H PARENT
REMARK Flexibility Score: 70.00
ROOT
ATOM      1  C   UNL     1     -13.687 -32.781  30.900  1.00  0.00     0.136 C 
ATOM      2  O   UNL     1     -14.737 -32.153  30.926  1.00  0.00    -0.299 OA
ENDROOT
BRANCH   1   3
ATOM      3  C   UNL     1     -13.232 -33.549  32.131  1.00  0.00     0.053 C 
ATOM      4  C   UNL     1     -11.708 -33.746  32.116  1.00  0.00     0.016 C 
BRANCH   3   5
ATOM      5  C   UNL     1     -13.963 -34.909  32.231  1.00  0.00     0.015 C 
BRANCH   5   6
ATOM      6  C   UNL     1     -13.100 -36.082  31.722  1.00  0.00     0.028 C 
BRANCH   6   7
ATOM      7  C   UNL     1     -13.732 -36.751  30.528  1.00  0.00    -0.028 C 
ATOM      8  C   UNL     1     -13.266 -36.663  29.259  1.00  0.00    -0.070 CG0
ATOM      9  C   UNL     1     -13.988 -37.437  28.185  1.00  0.00     0.039 C 
ATOM     10  G   UNL     1     -12.055 -35.823  28.878  1.00  0.00     0.000 G0
ENDBRANCH   6   7
ENDBRANCH   5   6
ENDBRANCH   3   5
ENDBRANCH   1   3
BRANCH   1  11
ATOM     11  C   UNL     1     -12.850 -32.763  29.641  1.00  0.00     0.087 C 
BRANCH  11  12
ATOM     12  C   UNL     1     -13.428 -33.621  28.479  1.00  0.00     0.066 C 
BRANCH  12  13
ATOM     13  C   UNL     1     -12.401 -34.642  28.007  1.00  0.00     0.140 C 
ATOM     14  O   UNL     1     -11.896 -34.527  26.898  1.00  0.00    -0.299 OA
BRANCH  13  15
ATOM     15  C   UNL     1     -12.045 -35.830  28.865  1.00  0.00     0.106 CG0
ATOM     16  G   UNL     1     -13.268 -36.649  29.250  1.00  0.00     0.000 G0
ENDBRANCH  13  15
ENDBRANCH  12  13
BRANCH  12  17
ATOM     17  C   UNL     1     -14.003 -32.793  27.281  1.00  0.00    -0.006 C 
ATOM     18  C   UNL     1     -14.970 -33.647  26.440  1.00  0.00     0.008 C 
ATOM     19  C   UNL     1     -14.737 -31.518  27.736  1.00  0.00     0.008 C 
ENDBRANCH  12  17
ENDBRANCH  11  12
ENDBRANCH   1  11
TORSDOF 1
ENDMDL
MODEL 9
REMARK VINA RESULT:    -4.677      1.459      3.894
REMARK INTER + INTRA:          -6.833
REMARK INTER:                  -6.666
REMARK INTRA:                  -0.167
REMARK UNBOUND:                 0.306
REMARK SMILES CC1=CCC[C@@H](C)C(=O)C[C@@H](C(C)C)C(=O)C1
REMARK SMILES IDX 8 1 9 2 6 3 7 4 5 5 4 6 3 7 2 8 1 9 10 11 11 12 15 13 16 14
REMARK SMILES IDX 17 15 12 17 13 18 14 19
REMARK H PARENT
REMARK Flexibility Score: 70.00
ROOT
ATOM      1  C   UNL     1     -14.357 -32.400  30.446  1.00  0.00     0.136 C 
ATOM      2  O   UNL     1     -14.952 -31.498  31.021  1.00  0.00    -0.299 OA
ENDROOT
BRANCH   1   3
ATOM      3  C   UNL     1     -13.983 -32.248  28.980  1.00  0.00     0.053 C 
ATOM      4  C   UNL     1     -14.396 -30.865  28.454  1.00  0.00     0.016 C 
BRANCH   3   5
ATOM      5  C   UNL     1     -14.621 -33.375  28.131  1.00  0.00     0.015 C 
BRANCH   5   6
ATOM      6  C   UNL     1     -13.565 -34.292  27.480  1.00  0.00     0.028 C 
BRANCH   6   7
ATOM      7  C   UNL     1     -13.852 -35.746  27.762  1.00  0.00    -0.028 C 
ATOM      8  C   UNL     1     -13.168 -36.508  28.650  1.00  0.00    -0.070 CG0
ATOM      9  C   UNL     1     -13.617 -37.933  28.850  1.00  0.00     0.039 C 
ATOM     10  G   UNL     1     -11.979 -35.988  29.444  1.00  0.00     0.000 G0
ENDBRANCH   6   7
ENDBRANCH   5   6
ENDBRANCH   3   5
ENDBRANCH   1   3
BRANCH   1  11
ATOM     11  C   UNL     1     -14.023 -33.663  31.206  1.00  0.00     0.087 C 
BRANCH  11  12
ATOM     12  C   UNL     1     -12.518 -34.055  31.161  1.00  0.00     0.066 C 
BRANCH  12  13
ATOM     13  C   UNL     1     -12.361 -35.535  30.836  1.00  0.00     0.140 C 
ATOM     14  O   UNL     1     -12.501 -36.368  31.721  1.00  0.00    -0.299 OA
BRANCH  13  15
ATOM     15  C   UNL     1     -11.971 -35.983  29.450  1.00  0.00     0.106 CG0
ATOM     16  G   UNL     1     -13.161 -36.510  28.660  1.00  0.00     0.000 G0
ENDBRANCH  13  15
ENDBRANCH  12  13
BRANCH  12  17
ATOM     17  C   UNL     1     -11.703 -33.661  32.439  1.00  0.00    -0.006 C 
ATOM     18  C   UNL     1     -10.326 -33.086  32.055  1.00  0.00     0.008 C 
ATOM     19  C   UNL     1     -12.439 -32.635  33.321  1.00  0.00     0.008 C 
ENDBRANCH  12  17
ENDBRANCH  11  12
ENDBRANCH   1  11
TORSDOF 1
ENDMDL
