MODEL 1
REMARK VINA RESULT:    -5.770      0.000      0.000
REMARK INTER + INTRA:          -8.862
REMARK INTER:                  -8.469
REMARK INTRA:                  -0.393
REMARK UNBOUND:                -0.393
REMARK SMILES C=C1C=C[C@H](C(C)C)CCC(C)=CCC1
REMARK SMILES IDX 3 1 4 2 5 3 9 4 10 5 11 6 12 7 13 8 6 10 7 11 8 12 2 13 1 14
REMARK SMILES IDX 15 15 14 16
REMARK H PARENT
REMARK Flexibility Score: 70.00
ROOT
ATOM      1  C   UNL     1      -4.004 -17.771   8.476  1.00  0.00    -0.001 C 
ATOM      2  C   UNL     1      -3.408 -16.998   7.556  1.00  0.00    -0.023 C 
ENDROOT
BRANCH   2   3
ATOM      3  C   UNL     1      -3.325 -15.487   7.640  1.00  0.00     0.014 C 
BRANCH   3   4
ATOM      4  C   UNL     1      -1.849 -14.988   7.582  1.00  0.00     0.012 C 
BRANCH   4   5
ATOM      5  C   UNL     1      -1.095 -15.155   8.920  1.00  0.00     0.031 C 
BRANCH   5   6
ATOM      6  C   UNL     1      -1.848 -14.529  10.085  1.00  0.00    -0.077 C 
ATOM      7  C   UNL     1      -1.874 -13.026  10.201  1.00  0.00     0.039 C 
ATOM      8  C   UNL     1      -2.486 -15.247  11.041  1.00  0.00    -0.028 CG0
ATOM      9  G   UNL     1      -2.524 -16.753  11.128  1.00  0.00     0.000 G0
ENDBRANCH   5   6
ENDBRANCH   4   5
ENDBRANCH   3   4
BRANCH   3  10
ATOM     10  C   UNL     1      -4.226 -14.760   6.592  1.00  0.00    -0.010 C 
ATOM     11  C   UNL     1      -5.245 -15.676   5.880  1.00  0.00     0.008 C 
ATOM     12  C   UNL     1      -4.956 -13.562   7.220  1.00  0.00     0.008 C 
ENDBRANCH   3  10
ENDBRANCH   2   3
BRANCH   1  13
ATOM     13  C   UNL     1      -4.645 -17.276   9.714  1.00  0.00    -0.055 C 
ATOM     14  C   UNL     1      -5.744 -16.524   9.596  1.00  0.00     0.012 C 
BRANCH  13  15
ATOM     15  C   UNL     1      -3.936 -17.371  11.054  1.00  0.00     0.039 C 
BRANCH  15  16
ATOM     16  C   UNL     1      -2.522 -16.747  11.124  1.00  0.00     0.032 CG0
ATOM     17  G   UNL     1      -2.499 -15.240  11.043  1.00  0.00     0.000 G0
ENDBRANCH  15  16
ENDBRANCH  13  15
ENDBRANCH   1  13
TORSDOF 1
ENDMDL
MODEL 2
REMARK VINA RESULT:    -5.261      1.637      4.234
REMARK INTER + INTRA:          -8.114
REMARK INTER:                  -7.994
REMARK INTRA:                  -0.119
REMARK UNBOUND:                -0.393
REMARK SMILES C=C1C=C[C@H](C(C)C)CCC(C)=CCC1
REMARK SMILES IDX 3 1 4 2 5 3 9 4 10 5 11 6 12 7 13 8 6 10 7 11 8 12 2 13 1 14
REMARK SMILES IDX 15 15 14 16
REMARK H PARENT
REMARK Flexibility Score: 70.00
ROOT
ATOM      1  C   UNL     1      -2.284 -15.067   7.390  1.00  0.00    -0.001 C 
ATOM      2  C   UNL     1      -1.780 -15.152   8.630  1.00  0.00    -0.023 C 
ENDROOT
BRANCH   2   3
ATOM      3  C   UNL     1      -2.617 -15.109   9.892  1.00  0.00     0.014 C 
BRANCH   3   4
ATOM      4  C   UNL     1      -2.427 -16.394  10.754  1.00  0.00     0.012 C 
BRANCH   4   5
ATOM      5  C   UNL     1      -3.438 -17.511  10.414  1.00  0.00     0.031 C 
BRANCH   5   6
ATOM      6  C   UNL     1      -4.832 -16.962  10.144  1.00  0.00    -0.077 C 
ATOM      7  C   UNL     1      -5.672 -16.524  11.316  1.00  0.00     0.039 C 
ATOM      8  C   UNL     1      -5.373 -16.858   8.906  1.00  0.00    -0.028 CG0
ATOM      9  G   UNL     1      -4.713 -17.295   7.621  1.00  0.00     0.000 G0
ENDBRANCH   5   6
ENDBRANCH   4   5
ENDBRANCH   3   4
BRANCH   3  10
ATOM     10  C   UNL     1      -2.402 -13.809  10.732  1.00  0.00    -0.010 C 
ATOM     11  C   UNL     1      -2.349 -14.035  12.257  1.00  0.00     0.008 C 
ATOM     12  C   UNL     1      -1.143 -13.053  10.275  1.00  0.00     0.008 C 
ENDBRANCH   3  10
ENDBRANCH   2   3
BRANCH   1  13
ATOM     13  C   UNL     1      -3.722 -14.943   7.064  1.00  0.00    -0.055 C 
ATOM     14  C   UNL     1      -4.354 -13.823   7.429  1.00  0.00     0.012 C 
BRANCH  13  15
ATOM     15  C   UNL     1      -4.523 -16.142   6.591  1.00  0.00     0.039 C 
BRANCH  15  16
ATOM     16  C   UNL     1      -4.719 -17.282   7.619  1.00  0.00     0.032 CG0
ATOM     17  G   UNL     1      -5.376 -16.853   8.909  1.00  0.00     0.000 G0
ENDBRANCH  15  16
ENDBRANCH  13  15
ENDBRANCH   1  13
TORSDOF 1
ENDMDL
MODEL 3
REMARK VINA RESULT:    -4.669      1.718      4.177
REMARK INTER + INTRA:          -7.245
REMARK INTER:                  -7.114
REMARK INTRA:                  -0.131
REMARK UNBOUND:                -0.393
REMARK SMILES C=C1C=C[C@H](C(C)C)CCC(C)=CCC1
REMARK SMILES IDX 3 1 4 2 5 3 9 4 10 5 11 6 12 7 13 8 6 10 7 11 8 12 2 13 1 14
REMARK SMILES IDX 15 15 14 16
REMARK H PARENT
REMARK Flexibility Score: 70.00
ROOT
ATOM      1  C   UNL     1      -5.004 -16.513   9.845  1.00  0.00    -0.001 C 
ATOM      2  C   UNL     1      -4.490 -15.872  10.906  1.00  0.00    -0.023 C 
ENDROOT
BRANCH   2   3
ATOM      3  C   UNL     1      -3.019 -15.877  11.271  1.00  0.00     0.014 C 
BRANCH   3   4
ATOM      4  C   UNL     1      -2.388 -14.458  11.140  1.00  0.00     0.012 C 
BRANCH   4   5
ATOM      5  C   UNL     1      -2.374 -13.927   9.690  1.00  0.00     0.031 C 
BRANCH   5   6
ATOM      6  C   UNL     1      -1.472 -14.753   8.784  1.00  0.00    -0.077 C 
ATOM      7  C   UNL     1       0.005 -14.794   9.084  1.00  0.00     0.039 C 
ATOM      8  C   UNL     1      -1.916 -15.446   7.708  1.00  0.00    -0.028 CG0
ATOM      9  G   UNL     1      -3.343 -15.482   7.217  1.00  0.00     0.000 G0
ENDBRANCH   5   6
ENDBRANCH   4   5
ENDBRANCH   3   4
BRANCH   3  10
ATOM     10  C   UNL     1      -2.733 -16.515  12.668  1.00  0.00    -0.010 C 
ATOM     11  C   UNL     1      -1.608 -17.571  12.671  1.00  0.00     0.008 C 
ATOM     12  C   UNL     1      -2.434 -15.436  13.722  1.00  0.00     0.008 C 
ENDBRANCH   3  10
ENDBRANCH   2   3
BRANCH   1  13
ATOM     13  C   UNL     1      -4.221 -17.297   8.865  1.00  0.00    -0.055 C 
ATOM     14  C   UNL     1      -3.441 -18.280   9.327  1.00  0.00     0.012 C 
BRANCH  13  15
ATOM     15  C   UNL     1      -4.079 -16.834   7.427  1.00  0.00     0.039 C 
BRANCH  15  16
ATOM     16  C   UNL     1      -3.352 -15.485   7.211  1.00  0.00     0.032 CG0
ATOM     17  G   UNL     1      -1.927 -15.457   7.708  1.00  0.00     0.000 G0
ENDBRANCH  15  16
ENDBRANCH  13  15
ENDBRANCH   1  13
TORSDOF 1
ENDMDL
MODEL 4
REMARK VINA RESULT:    -4.646      1.785      4.801
REMARK INTER + INTRA:          -7.212
REMARK INTER:                  -7.969
REMARK INTRA:                   0.757
REMARK UNBOUND:                -0.393
REMARK SMILES C=C1C=C[C@H](C(C)C)CCC(C)=CCC1
REMARK SMILES IDX 3 1 4 2 5 3 9 4 10 5 11 6 12 7 13 8 6 10 7 11 8 12 2 13 1 14
REMARK SMILES IDX 15 15 14 16
REMARK H PARENT
REMARK Flexibility Score: 70.00
ROOT
ATOM      1  C   UNL     1      -1.711 -13.887   9.421  1.00  0.00    -0.001 C 
ATOM      2  C   UNL     1      -2.087 -14.040  10.699  1.00  0.00    -0.023 C 
ENDROOT
BRANCH   2   3
ATOM      3  C   UNL     1      -2.845 -15.243  11.224  1.00  0.00     0.014 C 
BRANCH   3   4
ATOM      4  C   UNL     1      -2.260 -16.578  10.672  1.00  0.00     0.012 C 
BRANCH   4   5
ATOM      5  C   UNL     1      -3.342 -17.547  10.146  1.00  0.00     0.031 C 
BRANCH   5   6
ATOM      6  C   UNL     1      -4.674 -16.848   9.913  1.00  0.00    -0.077 C 
ATOM      7  C   UNL     1      -5.708 -16.886  11.009  1.00  0.00     0.039 C 
ATOM      8  C   UNL     1      -4.994 -16.202   8.766  1.00  0.00    -0.028 CG0
ATOM      9  G   UNL     1      -4.119 -16.104   7.541  1.00  0.00     0.000 G0
ENDBRANCH   5   6
ENDBRANCH   4   5
ENDBRANCH   3   4
BRANCH   3  10
ATOM     10  C   UNL     1      -2.969 -15.262  12.781  1.00  0.00    -0.010 C 
ATOM     11  C   UNL     1      -2.131 -16.356  13.476  1.00  0.00     0.008 C 
ATOM     12  C   UNL     1      -2.632 -13.889  13.385  1.00  0.00     0.008 C 
ENDBRANCH   3  10
ENDBRANCH   2   3
BRANCH   1  13
ATOM     13  C   UNL     1      -1.956 -14.867   8.340  1.00  0.00    -0.055 C 
ATOM     14  C   UNL     1      -0.934 -15.633   7.943  1.00  0.00     0.012 C 
BRANCH  13  15
ATOM     15  C   UNL     1      -3.229 -14.820   7.515  1.00  0.00     0.039 C 
BRANCH  15  16
ATOM     16  C   UNL     1      -4.113 -16.089   7.548  1.00  0.00     0.032 CG0
ATOM     17  G   UNL     1      -4.985 -16.212   8.773  1.00  0.00     0.000 G0
ENDBRANCH  15  16
ENDBRANCH  13  15
ENDBRANCH   1  13
TORSDOF 1
ENDMDL
MODEL 5
REMARK VINA RESULT:    -4.372      1.522      3.732
REMARK INTER + INTRA:          -6.810
REMARK INTER:                  -7.097
REMARK INTRA:                   0.288
REMARK UNBOUND:                -0.393
REMARK SMILES C=C1C=C[C@H](C(C)C)CCC(C)=CCC1
REMARK SMILES IDX 3 1 4 2 5 3 9 4 10 5 11 6 12 7 13 8 6 10 7 11 8 12 2 13 1 14
REMARK SMILES IDX 15 15 14 16
REMARK H PARENT
REMARK Flexibility Score: 70.00
ROOT
ATOM      1  C   UNL     1      -4.199 -13.927   7.299  1.00  0.00    -0.001 C 
ATOM      2  C   UNL     1      -3.156 -13.732   8.120  1.00  0.00    -0.023 C 
ENDROOT
BRANCH   2   3
ATOM      3  C   UNL     1      -2.536 -14.815   8.978  1.00  0.00     0.014 C 
BRANCH   3   4
ATOM      4  C   UNL     1      -2.012 -16.004   8.115  1.00  0.00     0.012 C 
BRANCH   4   5
ATOM      5  C   UNL     1      -2.292 -17.385   8.747  1.00  0.00     0.031 C 
BRANCH   5   6
ATOM      6  C   UNL     1      -3.175 -17.284   9.983  1.00  0.00    -0.077 C 
ATOM      7  C   UNL     1      -2.518 -17.292  11.339  1.00  0.00     0.039 C 
ATOM      8  C   UNL     1      -4.526 -17.202   9.937  1.00  0.00    -0.028 CG0
ATOM      9  G   UNL     1      -5.365 -17.236   8.682  1.00  0.00     0.000 G0
ENDBRANCH   5   6
ENDBRANCH   4   5
ENDBRANCH   3   4
BRANCH   3  10
ATOM     10  C   UNL     1      -1.441 -14.278   9.954  1.00  0.00    -0.010 C 
ATOM     11  C   UNL     1       0.009 -14.549   9.499  1.00  0.00     0.008 C 
ATOM     12  C   UNL     1      -1.626 -12.776  10.227  1.00  0.00     0.008 C 
ENDBRANCH   3  10
ENDBRANCH   2   3
BRANCH   1  13
ATOM     13  C   UNL     1      -4.884 -15.221   7.089  1.00  0.00    -0.055 C 
ATOM     14  C   UNL     1      -4.911 -15.724   5.850  1.00  0.00     0.012 C 
BRANCH  13  15
ATOM     15  C   UNL     1      -5.767 -15.824   8.167  1.00  0.00     0.039 C 
BRANCH  15  16
ATOM     16  C   UNL     1      -5.359 -17.225   8.681  1.00  0.00     0.032 CG0
ATOM     17  G   UNL     1      -4.535 -17.211   9.945  1.00  0.00     0.000 G0
ENDBRANCH  15  16
ENDBRANCH  13  15
ENDBRANCH   1  13
TORSDOF 1
ENDMDL
MODEL 6
REMARK VINA RESULT:    -4.291      1.534      3.768
REMARK INTER + INTRA:          -6.690
REMARK INTER:                  -7.482
REMARK INTRA:                   0.792
REMARK UNBOUND:                -0.393
REMARK SMILES C=C1C=C[C@H](C(C)C)CCC(C)=CCC1
REMARK SMILES IDX 3 1 4 2 5 3 9 4 10 5 11 6 12 7 13 8 6 10 7 11 8 12 2 13 1 14
REMARK SMILES IDX 15 15 14 16
REMARK H PARENT
REMARK Flexibility Score: 70.00
ROOT
ATOM      1  C   UNL     1      -4.035 -16.226  11.602  1.00  0.00    -0.001 C 
ATOM      2  C   UNL     1      -3.006 -15.385  11.421  1.00  0.00    -0.023 C 
ENDROOT
BRANCH   2   3
ATOM      3  C   UNL     1      -2.303 -15.173  10.096  1.00  0.00     0.014 C 
BRANCH   3   4
ATOM      4  C   UNL     1      -3.267 -14.586   9.020  1.00  0.00     0.012 C 
BRANCH   4   5
ATOM      5  C   UNL     1      -2.955 -15.078   7.589  1.00  0.00     0.031 C 
BRANCH   5   6
ATOM      6  C   UNL     1      -3.979 -16.090   7.094  1.00  0.00    -0.077 C 
ATOM      7  C   UNL     1      -4.988 -15.648   6.065  1.00  0.00     0.039 C 
ATOM      8  C   UNL     1      -4.048 -17.368   7.538  1.00  0.00    -0.028 CG0
ATOM      9  G   UNL     1      -3.167 -17.976   8.602  1.00  0.00     0.000 G0
ENDBRANCH   5   6
ENDBRANCH   4   5
ENDBRANCH   3   4
BRANCH   3  10
ATOM     10  C   UNL     1      -0.990 -14.335  10.220  1.00  0.00    -0.010 C 
ATOM     11  C   UNL     1       0.061 -14.628   9.129  1.00  0.00     0.008 C 
ATOM     12  C   UNL     1      -1.293 -12.828  10.257  1.00  0.00     0.008 C 
ENDBRANCH   3  10
ENDBRANCH   2   3
BRANCH   1  13
ATOM     13  C   UNL     1      -4.652 -17.052  10.541  1.00  0.00    -0.055 C 
ATOM     14  C   UNL     1      -5.955 -16.887  10.294  1.00  0.00     0.012 C 
BRANCH  13  15
ATOM     15  C   UNL     1      -3.916 -18.240   9.947  1.00  0.00     0.039 C 
BRANCH  15  16
ATOM     16  C   UNL     1      -3.186 -17.991   8.606  1.00  0.00     0.032 CG0
ATOM     17  G   UNL     1      -4.046 -17.369   7.533  1.00  0.00     0.000 G0
ENDBRANCH  15  16
ENDBRANCH  13  15
ENDBRANCH   1  13
TORSDOF 1
ENDMDL
MODEL 7
REMARK VINA RESULT:    -4.119      1.491      3.357
REMARK INTER + INTRA:          -6.439
REMARK INTER:                  -7.362
REMARK INTRA:                   0.923
REMARK UNBOUND:                -0.393
REMARK SMILES C=C1C=C[C@H](C(C)C)CCC(C)=CCC1
REMARK SMILES IDX 3 1 4 2 5 3 9 4 10 5 11 6 12 7 13 8 6 10 7 11 8 12 2 13 1 14
REMARK SMILES IDX 15 15 14 16
REMARK H PARENT
REMARK Flexibility Score: 70.00
ROOT
ATOM      1  C   UNL     1      -1.830 -15.342   8.054  1.00  0.00    -0.001 C 
ATOM      2  C   UNL     1      -1.843 -16.576   8.579  1.00  0.00    -0.023 C 
ENDROOT
BRANCH   2   3
ATOM      3  C   UNL     1      -2.926 -17.094   9.503  1.00  0.00     0.014 C 
BRANCH   3   4
ATOM      4  C   UNL     1      -3.323 -16.036  10.576  1.00  0.00     0.012 C 
BRANCH   4   5
ATOM      5  C   UNL     1      -2.265 -15.871  11.690  1.00  0.00     0.031 C 
BRANCH   5   6
ATOM      6  C   UNL     1      -2.297 -14.481  12.310  1.00  0.00    -0.077 C 
ATOM      7  C   UNL     1      -2.775 -14.339  13.733  1.00  0.00     0.039 C 
ATOM      8  C   UNL     1      -1.934 -13.355  11.651  1.00  0.00    -0.028 CG0
ATOM      9  G   UNL     1      -1.485 -13.287  10.212  1.00  0.00     0.000 G0
ENDBRANCH   5   6
ENDBRANCH   4   5
ENDBRANCH   3   4
BRANCH   3  10
ATOM     10  C   UNL     1      -4.174 -17.647   8.742  1.00  0.00    -0.010 C 
ATOM     11  C   UNL     1      -5.478 -16.864   9.000  1.00  0.00     0.008 C 
ATOM     12  C   UNL     1      -3.911 -17.733   7.230  1.00  0.00     0.008 C 
ENDBRANCH   3  10
ENDBRANCH   2   3
BRANCH   1  13
ATOM     13  C   UNL     1      -2.871 -14.314   8.275  1.00  0.00    -0.055 C 
ATOM     14  C   UNL     1      -3.945 -14.326   7.480  1.00  0.00     0.012 C 
BRANCH  13  15
ATOM     15  C   UNL     1      -2.610 -13.117   9.172  1.00  0.00     0.039 C 
BRANCH  15  16
ATOM     16  C   UNL     1      -1.472 -13.274  10.207  1.00  0.00     0.032 CG0
ATOM     17  G   UNL     1      -1.937 -13.359  11.641  1.00  0.00     0.000 G0
ENDBRANCH  15  16
ENDBRANCH  13  15
ENDBRANCH   1  13
TORSDOF 1
ENDMDL
MODEL 8
REMARK VINA RESULT:    -4.025      1.771      3.976
REMARK INTER + INTRA:          -6.300
REMARK INTER:                  -7.733
REMARK INTRA:                   1.433
REMARK UNBOUND:                -0.393
REMARK SMILES C=C1C=C[C@H](C(C)C)CCC(C)=CCC1
REMARK SMILES IDX 3 1 4 2 5 3 9 4 10 5 11 6 12 7 13 8 6 10 7 11 8 12 2 13 1 14
REMARK SMILES IDX 15 15 14 16
REMARK H PARENT
REMARK Flexibility Score: 70.00
ROOT
ATOM      1  C   UNL     1      -2.081 -17.031   8.803  1.00  0.00    -0.001 C 
ATOM      2  C   UNL     1      -1.622 -16.030   8.037  1.00  0.00    -0.023 C 
ENDROOT
BRANCH   2   3
ATOM      3  C   UNL     1      -2.049 -14.583   8.183  1.00  0.00     0.014 C 
BRANCH   3   4
ATOM      4  C   UNL     1      -3.549 -14.464   8.588  1.00  0.00     0.012 C 
BRANCH   4   5
ATOM      5  C   UNL     1      -4.487 -14.211   7.386  1.00  0.00     0.031 C 
BRANCH   5   6
ATOM      6  C   UNL     1      -5.121 -15.495   6.873  1.00  0.00    -0.077 C 
ATOM      7  C   UNL     1      -5.295 -15.667   5.385  1.00  0.00     0.039 C 
ATOM      8  C   UNL     1      -5.558 -16.493   7.678  1.00  0.00    -0.028 CG0
ATOM      9  G   UNL     1      -5.523 -16.481   9.187  1.00  0.00     0.000 G0
ENDBRANCH   5   6
ENDBRANCH   4   5
ENDBRANCH   3   4
BRANCH   3  10
ATOM     10  C   UNL     1      -1.122 -13.760   9.134  1.00  0.00    -0.010 C 
ATOM     11  C   UNL     1      -1.808 -13.268  10.426  1.00  0.00     0.008 C 
ATOM     12  C   UNL     1       0.151 -14.545   9.489  1.00  0.00     0.008 C 
ENDBRANCH   3  10
ENDBRANCH   2   3
BRANCH   1  13
ATOM     13  C   UNL     1      -3.048 -16.876   9.912  1.00  0.00    -0.055 C 
ATOM     14  C   UNL     1      -2.587 -16.457  11.094  1.00  0.00     0.012 C 
BRANCH  13  15
ATOM     15  C   UNL     1      -4.455 -17.437   9.806  1.00  0.00     0.039 C 
BRANCH  15  16
ATOM     16  C   UNL     1      -5.522 -16.497   9.196  1.00  0.00     0.032 CG0
ATOM     17  G   UNL     1      -5.560 -16.493   7.687  1.00  0.00     0.000 G0
ENDBRANCH  15  16
ENDBRANCH  13  15
ENDBRANCH   1  13
TORSDOF 1
ENDMDL
MODEL 9
REMARK VINA RESULT:    -4.018      1.028      3.416
REMARK INTER + INTRA:          -6.291
REMARK INTER:                  -6.249
REMARK INTRA:                  -0.042
REMARK UNBOUND:                -0.393
REMARK SMILES C=C1C=C[C@H](C(C)C)CCC(C)=CCC1
REMARK SMILES IDX 3 1 4 2 5 3 9 4 10 5 11 6 12 7 13 8 6 10 7 11 8 12 2 13 1 14
REMARK SMILES IDX 15 15 14 16
REMARK H PARENT
REMARK Flexibility Score: 70.00
ROOT
ATOM      1  C   UNL     1      -2.982 -13.480   8.838  1.00  0.00    -0.001 C 
ATOM      2  C   UNL     1      -3.981 -14.181   8.283  1.00  0.00    -0.023 C 
ENDROOT
BRANCH   2   3
ATOM      3  C   UNL     1      -4.067 -15.694   8.296  1.00  0.00     0.014 C 
BRANCH   3   4
ATOM      4  C   UNL     1      -5.367 -16.191   8.997  1.00  0.00     0.012 C 
BRANCH   4   5
ATOM      5  C   UNL     1      -5.165 -16.520  10.493  1.00  0.00     0.031 C 
BRANCH   5   6
ATOM      6  C   UNL     1      -3.799 -17.134  10.767  1.00  0.00    -0.077 C 
ATOM      7  C   UNL     1      -3.580 -18.585  10.422  1.00  0.00     0.039 C 
ATOM      8  C   UNL     1      -2.766 -16.455  11.321  1.00  0.00    -0.028 CG0
ATOM      9  G   UNL     1      -2.808 -15.019  11.784  1.00  0.00     0.000 G0
ENDBRANCH   5   6
ENDBRANCH   4   5
ENDBRANCH   3   4
BRANCH   3  10
ATOM     10  C   UNL     1      -3.889 -16.333   6.881  1.00  0.00    -0.010 C 
ATOM     11  C   UNL     1      -3.909 -17.876   6.870  1.00  0.00     0.008 C 
ATOM     12  C   UNL     1      -4.933 -15.793   5.890  1.00  0.00     0.008 C 
ENDBRANCH   3  10
ENDBRANCH   2   3
BRANCH   1  13
ATOM     13  C   UNL     1      -1.832 -14.067   9.561  1.00  0.00    -0.055 C 
ATOM     14  C   UNL     1      -0.957 -14.797   8.862  1.00  0.00     0.012 C 
BRANCH  13  15
ATOM     15  C   UNL     1      -1.789 -14.087  11.079  1.00  0.00     0.039 C 
BRANCH  15  16
ATOM     16  C   UNL     1      -2.804 -15.022  11.779  1.00  0.00     0.032 CG0
ATOM     17  G   UNL     1      -2.753 -16.457  11.315  1.00  0.00     0.000 G0
ENDBRANCH  15  16
ENDBRANCH  13  15
ENDBRANCH   1  13
TORSDOF 1
ENDMDL
