MODEL 1
REMARK VINA RESULT:    15.861      0.000      0.000
REMARK INTER + INTRA:          21.852
REMARK INTER:                  22.351
REMARK INTRA:                  -0.499
REMARK UNBOUND:                -0.499
REMARK SMILES O=C(C=Cc1ccc(O)cc1)CC(=O)C=Cc1ccc(O)cc1
REMARK SMILES IDX 12 1 2 2 1 3 3 4 4 5 5 6 6 7 7 8 8 9 11 10 10 11 9 12 13 14
REMARK SMILES IDX 14 15 15 16 16 17 17 18 18 19 23 20 19 21 22 22 20 23 21 24
REMARK H PARENT 9 13 21 25
REMARK Flexibility Score: inf
ROOT
ATOM      1  C   UNL     1       9.071   4.586  20.602  1.00  0.00     0.160 C 
ENDROOT
BRANCH   1   2
ATOM      2  C   UNL     1       8.459   3.965  21.821  1.00  0.00     0.163 C 
ATOM      3  O   UNL     1       7.995   4.711  22.727  1.00  0.00    -0.294 OA
BRANCH   2   4
ATOM      4  C   UNL     1       8.449   2.497  21.975  1.00  0.00     0.048 C 
ATOM      5  C   UNL     1       7.346   1.763  21.766  1.00  0.00     0.012 C 
BRANCH   5   6
ATOM      6  C   UNL     1       7.298   0.288  21.915  1.00  0.00    -0.025 A 
ATOM      7  C   UNL     1       7.488  -0.266  23.192  1.00  0.00     0.012 A 
ATOM      8  C   UNL     1       7.463  -1.651  23.378  1.00  0.00     0.047 A 
ATOM      9  C   UNL     1       7.261  -2.504  22.286  1.00  0.00     0.115 A 
ATOM     10  C   UNL     1       7.109  -0.579  20.818  1.00  0.00     0.012 A 
ATOM     11  C   UNL     1       7.088  -1.965  21.009  1.00  0.00     0.047 A 
BRANCH   9  12
ATOM     12  O   UNL     1       7.236  -3.886  22.459  1.00  0.00    -0.508 OA
ATOM     13  H   UNL     1       7.888  -4.354  23.077  1.00  0.00     0.293 HD
ENDBRANCH   9  12
ENDBRANCH   5   6
ENDBRANCH   2   4
ENDBRANCH   1   2
BRANCH   1  14
ATOM     14  C   UNL     1       8.106   5.550  19.978  1.00  0.00     0.163 C 
ATOM     15  O   UNL     1       6.876   5.268  19.963  1.00  0.00    -0.294 OA
BRANCH  14  16
ATOM     16  C   UNL     1       8.593   6.833  19.431  1.00  0.00     0.048 C 
ATOM     17  C   UNL     1       9.609   7.506  19.988  1.00  0.00     0.012 C 
BRANCH  17  18
ATOM     18  C   UNL     1      10.131   8.789  19.454  1.00  0.00    -0.025 A 
ATOM     19  C   UNL     1      11.396   9.230  19.880  1.00  0.00     0.012 A 
ATOM     20  C   UNL     1       9.390   9.598  18.569  1.00  0.00     0.012 A 
ATOM     21  C   UNL     1      11.921  10.440  19.414  1.00  0.00     0.047 A 
ATOM     22  C   UNL     1       9.919  10.808  18.107  1.00  0.00     0.047 A 
ATOM     23  C   UNL     1      11.186  11.231  18.527  1.00  0.00     0.115 A 
BRANCH  23  24
ATOM     24  O   UNL     1      11.721  12.434  18.074  1.00  0.00    -0.508 OA
ATOM     25  H   UNL     1      12.428  12.932  18.603  1.00  0.00     0.293 HD
ENDBRANCH  23  24
ENDBRANCH  17  18
ENDBRANCH  14  16
ENDBRANCH   1  14
TORSDOF 8
ENDMDL
MODEL 2
REMARK VINA RESULT:    15.927      0.434     10.646
REMARK INTER + INTRA:          21.946
REMARK INTER:                  22.412
REMARK INTRA:                  -0.466
REMARK UNBOUND:                -0.499
REMARK SMILES O=C(C=Cc1ccc(O)cc1)CC(=O)C=Cc1ccc(O)cc1
REMARK SMILES IDX 12 1 2 2 1 3 3 4 4 5 5 6 6 7 7 8 8 9 11 10 10 11 9 12 13 14
REMARK SMILES IDX 14 15 15 16 16 17 17 18 18 19 23 20 19 21 22 22 20 23 21 24
REMARK H PARENT 9 13 21 25
REMARK Flexibility Score: inf
ROOT
ATOM      1  C   UNL     1       9.014   4.759  20.811  1.00  0.00     0.160 C 
ENDROOT
BRANCH   1   2
ATOM      2  C   UNL     1       8.197   5.672  19.947  1.00  0.00     0.163 C 
ATOM      3  O   UNL     1       7.003   5.362  19.680  1.00  0.00    -0.294 OA
BRANCH   2   4
ATOM      4  C   UNL     1       8.805   6.891  19.378  1.00  0.00     0.048 C 
ATOM      5  C   UNL     1       9.598   7.697  20.098  1.00  0.00     0.012 C 
BRANCH   5   6
ATOM      6  C   UNL     1      10.223   8.931  19.562  1.00  0.00    -0.025 A 
ATOM      7  C   UNL     1       9.484   9.726  18.669  1.00  0.00     0.012 A 
ATOM      8  C   UNL     1      10.037  10.890  18.128  1.00  0.00     0.047 A 
ATOM      9  C   UNL     1      11.342  11.271  18.464  1.00  0.00     0.115 A 
ATOM     10  C   UNL     1      11.542   9.314  19.883  1.00  0.00     0.012 A 
ATOM     11  C   UNL     1      12.092  10.479  19.337  1.00  0.00     0.047 A 
BRANCH   9  12
ATOM     12  O   UNL     1      11.904  12.429  17.930  1.00  0.00    -0.508 OA
ATOM     13  H   UNL     1      12.822  12.423  17.502  1.00  0.00     0.293 HD
ENDBRANCH   9  12
ENDBRANCH   5   6
ENDBRANCH   2   4
ENDBRANCH   1   2
BRANCH   1  14
ATOM     14  C   UNL     1       8.117   3.965  21.711  1.00  0.00     0.163 C 
ATOM     15  O   UNL     1       7.548   4.541  22.679  1.00  0.00    -0.294 OA
BRANCH  14  16
ATOM     16  C   UNL     1       7.870   2.535  21.434  1.00  0.00     0.048 C 
ATOM     17  C   UNL     1       7.791   1.622  22.413  1.00  0.00     0.012 C 
BRANCH  17  18
ATOM     18  C   UNL     1       7.529   0.181  22.170  1.00  0.00    -0.025 A 
ATOM     19  C   UNL     1       7.762  -0.730  23.213  1.00  0.00     0.012 A 
ATOM     20  C   UNL     1       7.094  -0.308  20.921  1.00  0.00     0.012 A 
ATOM     21  C   UNL     1       7.544  -2.099  23.024  1.00  0.00     0.047 A 
ATOM     22  C   UNL     1       6.877  -1.678  20.736  1.00  0.00     0.047 A 
ATOM     23  C   UNL     1       7.101  -2.576  21.788  1.00  0.00     0.115 A 
BRANCH  23  24
ATOM     24  O   UNL     1       6.889  -3.942  21.613  1.00  0.00    -0.508 OA
ATOM     25  H   UNL     1       6.153  -4.290  21.010  1.00  0.00     0.293 HD
ENDBRANCH  23  24
ENDBRANCH  17  18
ENDBRANCH  14  16
ENDBRANCH   1  14
TORSDOF 8
ENDMDL
