MODEL 1
REMARK VINA RESULT:    -4.133      0.000      0.000
REMARK INTER + INTRA:          -5.081
REMARK INTER:                  -4.737
REMARK INTRA:                  -0.344
REMARK UNBOUND:                -0.344
REMARK SMILES COc1ccc(C(C)=O)c(O)c1
REMARK SMILES IDX 6 1 10 2 12 3 3 4 4 5 5 6 7 7 8 8 9 9 11 10 2 12 1 13
REMARK H PARENT 11 11
REMARK Flexibility Score: inf
ROOT
ATOM      1  C   UNL     1      26.768  39.846  20.394  1.00  0.00     0.059 A 
ATOM      2  C   UNL     1      25.748  38.906  20.674  1.00  0.00     0.130 A 
ATOM      3  C   UNL     1      26.051  37.536  20.715  1.00  0.00     0.093 A 
ATOM      4  C   UNL     1      27.357  37.081  20.465  1.00  0.00     0.122 A 
ATOM      5  C   UNL     1      28.357  38.011  20.171  1.00  0.00     0.047 A 
ATOM      6  C   UNL     1      28.067  39.377  20.132  1.00  0.00     0.019 A 
ENDROOT
BRANCH   1   7
ATOM      7  C   UNL     1      26.514  41.312  20.353  1.00  0.00     0.163 C 
ATOM      8  C   UNL     1      27.059  42.192  19.271  1.00  0.00     0.093 C 
ATOM      9  O   UNL     1      25.813  41.842  21.257  1.00  0.00    -0.294 OA
ENDBRANCH   1   7
BRANCH   2  10
ATOM     10  O   UNL     1      24.434  39.319  20.888  1.00  0.00    -0.507 OA
ATOM     11  H   UNL     1      24.208  40.276  21.135  1.00  0.00     0.293 HD
ENDBRANCH   2  10
BRANCH   4  12
ATOM     12  O   UNL     1      27.701  35.721  20.495  1.00  0.00    -0.497 OA
ATOM     13  C   UNL     1      28.869  35.172  19.892  1.00  0.00     0.278 C 
ENDBRANCH   4  12
TORSDOF 3
ENDMDL
MODEL 2
REMARK VINA RESULT:    -4.044      2.039      4.719
REMARK INTER + INTRA:          -4.979
REMARK INTER:                  -4.644
REMARK INTRA:                  -0.336
REMARK UNBOUND:                -0.344
REMARK SMILES COc1ccc(C(C)=O)c(O)c1
REMARK SMILES IDX 6 1 10 2 12 3 3 4 4 5 5 6 7 7 8 8 9 9 11 10 2 12 1 13
REMARK H PARENT 11 11
REMARK Flexibility Score: inf
ROOT
ATOM      1  C   UNL     1      27.239  39.987  19.748  1.00  0.00     0.059 A 
ATOM      2  C   UNL     1      26.092  40.321  20.505  1.00  0.00     0.130 A 
ATOM      3  C   UNL     1      26.080  41.491  21.281  1.00  0.00     0.093 A 
ATOM      4  C   UNL     1      27.205  42.332  21.329  1.00  0.00     0.122 A 
ATOM      5  C   UNL     1      28.343  41.989  20.595  1.00  0.00     0.047 A 
ATOM      6  C   UNL     1      28.363  40.830  19.816  1.00  0.00     0.019 A 
ENDROOT
BRANCH   1   7
ATOM      7  C   UNL     1      27.307  38.770  18.894  1.00  0.00     0.163 C 
ATOM      8  C   UNL     1      28.451  37.805  18.958  1.00  0.00     0.093 C 
ATOM      9  O   UNL     1      26.371  38.533  18.084  1.00  0.00    -0.294 OA
ENDBRANCH   1   7
BRANCH   2  10
ATOM     10  O   UNL     1      24.973  39.489  20.512  1.00  0.00    -0.507 OA
ATOM     11  H   UNL     1      24.943  38.637  21.059  1.00  0.00     0.293 HD
ENDBRANCH   2  10
BRANCH   4  12
ATOM     12  O   UNL     1      27.235  43.509  22.092  1.00  0.00    -0.497 OA
ATOM     13  C   UNL     1      27.195  43.548  23.514  1.00  0.00     0.278 C 
ENDBRANCH   4  12
TORSDOF 3
ENDMDL
MODEL 3
REMARK VINA RESULT:    -4.024      7.259      9.923
REMARK INTER + INTRA:          -4.957
REMARK INTER:                  -4.628
REMARK INTRA:                  -0.329
REMARK UNBOUND:                -0.344
REMARK SMILES COc1ccc(C(C)=O)c(O)c1
REMARK SMILES IDX 6 1 10 2 12 3 3 4 4 5 5 6 7 7 8 8 9 9 11 10 2 12 1 13
REMARK H PARENT 11 11
REMARK Flexibility Score: inf
ROOT
ATOM      1  C   UNL     1      28.593  31.099  24.063  1.00  0.00     0.059 A 
ATOM      2  C   UNL     1      28.888  30.819  25.418  1.00  0.00     0.130 A 
ATOM      3  C   UNL     1      28.923  29.490  25.867  1.00  0.00     0.093 A 
ATOM      4  C   UNL     1      28.651  28.427  24.988  1.00  0.00     0.122 A 
ATOM      5  C   UNL     1      28.341  28.709  23.655  1.00  0.00     0.047 A 
ATOM      6  C   UNL     1      28.309  30.027  23.197  1.00  0.00     0.019 A 
ENDROOT
BRANCH   1   7
ATOM      7  C   UNL     1      28.558  32.485  23.522  1.00  0.00     0.163 C 
ATOM      8  C   UNL     1      29.122  32.839  22.181  1.00  0.00     0.093 C 
ATOM      9  O   UNL     1      28.034  33.402  24.210  1.00  0.00    -0.294 OA
ENDBRANCH   1   7
BRANCH   2  10
ATOM     10  O   UNL     1      29.125  31.850  26.325  1.00  0.00    -0.507 OA
ATOM     11  H   UNL     1      28.378  32.264  26.871  1.00  0.00     0.293 HD
ENDBRANCH   2  10
BRANCH   4  12
ATOM     12  O   UNL     1      28.674  27.085  25.397  1.00  0.00    -0.497 OA
ATOM     13  C   UNL     1      27.518  26.329  25.742  1.00  0.00     0.278 C 
ENDBRANCH   4  12
TORSDOF 3
ENDMDL
MODEL 4
REMARK VINA RESULT:    -4.015      2.060      5.013
REMARK INTER + INTRA:          -4.946
REMARK INTER:                  -4.612
REMARK INTRA:                  -0.334
REMARK UNBOUND:                -0.344
REMARK SMILES COc1ccc(C(C)=O)c(O)c1
REMARK SMILES IDX 6 1 10 2 12 3 3 4 4 5 5 6 7 7 8 8 9 9 11 10 2 12 1 13
REMARK H PARENT 11 11
REMARK Flexibility Score: inf
ROOT
ATOM      1  C   UNL     1      26.190  39.192  20.209  1.00  0.00     0.059 A 
ATOM      2  C   UNL     1      26.870  39.551  19.021  1.00  0.00     0.130 A 
ATOM      3  C   UNL     1      27.230  40.888  18.796  1.00  0.00     0.093 A 
ATOM      4  C   UNL     1      26.907  41.887  19.732  1.00  0.00     0.122 A 
ATOM      5  C   UNL     1      26.219  41.531  20.894  1.00  0.00     0.047 A 
ATOM      6  C   UNL     1      25.861  40.202  21.130  1.00  0.00     0.019 A 
ENDROOT
BRANCH   1   7
ATOM      7  C   UNL     1      25.798  37.790  20.513  1.00  0.00     0.163 C 
ATOM      8  C   UNL     1      24.404  37.413  20.912  1.00  0.00     0.093 C 
ATOM      9  O   UNL     1      26.663  36.876  20.432  1.00  0.00    -0.294 OA
ENDBRANCH   1   7
BRANCH   2  10
ATOM     10  O   UNL     1      27.171  38.593  18.053  1.00  0.00    -0.507 OA
ATOM     11  H   UNL     1      26.728  37.682  18.047  1.00  0.00     0.293 HD
ENDBRANCH   2  10
BRANCH   4  12
ATOM     12  O   UNL     1      27.247  43.234  19.544  1.00  0.00    -0.497 OA
ATOM     13  C   UNL     1      26.561  44.124  18.669  1.00  0.00     0.278 C 
ENDBRANCH   4  12
TORSDOF 3
ENDMDL
MODEL 5
REMARK VINA RESULT:    -3.923      7.469     10.257
REMARK INTER + INTRA:          -4.840
REMARK INTER:                  -4.537
REMARK INTRA:                  -0.303
REMARK UNBOUND:                -0.344
REMARK SMILES COc1ccc(C(C)=O)c(O)c1
REMARK SMILES IDX 6 1 10 2 12 3 3 4 4 5 5 6 7 7 8 8 9 9 11 10 2 12 1 13
REMARK H PARENT 11 11
REMARK Flexibility Score: inf
ROOT
ATOM      1  C   UNL     1      28.782  30.871  24.083  1.00  0.00     0.059 A 
ATOM      2  C   UNL     1      28.837  29.593  23.476  1.00  0.00     0.130 A 
ATOM      3  C   UNL     1      28.933  28.442  24.273  1.00  0.00     0.093 A 
ATOM      4  C   UNL     1      28.993  28.541  25.674  1.00  0.00     0.122 A 
ATOM      5  C   UNL     1      28.957  29.805  26.269  1.00  0.00     0.047 A 
ATOM      6  C   UNL     1      28.857  30.956  25.485  1.00  0.00     0.019 A 
ENDROOT
BRANCH   1   7
ATOM      7  C   UNL     1      28.662  32.126  23.295  1.00  0.00     0.163 C 
ATOM      8  C   UNL     1      28.011  33.360  23.840  1.00  0.00     0.093 C 
ATOM      9  O   UNL     1      29.125  32.164  22.122  1.00  0.00    -0.294 OA
ENDBRANCH   1   7
BRANCH   2  10
ATOM     10  O   UNL     1      28.819  29.461  22.089  1.00  0.00    -0.507 OA
ATOM     11  H   UNL     1      29.653  29.595  21.528  1.00  0.00     0.293 HD
ENDBRANCH   2  10
BRANCH   4  12
ATOM     12  O   UNL     1      29.091  27.416  26.507  1.00  0.00    -0.497 OA
ATOM     13  C   UNL     1      28.853  26.078  26.082  1.00  0.00     0.278 C 
ENDBRANCH   4  12
TORSDOF 3
ENDMDL
MODEL 6
REMARK VINA RESULT:    -3.810      6.724     10.171
REMARK INTER + INTRA:          -4.711
REMARK INTER:                  -4.423
REMARK INTRA:                  -0.288
REMARK UNBOUND:                -0.344
REMARK SMILES COc1ccc(C(C)=O)c(O)c1
REMARK SMILES IDX 6 1 10 2 12 3 3 4 4 5 5 6 7 7 8 8 9 9 11 10 2 12 1 13
REMARK H PARENT 11 11
REMARK Flexibility Score: inf
ROOT
ATOM      1  C   UNL     1      28.841  30.241  25.062  1.00  0.00     0.059 A 
ATOM      2  C   UNL     1      28.977  29.723  23.753  1.00  0.00     0.130 A 
ATOM      3  C   UNL     1      29.078  30.597  22.660  1.00  0.00     0.093 A 
ATOM      4  C   UNL     1      29.029  31.990  22.847  1.00  0.00     0.122 A 
ATOM      5  C   UNL     1      28.876  32.497  24.140  1.00  0.00     0.047 A 
ATOM      6  C   UNL     1      28.780  31.636  25.234  1.00  0.00     0.019 A 
ENDROOT
BRANCH   1   7
ATOM      7  C   UNL     1      28.747  29.367  26.262  1.00  0.00     0.163 C 
ATOM      8  C   UNL     1      29.123  29.839  27.633  1.00  0.00     0.093 C 
ATOM      9  O   UNL     1      28.335  28.183  26.132  1.00  0.00    -0.294 OA
ENDBRANCH   1   7
BRANCH   2  10
ATOM     10  O   UNL     1      28.990  28.347  23.527  1.00  0.00    -0.507 OA
ATOM     11  H   UNL     1      29.314  27.952  22.652  1.00  0.00     0.293 HD
ENDBRANCH   2  10
BRANCH   4  12
ATOM     12  O   UNL     1      29.125  32.898  21.782  1.00  0.00    -0.497 OA
ATOM     13  C   UNL     1      28.421  34.134  21.712  1.00  0.00     0.278 C 
ENDBRANCH   4  12
TORSDOF 3
ENDMDL
MODEL 7
REMARK VINA RESULT:    -3.797      1.419      4.525
REMARK INTER + INTRA:          -4.696
REMARK INTER:                  -4.401
REMARK INTRA:                  -0.295
REMARK UNBOUND:                -0.344
REMARK SMILES COc1ccc(C(C)=O)c(O)c1
REMARK SMILES IDX 6 1 10 2 12 3 3 4 4 5 5 6 7 7 8 8 9 9 11 10 2 12 1 13
REMARK H PARENT 11 11
REMARK Flexibility Score: inf
ROOT
ATOM      1  C   UNL     1      26.903  38.810  20.337  1.00  0.00     0.059 A 
ATOM      2  C   UNL     1      26.009  39.895  20.501  1.00  0.00     0.130 A 
ATOM      3  C   UNL     1      26.465  41.211  20.333  1.00  0.00     0.093 A 
ATOM      4  C   UNL     1      27.810  41.471  20.017  1.00  0.00     0.122 A 
ATOM      5  C   UNL     1      28.694  40.398  19.874  1.00  0.00     0.047 A 
ATOM      6  C   UNL     1      28.249  39.085  20.035  1.00  0.00     0.019 A 
ENDROOT
BRANCH   1   7
ATOM      7  C   UNL     1      26.477  37.393  20.485  1.00  0.00     0.163 C 
ATOM      8  C   UNL     1      27.436  36.297  20.833  1.00  0.00     0.093 C 
ATOM      9  O   UNL     1      25.264  37.093  20.316  1.00  0.00    -0.294 OA
ENDBRANCH   1   7
BRANCH   2  10
ATOM     10  O   UNL     1      24.678  39.676  20.853  1.00  0.00    -0.507 OA
ATOM     11  H   UNL     1      24.422  39.212  21.717  1.00  0.00     0.293 HD
ENDBRANCH   2  10
BRANCH   4  12
ATOM     12  O   UNL     1      28.307  42.771  19.841  1.00  0.00    -0.497 OA
ATOM     13  C   UNL     1      27.604  43.819  19.181  1.00  0.00     0.278 C 
ENDBRANCH   4  12
TORSDOF 3
ENDMDL
MODEL 8
REMARK VINA RESULT:    -3.774      6.656     10.177
REMARK INTER + INTRA:          -4.670
REMARK INTER:                  -4.483
REMARK INTRA:                  -0.187
REMARK UNBOUND:                -0.344
REMARK SMILES COc1ccc(C(C)=O)c(O)c1
REMARK SMILES IDX 6 1 10 2 12 3 3 4 4 5 5 6 7 7 8 8 9 9 11 10 2 12 1 13
REMARK H PARENT 11 11
REMARK Flexibility Score: inf
ROOT
ATOM      1  C   UNL     1      29.006  29.939  24.767  1.00  0.00     0.059 A 
ATOM      2  C   UNL     1      29.069  31.315  25.088  1.00  0.00     0.130 A 
ATOM      3  C   UNL     1      29.098  32.274  24.063  1.00  0.00     0.093 A 
ATOM      4  C   UNL     1      29.083  31.882  22.713  1.00  0.00     0.122 A 
ATOM      5  C   UNL     1      29.040  30.521  22.400  1.00  0.00     0.047 A 
ATOM      6  C   UNL     1      29.005  29.560  23.413  1.00  0.00     0.019 A 
ENDROOT
BRANCH   1   7
ATOM      7  C   UNL     1      28.954  28.877  25.807  1.00  0.00     0.163 C 
ATOM      8  C   UNL     1      28.804  27.426  25.469  1.00  0.00     0.093 C 
ATOM      9  O   UNL     1      29.042  29.200  27.023  1.00  0.00    -0.294 OA
ENDBRANCH   1   7
BRANCH   2  10
ATOM     10  O   UNL     1      29.125  31.737  26.416  1.00  0.00    -0.507 OA
ATOM     11  H   UNL     1      28.501  32.449  26.777  1.00  0.00     0.293 HD
ENDBRANCH   2  10
BRANCH   4  12
ATOM     12  O   UNL     1      29.113  32.807  21.659  1.00  0.00    -0.497 OA
ATOM     13  C   UNL     1      28.616  34.139  21.742  1.00  0.00     0.278 C 
ENDBRANCH   4  12
TORSDOF 3
ENDMDL
MODEL 9
REMARK VINA RESULT:    -2.127      7.659     11.049
REMARK INTER + INTRA:          -2.783
REMARK INTER:                  -2.467
REMARK INTRA:                  -0.316
REMARK UNBOUND:                -0.344
REMARK SMILES COc1ccc(C(C)=O)c(O)c1
REMARK SMILES IDX 6 1 10 2 12 3 3 4 4 5 5 6 7 7 8 8 9 9 11 10 2 12 1 13
REMARK H PARENT 11 11
REMARK Flexibility Score: inf
ROOT
ATOM      1  C   UNL     1      28.280  29.108  25.379  1.00  0.00     0.059 A 
ATOM      2  C   UNL     1      27.968  29.627  24.100  1.00  0.00     0.130 A 
ATOM      3  C   UNL     1      28.248  30.970  23.801  1.00  0.00     0.093 A 
ATOM      4  C   UNL     1      28.823  31.816  24.766  1.00  0.00     0.122 A 
ATOM      5  C   UNL     1      29.112  31.305  26.033  1.00  0.00     0.047 A 
ATOM      6  C   UNL     1      28.841  29.969  26.339  1.00  0.00     0.019 A 
ENDROOT
BRANCH   1   7
ATOM      7  C   UNL     1      28.024  27.691  25.751  1.00  0.00     0.163 C 
ATOM      8  C   UNL     1      29.125  26.742  26.109  1.00  0.00     0.093 C 
ATOM      9  O   UNL     1      26.837  27.263  25.771  1.00  0.00    -0.294 OA
ENDBRANCH   1   7
BRANCH   2  10
ATOM     10  O   UNL     1      27.362  28.827  23.133  1.00  0.00    -0.507 OA
ATOM     11  H   UNL     1      26.393  28.954  22.864  1.00  0.00     0.293 HD
ENDBRANCH   2  10
BRANCH   4  12
ATOM     12  O   UNL     1      29.117  33.163  24.508  1.00  0.00    -0.497 OA
ATOM     13  C   UNL     1      28.224  34.076  23.879  1.00  0.00     0.278 C 
ENDBRANCH   4  12
TORSDOF 3
ENDMDL
