MODEL 1
REMARK VINA RESULT:    -2.902      0.000      0.000
REMARK INTER + INTRA:          -3.279
REMARK INTER:                  -3.241
REMARK INTRA:                  -0.038
REMARK UNBOUND:                -0.038
REMARK SMILES CCCC(=O)[O-]
REMARK SMILES IDX 3 1 4 2 5 3 6 4 2 5 1 6
REMARK H PARENT
REMARK Flexibility Score: inf
ROOT
ATOM      1  C   UNL     1     -19.031 -31.703  20.538  1.00  0.00     0.052 C 
ENDROOT
BRANCH   1   2
ATOM      2  C   UNL     1     -19.078 -33.172  20.255  1.00  0.00     0.041 C 
ATOM      3  O   UNL     1     -20.031 -33.661  19.594  1.00  0.00    -0.550 OA
ATOM      4  O   UNL     1     -18.094 -34.009  20.767  1.00  0.00    -0.550 OA
ENDBRANCH   1   2
BRANCH   1   5
ATOM      5  C   UNL     1     -20.310 -31.022  20.044  1.00  0.00     0.003 C 
ATOM      6  C   UNL     1     -20.010 -30.048  18.908  1.00  0.00     0.004 C 
ENDBRANCH   1   5
TORSDOF 2
ENDMDL
MODEL 2
REMARK VINA RESULT:    -2.861      0.091      1.324
REMARK INTER + INTRA:          -3.234
REMARK INTER:                  -3.198
REMARK INTRA:                  -0.035
REMARK UNBOUND:                -0.038
REMARK SMILES CCCC(=O)[O-]
REMARK SMILES IDX 3 1 4 2 5 3 6 4 2 5 1 6
REMARK H PARENT
REMARK Flexibility Score: inf
ROOT
ATOM      1  C   UNL     1     -19.000 -31.644  20.483  1.00  0.00     0.052 C 
ENDROOT
BRANCH   1   2
ATOM      2  C   UNL     1     -19.049 -33.126  20.285  1.00  0.00     0.041 C 
ATOM      3  O   UNL     1     -18.138 -33.859  20.751  1.00  0.00    -0.550 OA
ATOM      4  O   UNL     1     -20.077 -33.694  19.542  1.00  0.00    -0.550 OA
ENDBRANCH   1   2
BRANCH   1   5
ATOM      5  C   UNL     1     -20.313 -30.999  20.030  1.00  0.00     0.003 C 
ATOM      6  C   UNL     1     -20.073 -29.993  18.907  1.00  0.00     0.004 C 
ENDBRANCH   1   5
TORSDOF 2
ENDMDL
MODEL 3
REMARK VINA RESULT:    -2.825      3.610      4.367
REMARK INTER + INTRA:          -3.193
REMARK INTER:                  -3.147
REMARK INTRA:                  -0.045
REMARK UNBOUND:                -0.038
REMARK SMILES CCCC(=O)[O-]
REMARK SMILES IDX 3 1 4 2 5 3 6 4 2 5 1 6
REMARK H PARENT
REMARK Flexibility Score: inf
ROOT
ATOM      1  C   UNL     1     -18.646 -29.746  18.384  1.00  0.00     0.052 C 
ENDROOT
BRANCH   1   2
ATOM      2  C   UNL     1     -18.024 -28.654  19.196  1.00  0.00     0.041 C 
ATOM      3  O   UNL     1     -17.130 -28.923  20.041  1.00  0.00    -0.550 OA
ATOM      4  O   UNL     1     -18.467 -27.345  19.056  1.00  0.00    -0.550 OA
ENDBRANCH   1   2
BRANCH   1   5
ATOM      5  C   UNL     1     -20.075 -30.019  18.859  1.00  0.00     0.003 C 
ATOM      6  C   UNL     1     -20.100 -31.105  19.932  1.00  0.00     0.004 C 
ENDBRANCH   1   5
TORSDOF 2
ENDMDL
MODEL 4
REMARK VINA RESULT:    -2.787      1.075      1.770
REMARK INTER + INTRA:          -3.151
REMARK INTER:                  -3.079
REMARK INTRA:                  -0.072
REMARK UNBOUND:                -0.038
REMARK SMILES CCCC(=O)[O-]
REMARK SMILES IDX 3 1 4 2 5 3 6 4 2 5 1 6
REMARK H PARENT
REMARK Flexibility Score: inf
ROOT
ATOM      1  C   UNL     1     -20.352 -31.095  19.990  1.00  0.00     0.052 C 
ENDROOT
BRANCH   1   2
ATOM      2  C   UNL     1     -19.493 -32.320  20.005  1.00  0.00     0.041 C 
ATOM      3  O   UNL     1     -18.789 -32.589  21.014  1.00  0.00    -0.550 OA
ATOM      4  O   UNL     1     -19.431 -33.139  18.884  1.00  0.00    -0.550 OA
ENDBRANCH   1   2
BRANCH   1   5
ATOM      5  C   UNL     1     -19.961 -30.182  18.825  1.00  0.00     0.003 C 
ATOM      6  C   UNL     1     -18.552 -29.624  19.012  1.00  0.00     0.004 C 
ENDBRANCH   1   5
TORSDOF 2
ENDMDL
MODEL 5
REMARK VINA RESULT:    -2.763      2.860      3.490
REMARK INTER + INTRA:          -3.123
REMARK INTER:                  -3.085
REMARK INTRA:                  -0.039
REMARK UNBOUND:                -0.038
REMARK SMILES CCCC(=O)[O-]
REMARK SMILES IDX 3 1 4 2 5 3 6 4 2 5 1 6
REMARK H PARENT
REMARK Flexibility Score: inf
ROOT
ATOM      1  C   UNL     1     -19.868 -30.332  18.850  1.00  0.00     0.052 C 
ENDROOT
BRANCH   1   2
ATOM      2  C   UNL     1     -18.494 -29.741  18.815  1.00  0.00     0.041 C 
ATOM      3  O   UNL     1     -18.038 -29.258  17.745  1.00  0.00    -0.550 OA
ATOM      4  O   UNL     1     -17.697 -29.768  19.953  1.00  0.00    -0.550 OA
ENDBRANCH   1   2
BRANCH   1   5
ATOM      5  C   UNL     1     -20.022 -31.256  20.061  1.00  0.00     0.003 C 
ATOM      6  C   UNL     1     -19.657 -32.695  19.705  1.00  0.00     0.004 C 
ENDBRANCH   1   5
TORSDOF 2
ENDMDL
MODEL 6
REMARK VINA RESULT:    -2.741      2.659      3.372
REMARK INTER + INTRA:          -3.100
REMARK INTER:                  -3.059
REMARK INTRA:                  -0.040
REMARK UNBOUND:                -0.038
REMARK SMILES CCCC(=O)[O-]
REMARK SMILES IDX 3 1 4 2 5 3 6 4 2 5 1 6
REMARK H PARENT
REMARK Flexibility Score: inf
ROOT
ATOM      1  C   UNL     1     -18.234 -29.833  19.413  1.00  0.00     0.052 C 
ENDROOT
BRANCH   1   2
ATOM      2  C   UNL     1     -19.544 -30.428  19.007  1.00  0.00     0.041 C 
ATOM      3  O   UNL     1     -19.898 -30.420  17.798  1.00  0.00    -0.550 OA
ATOM      4  O   UNL     1     -20.400 -30.947  19.971  1.00  0.00    -0.550 OA
ENDBRANCH   1   2
BRANCH   1   5
ATOM      5  C   UNL     1     -17.851 -28.688  18.471  1.00  0.00     0.003 C 
ATOM      6  C   UNL     1     -18.242 -27.336  19.062  1.00  0.00     0.004 C 
ENDBRANCH   1   5
TORSDOF 2
ENDMDL
MODEL 7
REMARK VINA RESULT:    -2.739      2.153      3.265
REMARK INTER + INTRA:          -3.097
REMARK INTER:                  -3.062
REMARK INTRA:                  -0.035
REMARK UNBOUND:                -0.038
REMARK SMILES CCCC(=O)[O-]
REMARK SMILES IDX 3 1 4 2 5 3 6 4 2 5 1 6
REMARK H PARENT
REMARK Flexibility Score: inf
ROOT
ATOM      1  C   UNL     1     -19.363 -31.705  20.337  1.00  0.00     0.052 C 
ENDROOT
BRANCH   1   2
ATOM      2  C   UNL     1     -19.599 -30.946  19.069  1.00  0.00     0.041 C 
ATOM      3  O   UNL     1     -20.336 -29.925  19.069  1.00  0.00    -0.550 OA
ATOM      4  O   UNL     1     -19.046 -31.396  17.877  1.00  0.00    -0.550 OA
ENDBRANCH   1   2
BRANCH   1   5
ATOM      5  C   UNL     1     -19.293 -33.208  20.055  1.00  0.00     0.003 C 
ATOM      6  C   UNL     1     -17.980 -33.801  20.562  1.00  0.00     0.004 C 
ENDBRANCH   1   5
TORSDOF 2
ENDMDL
MODEL 8
REMARK VINA RESULT:    -2.717      1.928      3.022
REMARK INTER + INTRA:          -3.073
REMARK INTER:                  -3.051
REMARK INTRA:                  -0.022
REMARK UNBOUND:                -0.038
REMARK SMILES CCCC(=O)[O-]
REMARK SMILES IDX 3 1 4 2 5 3 6 4 2 5 1 6
REMARK H PARENT
REMARK Flexibility Score: inf
ROOT
ATOM      1  C   UNL     1     -18.367 -31.439  20.910  1.00  0.00     0.052 C 
ENDROOT
BRANCH   1   2
ATOM      2  C   UNL     1     -19.621 -31.856  20.208  1.00  0.00     0.041 C 
ATOM      3  O   UNL     1     -20.572 -31.042  20.072  1.00  0.00    -0.550 OA
ATOM      4  O   UNL     1     -19.759 -33.160  19.748  1.00  0.00    -0.550 OA
ENDBRANCH   1   2
BRANCH   1   5
ATOM      5  C   UNL     1     -17.921 -32.522  21.896  1.00  0.00     0.003 C 
ATOM      6  C   UNL     1     -16.402 -32.678  21.891  1.00  0.00     0.004 C 
ENDBRANCH   1   5
TORSDOF 2
ENDMDL
MODEL 9
REMARK VINA RESULT:    -2.681      2.125      3.096
REMARK INTER + INTRA:          -3.032
REMARK INTER:                  -3.014
REMARK INTRA:                  -0.018
REMARK UNBOUND:                -0.038
REMARK SMILES CCCC(=O)[O-]
REMARK SMILES IDX 3 1 4 2 5 3 6 4 2 5 1 6
REMARK H PARENT
REMARK Flexibility Score: inf
ROOT
ATOM      1  C   UNL     1     -19.442 -33.285  19.749  1.00  0.00     0.052 C 
ENDROOT
BRANCH   1   2
ATOM      2  C   UNL     1     -19.456 -31.895  20.302  1.00  0.00     0.041 C 
ATOM      3  O   UNL     1     -18.515 -31.495  21.037  1.00  0.00    -0.550 OA
ATOM      4  O   UNL     1     -20.535 -31.058  20.048  1.00  0.00    -0.550 OA
ENDBRANCH   1   2
BRANCH   1   5
ATOM      5  C   UNL     1     -18.530 -33.364  18.522  1.00  0.00     0.003 C 
ATOM      6  C   UNL     1     -19.310 -33.802  17.285  1.00  0.00     0.004 C 
ENDBRANCH   1   5
TORSDOF 2
ENDMDL
