MODEL 1
REMARK VINA RESULT:    -6.452      0.000      0.000
REMARK INTER + INTRA:          -7.854
REMARK INTER:                  -7.584
REMARK INTRA:                  -0.270
REMARK UNBOUND:                -0.270
REMARK SMILES O=c1cc(-c2ccc(O)c(O)c2)oc2cc(O)cc(O)c12
REMARK SMILES IDX 4 1 3 2 2 3 1 4 21 5 19 6 18 7 16 8 15 9 14 10 13 11 5 12
REMARK SMILES IDX 6 13 7 14 8 15 12 16 10 17 9 18 11 20 20 22 17 24
REMARK H PARENT 9 19 11 21 20 23 17 25
REMARK Flexibility Score: inf
ROOT
ATOM      1  C   UNL     1      59.062  -4.436  -8.218  1.00  0.00     0.138 A 
ATOM      2  C   UNL     1      60.113  -4.148  -9.100  1.00  0.00     0.100 A 
ATOM      3  C   UNL     1      61.400  -3.958  -8.600  1.00  0.00     0.197 A 
ATOM      4  O   UNL     1      62.311  -3.639  -9.409  1.00  0.00    -0.289 OA
ATOM      5  C   UNL     1      61.644  -4.090  -7.212  1.00  0.00     0.107 A 
ATOM      6  C   UNL     1      62.924  -3.958  -6.595  1.00  0.00     0.134 A 
ATOM      7  C   UNL     1      63.024  -3.994  -5.199  1.00  0.00     0.093 A 
ATOM      8  C   UNL     1      61.898  -4.216  -4.401  1.00  0.00     0.123 A 
ATOM      9  C   UNL     1      60.653  -4.400  -4.997  1.00  0.00     0.094 A 
ATOM     10  C   UNL     1      60.515  -4.335  -6.386  1.00  0.00     0.146 A 
ATOM     11  O   UNL     1      59.307  -4.500  -6.913  1.00  0.00    -0.456 OA
ENDROOT
BRANCH   1  12
ATOM     12  C   UNL     1      57.672  -4.650  -8.695  1.00  0.00     0.021 A 
ATOM     13  C   UNL     1      57.370  -5.790  -9.458  1.00  0.00     0.016 A 
ATOM     14  C   UNL     1      56.072  -6.011  -9.924  1.00  0.00     0.051 A 
ATOM     15  C   UNL     1      55.055  -5.093  -9.646  1.00  0.00     0.157 A 
ATOM     16  C   UNL     1      56.647  -3.720  -8.429  1.00  0.00     0.062 A 
ATOM     17  C   UNL     1      55.344  -3.940  -8.898  1.00  0.00     0.158 A 
BRANCH  15  18
ATOM     18  O   UNL     1      53.769  -5.341 -10.125  1.00  0.00    -0.504 OA
ATOM     19  H   UNL     1      53.589  -6.019 -10.855  1.00  0.00     0.293 HD
ENDBRANCH  15  18
BRANCH  17  20
ATOM     20  O   UNL     1      54.337  -3.014  -8.628  1.00  0.00    -0.504 OA
ATOM     21  H   UNL     1      54.537  -2.028  -8.519  1.00  0.00     0.293 HD
ENDBRANCH  17  20
ENDBRANCH   1  12
BRANCH   6  22
ATOM     22  O   UNL     1      64.122  -3.817  -7.303  1.00  0.00    -0.507 OA
ATOM     23  H   UNL     1      64.267  -3.178  -8.070  1.00  0.00     0.293 HD
ENDBRANCH   6  22
BRANCH   8  24
ATOM     24  O   UNL     1      62.010  -4.266  -3.014  1.00  0.00    -0.508 OA
ATOM     25  H   UNL     1      62.590  -4.957  -2.553  1.00  0.00     0.293 HD
ENDBRANCH   8  24
TORSDOF 5
ENDMDL
MODEL 2
REMARK VINA RESULT:    -5.285      1.658      7.030
REMARK INTER + INTRA:          -6.482
REMARK INTER:                  -6.216
REMARK INTRA:                  -0.266
REMARK UNBOUND:                -0.270
REMARK SMILES O=c1cc(-c2ccc(O)c(O)c2)oc2cc(O)cc(O)c12
REMARK SMILES IDX 4 1 3 2 2 3 1 4 21 5 19 6 18 7 16 8 15 9 14 10 13 11 5 12
REMARK SMILES IDX 6 13 7 14 8 15 12 16 10 17 9 18 11 20 20 22 17 24
REMARK H PARENT 9 19 11 21 20 23 17 25
REMARK Flexibility Score: inf
ROOT
ATOM      1  C   UNL     1      59.422  -4.506  -7.351  1.00  0.00     0.138 A 
ATOM      2  C   UNL     1      58.521  -3.510  -7.753  1.00  0.00     0.100 A 
ATOM      3  C   UNL     1      57.433  -3.849  -8.557  1.00  0.00     0.197 A 
ATOM      4  O   UNL     1      56.677  -2.925  -8.954  1.00  0.00    -0.289 OA
ATOM      5  C   UNL     1      57.228  -5.198  -8.933  1.00  0.00     0.107 A 
ATOM      6  C   UNL     1      56.131  -5.667  -9.717  1.00  0.00     0.134 A 
ATOM      7  C   UNL     1      56.097  -7.005 -10.124  1.00  0.00     0.093 A 
ATOM      8  C   UNL     1      57.088  -7.906  -9.727  1.00  0.00     0.123 A 
ATOM      9  C   UNL     1      58.134  -7.471  -8.917  1.00  0.00     0.094 A 
ATOM     10  C   UNL     1      58.215  -6.133  -8.522  1.00  0.00     0.146 A 
ATOM     11  O   UNL     1      59.238  -5.755  -7.763  1.00  0.00    -0.456 OA
ENDROOT
BRANCH   1  12
ATOM     12  C   UNL     1      60.596  -4.201  -6.493  1.00  0.00     0.021 A 
ATOM     13  C   UNL     1      61.736  -3.613  -7.066  1.00  0.00     0.016 A 
ATOM     14  C   UNL     1      62.856  -3.323  -6.283  1.00  0.00     0.051 A 
ATOM     15  C   UNL     1      62.861  -3.622  -4.918  1.00  0.00     0.157 A 
ATOM     16  C   UNL     1      60.610  -4.513  -5.119  1.00  0.00     0.062 A 
ATOM     17  C   UNL     1      61.735  -4.223  -4.333  1.00  0.00     0.158 A 
BRANCH  15  18
ATOM     18  O   UNL     1      63.993  -3.319  -4.162  1.00  0.00    -0.504 OA
ATOM     19  H   UNL     1      64.200  -3.792  -3.290  1.00  0.00     0.293 HD
ENDBRANCH  15  18
BRANCH  17  20
ATOM     20  O   UNL     1      61.738  -4.535  -2.974  1.00  0.00    -0.504 OA
ATOM     21  H   UNL     1      62.305  -4.021  -2.311  1.00  0.00     0.293 HD
ENDBRANCH  17  20
ENDBRANCH   1  12
BRANCH   6  22
ATOM     22  O   UNL     1      55.047  -4.870 -10.097  1.00  0.00    -0.507 OA
ATOM     23  H   UNL     1      55.082  -3.870 -10.225  1.00  0.00     0.293 HD
ENDBRANCH   6  22
BRANCH   8  24
ATOM     24  O   UNL     1      57.037  -9.240 -10.124  1.00  0.00    -0.508 OA
ATOM     25  H   UNL     1      56.451  -9.914  -9.646  1.00  0.00     0.293 HD
ENDBRANCH   8  24
TORSDOF 5
ENDMDL
MODEL 3
REMARK VINA RESULT:    -5.263      9.684     13.415
REMARK INTER + INTRA:          -6.456
REMARK INTER:                  -6.193
REMARK INTRA:                  -0.263
REMARK UNBOUND:                -0.270
REMARK SMILES O=c1cc(-c2ccc(O)c(O)c2)oc2cc(O)cc(O)c12
REMARK SMILES IDX 4 1 3 2 2 3 1 4 21 5 19 6 18 7 16 8 15 9 14 10 13 11 5 12
REMARK SMILES IDX 6 13 7 14 8 15 12 16 10 17 9 18 11 20 20 22 17 24
REMARK H PARENT 9 19 11 21 20 23 17 25
REMARK Flexibility Score: inf
ROOT
ATOM      1  C   UNL     1      47.618  -8.124  -4.486  1.00  0.00     0.138 A 
ATOM      2  C   UNL     1      46.861  -8.928  -5.349  1.00  0.00     0.100 A 
ATOM      3  C   UNL     1      47.147  -8.934  -6.714  1.00  0.00     0.197 A 
ATOM      4  O   UNL     1      46.410  -9.617  -7.472  1.00  0.00    -0.289 OA
ATOM      5  C   UNL     1      48.219  -8.157  -7.212  1.00  0.00     0.107 A 
ATOM      6  C   UNL     1      48.628  -8.117  -8.579  1.00  0.00     0.134 A 
ATOM      7  C   UNL     1      49.629  -7.221  -8.973  1.00  0.00     0.093 A 
ATOM      8  C   UNL     1      50.276  -6.407  -8.041  1.00  0.00     0.123 A 
ATOM      9  C   UNL     1      49.921  -6.477  -6.696  1.00  0.00     0.094 A 
ATOM     10  C   UNL     1      48.903  -7.336  -6.276  1.00  0.00     0.146 A 
ATOM     11  O   UNL     1      48.584  -7.361  -4.986  1.00  0.00    -0.456 OA
ENDROOT
BRANCH   1  12
ATOM     12  C   UNL     1      47.358  -8.080  -3.024  1.00  0.00     0.021 A 
ATOM     13  C   UNL     1      48.090  -8.918  -2.166  1.00  0.00     0.016 A 
ATOM     14  C   UNL     1      47.860  -8.900  -0.788  1.00  0.00     0.051 A 
ATOM     15  C   UNL     1      46.890  -8.053  -0.244  1.00  0.00     0.157 A 
ATOM     16  C   UNL     1      46.372  -7.237  -2.473  1.00  0.00     0.062 A 
ATOM     17  C   UNL     1      46.139  -7.220  -1.089  1.00  0.00     0.158 A 
BRANCH  15  18
ATOM     18  O   UNL     1      46.684  -8.057   1.135  1.00  0.00    -0.504 OA
ATOM     19  H   UNL     1      46.788  -7.220   1.697  1.00  0.00     0.293 HD
ENDBRANCH  15  18
BRANCH  17  20
ATOM     20  O   UNL     1      45.162  -6.382  -0.555  1.00  0.00    -0.504 OA
ATOM     21  H   UNL     1      44.315  -6.750  -0.139  1.00  0.00     0.293 HD
ENDBRANCH  17  20
ENDBRANCH   1  12
BRANCH   6  22
ATOM     22  O   UNL     1      48.106  -8.948  -9.575  1.00  0.00    -0.507 OA
ATOM     23  H   UNL     1      47.133  -8.990  -9.839  1.00  0.00     0.293 HD
ENDBRANCH   6  22
BRANCH   8  24
ATOM     24  O   UNL     1      51.282  -5.529  -8.441  1.00  0.00    -0.508 OA
ATOM     25  H   UNL     1      51.067  -4.617  -8.825  1.00  0.00     0.293 HD
ENDBRANCH   8  24
TORSDOF 5
ENDMDL
MODEL 4
REMARK VINA RESULT:    -5.229     11.999     15.463
REMARK INTER + INTRA:          -6.416
REMARK INTER:                  -6.145
REMARK INTRA:                  -0.271
REMARK UNBOUND:                -0.270
REMARK SMILES O=c1cc(-c2ccc(O)c(O)c2)oc2cc(O)cc(O)c12
REMARK SMILES IDX 4 1 3 2 2 3 1 4 21 5 19 6 18 7 16 8 15 9 14 10 13 11 5 12
REMARK SMILES IDX 6 13 7 14 8 15 12 16 10 17 9 18 11 20 20 22 17 24
REMARK H PARENT 9 19 11 21 20 23 17 25
REMARK Flexibility Score: inf
ROOT
ATOM      1  C   UNL     1      46.134  -8.232  -1.840  1.00  0.00     0.138 A 
ATOM      2  C   UNL     1      45.340  -9.138  -2.557  1.00  0.00     0.100 A 
ATOM      3  C   UNL     1      45.590  -9.354  -3.911  1.00  0.00     0.197 A 
ATOM      4  O   UNL     1      44.822 -10.125  -4.542  1.00  0.00    -0.289 OA
ATOM      5  C   UNL     1      46.664  -8.683  -4.544  1.00  0.00     0.107 A 
ATOM      6  C   UNL     1      47.038  -8.856  -5.911  1.00  0.00     0.134 A 
ATOM      7  C   UNL     1      48.044  -8.051  -6.457  1.00  0.00     0.093 A 
ATOM      8  C   UNL     1      48.730  -7.121  -5.672  1.00  0.00     0.123 A 
ATOM      9  C   UNL     1      48.409  -6.983  -4.324  1.00  0.00     0.094 A 
ATOM     10  C   UNL     1      47.386  -7.747  -3.757  1.00  0.00     0.146 A 
ATOM     11  O   UNL     1      47.100  -7.573  -2.471  1.00  0.00    -0.456 OA
ENDROOT
BRANCH   1  12
ATOM     12  C   UNL     1      45.912  -7.965  -0.396  1.00  0.00     0.021 A 
ATOM     13  C   UNL     1      46.264  -8.943   0.550  1.00  0.00     0.016 A 
ATOM     14  C   UNL     1      46.059  -8.719   1.913  1.00  0.00     0.051 A 
ATOM     15  C   UNL     1      45.493  -7.520   2.356  1.00  0.00     0.157 A 
ATOM     16  C   UNL     1      45.329  -6.763   0.053  1.00  0.00     0.062 A 
ATOM     17  C   UNL     1      45.123  -6.539   1.423  1.00  0.00     0.158 A 
BRANCH  15  18
ATOM     18  O   UNL     1      45.303  -7.325   3.723  1.00  0.00    -0.504 OA
ATOM     19  H   UNL     1      44.923  -8.049   4.322  1.00  0.00     0.293 HD
ENDBRANCH  15  18
BRANCH  17  20
ATOM     20  O   UNL     1      44.546  -5.346   1.857  1.00  0.00    -0.504 OA
ATOM     21  H   UNL     1      43.542  -5.236   1.929  1.00  0.00     0.293 HD
ENDBRANCH  17  20
ENDBRANCH   1  12
BRANCH   6  22
ATOM     22  O   UNL     1      46.475  -9.814  -6.760  1.00  0.00    -0.507 OA
ATOM     23  H   UNL     1      46.360 -10.790  -6.532  1.00  0.00     0.293 HD
ENDBRANCH   6  22
BRANCH   8  24
ATOM     24  O   UNL     1      49.741  -6.335  -6.221  1.00  0.00    -0.508 OA
ATOM     25  H   UNL     1      49.680  -5.324  -6.232  1.00  0.00     0.293 HD
ENDBRANCH   8  24
TORSDOF 5
ENDMDL
MODEL 5
REMARK VINA RESULT:    -5.194     12.144     14.927
REMARK INTER + INTRA:          -6.375
REMARK INTER:                  -6.110
REMARK INTRA:                  -0.265
REMARK UNBOUND:                -0.270
REMARK SMILES O=c1cc(-c2ccc(O)c(O)c2)oc2cc(O)cc(O)c12
REMARK SMILES IDX 4 1 3 2 2 3 1 4 21 5 19 6 18 7 16 8 15 9 14 10 13 11 5 12
REMARK SMILES IDX 6 13 7 14 8 15 12 16 10 17 9 18 11 20 20 22 17 24
REMARK H PARENT 9 19 11 21 20 23 17 25
REMARK Flexibility Score: inf
ROOT
ATOM      1  C   UNL     1      46.722  -8.011  -2.090  1.00  0.00     0.138 A 
ATOM      2  C   UNL     1      45.579  -7.343  -1.630  1.00  0.00     0.100 A 
ATOM      3  C   UNL     1      45.296  -7.321  -0.265  1.00  0.00     0.197 A 
ATOM      4  O   UNL     1      44.230  -6.767   0.112  1.00  0.00    -0.289 OA
ATOM      5  C   UNL     1      46.179  -7.945   0.648  1.00  0.00     0.107 A 
ATOM      6  C   UNL     1      46.013  -7.951   2.065  1.00  0.00     0.134 A 
ATOM      7  C   UNL     1      46.889  -8.701   2.859  1.00  0.00     0.093 A 
ATOM      8  C   UNL     1      47.961  -9.395   2.292  1.00  0.00     0.123 A 
ATOM      9  C   UNL     1      48.164  -9.350   0.915  1.00  0.00     0.094 A 
ATOM     10  C   UNL     1      47.286  -8.640   0.092  1.00  0.00     0.146 A 
ATOM     11  O   UNL     1      47.506  -8.636  -1.218  1.00  0.00    -0.456 OA
ENDROOT
BRANCH   1  12
ATOM     12  C   UNL     1      47.073  -8.065  -3.533  1.00  0.00     0.021 A 
ATOM     13  C   UNL     1      46.493  -9.050  -4.349  1.00  0.00     0.016 A 
ATOM     14  C   UNL     1      46.811  -9.126  -5.707  1.00  0.00     0.051 A 
ATOM     15  C   UNL     1      47.719  -8.226  -6.272  1.00  0.00     0.157 A 
ATOM     16  C   UNL     1      47.998  -7.168  -4.103  1.00  0.00     0.062 A 
ATOM     17  C   UNL     1      48.319  -7.245  -5.467  1.00  0.00     0.158 A 
BRANCH  15  18
ATOM     18  O   UNL     1      48.016  -8.326  -7.631  1.00  0.00    -0.504 OA
ATOM     19  H   UNL     1      47.588  -9.027  -8.224  1.00  0.00     0.293 HD
ENDBRANCH  15  18
BRANCH  17  20
ATOM     20  O   UNL     1      49.235  -6.353  -6.021  1.00  0.00    -0.504 OA
ATOM     21  H   UNL     1      49.719  -6.557  -6.887  1.00  0.00     0.293 HD
ENDBRANCH  17  20
ENDBRANCH   1  12
BRANCH   6  22
ATOM     22  O   UNL     1      45.027  -7.224   2.740  1.00  0.00    -0.507 OA
ATOM     23  H   UNL     1      44.152  -6.926   2.335  1.00  0.00     0.293 HD
ENDBRANCH   6  22
BRANCH   8  24
ATOM     24  O   UNL     1      48.837 -10.125   3.092  1.00  0.00    -0.508 OA
ATOM     25  H   UNL     1      49.834  -9.947   3.086  1.00  0.00     0.293 HD
ENDBRANCH   8  24
TORSDOF 5
ENDMDL
MODEL 6
REMARK VINA RESULT:    -5.188      1.493      7.081
REMARK INTER + INTRA:          -6.368
REMARK INTER:                  -6.106
REMARK INTRA:                  -0.263
REMARK UNBOUND:                -0.270
REMARK SMILES O=c1cc(-c2ccc(O)c(O)c2)oc2cc(O)cc(O)c12
REMARK SMILES IDX 4 1 3 2 2 3 1 4 21 5 19 6 18 7 16 8 15 9 14 10 13 11 5 12
REMARK SMILES IDX 6 13 7 14 8 15 12 16 10 17 9 18 11 20 20 22 17 24
REMARK H PARENT 9 19 11 21 20 23 17 25
REMARK Flexibility Score: inf
ROOT
ATOM      1  C   UNL     1      59.242  -4.807  -7.399  1.00  0.00     0.138 A 
ATOM      2  C   UNL     1      59.101  -6.156  -7.752  1.00  0.00     0.100 A 
ATOM      3  C   UNL     1      57.963  -6.573  -8.443  1.00  0.00     0.197 A 
ATOM      4  O   UNL     1      57.835  -7.800  -8.690  1.00  0.00    -0.289 OA
ATOM      5  C   UNL     1      56.977  -5.627  -8.811  1.00  0.00     0.107 A 
ATOM      6  C   UNL     1      55.795  -5.931  -9.552  1.00  0.00     0.134 A 
ATOM      7  C   UNL     1      54.834  -4.934  -9.756  1.00  0.00     0.093 A 
ATOM      8  C   UNL     1      55.040  -3.629  -9.298  1.00  0.00     0.123 A 
ATOM      9  C   UNL     1      56.214  -3.310  -8.621  1.00  0.00     0.094 A 
ATOM     10  C   UNL     1      57.177  -4.291  -8.371  1.00  0.00     0.146 A 
ATOM     11  O   UNL     1      58.276  -3.949  -7.708  1.00  0.00    -0.456 OA
ENDROOT
BRANCH   1  12
ATOM     12  C   UNL     1      60.433  -4.308  -6.665  1.00  0.00     0.021 A 
ATOM     13  C   UNL     1      61.495  -3.731  -7.382  1.00  0.00     0.016 A 
ATOM     14  C   UNL     1      62.629  -3.260  -6.716  1.00  0.00     0.051 A 
ATOM     15  C   UNL     1      62.727  -3.365  -5.325  1.00  0.00     0.157 A 
ATOM     16  C   UNL     1      60.542  -4.425  -5.265  1.00  0.00     0.062 A 
ATOM     17  C   UNL     1      61.682  -3.954  -4.596  1.00  0.00     0.158 A 
BRANCH  15  18
ATOM     18  O   UNL     1      63.871  -2.885  -4.689  1.00  0.00    -0.504 OA
ATOM     19  H   UNL     1      64.403  -2.105  -5.055  1.00  0.00     0.293 HD
ENDBRANCH  15  18
BRANCH  17  20
ATOM     20  O   UNL     1      61.779  -4.073  -3.211  1.00  0.00    -0.504 OA
ATOM     21  H   UNL     1      62.654  -4.307  -2.757  1.00  0.00     0.293 HD
ENDBRANCH  17  20
ENDBRANCH   1  12
BRANCH   6  22
ATOM     22  O   UNL     1      55.532  -7.179 -10.125  1.00  0.00    -0.507 OA
ATOM     23  H   UNL     1      54.917  -7.875  -9.733  1.00  0.00     0.293 HD
ENDBRANCH   6  22
BRANCH   8  24
ATOM     24  O   UNL     1      54.084  -2.640  -9.521  1.00  0.00    -0.508 OA
ATOM     25  H   UNL     1      54.231  -1.684  -9.219  1.00  0.00     0.293 HD
ENDBRANCH   8  24
TORSDOF 5
ENDMDL
MODEL 7
REMARK VINA RESULT:    -5.060     11.322     14.331
REMARK INTER + INTRA:          -6.218
REMARK INTER:                  -5.954
REMARK INTRA:                  -0.264
REMARK UNBOUND:                -0.270
REMARK SMILES O=c1cc(-c2ccc(O)c(O)c2)oc2cc(O)cc(O)c12
REMARK SMILES IDX 4 1 3 2 2 3 1 4 21 5 19 6 18 7 16 8 15 9 14 10 13 11 5 12
REMARK SMILES IDX 6 13 7 14 8 15 12 16 10 17 9 18 11 20 20 22 17 24
REMARK H PARENT 9 19 11 21 20 23 17 25
REMARK Flexibility Score: inf
ROOT
ATOM      1  C   UNL     1      47.620  -8.248  -2.891  1.00  0.00     0.138 A 
ATOM      2  C   UNL     1      48.374  -9.177  -2.161  1.00  0.00     0.100 A 
ATOM      3  C   UNL     1      48.145  -9.328  -0.794  1.00  0.00     0.197 A 
ATOM      4  O   UNL     1      48.881 -10.124  -0.153  1.00  0.00    -0.289 OA
ATOM      5  C   UNL     1      47.132  -8.570  -0.161  1.00  0.00     0.107 A 
ATOM      6  C   UNL     1      46.783  -8.671   1.219  1.00  0.00     0.134 A 
ATOM      7  C   UNL     1      45.843  -7.785   1.759  1.00  0.00     0.093 A 
ATOM      8  C   UNL     1      45.196  -6.842   0.956  1.00  0.00     0.123 A 
ATOM      9  C   UNL     1      45.491  -6.772  -0.403  1.00  0.00     0.094 A 
ATOM     10  C   UNL     1      46.449  -7.619  -0.965  1.00  0.00     0.146 A 
ATOM     11  O   UNL     1      46.712  -7.509  -2.263  1.00  0.00    -0.456 OA
ENDROOT
BRANCH   1  12
ATOM     12  C   UNL     1      47.820  -8.047  -4.349  1.00  0.00     0.021 A 
ATOM     13  C   UNL     1      47.075  -8.812  -5.262  1.00  0.00     0.016 A 
ATOM     14  C   UNL     1      47.250  -8.646  -6.638  1.00  0.00     0.051 A 
ATOM     15  C   UNL     1      48.177  -7.721  -7.127  1.00  0.00     0.157 A 
ATOM     16  C   UNL     1      48.763  -7.125  -4.846  1.00  0.00     0.062 A 
ATOM     17  C   UNL     1      48.940  -6.959  -6.228  1.00  0.00     0.158 A 
BRANCH  15  18
ATOM     18  O   UNL     1      48.328  -7.577  -8.505  1.00  0.00    -0.504 OA
ATOM     19  H   UNL     1      49.240  -7.551  -8.946  1.00  0.00     0.293 HD
ENDBRANCH  15  18
BRANCH  17  20
ATOM     20  O   UNL     1      49.875  -6.044  -6.708  1.00  0.00    -0.504 OA
ATOM     21  H   UNL     1      49.813  -5.056  -6.491  1.00  0.00     0.293 HD
ENDBRANCH  17  20
ENDBRANCH   1  12
BRANCH   6  22
ATOM     22  O   UNL     1      47.307  -9.632   2.089  1.00  0.00    -0.507 OA
ATOM     23  H   UNL     1      47.068 -10.612   2.078  1.00  0.00     0.293 HD
ENDBRANCH   6  22
BRANCH   8  24
ATOM     24  O   UNL     1      44.250  -5.976   1.500  1.00  0.00    -0.508 OA
ATOM     25  H   UNL     1      43.712  -6.226   2.321  1.00  0.00     0.293 HD
ENDBRANCH   8  24
TORSDOF 5
ENDMDL
MODEL 8
REMARK VINA RESULT:    -5.050     11.839     14.498
REMARK INTER + INTRA:          -6.206
REMARK INTER:                  -5.901
REMARK INTRA:                  -0.305
REMARK UNBOUND:                -0.270
REMARK SMILES O=c1cc(-c2ccc(O)c(O)c2)oc2cc(O)cc(O)c12
REMARK SMILES IDX 4 1 3 2 2 3 1 4 21 5 19 6 18 7 16 8 15 9 14 10 13 11 5 12
REMARK SMILES IDX 6 13 7 14 8 15 12 16 10 17 9 18 11 20 20 22 17 24
REMARK H PARENT 9 19 11 21 20 23 17 25
REMARK Flexibility Score: inf
ROOT
ATOM      1  C   UNL     1      48.032  -8.625  -1.941  1.00  0.00     0.138 A 
ATOM      2  C   UNL     1      48.699  -9.464  -1.038  1.00  0.00     0.100 A 
ATOM      3  C   UNL     1      48.384  -9.405   0.319  1.00  0.00     0.197 A 
ATOM      4  O   UNL     1      49.044 -10.124   1.114  1.00  0.00    -0.289 OA
ATOM      5  C   UNL     1      47.372  -8.524   0.770  1.00  0.00     0.107 A 
ATOM      6  C   UNL     1      46.939  -8.409   2.125  1.00  0.00     0.134 A 
ATOM      7  C   UNL     1      46.011  -7.420   2.470  1.00  0.00     0.093 A 
ATOM      8  C   UNL     1      45.456  -6.581   1.500  1.00  0.00     0.123 A 
ATOM      9  C   UNL     1      45.832  -6.722   0.167  1.00  0.00     0.094 A 
ATOM     10  C   UNL     1      46.782  -7.677  -0.205  1.00  0.00     0.146 A 
ATOM     11  O   UNL     1      47.124  -7.768  -1.485  1.00  0.00    -0.456 OA
ENDROOT
BRANCH   1  12
ATOM     12  C   UNL     1      48.326  -8.646  -3.397  1.00  0.00     0.021 A 
ATOM     13  C   UNL     1      48.752  -9.843  -3.999  1.00  0.00     0.016 A 
ATOM     14  C   UNL     1      49.041  -9.888  -5.364  1.00  0.00     0.051 A 
ATOM     15  C   UNL     1      48.920  -8.739  -6.151  1.00  0.00     0.157 A 
ATOM     16  C   UNL     1      48.218  -7.488  -4.191  1.00  0.00     0.062 A 
ATOM     17  C   UNL     1      48.510  -7.532  -5.563  1.00  0.00     0.158 A 
BRANCH  15  18
ATOM     18  O   UNL     1      49.215  -8.816  -7.512  1.00  0.00    -0.504 OA
ATOM     19  H   UNL     1      49.363  -9.701  -7.981  1.00  0.00     0.293 HD
ENDBRANCH  15  18
BRANCH  17  20
ATOM     20  O   UNL     1      48.399  -6.380  -6.340  1.00  0.00    -0.504 OA
ATOM     21  H   UNL     1      48.017  -6.406  -7.278  1.00  0.00     0.293 HD
ENDBRANCH  17  20
ENDBRANCH   1  12
BRANCH   6  22
ATOM     22  O   UNL     1      47.367  -9.251   3.156  1.00  0.00    -0.507 OA
ATOM     23  H   UNL     1      47.238  -9.069   4.140  1.00  0.00     0.293 HD
ENDBRANCH   6  22
BRANCH   8  24
ATOM     24  O   UNL     1      44.521  -5.610   1.852  1.00  0.00    -0.508 OA
ATOM     25  H   UNL     1      44.428  -5.284   2.806  1.00  0.00     0.293 HD
ENDBRANCH   8  24
TORSDOF 5
ENDMDL
