MODEL 1
REMARK VINA RESULT:    -3.588      0.000      0.000
REMARK INTER + INTRA:          -5.909
REMARK INTER:                  -5.162
REMARK INTRA:                  -0.747
REMARK UNBOUND:                -0.747
REMARK SMILES O=C(CO)[C@@H](O)[C@H](O)[C@H](O)CO
REMARK SMILES IDX 7 1 9 2 11 3 12 4 10 6 5 8 2 9 1 10 3 11 4 12 6 14 8 16
REMARK H PARENT 12 5 10 7 4 13 6 15 8 17
REMARK Flexibility Score: inf
ROOT
ATOM      1  C   UNL     1      71.753  30.181  60.578  1.00  0.00     0.181 C 
ENDROOT
BRANCH   1   2
ATOM      2  C   UNL     1      72.456  31.558  60.676  1.00  0.00     0.171 C 
BRANCH   2   3
ATOM      3  C   UNL     1      71.514  32.688  60.233  1.00  0.00     0.190 C 
BRANCH   3   4
ATOM      4  O   UNL     1      71.734  33.825  61.021  1.00  0.00    -0.394 OA
ATOM      5  H   UNL     1      72.711  33.860  61.189  1.00  0.00     0.210 HD
ENDBRANCH   3   4
ENDBRANCH   2   3
BRANCH   2   6
ATOM      6  O   UNL     1      72.862  31.792  62.002  1.00  0.00    -0.388 OA
ATOM      7  H   UNL     1      72.222  32.442  62.392  1.00  0.00     0.211 HD
ENDBRANCH   2   6
ENDBRANCH   1   2
BRANCH   1   8
ATOM      8  C   UNL     1      70.301  30.188  61.122  1.00  0.00     0.214 C 
BRANCH   8   9
ATOM      9  C   UNL     1      69.589  28.870  60.868  1.00  0.00     0.189 C 
ATOM     10  O   UNL     1      70.193  27.973  60.299  1.00  0.00    -0.294 OA
BRANCH   9  11
ATOM     11  C   UNL     1      68.164  28.627  61.289  1.00  0.00     0.234 C 
BRANCH  11  12
ATOM     12  O   UNL     1      68.038  28.856  62.665  1.00  0.00    -0.388 OA
ATOM     13  H   UNL     1      67.784  29.809  62.764  1.00  0.00     0.211 HD
ENDBRANCH  11  12
ENDBRANCH   9  11
ENDBRANCH   8   9
BRANCH   8  14
ATOM     14  O   UNL     1      70.299  30.522  62.487  1.00  0.00    -0.382 OA
ATOM     15  H   UNL     1      69.896  29.754  62.970  1.00  0.00     0.211 HD
ENDBRANCH   8  14
ENDBRANCH   1   8
BRANCH   1  16
ATOM     16  O   UNL     1      72.510  29.223  61.275  1.00  0.00    -0.387 OA
ATOM     17  H   UNL     1      72.125  29.158  62.187  1.00  0.00     0.211 HD
ENDBRANCH   1  16
TORSDOF 10
ENDMDL
MODEL 2
REMARK VINA RESULT:    -3.495     14.771     16.099
REMARK INTER + INTRA:          -5.774
REMARK INTER:                  -4.940
REMARK INTRA:                  -0.834
REMARK UNBOUND:                -0.747
REMARK SMILES O=C(CO)[C@@H](O)[C@H](O)[C@H](O)CO
REMARK SMILES IDX 7 1 9 2 11 3 12 4 10 6 5 8 2 9 1 10 3 11 4 12 6 14 8 16
REMARK H PARENT 12 5 10 7 4 13 6 15 8 17
REMARK Flexibility Score: inf
ROOT
ATOM      1  C   UNL     1      60.004  28.306  49.468  1.00  0.00     0.181 C 
ENDROOT
BRANCH   1   2
ATOM      2  C   UNL     1      59.131  27.602  50.538  1.00  0.00     0.171 C 
BRANCH   2   3
ATOM      3  C   UNL     1      58.455  26.351  49.957  1.00  0.00     0.190 C 
BRANCH   3   4
ATOM      4  O   UNL     1      59.248  25.816  48.933  1.00  0.00    -0.394 OA
ATOM      5  H   UNL     1      58.906  24.899  48.770  1.00  0.00     0.210 HD
ENDBRANCH   3   4
ENDBRANCH   2   3
BRANCH   2   6
ATOM      6  O   UNL     1      59.929  27.227  51.633  1.00  0.00    -0.388 OA
ATOM      7  H   UNL     1      60.452  26.431  51.352  1.00  0.00     0.211 HD
ENDBRANCH   2   6
ENDBRANCH   1   2
BRANCH   1   8
ATOM      8  C   UNL     1      61.476  28.512  49.910  1.00  0.00     0.214 C 
BRANCH   8   9
ATOM      9  C   UNL     1      62.397  27.441  49.350  1.00  0.00     0.189 C 
ATOM     10  O   UNL     1      62.095  26.267  49.500  1.00  0.00    -0.294 OA
BRANCH   9  11
ATOM     11  C   UNL     1      63.670  27.772  48.618  1.00  0.00     0.234 C 
BRANCH  11  12
ATOM     12  O   UNL     1      63.361  28.358  47.384  1.00  0.00    -0.388 OA
ATOM     13  H   UNL     1      62.848  27.678  46.876  1.00  0.00     0.211 HD
ENDBRANCH  11  12
ENDBRANCH   9  11
ENDBRANCH   8   9
BRANCH   8  14
ATOM     14  O   UNL     1      61.909  29.801  49.558  1.00  0.00    -0.382 OA
ATOM     15  H   UNL     1      61.241  30.165  48.919  1.00  0.00     0.211 HD
ENDBRANCH   8  14
ENDBRANCH   1   8
BRANCH   1  16
ATOM     16  O   UNL     1      59.433  29.550  49.148  1.00  0.00    -0.387 OA
ATOM     17  H   UNL     1      60.122  30.066  48.655  1.00  0.00     0.211 HD
ENDBRANCH   1  16
TORSDOF 10
ENDMDL
MODEL 3
REMARK VINA RESULT:    -3.493     13.865     15.629
REMARK INTER + INTRA:          -5.772
REMARK INTER:                  -4.668
REMARK INTRA:                  -1.103
REMARK UNBOUND:                -0.747
REMARK SMILES O=C(CO)[C@@H](O)[C@H](O)[C@H](O)CO
REMARK SMILES IDX 7 1 9 2 11 3 12 4 10 6 5 8 2 9 1 10 3 11 4 12 6 14 8 16
REMARK H PARENT 12 5 10 7 4 13 6 15 8 17
REMARK Flexibility Score: inf
ROOT
ATOM      1  C   UNL     1      60.957  28.397  49.939  1.00  0.00     0.181 C 
ENDROOT
BRANCH   1   2
ATOM      2  C   UNL     1      59.469  28.474  49.512  1.00  0.00     0.171 C 
BRANCH   2   3
ATOM      3  C   UNL     1      58.766  27.125  49.730  1.00  0.00     0.190 C 
BRANCH   3   4
ATOM      4  O   UNL     1      59.396  26.133  48.967  1.00  0.00    -0.394 OA
ATOM      5  H   UNL     1      60.355  26.383  48.929  1.00  0.00     0.210 HD
ENDBRANCH   3   4
ENDBRANCH   2   3
BRANCH   2   6
ATOM      6  O   UNL     1      58.809  29.463  50.261  1.00  0.00    -0.388 OA
ATOM      7  H   UNL     1      58.774  30.280  49.698  1.00  0.00     0.211 HD
ENDBRANCH   2   6
ENDBRANCH   1   2
BRANCH   1   8
ATOM      8  C   UNL     1      61.552  29.766  50.357  1.00  0.00     0.214 C 
BRANCH   8   9
ATOM      9  C   UNL     1      63.071  29.752  50.362  1.00  0.00     0.189 C 
ATOM     10  O   UNL     1      63.651  29.022  51.152  1.00  0.00    -0.294 OA
BRANCH   9  11
ATOM     11  C   UNL     1      63.891  30.605  49.432  1.00  0.00     0.234 C 
BRANCH  11  12
ATOM     12  O   UNL     1      63.695  30.179  48.113  1.00  0.00    -0.388 OA
ATOM     13  H   UNL     1      62.736  29.936  48.040  1.00  0.00     0.211 HD
ENDBRANCH  11  12
ENDBRANCH   9  11
ENDBRANCH   8   9
BRANCH   8  14
ATOM     14  O   UNL     1      61.048  30.783  49.529  1.00  0.00    -0.382 OA
ATOM     15  H   UNL     1      61.644  31.570  49.645  1.00  0.00     0.211 HD
ENDBRANCH   8  14
ENDBRANCH   1   8
BRANCH   1  16
ATOM     16  O   UNL     1      61.715  27.858  48.885  1.00  0.00    -0.387 OA
ATOM     17  H   UNL     1      61.997  28.619  48.313  1.00  0.00     0.211 HD
ENDBRANCH   1  16
TORSDOF 10
ENDMDL
MODEL 4
REMARK VINA RESULT:    -3.442     12.074     13.961
REMARK INTER + INTRA:          -5.698
REMARK INTER:                  -4.730
REMARK INTRA:                  -0.968
REMARK UNBOUND:                -0.747
REMARK SMILES O=C(CO)[C@@H](O)[C@H](O)[C@H](O)CO
REMARK SMILES IDX 7 1 9 2 11 3 12 4 10 6 5 8 2 9 1 10 3 11 4 12 6 14 8 16
REMARK H PARENT 12 5 10 7 4 13 6 15 8 17
REMARK Flexibility Score: inf
ROOT
ATOM      1  C   UNL     1      57.724  26.119  61.963  1.00  0.00     0.181 C 
ENDROOT
BRANCH   1   2
ATOM      2  C   UNL     1      56.302  26.500  62.445  1.00  0.00     0.171 C 
BRANCH   2   3
ATOM      3  C   UNL     1      55.899  27.888  61.923  1.00  0.00     0.190 C 
BRANCH   3   4
ATOM      4  O   UNL     1      56.356  28.877  62.804  1.00  0.00    -0.394 OA
ATOM      5  H   UNL     1      55.761  28.835  63.597  1.00  0.00     0.210 HD
ENDBRANCH   3   4
ENDBRANCH   2   3
BRANCH   2   6
ATOM      6  O   UNL     1      55.373  25.549  61.986  1.00  0.00    -0.388 OA
ATOM      7  H   UNL     1      55.824  25.023  61.275  1.00  0.00     0.211 HD
ENDBRANCH   2   6
ENDBRANCH   1   2
BRANCH   1   8
ATOM      8  C   UNL     1      58.189  24.722  62.448  1.00  0.00     0.214 C 
BRANCH   8   9
ATOM      9  C   UNL     1      59.698  24.639  62.594  1.00  0.00     0.189 C 
ATOM     10  O   UNL     1      60.389  24.639  61.585  1.00  0.00    -0.294 OA
BRANCH   9  11
ATOM     11  C   UNL     1      60.378  24.554  63.934  1.00  0.00     0.234 C 
BRANCH  11  12
ATOM     12  O   UNL     1      60.756  25.837  64.349  1.00  0.00    -0.388 OA
ATOM     13  H   UNL     1      59.914  26.324  64.544  1.00  0.00     0.211 HD
ENDBRANCH  11  12
ENDBRANCH   9  11
ENDBRANCH   8   9
BRANCH   8  14
ATOM     14  O   UNL     1      57.535  24.386  63.646  1.00  0.00    -0.382 OA
ATOM     15  H   UNL     1      57.304  23.421  63.586  1.00  0.00     0.211 HD
ENDBRANCH   8  14
ENDBRANCH   1   8
BRANCH   1  16
ATOM     16  O   UNL     1      58.639  27.094  62.400  1.00  0.00    -0.387 OA
ATOM     17  H   UNL     1      58.644  27.813  61.716  1.00  0.00     0.211 HD
ENDBRANCH   1  16
TORSDOF 10
ENDMDL
MODEL 5
REMARK VINA RESULT:    -3.420      3.178      5.360
REMARK INTER + INTRA:          -5.666
REMARK INTER:                  -4.757
REMARK INTRA:                  -0.910
REMARK UNBOUND:                -0.747
REMARK SMILES O=C(CO)[C@@H](O)[C@H](O)[C@H](O)CO
REMARK SMILES IDX 7 1 9 2 11 3 12 4 10 6 5 8 2 9 1 10 3 11 4 12 6 14 8 16
REMARK H PARENT 12 5 10 7 4 13 6 15 8 17
REMARK Flexibility Score: inf
ROOT
ATOM      1  C   UNL     1      70.815  33.349  59.042  1.00  0.00     0.181 C 
ENDROOT
BRANCH   1   2
ATOM      2  C   UNL     1      71.222  32.935  60.479  1.00  0.00     0.171 C 
BRANCH   2   3
ATOM      3  C   UNL     1      72.033  31.630  60.464  1.00  0.00     0.190 C 
BRANCH   3   4
ATOM      4  O   UNL     1      72.994  31.658  61.484  1.00  0.00    -0.394 OA
ATOM      5  H   UNL     1      73.710  32.269  61.171  1.00  0.00     0.210 HD
ENDBRANCH   3   4
ENDBRANCH   2   3
BRANCH   2   6
ATOM      6  O   UNL     1      71.997  33.951  61.066  1.00  0.00    -0.388 OA
ATOM      7  H   UNL     1      72.217  33.653  61.987  1.00  0.00     0.211 HD
ENDBRANCH   2   6
ENDBRANCH   1   2
BRANCH   1   8
ATOM      8  C   UNL     1      70.499  34.860  58.900  1.00  0.00     0.214 C 
BRANCH   8   9
ATOM      9  C   UNL     1      69.729  35.166  57.627  1.00  0.00     0.189 C 
ATOM     10  O   UNL     1      70.268  34.965  56.549  1.00  0.00    -0.294 OA
BRANCH   9  11
ATOM     11  C   UNL     1      68.326  35.711  57.643  1.00  0.00     0.234 C 
BRANCH  11  12
ATOM     12  O   UNL     1      67.471  34.783  58.250  1.00  0.00    -0.388 OA
ATOM     13  H   UNL     1      67.608  33.926  57.770  1.00  0.00     0.211 HD
ENDBRANCH  11  12
ENDBRANCH   9  11
ENDBRANCH   8   9
BRANCH   8  14
ATOM     14  O   UNL     1      69.818  35.319  60.039  1.00  0.00    -0.382 OA
ATOM     15  H   UNL     1      69.810  34.570  60.692  1.00  0.00     0.211 HD
ENDBRANCH   8  14
ENDBRANCH   1   8
BRANCH   1  16
ATOM     16  O   UNL     1      69.697  32.597  58.642  1.00  0.00    -0.387 OA
ATOM     17  H   UNL     1      68.895  33.157  58.812  1.00  0.00     0.211 HD
ENDBRANCH   1  16
TORSDOF 10
ENDMDL
MODEL 6
REMARK VINA RESULT:    -3.415     13.678     14.570
REMARK INTER + INTRA:          -5.660
REMARK INTER:                  -4.584
REMARK INTRA:                  -1.076
REMARK UNBOUND:                -0.747
REMARK SMILES O=C(CO)[C@@H](O)[C@H](O)[C@H](O)CO
REMARK SMILES IDX 7 1 9 2 11 3 12 4 10 6 5 8 2 9 1 10 3 11 4 12 6 14 8 16
REMARK H PARENT 12 5 10 7 4 13 6 15 8 17
REMARK Flexibility Score: inf
ROOT
ATOM      1  C   UNL     1      62.606  31.515  49.725  1.00  0.00     0.181 C 
ENDROOT
BRANCH   1   2
ATOM      2  C   UNL     1      62.874  32.716  48.782  1.00  0.00     0.171 C 
BRANCH   2   3
ATOM      3  C   UNL     1      62.439  34.035  49.438  1.00  0.00     0.190 C 
BRANCH   3   4
ATOM      4  O   UNL     1      61.044  34.154  49.383  1.00  0.00    -0.394 OA
ATOM      5  H   UNL     1      60.681  33.339  49.816  1.00  0.00     0.210 HD
ENDBRANCH   3   4
ENDBRANCH   2   3
BRANCH   2   6
ATOM      6  O   UNL     1      64.244  32.784  48.476  1.00  0.00    -0.388 OA
ATOM      7  H   UNL     1      64.729  32.314  49.205  1.00  0.00     0.211 HD
ENDBRANCH   2   6
ENDBRANCH   1   2
BRANCH   1   8
ATOM      8  C   UNL     1      63.526  30.298  49.453  1.00  0.00     0.214 C 
BRANCH   8   9
ATOM      9  C   UNL     1      63.043  29.046  50.164  1.00  0.00     0.189 C 
ATOM     10  O   UNL     1      63.025  29.031  51.386  1.00  0.00    -0.294 OA
BRANCH   9  11
ATOM     11  C   UNL     1      62.588  27.819  49.420  1.00  0.00     0.234 C 
BRANCH  11  12
ATOM     12  O   UNL     1      61.383  28.093  48.760  1.00  0.00    -0.388 OA
ATOM     13  H   UNL     1      60.770  27.345  48.982  1.00  0.00     0.211 HD
ENDBRANCH  11  12
ENDBRANCH   9  11
ENDBRANCH   8   9
BRANCH   8  14
ATOM     14  O   UNL     1      63.655  30.090  48.069  1.00  0.00    -0.382 OA
ATOM     15  H   UNL     1      63.868  29.128  47.942  1.00  0.00     0.211 HD
ENDBRANCH   8  14
ENDBRANCH   1   8
BRANCH   1  16
ATOM     16  O   UNL     1      61.261  31.122  49.604  1.00  0.00    -0.387 OA
ATOM     17  H   UNL     1      60.839  31.260  50.491  1.00  0.00     0.211 HD
ENDBRANCH   1  16
TORSDOF 10
ENDMDL
MODEL 7
REMARK VINA RESULT:    -3.394      3.321      5.381
REMARK INTER + INTRA:          -5.630
REMARK INTER:                  -4.792
REMARK INTRA:                  -0.837
REMARK UNBOUND:                -0.747
REMARK SMILES O=C(CO)[C@@H](O)[C@H](O)[C@H](O)CO
REMARK SMILES IDX 7 1 9 2 11 3 12 4 10 6 5 8 2 9 1 10 3 11 4 12 6 14 8 16
REMARK H PARENT 12 5 10 7 4 13 6 15 8 17
REMARK Flexibility Score: inf
ROOT
ATOM      1  C   UNL     1      70.645  34.600  57.646  1.00  0.00     0.181 C 
ENDROOT
BRANCH   1   2
ATOM      2  C   UNL     1      69.807  35.896  57.508  1.00  0.00     0.171 C 
BRANCH   2   3
ATOM      3  C   UNL     1      68.359  35.662  57.967  1.00  0.00     0.190 C 
BRANCH   3   4
ATOM      4  O   UNL     1      68.167  36.226  59.236  1.00  0.00    -0.394 OA
ATOM      5  H   UNL     1      67.193  36.394  59.319  1.00  0.00     0.210 HD
ENDBRANCH   3   4
ENDBRANCH   2   3
BRANCH   2   6
ATOM      6  O   UNL     1      70.377  36.917  58.287  1.00  0.00    -0.388 OA
ATOM      7  H   UNL     1      70.703  36.496  59.125  1.00  0.00     0.211 HD
ENDBRANCH   2   6
ENDBRANCH   1   2
BRANCH   1   8
ATOM      8  C   UNL     1      70.502  33.915  59.029  1.00  0.00     0.214 C 
BRANCH   8   9
ATOM      9  C   UNL     1      71.255  32.597  59.096  1.00  0.00     0.189 C 
ATOM     10  O   UNL     1      71.716  32.129  58.065  1.00  0.00    -0.294 OA
BRANCH   9  11
ATOM     11  C   UNL     1      71.454  31.844  60.384  1.00  0.00     0.234 C 
BRANCH  11  12
ATOM     12  O   UNL     1      72.243  32.606  61.254  1.00  0.00    -0.388 OA
ATOM     13  H   UNL     1      71.623  32.984  61.930  1.00  0.00     0.211 HD
ENDBRANCH  11  12
ENDBRANCH   9  11
ENDBRANCH   8   9
BRANCH   8  14
ATOM     14  O   UNL     1      70.907  34.793  60.047  1.00  0.00    -0.382 OA
ATOM     15  H   UNL     1      71.878  34.641  60.190  1.00  0.00     0.211 HD
ENDBRANCH   8  14
ENDBRANCH   1   8
BRANCH   1  16
ATOM     16  O   UNL     1      71.999  34.896  57.409  1.00  0.00    -0.387 OA
ATOM     17  H   UNL     1      72.513  34.539  58.179  1.00  0.00     0.211 HD
ENDBRANCH   1  16
TORSDOF 10
ENDMDL
MODEL 8
REMARK VINA RESULT:    -3.392      9.579     12.838
REMARK INTER + INTRA:          -5.627
REMARK INTER:                  -4.560
REMARK INTRA:                  -1.067
REMARK UNBOUND:                -0.747
REMARK SMILES O=C(CO)[C@@H](O)[C@H](O)[C@H](O)CO
REMARK SMILES IDX 7 1 9 2 11 3 12 4 10 6 5 8 2 9 1 10 3 11 4 12 6 14 8 16
REMARK H PARENT 12 5 10 7 4 13 6 15 8 17
REMARK Flexibility Score: inf
ROOT
ATOM      1  C   UNL     1      58.344  27.469  61.377  1.00  0.00     0.181 C 
ENDROOT
BRANCH   1   2
ATOM      2  C   UNL     1      57.122  27.282  62.311  1.00  0.00     0.171 C 
BRANCH   2   3
ATOM      3  C   UNL     1      55.835  27.783  61.638  1.00  0.00     0.190 C 
BRANCH   3   4
ATOM      4  O   UNL     1      55.804  29.184  61.658  1.00  0.00    -0.394 OA
ATOM      5  H   UNL     1      55.958  29.448  62.602  1.00  0.00     0.210 HD
ENDBRANCH   3   4
ENDBRANCH   2   3
BRANCH   2   6
ATOM      6  O   UNL     1      56.973  25.921  62.632  1.00  0.00    -0.388 OA
ATOM      7  H   UNL     1      56.132  25.612  62.205  1.00  0.00     0.211 HD
ENDBRANCH   2   6
ENDBRANCH   1   2
BRANCH   1   8
ATOM      8  C   UNL     1      59.491  26.462  61.649  1.00  0.00     0.214 C 
BRANCH   8   9
ATOM      9  C   UNL     1      60.777  26.856  60.944  1.00  0.00     0.189 C 
ATOM     10  O   UNL     1      60.802  26.863  59.722  1.00  0.00    -0.294 OA
BRANCH   9  11
ATOM     11  C   UNL     1      62.027  27.236  61.693  1.00  0.00     0.234 C 
BRANCH  11  12
ATOM     12  O   UNL     1      61.828  28.460  62.343  1.00  0.00    -0.388 OA
ATOM     13  H   UNL     1      62.544  28.531  63.025  1.00  0.00     0.211 HD
ENDBRANCH  11  12
ENDBRANCH   9  11
ENDBRANCH   8   9
BRANCH   8  14
ATOM     14  O   UNL     1      59.685  26.314  63.032  1.00  0.00    -0.382 OA
ATOM     15  H   UNL     1      58.820  26.008  63.413  1.00  0.00     0.211 HD
ENDBRANCH   8  14
ENDBRANCH   1   8
BRANCH   1  16
ATOM     16  O   UNL     1      58.832  28.781  61.509  1.00  0.00    -0.387 OA
ATOM     17  H   UNL     1      58.393  29.174  62.307  1.00  0.00     0.211 HD
ENDBRANCH   1  16
TORSDOF 10
ENDMDL
MODEL 9
REMARK VINA RESULT:    -3.380     13.637     14.856
REMARK INTER + INTRA:          -5.610
REMARK INTER:                  -4.592
REMARK INTRA:                  -1.018
REMARK UNBOUND:                -0.747
REMARK SMILES O=C(CO)[C@@H](O)[C@H](O)[C@H](O)CO
REMARK SMILES IDX 7 1 9 2 11 3 12 4 10 6 5 8 2 9 1 10 3 11 4 12 6 14 8 16
REMARK H PARENT 12 5 10 7 4 13 6 15 8 17
REMARK Flexibility Score: inf
ROOT
ATOM      1  C   UNL     1      63.680  30.397  49.484  1.00  0.00     0.181 C 
ENDROOT
BRANCH   1   2
ATOM      2  C   UNL     1      63.313  29.084  50.221  1.00  0.00     0.171 C 
BRANCH   2   3
ATOM      3  C   UNL     1      62.904  27.990  49.223  1.00  0.00     0.190 C 
BRANCH   3   4
ATOM      4  O   UNL     1      61.573  28.183  48.828  1.00  0.00    -0.394 OA
ATOM      5  H   UNL     1      61.206  28.881  49.430  1.00  0.00     0.210 HD
ENDBRANCH   3   4
ENDBRANCH   2   3
BRANCH   2   6
ATOM      6  O   UNL     1      64.416  28.635  50.969  1.00  0.00    -0.388 OA
ATOM      7  H   UNL     1      64.326  27.650  51.056  1.00  0.00     0.211 HD
ENDBRANCH   2   6
ENDBRANCH   1   2
BRANCH   1   8
ATOM      8  C   UNL     1      62.701  31.563  49.772  1.00  0.00     0.214 C 
BRANCH   8   9
ATOM      9  C   UNL     1      63.073  32.825  49.013  1.00  0.00     0.189 C 
ATOM     10  O   UNL     1      64.255  33.075  48.829  1.00  0.00    -0.294 OA
BRANCH   9  11
ATOM     11  C   UNL     1      62.041  33.782  48.479  1.00  0.00     0.234 C 
BRANCH  11  12
ATOM     12  O   UNL     1      61.153  34.131  49.504  1.00  0.00    -0.388 OA
ATOM     13  H   UNL     1      60.902  33.283  49.953  1.00  0.00     0.211 HD
ENDBRANCH  11  12
ENDBRANCH   9  11
ENDBRANCH   8   9
BRANCH   8  14
ATOM     14  O   UNL     1      61.382  31.165  49.497  1.00  0.00    -0.382 OA
ATOM     15  H   UNL     1      61.219  31.355  48.536  1.00  0.00     0.211 HD
ENDBRANCH   8  14
ENDBRANCH   1   8
BRANCH   1  16
ATOM     16  O   UNL     1      63.724  30.154  48.099  1.00  0.00    -0.387 OA
ATOM     17  H   UNL     1      62.866  30.479  47.721  1.00  0.00     0.211 HD
ENDBRANCH   1  16
TORSDOF 10
ENDMDL
