MODEL 1
REMARK VINA RESULT:    -3.776      0.000      0.000
REMARK INTER + INTRA:          -5.860
REMARK INTER:                  -5.321
REMARK INTRA:                  -0.540
REMARK UNBOUND:                -0.540
REMARK SMILES CCCCCCCCC(=O)[O-]
REMARK SMILES IDX 6 1 7 2 8 3 9 4 10 5 11 6 5 7 4 8 3 9 2 10 1 11
REMARK H PARENT
REMARK Flexibility Score: inf
ROOT
ATOM      1  C   UNL     1      50.956  26.113  33.199  1.00  0.00     0.000 C 
ENDROOT
BRANCH   1   2
ATOM      2  C   UNL     1      52.319  26.498  33.800  1.00  0.00     0.006 C 
BRANCH   2   3
ATOM      3  C   UNL     1      52.203  27.527  34.931  1.00  0.00     0.053 C 
BRANCH   3   4
ATOM      4  C   UNL     1      53.095  28.698  34.667  1.00  0.00     0.041 C 
ATOM      5  O   UNL     1      52.741  29.855  35.014  1.00  0.00    -0.550 OA
ATOM      6  O   UNL     1      54.296  28.518  33.991  1.00  0.00    -0.550 OA
ENDBRANCH   3   4
ENDBRANCH   2   3
ENDBRANCH   1   2
BRANCH   1   7
ATOM      7  C   UNL     1      49.737  26.767  33.881  1.00  0.00     0.000 C 
BRANCH   7   8
ATOM      8  C   UNL     1      48.837  25.804  34.681  1.00  0.00    -0.000 C 
BRANCH   8   9
ATOM      9  C   UNL     1      49.550  25.040  35.812  1.00  0.00    -0.000 C 
BRANCH   9  10
ATOM     10  C   UNL     1      49.830  23.573  35.455  1.00  0.00    -0.003 C 
ATOM     11  C   UNL     1      48.650  22.955  34.710  1.00  0.00     0.004 C 
ENDBRANCH   9  10
ENDBRANCH   8   9
ENDBRANCH   7   8
ENDBRANCH   1   7
TORSDOF 7
ENDMDL
MODEL 2
REMARK VINA RESULT:    -3.771      2.732      5.168
REMARK INTER + INTRA:          -5.853
REMARK INTER:                  -5.342
REMARK INTRA:                  -0.511
REMARK UNBOUND:                -0.540
REMARK SMILES CCCCCCCCC(=O)[O-]
REMARK SMILES IDX 6 1 7 2 8 3 9 4 10 5 11 6 5 7 4 8 3 9 2 10 1 11
REMARK H PARENT
REMARK Flexibility Score: inf
ROOT
ATOM      1  C   UNL     1      51.920  25.502  33.797  1.00  0.00     0.000 C 
ENDROOT
BRANCH   1   2
ATOM      2  C   UNL     1      50.735  25.822  32.868  1.00  0.00     0.006 C 
BRANCH   2   3
ATOM      3  C   UNL     1      49.657  26.671  33.551  1.00  0.00     0.053 C 
BRANCH   3   4
ATOM      4  C   UNL     1      49.079  25.939  34.722  1.00  0.00     0.041 C 
ATOM      5  O   UNL     1      48.343  24.934  34.540  1.00  0.00    -0.550 OA
ATOM      6  O   UNL     1      49.311  26.399  36.012  1.00  0.00    -0.550 OA
ENDBRANCH   3   4
ENDBRANCH   2   3
ENDBRANCH   1   2
BRANCH   1   7
ATOM      7  C   UNL     1      52.965  26.628  33.931  1.00  0.00     0.000 C 
BRANCH   7   8
ATOM      8  C   UNL     1      53.046  27.285  35.323  1.00  0.00    -0.000 C 
BRANCH   8   9
ATOM      9  C   UNL     1      52.126  28.503  35.521  1.00  0.00    -0.000 C 
BRANCH   9  10
ATOM     10  C   UNL     1      52.883  29.837  35.459  1.00  0.00    -0.003 C 
ATOM     11  C   UNL     1      53.305  30.294  36.853  1.00  0.00     0.004 C 
ENDBRANCH   9  10
ENDBRANCH   8   9
ENDBRANCH   7   8
ENDBRANCH   1   7
TORSDOF 7
ENDMDL
MODEL 3
REMARK VINA RESULT:    -3.769      0.580      1.201
REMARK INTER + INTRA:          -5.850
REMARK INTER:                  -5.331
REMARK INTRA:                  -0.519
REMARK UNBOUND:                -0.540
REMARK SMILES CCCCCCCCC(=O)[O-]
REMARK SMILES IDX 6 1 7 2 8 3 9 4 10 5 11 6 5 7 4 8 3 9 2 10 1 11
REMARK H PARENT
REMARK Flexibility Score: inf
ROOT
ATOM      1  C   UNL     1      50.948  25.977  33.187  1.00  0.00     0.000 C 
ENDROOT
BRANCH   1   2
ATOM      2  C   UNL     1      52.282  26.507  33.742  1.00  0.00     0.006 C 
BRANCH   2   3
ATOM      3  C   UNL     1      52.094  27.547  34.853  1.00  0.00     0.053 C 
BRANCH   3   4
ATOM      4  C   UNL     1      53.008  28.711  34.639  1.00  0.00     0.041 C 
ATOM      5  O   UNL     1      54.034  28.587  33.919  1.00  0.00    -0.550 OA
ATOM      6  O   UNL     1      52.756  29.920  35.276  1.00  0.00    -0.550 OA
ENDBRANCH   3   4
ENDBRANCH   2   3
ENDBRANCH   1   2
BRANCH   1   7
ATOM      7  C   UNL     1      49.691  26.703  33.710  1.00  0.00     0.000 C 
BRANCH   7   8
ATOM      8  C   UNL     1      48.771  25.854  34.610  1.00  0.00    -0.000 C 
BRANCH   8   9
ATOM      9  C   UNL     1      49.409  24.564  35.157  1.00  0.00    -0.000 C 
BRANCH   9  10
ATOM     10  C   UNL     1      48.715  23.293  34.643  1.00  0.00    -0.003 C 
ATOM     11  C   UNL     1      47.511  23.640  33.772  1.00  0.00     0.004 C 
ENDBRANCH   9  10
ENDBRANCH   8   9
ENDBRANCH   7   8
ENDBRANCH   1   7
TORSDOF 7
ENDMDL
MODEL 4
REMARK VINA RESULT:    -3.721      2.532      4.851
REMARK INTER + INTRA:          -5.783
REMARK INTER:                  -5.244
REMARK INTRA:                  -0.539
REMARK UNBOUND:                -0.540
REMARK SMILES CCCCCCCCC(=O)[O-]
REMARK SMILES IDX 6 1 7 2 8 3 9 4 10 5 11 6 5 7 4 8 3 9 2 10 1 11
REMARK H PARENT
REMARK Flexibility Score: inf
ROOT
ATOM      1  C   UNL     1      51.068  25.066  32.859  1.00  0.00     0.000 C 
ENDROOT
BRANCH   1   2
ATOM      2  C   UNL     1      50.202  26.283  33.231  1.00  0.00     0.006 C 
BRANCH   2   3
ATOM      3  C   UNL     1      49.005  25.913  34.115  1.00  0.00     0.053 C 
BRANCH   3   4
ATOM      4  C   UNL     1      49.427  25.799  35.546  1.00  0.00     0.041 C 
ATOM      5  O   UNL     1      49.595  26.836  36.241  1.00  0.00    -0.550 OA
ATOM      6  O   UNL     1      49.684  24.550  36.098  1.00  0.00    -0.550 OA
ENDBRANCH   3   4
ENDBRANCH   2   3
ENDBRANCH   1   2
BRANCH   1   7
ATOM      7  C   UNL     1      52.425  24.986  33.587  1.00  0.00     0.000 C 
BRANCH   7   8
ATOM      8  C   UNL     1      52.828  26.254  34.365  1.00  0.00    -0.000 C 
BRANCH   8   9
ATOM      9  C   UNL     1      54.188  26.856  33.965  1.00  0.00    -0.000 C 
BRANCH   9  10
ATOM     10  C   UNL     1      54.175  28.391  33.941  1.00  0.00    -0.003 C 
ATOM     11  C   UNL     1      53.061  28.945  34.823  1.00  0.00     0.004 C 
ENDBRANCH   9  10
ENDBRANCH   8   9
ENDBRANCH   7   8
ENDBRANCH   1   7
TORSDOF 7
ENDMDL
MODEL 5
REMARK VINA RESULT:    -3.698      2.716      3.703
REMARK INTER + INTRA:          -5.751
REMARK INTER:                  -4.950
REMARK INTRA:                  -0.802
REMARK UNBOUND:                -0.540
REMARK SMILES CCCCCCCCC(=O)[O-]
REMARK SMILES IDX 6 1 7 2 8 3 9 4 10 5 11 6 5 7 4 8 3 9 2 10 1 11
REMARK H PARENT
REMARK Flexibility Score: inf
ROOT
ATOM      1  C   UNL     1      49.754  25.146  36.161  1.00  0.00     0.000 C 
ENDROOT
BRANCH   1   2
ATOM      2  C   UNL     1      49.921  26.486  35.424  1.00  0.00     0.006 C 
BRANCH   2   3
ATOM      3  C   UNL     1      50.924  26.407  34.266  1.00  0.00     0.053 C 
BRANCH   3   4
ATOM      4  C   UNL     1      50.271  25.839  33.046  1.00  0.00     0.041 C 
ATOM      5  O   UNL     1      50.845  24.936  32.383  1.00  0.00    -0.550 OA
ATOM      6  O   UNL     1      49.051  26.343  32.612  1.00  0.00    -0.550 OA
ENDBRANCH   3   4
ENDBRANCH   2   3
ENDBRANCH   1   2
BRANCH   1   7
ATOM      7  C   UNL     1      50.941  24.172  36.019  1.00  0.00     0.000 C 
BRANCH   7   8
ATOM      8  C   UNL     1      50.619  22.847  35.298  1.00  0.00    -0.000 C 
BRANCH   8   9
ATOM      9  C   UNL     1      49.121  22.500  35.218  1.00  0.00    -0.000 C 
BRANCH   9  10
ATOM     10  C   UNL     1      48.565  22.591  33.789  1.00  0.00    -0.003 C 
ATOM     11  C   UNL     1      47.326  23.480  33.739  1.00  0.00     0.004 C 
ENDBRANCH   9  10
ENDBRANCH   8   9
ENDBRANCH   7   8
ENDBRANCH   1   7
TORSDOF 7
ENDMDL
MODEL 6
REMARK VINA RESULT:    -3.645      1.646      2.681
REMARK INTER + INTRA:          -5.676
REMARK INTER:                  -5.100
REMARK INTRA:                  -0.577
REMARK UNBOUND:                -0.540
REMARK SMILES CCCCCCCCC(=O)[O-]
REMARK SMILES IDX 6 1 7 2 8 3 9 4 10 5 11 6 5 7 4 8 3 9 2 10 1 11
REMARK H PARENT
REMARK Flexibility Score: inf
ROOT
ATOM      1  C   UNL     1      52.743  27.066  35.092  1.00  0.00     0.000 C 
ENDROOT
BRANCH   1   2
ATOM      2  C   UNL     1      51.966  28.317  35.540  1.00  0.00     0.006 C 
BRANCH   2   3
ATOM      3  C   UNL     1      52.771  29.610  35.370  1.00  0.00     0.053 C 
BRANCH   3   4
ATOM      4  C   UNL     1      53.561  29.901  36.606  1.00  0.00     0.041 C 
ATOM      5  O   UNL     1      53.025  30.502  37.574  1.00  0.00    -0.550 OA
ATOM      6  O   UNL     1      54.905  29.553  36.670  1.00  0.00    -0.550 OA
ENDBRANCH   3   4
ENDBRANCH   2   3
ENDBRANCH   1   2
BRANCH   1   7
ATOM      7  C   UNL     1      52.431  26.585  33.660  1.00  0.00     0.000 C 
BRANCH   7   8
ATOM      8  C   UNL     1      51.259  25.590  33.543  1.00  0.00    -0.000 C 
BRANCH   8   9
ATOM      9  C   UNL     1      49.893  26.230  33.233  1.00  0.00    -0.000 C 
BRANCH   9  10
ATOM     10  C   UNL     1      48.968  26.281  34.457  1.00  0.00    -0.003 C 
ATOM     11  C   UNL     1      49.467  25.354  35.561  1.00  0.00     0.004 C 
ENDBRANCH   9  10
ENDBRANCH   8   9
ENDBRANCH   7   8
ENDBRANCH   1   7
TORSDOF 7
ENDMDL
MODEL 7
REMARK VINA RESULT:    -3.616      4.042      5.497
REMARK INTER + INTRA:          -5.635
REMARK INTER:                  -4.942
REMARK INTRA:                  -0.693
REMARK UNBOUND:                -0.540
REMARK SMILES CCCCCCCCC(=O)[O-]
REMARK SMILES IDX 6 1 7 2 8 3 9 4 10 5 11 6 5 7 4 8 3 9 2 10 1 11
REMARK H PARENT
REMARK Flexibility Score: inf
ROOT
ATOM      1  C   UNL     1      49.905  25.028  36.089  1.00  0.00     0.000 C 
ENDROOT
BRANCH   1   2
ATOM      2  C   UNL     1      49.255  23.893  35.277  1.00  0.00     0.006 C 
BRANCH   2   3
ATOM      3  C   UNL     1      48.194  24.399  34.292  1.00  0.00     0.053 C 
BRANCH   3   4
ATOM      4  C   UNL     1      47.492  23.248  33.644  1.00  0.00     0.041 C 
ATOM      5  O   UNL     1      46.235  23.231  33.574  1.00  0.00    -0.550 OA
ATOM      6  O   UNL     1      48.223  22.169  33.162  1.00  0.00    -0.550 OA
ENDBRANCH   3   4
ENDBRANCH   2   3
ENDBRANCH   1   2
BRANCH   1   7
ATOM      7  C   UNL     1      49.812  26.425  35.444  1.00  0.00     0.000 C 
BRANCH   7   8
ATOM      8  C   UNL     1      51.157  27.033  34.999  1.00  0.00    -0.000 C 
BRANCH   8   9
ATOM      9  C   UNL     1      51.969  26.166  34.019  1.00  0.00    -0.000 C 
BRANCH   9  10
ATOM     10  C   UNL     1      51.181  25.802  32.753  1.00  0.00    -0.003 C 
ATOM     11  C   UNL     1      51.390  24.338  32.378  1.00  0.00     0.004 C 
ENDBRANCH   9  10
ENDBRANCH   8   9
ENDBRANCH   7   8
ENDBRANCH   1   7
TORSDOF 7
ENDMDL
MODEL 8
REMARK VINA RESULT:    -3.613      1.321      2.056
REMARK INTER + INTRA:          -5.632
REMARK INTER:                  -4.963
REMARK INTRA:                  -0.669
REMARK UNBOUND:                -0.540
REMARK SMILES CCCCCCCCC(=O)[O-]
REMARK SMILES IDX 6 1 7 2 8 3 9 4 10 5 11 6 5 7 4 8 3 9 2 10 1 11
REMARK H PARENT
REMARK Flexibility Score: inf
ROOT
ATOM      1  C   UNL     1      52.541  25.602  34.470  1.00  0.00     0.000 C 
ENDROOT
BRANCH   1   2
ATOM      2  C   UNL     1      52.976  27.034  34.111  1.00  0.00     0.006 C 
BRANCH   2   3
ATOM      3  C   UNL     1      52.214  28.103  34.903  1.00  0.00     0.053 C 
BRANCH   3   4
ATOM      4  C   UNL     1      53.145  29.184  35.353  1.00  0.00     0.041 C 
ATOM      5  O   UNL     1      52.762  30.383  35.368  1.00  0.00    -0.550 OA
ATOM      6  O   UNL     1      54.452  28.873  35.705  1.00  0.00    -0.550 OA
ENDBRANCH   3   4
ENDBRANCH   2   3
ENDBRANCH   1   2
BRANCH   1   7
ATOM      7  C   UNL     1      52.031  25.419  35.913  1.00  0.00     0.000 C 
BRANCH   7   8
ATOM      8  C   UNL     1      50.604  24.847  36.037  1.00  0.00    -0.000 C 
BRANCH   8   9
ATOM      9  C   UNL     1      49.475  25.853  35.749  1.00  0.00    -0.000 C 
BRANCH   9  10
ATOM     10  C   UNL     1      48.668  25.499  34.492  1.00  0.00    -0.003 C 
ATOM     11  C   UNL     1      49.231  26.207  33.262  1.00  0.00     0.004 C 
ENDBRANCH   9  10
ENDBRANCH   8   9
ENDBRANCH   7   8
ENDBRANCH   1   7
TORSDOF 7
ENDMDL
MODEL 9
REMARK VINA RESULT:    -3.600      2.858      4.986
REMARK INTER + INTRA:          -5.612
REMARK INTER:                  -4.867
REMARK INTRA:                  -0.745
REMARK UNBOUND:                -0.540
REMARK SMILES CCCCCCCCC(=O)[O-]
REMARK SMILES IDX 6 1 7 2 8 3 9 4 10 5 11 6 5 7 4 8 3 9 2 10 1 11
REMARK H PARENT
REMARK Flexibility Score: inf
ROOT
ATOM      1  C   UNL     1      50.976  24.545  35.593  1.00  0.00     0.000 C 
ENDROOT
BRANCH   1   2
ATOM      2  C   UNL     1      49.607  25.143  35.963  1.00  0.00     0.006 C 
BRANCH   2   3
ATOM      3  C   UNL     1      49.161  26.248  34.998  1.00  0.00     0.053 C 
BRANCH   3   4
ATOM      4  C   UNL     1      49.117  25.732  33.595  1.00  0.00     0.041 C 
ATOM      5  O   UNL     1      49.809  26.279  32.697  1.00  0.00    -0.550 OA
ATOM      6  O   UNL     1      48.273  24.678  33.268  1.00  0.00    -0.550 OA
ENDBRANCH   3   4
ENDBRANCH   2   3
ENDBRANCH   1   2
BRANCH   1   7
ATOM      7  C   UNL     1      52.179  25.483  35.819  1.00  0.00     0.000 C 
BRANCH   7   8
ATOM      8  C   UNL     1      52.960  25.867  34.547  1.00  0.00    -0.000 C 
BRANCH   8   9
ATOM      9  C   UNL     1      52.869  27.352  34.153  1.00  0.00    -0.000 C 
BRANCH   9  10
ATOM     10  C   UNL     1      52.198  28.214  35.232  1.00  0.00    -0.003 C 
ATOM     11  C   UNL     1      52.745  29.638  35.216  1.00  0.00     0.004 C 
ENDBRANCH   9  10
ENDBRANCH   8   9
ENDBRANCH   7   8
ENDBRANCH   1   7
TORSDOF 7
ENDMDL
