MODEL 1
REMARK VINA RESULT:    -4.535      0.000      0.000
REMARK INTER + INTRA:          -7.483
REMARK INTER:                  -6.922
REMARK INTRA:                  -0.561
REMARK UNBOUND:                -0.561
REMARK SMILES O=C([O-])CCCCCCCCC(=O)[O-]
REMARK SMILES IDX 7 1 6 2 5 3 4 4 2 5 1 6 3 7 8 8 9 9 10 10 11 11 12 12 13 13
REMARK SMILES IDX 14 14
REMARK H PARENT
REMARK Flexibility Score: inf
ROOT
ATOM      1  C   UNL     1      -9.710   4.493  -7.611  1.00  0.00     0.000 C 
ENDROOT
BRANCH   1   2
ATOM      2  C   UNL     1      -8.883   3.200  -7.719  1.00  0.00     0.000 C 
BRANCH   2   3
ATOM      3  C   UNL     1      -9.491   2.193  -8.708  1.00  0.00     0.006 C 
BRANCH   3   4
ATOM      4  C   UNL     1      -8.648   0.918  -8.849  1.00  0.00     0.053 C 
BRANCH   4   5
ATOM      5  C   UNL     1      -7.711   1.040 -10.010  1.00  0.00     0.041 C 
ATOM      6  O   UNL     1      -6.526   1.424  -9.830  1.00  0.00    -0.550 OA
ATOM      7  O   UNL     1      -8.161   0.774 -11.297  1.00  0.00    -0.550 OA
ENDBRANCH   4   5
ENDBRANCH   3   4
ENDBRANCH   2   3
ENDBRANCH   1   2
BRANCH   1   8
ATOM      8  C   UNL     1     -11.031   4.414  -8.392  1.00  0.00     0.000 C 
BRANCH   8   9
ATOM      9  C   UNL     1     -11.125   5.470  -9.509  1.00  0.00     0.000 C 
BRANCH   9  10
ATOM     10  C   UNL     1      -9.792   5.666 -10.253  1.00  0.00     0.006 C 
BRANCH  10  11
ATOM     11  C   UNL     1      -9.075   6.985  -9.926  1.00  0.00     0.053 C 
BRANCH  11  12
ATOM     12  C   UNL     1      -7.589   6.812  -9.853  1.00  0.00     0.041 C 
ATOM     13  O   UNL     1      -6.910   6.719 -10.910  1.00  0.00    -0.550 OA
ATOM     14  O   UNL     1      -6.959   6.720  -8.619  1.00  0.00    -0.550 OA
ENDBRANCH  11  12
ENDBRANCH  10  11
ENDBRANCH   9  10
ENDBRANCH   8   9
ENDBRANCH   1   8
TORSDOF 9
ENDMDL
MODEL 2
REMARK VINA RESULT:    -4.507      1.951      4.661
REMARK INTER + INTRA:          -7.440
REMARK INTER:                  -6.447
REMARK INTRA:                  -0.993
REMARK UNBOUND:                -0.561
REMARK SMILES O=C([O-])CCCCCCCCC(=O)[O-]
REMARK SMILES IDX 7 1 6 2 5 3 4 4 2 5 1 6 3 7 8 8 9 9 10 10 11 11 12 12 13 13
REMARK SMILES IDX 14 14
REMARK H PARENT
REMARK Flexibility Score: inf
ROOT
ATOM      1  C   UNL     1      -8.058   6.326 -11.018  1.00  0.00     0.000 C 
ENDROOT
BRANCH   1   2
ATOM      2  C   UNL     1      -9.200   6.589 -10.020  1.00  0.00     0.000 C 
BRANCH   2   3
ATOM      3  C   UNL     1      -8.784   6.324  -8.565  1.00  0.00     0.006 C 
BRANCH   3   4
ATOM      4  C   UNL     1      -9.440   5.065  -7.982  1.00  0.00     0.053 C 
BRANCH   4   5
ATOM      5  C   UNL     1      -8.416   3.995  -7.769  1.00  0.00     0.041 C 
ATOM      6  O   UNL     1      -8.637   3.058  -6.957  1.00  0.00    -0.550 OA
ATOM      7  O   UNL     1      -7.196   4.058  -8.431  1.00  0.00    -0.550 OA
ENDBRANCH   4   5
ENDBRANCH   3   4
ENDBRANCH   2   3
ENDBRANCH   1   2
BRANCH   1   8
ATOM      8  C   UNL     1      -8.443   5.301 -12.096  1.00  0.00     0.000 C 
BRANCH   8   9
ATOM      9  C   UNL     1      -9.415   4.227 -11.574  1.00  0.00     0.000 C 
BRANCH   9  10
ATOM     10  C   UNL     1      -8.901   2.795 -11.814  1.00  0.00     0.006 C 
BRANCH  10  11
ATOM     11  C   UNL     1      -9.188   1.821 -10.661  1.00  0.00     0.053 C 
BRANCH  11  12
ATOM     12  C   UNL     1      -7.962   1.065 -10.249  1.00  0.00     0.041 C 
ATOM     13  O   UNL     1      -7.857   0.619  -9.076  1.00  0.00    -0.550 OA
ATOM     14  O   UNL     1      -6.922   0.883 -11.151  1.00  0.00    -0.550 OA
ENDBRANCH  11  12
ENDBRANCH  10  11
ENDBRANCH   9  10
ENDBRANCH   8   9
ENDBRANCH   1   8
TORSDOF 9
ENDMDL
MODEL 3
REMARK VINA RESULT:    -4.388      1.576      4.732
REMARK INTER + INTRA:          -7.258
REMARK INTER:                  -6.409
REMARK INTRA:                  -0.849
REMARK UNBOUND:                -0.561
REMARK SMILES O=C([O-])CCCCCCCCC(=O)[O-]
REMARK SMILES IDX 7 1 6 2 5 3 4 4 2 5 1 6 3 7 8 8 9 9 10 10 11 11 12 12 13 13
REMARK SMILES IDX 14 14
REMARK H PARENT
REMARK Flexibility Score: inf
ROOT
ATOM      1  C   UNL     1      -8.858   4.181  -7.626  1.00  0.00     0.000 C 
ENDROOT
BRANCH   1   2
ATOM      2  C   UNL     1      -7.975   4.729  -8.762  1.00  0.00     0.000 C 
BRANCH   2   3
ATOM      3  C   UNL     1      -8.040   6.260  -8.873  1.00  0.00     0.006 C 
BRANCH   3   4
ATOM      4  C   UNL     1      -8.824   6.732 -10.105  1.00  0.00     0.053 C 
BRANCH   4   5
ATOM      5  C   UNL     1      -8.267   6.109 -11.347  1.00  0.00     0.041 C 
ATOM      6  O   UNL     1      -8.944   5.266 -11.991  1.00  0.00    -0.550 OA
ATOM      7  O   UNL     1      -6.980   6.423 -11.765  1.00  0.00    -0.550 OA
ENDBRANCH   4   5
ENDBRANCH   3   4
ENDBRANCH   2   3
ENDBRANCH   1   2
BRANCH   1   8
ATOM      8  C   UNL     1     -10.345   4.127  -8.012  1.00  0.00     0.000 C 
BRANCH   8   9
ATOM      9  C   UNL     1     -10.572   3.563  -9.426  1.00  0.00     0.000 C 
BRANCH   9  10
ATOM     10  C   UNL     1     -10.412   2.033  -9.488  1.00  0.00     0.006 C 
BRANCH  10  11
ATOM     11  C   UNL     1      -9.173   1.559 -10.261  1.00  0.00     0.053 C 
BRANCH  11  12
ATOM     12  C   UNL     1      -8.224   0.797  -9.386  1.00  0.00     0.041 C 
ATOM     13  O   UNL     1      -7.141   0.361  -9.856  1.00  0.00    -0.550 OA
ATOM     14  O   UNL     1      -8.554   0.542  -8.061  1.00  0.00    -0.550 OA
ENDBRANCH  11  12
ENDBRANCH  10  11
ENDBRANCH   9  10
ENDBRANCH   8   9
ENDBRANCH   1   8
TORSDOF 9
ENDMDL
MODEL 4
REMARK VINA RESULT:    -4.026      1.907      2.467
REMARK INTER + INTRA:          -6.705
REMARK INTER:                  -5.764
REMARK INTRA:                  -0.941
REMARK UNBOUND:                -0.561
REMARK SMILES O=C([O-])CCCCCCCCC(=O)[O-]
REMARK SMILES IDX 7 1 6 2 5 3 4 4 2 5 1 6 3 7 8 8 9 9 10 10 11 11 12 12 13 13
REMARK SMILES IDX 14 14
REMARK H PARENT
REMARK Flexibility Score: inf
ROOT
ATOM      1  C   UNL     1     -10.915   4.239 -10.489  1.00  0.00     0.000 C 
ENDROOT
BRANCH   1   2
ATOM      2  C   UNL     1     -10.754   2.859  -9.827  1.00  0.00     0.000 C 
BRANCH   2   3
ATOM      3  C   UNL     1      -9.972   1.872 -10.707  1.00  0.00     0.006 C 
BRANCH   3   4
ATOM      4  C   UNL     1      -8.476   2.205 -10.785  1.00  0.00     0.053 C 
BRANCH   4   5
ATOM      5  C   UNL     1      -7.679   1.208 -10.003  1.00  0.00     0.041 C 
ATOM      6  O   UNL     1      -8.138   0.728  -8.934  1.00  0.00    -0.550 OA
ATOM      7  O   UNL     1      -6.407   0.847 -10.429  1.00  0.00    -0.550 OA
ENDBRANCH   4   5
ENDBRANCH   3   4
ENDBRANCH   2   3
ENDBRANCH   1   2
BRANCH   1   8
ATOM      8  C   UNL     1     -11.025   5.376  -9.460  1.00  0.00     0.000 C 
BRANCH   8   9
ATOM      9  C   UNL     1      -9.998   6.497  -9.702  1.00  0.00     0.000 C 
BRANCH   9  10
ATOM     10  C   UNL     1      -8.841   6.471  -8.686  1.00  0.00     0.006 C 
BRANCH  10  11
ATOM     11  C   UNL     1      -7.634   5.631  -9.127  1.00  0.00     0.053 C 
BRANCH  11  12
ATOM     12  C   UNL     1      -7.354   4.508  -8.175  1.00  0.00     0.041 C 
ATOM     13  O   UNL     1      -8.305   3.897  -7.620  1.00  0.00    -0.550 OA
ATOM     14  O   UNL     1      -6.043   4.161  -7.876  1.00  0.00    -0.550 OA
ENDBRANCH  11  12
ENDBRANCH  10  11
ENDBRANCH   9  10
ENDBRANCH   8   9
ENDBRANCH   1   8
TORSDOF 9
ENDMDL
MODEL 5
REMARK VINA RESULT:    -3.852      1.482      2.054
REMARK INTER + INTRA:          -6.441
REMARK INTER:                  -5.880
REMARK INTRA:                  -0.561
REMARK UNBOUND:                -0.561
REMARK SMILES O=C([O-])CCCCCCCCC(=O)[O-]
REMARK SMILES IDX 7 1 6 2 5 3 4 4 2 5 1 6 3 7 8 8 9 9 10 10 11 11 12 12 13 13
REMARK SMILES IDX 14 14
REMARK H PARENT
REMARK Flexibility Score: inf
ROOT
ATOM      1  C   UNL     1      -8.624   3.283  -8.257  1.00  0.00     0.000 C 
ENDROOT
BRANCH   1   2
ATOM      2  C   UNL     1      -9.260   1.883  -8.327  1.00  0.00     0.000 C 
BRANCH   2   3
ATOM      3  C   UNL     1      -9.756   1.531  -9.738  1.00  0.00     0.006 C 
BRANCH   3   4
ATOM      4  C   UNL     1      -8.824   2.052 -10.840  1.00  0.00     0.053 C 
BRANCH   4   5
ATOM      5  C   UNL     1      -7.738   1.059 -11.116  1.00  0.00     0.041 C 
ATOM      6  O   UNL     1      -7.808   0.307 -12.123  1.00  0.00    -0.550 OA
ATOM      7  O   UNL     1      -6.673   0.932 -10.234  1.00  0.00    -0.550 OA
ENDBRANCH   4   5
ENDBRANCH   3   4
ENDBRANCH   2   3
ENDBRANCH   1   2
BRANCH   1   8
ATOM      8  C   UNL     1      -9.538   4.311  -7.572  1.00  0.00     0.000 C 
BRANCH   8   9
ATOM      9  C   UNL     1      -9.636   5.633  -8.354  1.00  0.00     0.000 C 
BRANCH   9  10
ATOM     10  C   UNL     1      -8.266   6.139  -8.840  1.00  0.00     0.006 C 
BRANCH  10  11
ATOM     11  C   UNL     1      -8.319   6.958 -10.138  1.00  0.00     0.053 C 
BRANCH  11  12
ATOM     12  C   UNL     1      -8.275   6.084 -11.355  1.00  0.00     0.041 C 
ATOM     13  O   UNL     1      -7.246   6.060 -12.080  1.00  0.00    -0.550 OA
ATOM     14  O   UNL     1      -9.382   5.322 -11.704  1.00  0.00    -0.550 OA
ENDBRANCH  11  12
ENDBRANCH  10  11
ENDBRANCH   9  10
ENDBRANCH   8   9
ENDBRANCH   1   8
TORSDOF 9
ENDMDL
MODEL 6
REMARK VINA RESULT:    -3.833     12.170     14.369
REMARK INTER + INTRA:          -6.411
REMARK INTER:                  -5.979
REMARK INTRA:                  -0.432
REMARK UNBOUND:                -0.561
REMARK SMILES O=C([O-])CCCCCCCCC(=O)[O-]
REMARK SMILES IDX 7 1 6 2 5 3 4 4 2 5 1 6 3 7 8 8 9 9 10 10 11 11 12 12 13 13
REMARK SMILES IDX 14 14
REMARK H PARENT
REMARK Flexibility Score: inf
ROOT
ATOM      1  C   UNL     1      -0.796  -4.286 -10.990  1.00  0.00     0.000 C 
ENDROOT
BRANCH   1   2
ATOM      2  C   UNL     1       0.294  -3.416 -11.641  1.00  0.00     0.000 C 
BRANCH   2   3
ATOM      3  C   UNL     1       1.645  -3.526 -10.918  1.00  0.00     0.006 C 
BRANCH   3   4
ATOM      4  C   UNL     1       1.961  -2.293 -10.062  1.00  0.00     0.053 C 
BRANCH   4   5
ATOM      5  C   UNL     1       3.077  -1.505 -10.674  1.00  0.00     0.041 C 
ATOM      6  O   UNL     1       2.893  -0.878 -11.750  1.00  0.00    -0.550 OA
ATOM      7  O   UNL     1       4.333  -1.503 -10.082  1.00  0.00    -0.550 OA
ENDBRANCH   4   5
ENDBRANCH   3   4
ENDBRANCH   2   3
ENDBRANCH   1   2
BRANCH   1   8
ATOM      8  C   UNL     1      -1.672  -5.005 -12.027  1.00  0.00     0.000 C 
BRANCH   8   9
ATOM      9  C   UNL     1      -1.550  -6.538 -11.947  1.00  0.00     0.000 C 
BRANCH   9  10
ATOM     10  C   UNL     1      -1.126  -7.027 -10.551  1.00  0.00     0.006 C 
BRANCH  10  11
ATOM     11  C   UNL     1      -0.645  -8.485 -10.513  1.00  0.00     0.053 C 
BRANCH  11  12
ATOM     12  C   UNL     1       0.824  -8.584 -10.233  1.00  0.00     0.041 C 
ATOM     13  O   UNL     1       1.436  -7.615  -9.711  1.00  0.00    -0.550 OA
ATOM     14  O   UNL     1       1.521  -9.734 -10.579  1.00  0.00    -0.550 OA
ENDBRANCH  11  12
ENDBRANCH  10  11
ENDBRANCH   9  10
ENDBRANCH   8   9
ENDBRANCH   1   8
TORSDOF 9
ENDMDL
MODEL 7
REMARK VINA RESULT:    -3.681     11.853     13.579
REMARK INTER + INTRA:          -6.178
REMARK INTER:                  -5.688
REMARK INTRA:                  -0.490
REMARK UNBOUND:                -0.561
REMARK SMILES O=C([O-])CCCCCCCCC(=O)[O-]
REMARK SMILES IDX 7 1 6 2 5 3 4 4 2 5 1 6 3 7 8 8 9 9 10 10 11 11 12 12 13 13
REMARK SMILES IDX 14 14
REMARK H PARENT
REMARK Flexibility Score: inf
ROOT
ATOM      1  C   UNL     1      -0.998  -5.623 -10.644  1.00  0.00     0.000 C 
ENDROOT
BRANCH   1   2
ATOM      2  C   UNL     1      -1.431  -6.705 -11.649  1.00  0.00     0.000 C 
BRANCH   2   3
ATOM      3  C   UNL     1      -0.986  -8.114 -11.226  1.00  0.00     0.006 C 
BRANCH   3   4
ATOM      4  C   UNL     1      -0.230  -8.121  -9.890  1.00  0.00     0.053 C 
BRANCH   4   5
ATOM      5  C   UNL     1       1.202  -8.498 -10.104  1.00  0.00     0.041 C 
ATOM      6  O   UNL     1       2.123  -7.720  -9.741  1.00  0.00    -0.550 OA
ATOM      7  O   UNL     1       1.519  -9.687 -10.748  1.00  0.00    -0.550 OA
ENDBRANCH   4   5
ENDBRANCH   3   4
ENDBRANCH   2   3
ENDBRANCH   1   2
BRANCH   1   8
ATOM      8  C   UNL     1      -1.212  -4.200 -11.182  1.00  0.00     0.000 C 
BRANCH   8   9
ATOM      9  C   UNL     1      -0.048  -3.718 -12.067  1.00  0.00     0.000 C 
BRANCH   9  10
ATOM     10  C   UNL     1       1.316  -3.821 -11.361  1.00  0.00     0.006 C 
BRANCH  10  11
ATOM     11  C   UNL     1       2.271  -2.655 -11.658  1.00  0.00     0.053 C 
BRANCH  11  12
ATOM     12  C   UNL     1       2.739  -1.980 -10.405  1.00  0.00     0.041 C 
ATOM     13  O   UNL     1       3.869  -1.424 -10.369  1.00  0.00    -0.550 OA
ATOM     14  O   UNL     1       1.943  -1.996  -9.268  1.00  0.00    -0.550 OA
ENDBRANCH  11  12
ENDBRANCH  10  11
ENDBRANCH   9  10
ENDBRANCH   8   9
ENDBRANCH   1   8
TORSDOF 9
ENDMDL
MODEL 8
REMARK VINA RESULT:    -3.671     14.906     17.297
REMARK INTER + INTRA:          -6.164
REMARK INTER:                  -5.437
REMARK INTRA:                  -0.727
REMARK UNBOUND:                -0.561
REMARK SMILES O=C([O-])CCCCCCCCC(=O)[O-]
REMARK SMILES IDX 7 1 6 2 5 3 4 4 2 5 1 6 3 7 8 8 9 9 10 10 11 11 12 12 13 13
REMARK SMILES IDX 14 14
REMARK H PARENT
REMARK Flexibility Score: inf
ROOT
ATOM      1  C   UNL     1      -2.752  -9.799 -10.689  1.00  0.00     0.000 C 
ENDROOT
BRANCH   1   2
ATOM      2  C   UNL     1      -2.063  -8.976 -11.791  1.00  0.00     0.000 C 
BRANCH   2   3
ATOM      3  C   UNL     1      -1.092  -7.928 -11.225  1.00  0.00     0.006 C 
BRANCH   3   4
ATOM      4  C   UNL     1      -0.058  -8.535 -10.267  1.00  0.00     0.053 C 
BRANCH   4   5
ATOM      5  C   UNL     1       1.292  -7.936 -10.510  1.00  0.00     0.041 C 
ATOM      6  O   UNL     1       1.599  -7.509 -11.653  1.00  0.00    -0.550 OA
ATOM      7  O   UNL     1       2.228  -7.894  -9.484  1.00  0.00    -0.550 OA
ENDBRANCH   4   5
ENDBRANCH   3   4
ENDBRANCH   2   3
ENDBRANCH   1   2
BRANCH   1   8
ATOM      8  C   UNL     1      -3.249 -11.162 -11.196  1.00  0.00     0.000 C 
BRANCH   8   9
ATOM      9  C   UNL     1      -2.491 -12.344 -10.564  1.00  0.00     0.000 C 
BRANCH   9  10
ATOM     10  C   UNL     1      -1.439 -11.892  -9.535  1.00  0.00     0.006 C 
BRANCH  10  11
ATOM     11  C   UNL     1      -0.223 -12.823  -9.426  1.00  0.00     0.053 C 
BRANCH  11  12
ATOM     12  C   UNL     1       0.822 -12.503 -10.451  1.00  0.00     0.041 C 
ATOM     13  O   UNL     1       1.712 -11.648 -10.203  1.00  0.00    -0.550 OA
ATOM     14  O   UNL     1       0.791 -13.125 -11.693  1.00  0.00    -0.550 OA
ENDBRANCH  11  12
ENDBRANCH  10  11
ENDBRANCH   9  10
ENDBRANCH   8   9
ENDBRANCH   1   8
TORSDOF 9
ENDMDL
MODEL 9
REMARK VINA RESULT:    -3.670     12.253     13.951
REMARK INTER + INTRA:          -6.162
REMARK INTER:                  -5.697
REMARK INTRA:                  -0.464
REMARK UNBOUND:                -0.561
REMARK SMILES O=C([O-])CCCCCCCCC(=O)[O-]
REMARK SMILES IDX 7 1 6 2 5 3 4 4 2 5 1 6 3 7 8 8 9 9 10 10 11 11 12 12 13 13
REMARK SMILES IDX 14 14
REMARK H PARENT
REMARK Flexibility Score: inf
ROOT
ATOM      1  C   UNL     1      -0.678  -7.076 -11.251  1.00  0.00     0.000 C 
ENDROOT
BRANCH   1   2
ATOM      2  C   UNL     1       0.020  -8.044 -10.279  1.00  0.00     0.000 C 
BRANCH   2   3
ATOM      3  C   UNL     1      -0.625  -9.439 -10.271  1.00  0.00     0.006 C 
BRANCH   3   4
ATOM      4  C   UNL     1      -2.104  -9.409 -10.682  1.00  0.00     0.053 C 
BRANCH   4   5
ATOM      5  C   UNL     1      -2.777 -10.690 -10.299  1.00  0.00     0.041 C 
ATOM      6  O   UNL     1      -3.943 -10.938 -10.702  1.00  0.00    -0.550 OA
ATOM      7  O   UNL     1      -2.133 -11.588  -9.456  1.00  0.00    -0.550 OA
ENDBRANCH   4   5
ENDBRANCH   3   4
ENDBRANCH   2   3
ENDBRANCH   1   2
BRANCH   1   8
ATOM      8  C   UNL     1      -1.264  -5.848 -10.537  1.00  0.00     0.000 C 
BRANCH   8   9
ATOM      9  C   UNL     1      -1.335  -4.609 -11.448  1.00  0.00     0.000 C 
BRANCH   9  10
ATOM     10  C   UNL     1       0.011  -4.293 -12.125  1.00  0.00     0.006 C 
BRANCH  10  11
ATOM     11  C   UNL     1       0.752  -3.089 -11.524  1.00  0.00     0.053 C 
BRANCH  11  12
ATOM     12  C   UNL     1       1.948  -3.508 -10.725  1.00  0.00     0.041 C 
ATOM     13  O   UNL     1       2.371  -4.693 -10.793  1.00  0.00    -0.550 OA
ATOM     14  O   UNL     1       2.575  -2.600  -9.882  1.00  0.00    -0.550 OA
ENDBRANCH  11  12
ENDBRANCH  10  11
ENDBRANCH   9  10
ENDBRANCH   8   9
ENDBRANCH   1   8
TORSDOF 9
ENDMDL
