MODEL 1
REMARK VINA RESULT:    -3.353      0.000      0.000
REMARK INTER + INTRA:          -4.371
REMARK INTER:                  -4.137
REMARK INTRA:                  -0.234
REMARK UNBOUND:                -0.234
REMARK SMILES C=CCc1ccc(OC)c(OC)c1
REMARK SMILES IDX 7 1 10 2 13 3 4 4 5 5 6 6 8 7 9 8 11 9 12 10 3 11 2 12 1 13
REMARK H PARENT
REMARK Flexibility Score: inf
ROOT
ATOM      1  C   UNL     1     141.361 140.155 142.539  1.00  0.00     0.160 A 
ATOM      2  C   UNL     1     140.324 139.413 141.951  1.00  0.00     0.160 A 
ATOM      3  C   UNL     1     139.106 140.047 141.634  1.00  0.00     0.054 A 
ATOM      4  C   UNL     1     138.923 141.413 141.896  1.00  0.00    -0.040 A 
ATOM      5  C   UNL     1     139.959 142.143 142.493  1.00  0.00     0.008 A 
ATOM      6  C   UNL     1     141.169 141.523 142.809  1.00  0.00     0.051 A 
ENDROOT
BRANCH   1   7
ATOM      7  O   UNL     1     142.563 139.497 142.841  1.00  0.00    -0.493 OA
ATOM      8  C   UNL     1     143.706 139.475 141.992  1.00  0.00     0.278 C 
ENDBRANCH   1   7
BRANCH   2   9
ATOM      9  O   UNL     1     140.542 138.049 141.699  1.00  0.00    -0.493 OA
ATOM     10  C   UNL     1     140.007 137.338 140.586  1.00  0.00     0.278 C 
ENDBRANCH   2   9
BRANCH   4  11
ATOM     11  C   UNL     1     137.610 142.080 141.586  1.00  0.00     0.062 C 
BRANCH  11  12
ATOM     12  C   UNL     1     137.206 141.828 140.161  1.00  0.00    -0.030 C 
ATOM     13  C   UNL     1     135.943 141.985 139.751  1.00  0.00     0.004 C 
ENDBRANCH  11  12
ENDBRANCH   4  11
TORSDOF 4
ENDMDL
MODEL 2
REMARK VINA RESULT:    -3.352      2.402      5.564
REMARK INTER + INTRA:          -4.370
REMARK INTER:                  -4.128
REMARK INTRA:                  -0.241
REMARK UNBOUND:                -0.234
REMARK SMILES C=CCc1ccc(OC)c(OC)c1
REMARK SMILES IDX 7 1 10 2 13 3 4 4 5 5 6 6 8 7 9 8 11 9 12 10 3 11 2 12 1 13
REMARK H PARENT
REMARK Flexibility Score: inf
ROOT
ATOM      1  C   UNL     1     140.163 141.468 142.229  1.00  0.00     0.160 A 
ATOM      2  C   UNL     1     141.241 142.224 141.741  1.00  0.00     0.160 A 
ATOM      3  C   UNL     1     142.478 141.596 141.493  1.00  0.00     0.054 A 
ATOM      4  C   UNL     1     142.639 140.221 141.723  1.00  0.00    -0.040 A 
ATOM      5  C   UNL     1     141.562 139.477 142.222  1.00  0.00     0.008 A 
ATOM      6  C   UNL     1     140.333 140.092 142.469  1.00  0.00     0.051 A 
ENDROOT
BRANCH   1   7
ATOM      7  O   UNL     1     138.944 142.121 142.465  1.00  0.00    -0.493 OA
ATOM      8  C   UNL     1     137.786 141.988 141.646  1.00  0.00     0.278 C 
ENDBRANCH   1   7
BRANCH   2   9
ATOM      9  O   UNL     1     141.044 143.596 141.517  1.00  0.00    -0.493 OA
ATOM     10  C   UNL     1     141.682 144.346 140.488  1.00  0.00     0.278 C 
ENDBRANCH   2   9
BRANCH   4  11
ATOM     11  C   UNL     1     143.970 139.559 141.488  1.00  0.00     0.062 C 
BRANCH  11  12
ATOM     12  C   UNL     1     144.427 139.767 140.072  1.00  0.00    -0.030 C 
ATOM     13  C   UNL     1     145.699 139.574 139.709  1.00  0.00     0.004 C 
ENDBRANCH  11  12
ENDBRANCH   4  11
TORSDOF 4
ENDMDL
MODEL 3
REMARK VINA RESULT:    -3.254      2.303      3.935
REMARK INTER + INTRA:          -4.249
REMARK INTER:                  -3.941
REMARK INTRA:                  -0.308
REMARK UNBOUND:                -0.234
REMARK SMILES C=CCc1ccc(OC)c(OC)c1
REMARK SMILES IDX 7 1 10 2 13 3 4 4 5 5 6 6 8 7 9 8 11 9 12 10 3 11 2 12 1 13
REMARK H PARENT
REMARK Flexibility Score: inf
ROOT
ATOM      1  C   UNL     1     140.106 139.976 141.530  1.00  0.00     0.160 A 
ATOM      2  C   UNL     1     139.345 141.153 141.461  1.00  0.00     0.160 A 
ATOM      3  C   UNL     1     139.993 142.404 141.452  1.00  0.00     0.054 A 
ATOM      4  C   UNL     1     141.393 142.483 141.504  1.00  0.00    -0.040 A 
ATOM      5  C   UNL     1     142.145 141.304 141.585  1.00  0.00     0.008 A 
ATOM      6  C   UNL     1     141.510 140.060 141.594  1.00  0.00     0.051 A 
ENDROOT
BRANCH   1   7
ATOM      7  O   UNL     1     139.433 138.745 141.536  1.00  0.00    -0.493 OA
ATOM      8  C   UNL     1     139.928 137.551 140.936  1.00  0.00     0.278 C 
ENDBRANCH   1   7
BRANCH   2   9
ATOM      9  O   UNL     1     137.946 141.039 141.405  1.00  0.00    -0.493 OA
ATOM     10  C   UNL     1     137.118 141.709 140.460  1.00  0.00     0.278 C 
ENDBRANCH   2   9
BRANCH   4  11
ATOM     11  C   UNL     1     142.081 143.821 141.527  1.00  0.00     0.062 C 
BRANCH  11  12
ATOM     12  C   UNL     1     141.771 144.602 140.281  1.00  0.00    -0.030 C 
ATOM     13  C   UNL     1     142.206 144.209 139.080  1.00  0.00     0.004 C 
ENDBRANCH  11  12
ENDBRANCH   4  11
TORSDOF 4
ENDMDL
MODEL 4
REMARK VINA RESULT:    -3.239      2.888      4.052
REMARK INTER + INTRA:          -4.230
REMARK INTER:                  -3.910
REMARK INTRA:                  -0.320
REMARK UNBOUND:                -0.234
REMARK SMILES C=CCc1ccc(OC)c(OC)c1
REMARK SMILES IDX 7 1 10 2 13 3 4 4 5 5 6 6 8 7 9 8 11 9 12 10 3 11 2 12 1 13
REMARK H PARENT
REMARK Flexibility Score: inf
ROOT
ATOM      1  C   UNL     1     143.660 140.068 140.399  1.00  0.00     0.160 A 
ATOM      2  C   UNL     1     142.931 141.167 139.916  1.00  0.00     0.160 A 
ATOM      3  C   UNL     1     142.169 141.946 140.809  1.00  0.00     0.054 A 
ATOM      4  C   UNL     1     142.138 141.637 142.177  1.00  0.00    -0.040 A 
ATOM      5  C   UNL     1     142.859 140.533 142.649  1.00  0.00     0.008 A 
ATOM      6  C   UNL     1     143.617 139.757 141.771  1.00  0.00     0.051 A 
ENDROOT
BRANCH   1   7
ATOM      7  O   UNL     1     144.411 139.312 139.486  1.00  0.00    -0.493 OA
ATOM      8  C   UNL     1     145.823 139.410 139.327  1.00  0.00     0.278 C 
ENDBRANCH   1   7
BRANCH   2   9
ATOM      9  O   UNL     1     142.987 141.450 138.541  1.00  0.00    -0.493 OA
ATOM     10  C   UNL     1     142.309 142.532 137.912  1.00  0.00     0.278 C 
ENDBRANCH   2   9
BRANCH   4  11
ATOM     11  C   UNL     1     141.298 142.452 143.124  1.00  0.00     0.062 C 
BRANCH  11  12
ATOM     12  C   UNL     1     139.846 142.385 142.742  1.00  0.00    -0.030 C 
ATOM     13  C   UNL     1     139.104 141.300 142.987  1.00  0.00     0.004 C 
ENDBRANCH  11  12
ENDBRANCH   4  11
TORSDOF 4
ENDMDL
MODEL 5
REMARK VINA RESULT:    -3.210      3.063      4.460
REMARK INTER + INTRA:          -4.194
REMARK INTER:                  -3.875
REMARK INTRA:                  -0.320
REMARK UNBOUND:                -0.234
REMARK SMILES C=CCc1ccc(OC)c(OC)c1
REMARK SMILES IDX 7 1 10 2 13 3 4 4 5 5 6 6 8 7 9 8 11 9 12 10 3 11 2 12 1 13
REMARK H PARENT
REMARK Flexibility Score: inf
ROOT
ATOM      1  C   UNL     1     140.206 137.932 140.373  1.00  0.00     0.160 A 
ATOM      2  C   UNL     1     141.269 138.717 139.899  1.00  0.00     0.160 A 
ATOM      3  C   UNL     1     142.011 139.507 140.800  1.00  0.00     0.054 A 
ATOM      4  C   UNL     1     141.699 139.510 142.168  1.00  0.00    -0.040 A 
ATOM      5  C   UNL     1     140.630 138.732 142.631  1.00  0.00     0.008 A 
ATOM      6  C   UNL     1     139.891 137.947 141.745  1.00  0.00     0.051 A 
ENDROOT
BRANCH   1   7
ATOM      7  O   UNL     1     139.488 137.155 139.452  1.00  0.00    -0.493 OA
ATOM      8  C   UNL     1     139.526 135.732 139.394  1.00  0.00     0.278 C 
ENDBRANCH   1   7
BRANCH   2   9
ATOM      9  O   UNL     1     141.557 138.688 138.524  1.00  0.00    -0.493 OA
ATOM     10  C   UNL     1     142.848 138.907 137.964  1.00  0.00     0.278 C 
ENDBRANCH   2   9
BRANCH   4  11
ATOM     11  C   UNL     1     142.472 140.379 143.124  1.00  0.00     0.062 C 
BRANCH  11  12
ATOM     12  C   UNL     1     142.363 141.826 142.736  1.00  0.00    -0.030 C 
ATOM     13  C   UNL     1     141.218 142.504 142.867  1.00  0.00     0.004 C 
ENDBRANCH  11  12
ENDBRANCH   4  11
TORSDOF 4
ENDMDL
MODEL 6
REMARK VINA RESULT:    -3.198      2.436      4.904
REMARK INTER + INTRA:          -4.180
REMARK INTER:                  -3.838
REMARK INTRA:                  -0.342
REMARK UNBOUND:                -0.234
REMARK SMILES C=CCc1ccc(OC)c(OC)c1
REMARK SMILES IDX 7 1 10 2 13 3 4 4 5 5 6 6 8 7 9 8 11 9 12 10 3 11 2 12 1 13
REMARK H PARENT
REMARK Flexibility Score: inf
ROOT
ATOM      1  C   UNL     1     138.007 141.469 140.349  1.00  0.00     0.160 A 
ATOM      2  C   UNL     1     138.760 140.381 139.880  1.00  0.00     0.160 A 
ATOM      3  C   UNL     1     139.505 139.604 140.789  1.00  0.00     0.054 A 
ATOM      4  C   UNL     1     139.495 139.905 142.160  1.00  0.00    -0.040 A 
ATOM      5  C   UNL     1     138.750 141.000 142.618  1.00  0.00     0.008 A 
ATOM      6  C   UNL     1     138.009 141.774 141.723  1.00  0.00     0.051 A 
ENDROOT
BRANCH   1   7
ATOM      7  O   UNL     1     137.274 142.223 139.419  1.00  0.00    -0.493 OA
ATOM      8  C   UNL     1     135.871 142.096 139.204  1.00  0.00     0.278 C 
ENDBRANCH   1   7
BRANCH   2   9
ATOM      9  O   UNL     1     138.744 140.105 138.503  1.00  0.00    -0.493 OA
ATOM     10  C   UNL     1     139.779 140.470 137.595  1.00  0.00     0.278 C 
ENDBRANCH   2   9
BRANCH   4  11
ATOM     11  C   UNL     1     140.317 139.094 143.125  1.00  0.00     0.062 C 
BRANCH  11  12
ATOM     12  C   UNL     1     141.779 139.187 142.790  1.00  0.00    -0.030 C 
ATOM     13  C   UNL     1     142.484 140.297 143.029  1.00  0.00     0.004 C 
ENDBRANCH  11  12
ENDBRANCH   4  11
TORSDOF 4
ENDMDL
MODEL 7
REMARK VINA RESULT:    -3.185      1.804      2.950
REMARK INTER + INTRA:          -4.163
REMARK INTER:                  -3.943
REMARK INTRA:                  -0.220
REMARK UNBOUND:                -0.234
REMARK SMILES C=CCc1ccc(OC)c(OC)c1
REMARK SMILES IDX 7 1 10 2 13 3 4 4 5 5 6 6 8 7 9 8 11 9 12 10 3 11 2 12 1 13
REMARK H PARENT
REMARK Flexibility Score: inf
ROOT
ATOM      1  C   UNL     1     141.590 141.041 141.781  1.00  0.00     0.160 A 
ATOM      2  C   UNL     1     141.144 142.270 141.271  1.00  0.00     0.160 A 
ATOM      3  C   UNL     1     139.765 142.493 141.093  1.00  0.00     0.054 A 
ATOM      4  C   UNL     1     138.832 141.499 141.428  1.00  0.00    -0.040 A 
ATOM      5  C   UNL     1     139.286 140.271 141.926  1.00  0.00     0.008 A 
ATOM      6  C   UNL     1     140.652 140.043 142.106  1.00  0.00     0.051 A 
ENDROOT
BRANCH   1   7
ATOM      7  O   UNL     1     142.970 140.849 141.949  1.00  0.00    -0.493 OA
ATOM      8  C   UNL     1     143.614 139.578 141.949  1.00  0.00     0.278 C 
ENDBRANCH   1   7
BRANCH   2   9
ATOM      9  O   UNL     1     142.104 143.245 140.950  1.00  0.00    -0.493 OA
ATOM     10  C   UNL     1     141.806 144.507 140.363  1.00  0.00     0.278 C 
ENDBRANCH   2   9
BRANCH   4  11
ATOM     11  C   UNL     1     137.361 141.727 141.206  1.00  0.00     0.062 C 
BRANCH  11  12
ATOM     12  C   UNL     1     137.051 141.821 139.739  1.00  0.00    -0.030 C 
ATOM     13  C   UNL     1     135.820 142.101 139.299  1.00  0.00     0.004 C 
ENDBRANCH  11  12
ENDBRANCH   4  11
TORSDOF 4
ENDMDL
MODEL 8
REMARK VINA RESULT:    -3.183      3.236      4.458
REMARK INTER + INTRA:          -4.160
REMARK INTER:                  -3.839
REMARK INTRA:                  -0.321
REMARK UNBOUND:                -0.234
REMARK SMILES C=CCc1ccc(OC)c(OC)c1
REMARK SMILES IDX 7 1 10 2 13 3 4 4 5 5 6 6 8 7 9 8 11 9 12 10 3 11 2 12 1 13
REMARK H PARENT
REMARK Flexibility Score: inf
ROOT
ATOM      1  C   UNL     1     141.472 143.618 140.398  1.00  0.00     0.160 A 
ATOM      2  C   UNL     1     140.362 142.900 139.927  1.00  0.00     0.160 A 
ATOM      3  C   UNL     1     139.611 142.111 140.821  1.00  0.00     0.054 A 
ATOM      4  C   UNL     1     139.959 142.042 142.178  1.00  0.00    -0.040 A 
ATOM      5  C   UNL     1     141.076 142.753 142.638  1.00  0.00     0.008 A 
ATOM      6  C   UNL     1     141.825 143.537 141.758  1.00  0.00     0.051 A 
ENDROOT
BRANCH   1   7
ATOM      7  O   UNL     1     142.200 144.396 139.485  1.00  0.00    -0.493 OA
ATOM      8  C   UNL     1     142.149 145.818 139.417  1.00  0.00     0.278 C 
ENDBRANCH   1   7
BRANCH   2   9
ATOM      9  O   UNL     1     140.038 142.994 138.564  1.00  0.00    -0.493 OA
ATOM     10  C   UNL     1     139.059 142.192 137.909  1.00  0.00     0.278 C 
ENDBRANCH   2   9
BRANCH   4  11
ATOM     11  C   UNL     1     139.175 141.173 143.124  1.00  0.00     0.062 C 
BRANCH  11  12
ATOM     12  C   UNL     1     139.333 139.722 142.771  1.00  0.00    -0.030 C 
ATOM     13  C   UNL     1     140.492 139.079 142.943  1.00  0.00     0.004 C 
ENDBRANCH  11  12
ENDBRANCH   4  11
TORSDOF 4
ENDMDL
MODEL 9
REMARK VINA RESULT:    -3.162      2.386      3.801
REMARK INTER + INTRA:          -4.135
REMARK INTER:                  -3.797
REMARK INTRA:                  -0.337
REMARK UNBOUND:                -0.234
REMARK SMILES C=CCc1ccc(OC)c(OC)c1
REMARK SMILES IDX 7 1 10 2 13 3 4 4 5 5 6 6 8 7 9 8 11 9 12 10 3 11 2 12 1 13
REMARK H PARENT
REMARK Flexibility Score: inf
ROOT
ATOM      1  C   UNL     1     139.868 137.999 140.388  1.00  0.00     0.160 A 
ATOM      2  C   UNL     1     139.455 139.121 139.651  1.00  0.00     0.160 A 
ATOM      3  C   UNL     1     139.101 140.307 140.323  1.00  0.00     0.054 A 
ATOM      4  C   UNL     1     139.163 140.379 141.723  1.00  0.00    -0.040 A 
ATOM      5  C   UNL     1     139.564 139.252 142.452  1.00  0.00     0.008 A 
ATOM      6  C   UNL     1     139.917 138.073 141.793  1.00  0.00     0.051 A 
ENDROOT
BRANCH   1   7
ATOM      7  O   UNL     1     140.216 136.833 139.690  1.00  0.00    -0.493 OA
ATOM      8  C   UNL     1     139.381 135.685 139.568  1.00  0.00     0.278 C 
ENDBRANCH   1   7
BRANCH   2   9
ATOM      9  O   UNL     1     139.409 139.016 138.251  1.00  0.00    -0.493 OA
ATOM     10  C   UNL     1     138.385 139.573 137.433  1.00  0.00     0.278 C 
ENDBRANCH   2   9
BRANCH   4  11
ATOM     11  C   UNL     1     138.752 141.636 142.441  1.00  0.00     0.062 C 
BRANCH  11  12
ATOM     12  C   UNL     1     139.936 142.285 143.101  1.00  0.00    -0.030 C 
ATOM     13  C   UNL     1     140.929 142.824 142.388  1.00  0.00     0.004 C 
ENDBRANCH  11  12
ENDBRANCH   4  11
TORSDOF 4
ENDMDL
