MODEL 1
REMARK VINA RESULT:    -3.982      0.000      0.000
REMARK INTER + INTRA:          -9.214
REMARK INTER:                  -7.240
REMARK INTRA:                  -1.974
REMARK UNBOUND:                -1.974
REMARK SMILES CCCCCCCCCCCCCCCC(=O)[O-]
REMARK SMILES IDX 9 1 10 2 11 3 12 4 13 5 14 6 15 7 16 8 17 9 18 10 8 11 7 12
REMARK SMILES IDX 6 13 5 14 4 15 3 16 2 17 1 18
REMARK H PARENT
REMARK Flexibility Score: inf
ROOT
ATOM      1  C   UNL     1       9.272 -17.650 -23.395  1.00  0.00     0.000 C 
ENDROOT
BRANCH   1   2
ATOM      2  C   UNL     1       8.849 -16.711 -24.539  1.00  0.00     0.000 C 
BRANCH   2   3
ATOM      3  C   UNL     1       9.941 -15.677 -24.884  1.00  0.00     0.000 C 
BRANCH   3   4
ATOM      4  C   UNL     1       9.658 -14.267 -24.331  1.00  0.00     0.000 C 
BRANCH   4   5
ATOM      5  C   UNL     1      10.628 -13.788 -23.236  1.00  0.00     0.000 C 
BRANCH   5   6
ATOM      6  C   UNL     1      10.005 -13.610 -21.837  1.00  0.00     0.006 C 
BRANCH   6   7
ATOM      7  C   UNL     1      10.154 -14.842 -20.924  1.00  0.00     0.053 C 
BRANCH   7   8
ATOM      8  C   UNL     1      10.726 -14.500 -19.582  1.00  0.00     0.041 C 
ATOM      9  O   UNL     1      10.781 -13.301 -19.201  1.00  0.00    -0.550 OA
ATOM     10  O   UNL     1      11.159 -15.510 -18.732  1.00  0.00    -0.550 OA
ENDBRANCH   7   8
ENDBRANCH   6   7
ENDBRANCH   5   6
ENDBRANCH   4   5
ENDBRANCH   3   4
ENDBRANCH   2   3
ENDBRANCH   1   2
BRANCH   1  11
ATOM     11  C   UNL     1      10.800 -17.763 -23.258  1.00  0.00     0.000 C 
BRANCH  11  12
ATOM     12  C   UNL     1      11.297 -19.211 -23.385  1.00  0.00    -0.000 C 
BRANCH  12  13
ATOM     13  C   UNL     1      10.158 -20.146 -23.818  1.00  0.00    -0.000 C 
BRANCH  13  14
ATOM     14  C   UNL     1      10.397 -20.773 -25.201  1.00  0.00    -0.000 C 
BRANCH  14  15
ATOM     15  C   UNL     1      10.016 -19.827 -26.352  1.00  0.00    -0.000 C 
BRANCH  15  16
ATOM     16  C   UNL     1      11.232 -19.374 -27.182  1.00  0.00    -0.000 C 
BRANCH  16  17
ATOM     17  C   UNL     1      11.726 -17.947 -26.885  1.00  0.00    -0.003 C 
ATOM     18  C   UNL     1      12.677 -17.407 -27.952  1.00  0.00     0.004 C 
ENDBRANCH  16  17
ENDBRANCH  15  16
ENDBRANCH  14  15
ENDBRANCH  13  14
ENDBRANCH  12  13
ENDBRANCH  11  12
ENDBRANCH   1  11
TORSDOF 14
ENDMDL
MODEL 2
REMARK VINA RESULT:    -3.947      3.806      6.858
REMARK INTER + INTRA:          -9.150
REMARK INTER:                  -8.067
REMARK INTRA:                  -1.084
REMARK UNBOUND:                -1.974
REMARK SMILES CCCCCCCCCCCCCCCC(=O)[O-]
REMARK SMILES IDX 9 1 10 2 11 3 12 4 13 5 14 6 15 7 16 8 17 9 18 10 8 11 7 12
REMARK SMILES IDX 6 13 5 14 4 15 3 16 2 17 1 18
REMARK H PARENT
REMARK Flexibility Score: inf
ROOT
ATOM      1  C   UNL     1      10.447 -13.394 -23.954  1.00  0.00     0.000 C 
ENDROOT
BRANCH   1   2
ATOM      2  C   UNL     1       9.500 -14.442 -24.565  1.00  0.00     0.000 C 
BRANCH   2   3
ATOM      3  C   UNL     1      10.244 -15.721 -25.004  1.00  0.00     0.000 C 
BRANCH   3   4
ATOM      4  C   UNL     1      10.998 -16.425 -23.860  1.00  0.00     0.000 C 
BRANCH   4   5
ATOM      5  C   UNL     1      10.110 -16.941 -22.713  1.00  0.00     0.000 C 
BRANCH   5   6
ATOM      6  C   UNL     1      10.551 -16.516 -21.298  1.00  0.00     0.006 C 
BRANCH   6   7
ATOM      7  C   UNL     1      10.008 -15.142 -20.860  1.00  0.00     0.053 C 
BRANCH   7   8
ATOM      8  C   UNL     1      10.669 -14.631 -19.615  1.00  0.00     0.041 C 
ATOM      9  O   UNL     1      10.603 -13.410 -19.315  1.00  0.00    -0.550 OA
ATOM     10  O   UNL     1      11.323 -15.512 -18.763  1.00  0.00    -0.550 OA
ENDBRANCH   7   8
ENDBRANCH   6   7
ENDBRANCH   5   6
ENDBRANCH   4   5
ENDBRANCH   3   4
ENDBRANCH   2   3
ENDBRANCH   1   2
BRANCH   1  11
ATOM     11  C   UNL     1       9.733 -12.073 -23.623  1.00  0.00     0.000 C 
BRANCH  11  12
ATOM     12  C   UNL     1       8.236 -12.110 -23.968  1.00  0.00    -0.000 C 
BRANCH  12  13
ATOM     13  C   UNL     1       7.878 -11.007 -24.975  1.00  0.00    -0.000 C 
BRANCH  13  14
ATOM     14  C   UNL     1       9.116 -10.277 -25.521  1.00  0.00    -0.000 C 
BRANCH  14  15
ATOM     15  C   UNL     1       8.777  -9.330 -26.686  1.00  0.00    -0.000 C 
BRANCH  15  16
ATOM     16  C   UNL     1       8.971  -7.846 -26.326  1.00  0.00    -0.000 C 
BRANCH  16  17
ATOM     17  C   UNL     1       8.613  -6.854 -27.448  1.00  0.00    -0.003 C 
ATOM     18  C   UNL     1       8.904  -7.400 -28.846  1.00  0.00     0.004 C 
ENDBRANCH  16  17
ENDBRANCH  15  16
ENDBRANCH  14  15
ENDBRANCH  13  14
ENDBRANCH  12  13
ENDBRANCH  11  12
ENDBRANCH   1  11
TORSDOF 14
ENDMDL
MODEL 3
REMARK VINA RESULT:    -3.915      6.304      9.124
REMARK INTER + INTRA:          -9.093
REMARK INTER:                  -8.428
REMARK INTRA:                  -0.665
REMARK UNBOUND:                -1.974
REMARK SMILES CCCCCCCCCCCCCCCC(=O)[O-]
REMARK SMILES IDX 9 1 10 2 11 3 12 4 13 5 14 6 15 7 16 8 17 9 18 10 8 11 7 12
REMARK SMILES IDX 6 13 5 14 4 15 3 16 2 17 1 18
REMARK H PARENT
REMARK Flexibility Score: inf
ROOT
ATOM      1  C   UNL     1       9.672  -9.700 -25.019  1.00  0.00     0.000 C 
ENDROOT
BRANCH   1   2
ATOM      2  C   UNL     1       9.625 -10.945 -24.116  1.00  0.00     0.000 C 
BRANCH   2   3
ATOM      3  C   UNL     1       9.216 -12.217 -24.889  1.00  0.00     0.000 C 
BRANCH   3   4
ATOM      4  C   UNL     1       9.087 -13.469 -24.001  1.00  0.00     0.000 C 
BRANCH   4   5
ATOM      5  C   UNL     1      10.345 -14.354 -23.933  1.00  0.00     0.000 C 
BRANCH   5   6
ATOM      6  C   UNL     1      11.115 -14.300 -22.598  1.00  0.00     0.006 C 
BRANCH   6   7
ATOM      7  C   UNL     1      10.275 -14.711 -21.373  1.00  0.00     0.053 C 
BRANCH   7   8
ATOM      8  C   UNL     1      10.326 -13.695 -20.272  1.00  0.00     0.041 C 
ATOM      9  O   UNL     1      10.748 -14.016 -19.130  1.00  0.00    -0.550 OA
ATOM     10  O   UNL     1       9.947 -12.382 -20.519  1.00  0.00    -0.550 OA
ENDBRANCH   7   8
ENDBRANCH   6   7
ENDBRANCH   5   6
ENDBRANCH   4   5
ENDBRANCH   3   4
ENDBRANCH   2   3
ENDBRANCH   1   2
BRANCH   1  11
ATOM     11  C   UNL     1       8.272  -9.146 -25.334  1.00  0.00     0.000 C 
BRANCH  11  12
ATOM     12  C   UNL     1       8.190  -8.514 -26.731  1.00  0.00    -0.000 C 
BRANCH  12  13
ATOM     13  C   UNL     1       9.010  -7.216 -26.795  1.00  0.00    -0.000 C 
BRANCH  13  14
ATOM     14  C   UNL     1       8.558  -6.283 -27.930  1.00  0.00    -0.000 C 
BRANCH  14  15
ATOM     15  C   UNL     1       8.572  -6.974 -29.304  1.00  0.00    -0.000 C 
BRANCH  15  16
ATOM     16  C   UNL     1       8.046  -6.070 -30.434  1.00  0.00    -0.000 C 
BRANCH  16  17
ATOM     17  C   UNL     1       8.993  -5.916 -31.638  1.00  0.00    -0.003 C 
ATOM     18  C   UNL     1       9.008  -4.499 -32.212  1.00  0.00     0.004 C 
ENDBRANCH  16  17
ENDBRANCH  15  16
ENDBRANCH  14  15
ENDBRANCH  13  14
ENDBRANCH  12  13
ENDBRANCH  11  12
ENDBRANCH   1  11
TORSDOF 14
ENDMDL
MODEL 4
REMARK VINA RESULT:    -3.887      2.740      5.950
REMARK INTER + INTRA:          -9.041
REMARK INTER:                  -7.818
REMARK INTRA:                  -1.223
REMARK UNBOUND:                -1.974
REMARK SMILES CCCCCCCCCCCCCCCC(=O)[O-]
REMARK SMILES IDX 9 1 10 2 11 3 12 4 13 5 14 6 15 7 16 8 17 9 18 10 8 11 7 12
REMARK SMILES IDX 6 13 5 14 4 15 3 16 2 17 1 18
REMARK H PARENT
REMARK Flexibility Score: inf
ROOT
ATOM      1  C   UNL     1      10.225 -16.017 -25.034  1.00  0.00     0.000 C 
ENDROOT
BRANCH   1   2
ATOM      2  C   UNL     1       9.800 -17.474 -24.783  1.00  0.00     0.000 C 
BRANCH   2   3
ATOM      3  C   UNL     1      10.683 -18.169 -23.725  1.00  0.00     0.000 C 
BRANCH   3   4
ATOM      4  C   UNL     1       9.989 -18.356 -22.362  1.00  0.00     0.000 C 
BRANCH   4   5
ATOM      5  C   UNL     1       9.622 -17.052 -21.632  1.00  0.00     0.000 C 
BRANCH   5   6
ATOM      6  C   UNL     1      10.757 -16.012 -21.532  1.00  0.00     0.006 C 
BRANCH   6   7
ATOM      7  C   UNL     1      10.301 -14.634 -21.016  1.00  0.00     0.053 C 
BRANCH   7   8
ATOM      8  C   UNL     1      10.734 -14.374 -19.605  1.00  0.00     0.041 C 
ATOM      9  O   UNL     1      10.702 -13.207 -19.134  1.00  0.00    -0.550 OA
ATOM     10  O   UNL     1      11.135 -15.430 -18.795  1.00  0.00    -0.550 OA
ENDBRANCH   7   8
ENDBRANCH   6   7
ENDBRANCH   5   6
ENDBRANCH   4   5
ENDBRANCH   3   4
ENDBRANCH   2   3
ENDBRANCH   1   2
BRANCH   1  11
ATOM     11  C   UNL     1       9.038 -15.110 -25.399  1.00  0.00     0.000 C 
BRANCH  11  12
ATOM     12  C   UNL     1       8.738 -14.066 -24.312  1.00  0.00    -0.000 C 
BRANCH  12  13
ATOM     13  C   UNL     1       9.843 -13.001 -24.255  1.00  0.00    -0.000 C 
BRANCH  13  14
ATOM     14  C   UNL     1       9.292 -11.585 -24.021  1.00  0.00    -0.000 C 
BRANCH  14  15
ATOM     15  C   UNL     1       9.816 -10.570 -25.052  1.00  0.00    -0.000 C 
BRANCH  15  16
ATOM     16  C   UNL     1       9.519  -9.111 -24.659  1.00  0.00    -0.000 C 
BRANCH  16  17
ATOM     17  C   UNL     1       8.937  -8.240 -25.787  1.00  0.00    -0.003 C 
ATOM     18  C   UNL     1       8.595  -9.038 -27.045  1.00  0.00     0.004 C 
ENDBRANCH  16  17
ENDBRANCH  15  16
ENDBRANCH  14  15
ENDBRANCH  13  14
ENDBRANCH  12  13
ENDBRANCH  11  12
ENDBRANCH   1  11
TORSDOF 14
ENDMDL
MODEL 5
REMARK VINA RESULT:    -3.810      1.243      3.204
REMARK INTER + INTRA:          -8.903
REMARK INTER:                  -6.848
REMARK INTRA:                  -2.055
REMARK UNBOUND:                -1.974
REMARK SMILES CCCCCCCCCCCCCCCC(=O)[O-]
REMARK SMILES IDX 9 1 10 2 11 3 12 4 13 5 14 6 15 7 16 8 17 9 18 10 8 11 7 12
REMARK SMILES IDX 6 13 5 14 4 15 3 16 2 17 1 18
REMARK H PARENT
REMARK Flexibility Score: inf
ROOT
ATOM      1  C   UNL     1       8.984 -21.006 -23.292  1.00  0.00     0.000 C 
ENDROOT
BRANCH   1   2
ATOM      2  C   UNL     1       8.481 -19.839 -22.424  1.00  0.00     0.000 C 
BRANCH   2   3
ATOM      3  C   UNL     1       8.471 -18.499 -23.191  1.00  0.00     0.000 C 
BRANCH   3   4
ATOM      4  C   UNL     1       8.952 -17.300 -22.351  1.00  0.00     0.000 C 
BRANCH   4   5
ATOM      5  C   UNL     1      10.419 -17.371 -21.891  1.00  0.00     0.000 C 
BRANCH   5   6
ATOM      6  C   UNL     1      11.109 -16.008 -21.682  1.00  0.00     0.006 C 
BRANCH   6   7
ATOM      7  C   UNL     1      10.217 -14.952 -21.000  1.00  0.00     0.053 C 
BRANCH   7   8
ATOM      8  C   UNL     1      10.697 -14.592 -19.626  1.00  0.00     0.041 C 
ATOM      9  O   UNL     1      11.138 -15.483 -18.853  1.00  0.00    -0.550 OA
ATOM     10  O   UNL     1      10.696 -13.265 -19.215  1.00  0.00    -0.550 OA
ENDBRANCH   7   8
ENDBRANCH   6   7
ENDBRANCH   5   6
ENDBRANCH   4   5
ENDBRANCH   3   4
ENDBRANCH   2   3
ENDBRANCH   1   2
BRANCH   1  11
ATOM     11  C   UNL     1      10.356 -20.723 -23.926  1.00  0.00     0.000 C 
BRANCH  11  12
ATOM     12  C   UNL     1      10.389 -21.044 -25.428  1.00  0.00    -0.000 C 
BRANCH  12  13
ATOM     13  C   UNL     1      10.806 -19.811 -26.243  1.00  0.00    -0.000 C 
BRANCH  13  14
ATOM     14  C   UNL     1      10.997 -18.559 -25.371  1.00  0.00    -0.000 C 
BRANCH  14  15
ATOM     15  C   UNL     1      11.077 -17.267 -26.202  1.00  0.00    -0.000 C 
BRANCH  15  16
ATOM     16  C   UNL     1      10.754 -16.005 -25.380  1.00  0.00    -0.000 C 
BRANCH  16  17
ATOM     17  C   UNL     1       9.315 -15.480 -25.535  1.00  0.00    -0.003 C 
ATOM     18  C   UNL     1       8.981 -14.350 -24.561  1.00  0.00     0.004 C 
ENDBRANCH  16  17
ENDBRANCH  15  16
ENDBRANCH  14  15
ENDBRANCH  13  14
ENDBRANCH  12  13
ENDBRANCH  11  12
ENDBRANCH   1  11
TORSDOF 14
ENDMDL
MODEL 6
REMARK VINA RESULT:    -3.768      3.178      6.719
REMARK INTER + INTRA:          -8.825
REMARK INTER:                  -6.724
REMARK INTRA:                  -2.101
REMARK UNBOUND:                -1.974
REMARK SMILES CCCCCCCCCCCCCCCC(=O)[O-]
REMARK SMILES IDX 9 1 10 2 11 3 12 4 13 5 14 6 15 7 16 8 17 9 18 10 8 11 7 12
REMARK SMILES IDX 6 13 5 14 4 15 3 16 2 17 1 18
REMARK H PARENT
REMARK Flexibility Score: inf
ROOT
ATOM      1  C   UNL     1      11.478 -17.671 -23.407  1.00  0.00     0.000 C 
ENDROOT
BRANCH   1   2
ATOM      2  C   UNL     1      11.285 -19.188 -23.581  1.00  0.00     0.000 C 
BRANCH   2   3
ATOM      3  C   UNL     1       9.834 -19.555 -23.959  1.00  0.00     0.000 C 
BRANCH   3   4
ATOM      4  C   UNL     1       9.606 -19.700 -25.476  1.00  0.00     0.000 C 
BRANCH   4   5
ATOM      5  C   UNL     1       9.006 -18.463 -26.168  1.00  0.00     0.000 C 
BRANCH   5   6
ATOM      6  C   UNL     1       9.800 -17.940 -27.382  1.00  0.00     0.006 C 
BRANCH   6   7
ATOM      7  C   UNL     1      10.983 -17.026 -27.010  1.00  0.00     0.053 C 
BRANCH   7   8
ATOM      8  C   UNL     1      12.304 -17.729 -27.093  1.00  0.00     0.041 C 
ATOM      9  O   UNL     1      12.351 -18.977 -27.254  1.00  0.00    -0.550 OA
ATOM     10  O   UNL     1      13.485 -17.000 -27.035  1.00  0.00    -0.550 OA
ENDBRANCH   7   8
ENDBRANCH   6   7
ENDBRANCH   5   6
ENDBRANCH   4   5
ENDBRANCH   3   4
ENDBRANCH   2   3
ENDBRANCH   1   2
BRANCH   1  11
ATOM     11  C   UNL     1      10.349 -17.021 -22.590  1.00  0.00     0.000 C 
BRANCH  11  12
ATOM     12  C   UNL     1       9.605 -15.932 -23.376  1.00  0.00    -0.000 C 
BRANCH  12  13
ATOM     13  C   UNL     1      10.594 -14.983 -24.069  1.00  0.00    -0.000 C 
BRANCH  13  14
ATOM     14  C   UNL     1      11.029 -13.816 -23.167  1.00  0.00    -0.000 C 
BRANCH  14  15
ATOM     15  C   UNL     1       9.851 -13.194 -22.397  1.00  0.00    -0.000 C 
BRANCH  15  16
ATOM     16  C   UNL     1      10.117 -13.081 -20.885  1.00  0.00    -0.000 C 
BRANCH  16  17
ATOM     17  C   UNL     1       9.742 -14.328 -20.064  1.00  0.00    -0.003 C 
ATOM     18  C   UNL     1      10.960 -15.091 -19.544  1.00  0.00     0.004 C 
ENDBRANCH  16  17
ENDBRANCH  15  16
ENDBRANCH  14  15
ENDBRANCH  13  14
ENDBRANCH  12  13
ENDBRANCH  11  12
ENDBRANCH   1  11
TORSDOF 14
ENDMDL
MODEL 7
REMARK VINA RESULT:    -3.755      2.944      5.282
REMARK INTER + INTRA:          -8.801
REMARK INTER:                  -6.876
REMARK INTRA:                  -1.925
REMARK UNBOUND:                -1.974
REMARK SMILES CCCCCCCCCCCCCCCC(=O)[O-]
REMARK SMILES IDX 9 1 10 2 11 3 12 4 13 5 14 6 15 7 16 8 17 9 18 10 8 11 7 12
REMARK SMILES IDX 6 13 5 14 4 15 3 16 2 17 1 18
REMARK H PARENT
REMARK Flexibility Score: inf
ROOT
ATOM      1  C   UNL     1      11.259 -16.709 -25.467  1.00  0.00     0.000 C 
ENDROOT
BRANCH   1   2
ATOM      2  C   UNL     1       9.888 -17.150 -26.008  1.00  0.00     0.000 C 
BRANCH   2   3
ATOM      3  C   UNL     1       8.906 -15.968 -26.150  1.00  0.00     0.000 C 
BRANCH   3   4
ATOM      4  C   UNL     1       9.319 -14.718 -25.349  1.00  0.00     0.000 C 
BRANCH   4   5
ATOM      5  C   UNL     1       8.157 -13.806 -24.916  1.00  0.00     0.000 C 
BRANCH   5   6
ATOM      6  C   UNL     1       8.525 -12.712 -23.894  1.00  0.00     0.006 C 
BRANCH   6   7
ATOM      7  C   UNL     1       9.935 -12.122 -24.089  1.00  0.00     0.053 C 
BRANCH   7   8
ATOM      8  C   UNL     1       9.909 -10.757 -24.709  1.00  0.00     0.041 C 
ATOM      9  O   UNL     1       9.797 -10.627 -25.957  1.00  0.00    -0.550 OA
ATOM     10  O   UNL     1       9.966  -9.626 -23.904  1.00  0.00    -0.550 OA
ENDBRANCH   7   8
ENDBRANCH   6   7
ENDBRANCH   5   6
ENDBRANCH   4   5
ENDBRANCH   3   4
ENDBRANCH   2   3
ENDBRANCH   1   2
BRANCH   1  11
ATOM     11  C   UNL     1      11.660 -17.464 -24.188  1.00  0.00     0.000 C 
BRANCH  11  12
ATOM     12  C   UNL     1      10.533 -18.360 -23.655  1.00  0.00    -0.000 C 
BRANCH  12  13
ATOM     13  C   UNL     1      10.091 -17.911 -22.254  1.00  0.00    -0.000 C 
BRANCH  13  14
ATOM     14  C   UNL     1       9.206 -16.654 -22.285  1.00  0.00    -0.000 C 
BRANCH  14  15
ATOM     15  C   UNL     1       9.941 -15.402 -21.777  1.00  0.00    -0.000 C 
BRANCH  15  16
ATOM     16  C   UNL     1      10.206 -15.436 -20.260  1.00  0.00    -0.000 C 
BRANCH  16  17
ATOM     17  C   UNL     1      10.559 -14.076 -19.631  1.00  0.00    -0.003 C 
ATOM     18  C   UNL     1      10.092 -12.888 -20.472  1.00  0.00     0.004 C 
ENDBRANCH  16  17
ENDBRANCH  15  16
ENDBRANCH  14  15
ENDBRANCH  13  14
ENDBRANCH  12  13
ENDBRANCH  11  12
ENDBRANCH   1  11
TORSDOF 14
ENDMDL
MODEL 8
REMARK VINA RESULT:    -3.750      1.304      2.516
REMARK INTER + INTRA:          -8.792
REMARK INTER:                  -6.637
REMARK INTRA:                  -2.155
REMARK UNBOUND:                -1.974
REMARK SMILES CCCCCCCCCCCCCCCC(=O)[O-]
REMARK SMILES IDX 9 1 10 2 11 3 12 4 13 5 14 6 15 7 16 8 17 9 18 10 8 11 7 12
REMARK SMILES IDX 6 13 5 14 4 15 3 16 2 17 1 18
REMARK H PARENT
REMARK Flexibility Score: inf
ROOT
ATOM      1  C   UNL     1      10.770 -19.793 -23.588  1.00  0.00     0.000 C 
ENDROOT
BRANCH   1   2
ATOM      2  C   UNL     1       9.589 -19.257 -22.759  1.00  0.00     0.000 C 
BRANCH   2   3
ATOM      3  C   UNL     1       9.797 -17.792 -22.321  1.00  0.00     0.000 C 
BRANCH   3   4
ATOM      4  C   UNL     1      11.130 -17.184 -22.798  1.00  0.00     0.000 C 
BRANCH   4   5
ATOM      5  C   UNL     1      11.139 -15.650 -22.930  1.00  0.00     0.000 C 
BRANCH   5   6
ATOM      6  C   UNL     1       9.837 -14.946 -22.501  1.00  0.00     0.006 C 
BRANCH   6   7
ATOM      7  C   UNL     1      10.046 -13.811 -21.480  1.00  0.00     0.053 C 
BRANCH   7   8
ATOM      8  C   UNL     1      10.109 -14.309 -20.068  1.00  0.00     0.041 C 
ATOM      9  O   UNL     1      10.761 -13.675 -19.198  1.00  0.00    -0.550 OA
ATOM     10  O   UNL     1       9.411 -15.454 -19.703  1.00  0.00    -0.550 OA
ENDBRANCH   7   8
ENDBRANCH   6   7
ENDBRANCH   5   6
ENDBRANCH   4   5
ENDBRANCH   3   4
ENDBRANCH   2   3
ENDBRANCH   1   2
BRANCH   1  11
ATOM     11  C   UNL     1      10.312 -20.601 -24.814  1.00  0.00     0.000 C 
BRANCH  11  12
ATOM     12  C   UNL     1       8.952 -20.135 -25.354  1.00  0.00    -0.000 C 
BRANCH  12  13
ATOM     13  C   UNL     1       9.134 -19.137 -26.508  1.00  0.00    -0.000 C 
BRANCH  13  14
ATOM     14  C   UNL     1       8.987 -17.674 -26.057  1.00  0.00    -0.000 C 
BRANCH  14  15
ATOM     15  C   UNL     1      10.054 -16.755 -26.676  1.00  0.00    -0.000 C 
BRANCH  15  16
ATOM     16  C   UNL     1      11.491 -17.198 -26.344  1.00  0.00    -0.000 C 
BRANCH  16  17
ATOM     17  C   UNL     1      12.297 -17.738 -27.540  1.00  0.00    -0.003 C 
ATOM     18  C   UNL     1      11.559 -17.598 -28.871  1.00  0.00     0.004 C 
ENDBRANCH  16  17
ENDBRANCH  15  16
ENDBRANCH  14  15
ENDBRANCH  13  14
ENDBRANCH  12  13
ENDBRANCH  11  12
ENDBRANCH   1  11
TORSDOF 14
ENDMDL
MODEL 9
REMARK VINA RESULT:    -3.743      0.957      1.413
REMARK INTER + INTRA:          -8.781
REMARK INTER:                  -6.750
REMARK INTRA:                  -2.031
REMARK UNBOUND:                -1.974
REMARK SMILES CCCCCCCCCCCCCCCC(=O)[O-]
REMARK SMILES IDX 9 1 10 2 11 3 12 4 13 5 14 6 15 7 16 8 17 9 18 10 8 11 7 12
REMARK SMILES IDX 6 13 5 14 4 15 3 16 2 17 1 18
REMARK H PARENT
REMARK Flexibility Score: inf
ROOT
ATOM      1  C   UNL     1      11.286 -16.712 -24.226  1.00  0.00     0.000 C 
ENDROOT
BRANCH   1   2
ATOM      2  C   UNL     1       9.894 -16.435 -24.819  1.00  0.00     0.000 C 
BRANCH   2   3
ATOM      3  C   UNL     1       9.625 -14.927 -25.008  1.00  0.00     0.000 C 
BRANCH   3   4
ATOM      4  C   UNL     1       8.560 -14.361 -24.049  1.00  0.00     0.000 C 
BRANCH   4   5
ATOM      5  C   UNL     1       8.657 -14.861 -22.596  1.00  0.00     0.000 C 
BRANCH   5   6
ATOM      6  C   UNL     1       9.678 -14.119 -21.712  1.00  0.00     0.006 C 
BRANCH   6   7
ATOM      7  C   UNL     1      10.692 -15.045 -21.013  1.00  0.00     0.053 C 
BRANCH   7   8
ATOM      8  C   UNL     1      10.898 -14.692 -19.571  1.00  0.00     0.041 C 
ATOM      9  O   UNL     1      11.240 -15.576 -18.742  1.00  0.00    -0.550 OA
ATOM     10  O   UNL     1      10.753 -13.376 -19.150  1.00  0.00    -0.550 OA
ENDBRANCH   7   8
ENDBRANCH   6   7
ENDBRANCH   5   6
ENDBRANCH   4   5
ENDBRANCH   3   4
ENDBRANCH   2   3
ENDBRANCH   1   2
BRANCH   1  11
ATOM     11  C   UNL     1      11.317 -17.981 -23.359  1.00  0.00     0.000 C 
BRANCH  11  12
ATOM     12  C   UNL     1       9.920 -18.403 -22.879  1.00  0.00    -0.000 C 
BRANCH  12  13
ATOM     13  C   UNL     1       9.625 -19.860 -23.264  1.00  0.00    -0.000 C 
BRANCH  13  14
ATOM     14  C   UNL     1      10.516 -20.364 -24.411  1.00  0.00    -0.000 C 
BRANCH  14  15
ATOM     15  C   UNL     1       9.916 -20.073 -25.798  1.00  0.00    -0.000 C 
BRANCH  15  16
ATOM     16  C   UNL     1      10.969 -20.087 -26.921  1.00  0.00    -0.000 C 
BRANCH  16  17
ATOM     17  C   UNL     1      11.608 -18.721 -27.230  1.00  0.00    -0.003 C 
ATOM     18  C   UNL     1      10.729 -17.835 -28.113  1.00  0.00     0.004 C 
ENDBRANCH  16  17
ENDBRANCH  15  16
ENDBRANCH  14  15
ENDBRANCH  13  14
ENDBRANCH  12  13
ENDBRANCH  11  12
ENDBRANCH   1  11
TORSDOF 14
ENDMDL
