MODEL 1
REMARK VINA RESULT:    -2.521      0.000      0.000
REMARK INTER + INTRA:          -2.521
REMARK INTER:                  -2.521
REMARK INTRA:                   0.000
REMARK UNBOUND:                 0.000
REMARK SMILES CC(=O)[O-]
REMARK SMILES IDX 1 1 2 2 3 3 4 4
REMARK H PARENT
REMARK Flexibility Score: inf
ROOT
ATOM      1  C   UNL     1    -117.214 -37.089 -56.330  1.00  0.00     0.063 C 
ATOM      2  C   UNL     1    -116.348 -35.939 -56.716  1.00  0.00     0.038 C 
ATOM      3  O   UNL     1    -115.103 -35.994 -56.533  1.00  0.00    -0.550 OA
ATOM      4  O   UNL     1    -116.918 -34.781 -57.231  1.00  0.00    -0.550 OA
ENDROOT
TORSDOF 0
ENDMDL
MODEL 2
REMARK VINA RESULT:    -2.509      0.105      1.621
REMARK INTER + INTRA:          -2.509
REMARK INTER:                  -2.509
REMARK INTRA:                   0.000
REMARK UNBOUND:                 0.000
REMARK SMILES CC(=O)[O-]
REMARK SMILES IDX 1 1 2 2 3 3 4 4
REMARK H PARENT
REMARK Flexibility Score: inf
ROOT
ATOM      1  C   UNL     1    -117.274 -37.071 -56.301  1.00  0.00     0.063 C 
ATOM      2  C   UNL     1    -116.434 -35.893 -56.659  1.00  0.00     0.038 C 
ATOM      3  O   UNL     1    -116.971 -34.846 -57.107  1.00  0.00    -0.550 OA
ATOM      4  O   UNL     1    -115.051 -35.966 -56.550  1.00  0.00    -0.550 OA
ENDROOT
TORSDOF 0
ENDMDL
MODEL 3
REMARK VINA RESULT:    -2.477      1.289      2.422
REMARK INTER + INTRA:          -2.477
REMARK INTER:                  -2.477
REMARK INTRA:                   0.000
REMARK UNBOUND:                 0.000
REMARK SMILES CC(=O)[O-]
REMARK SMILES IDX 1 1 2 2 3 3 4 4
REMARK H PARENT
REMARK Flexibility Score: inf
ROOT
ATOM      1  C   UNL     1    -114.988 -34.999 -57.984  1.00  0.00     0.063 C 
ATOM      2  C   UNL     1    -116.163 -35.455 -57.188  1.00  0.00     0.038 C 
ATOM      3  O   UNL     1    -117.166 -34.706 -57.055  1.00  0.00    -0.550 OA
ATOM      4  O   UNL     1    -116.134 -36.687 -56.547  1.00  0.00    -0.550 OA
ENDROOT
TORSDOF 0
ENDMDL
MODEL 4
REMARK VINA RESULT:    -2.329     16.370     16.798
REMARK INTER + INTRA:          -2.329
REMARK INTER:                  -2.329
REMARK INTRA:                   0.000
REMARK UNBOUND:                 0.000
REMARK SMILES CC(=O)[O-]
REMARK SMILES IDX 1 1 2 2 3 3 4 4
REMARK H PARENT
REMARK Flexibility Score: inf
ROOT
ATOM      1  C   UNL     1    -116.748 -27.733 -70.241  1.00  0.00     0.063 C 
ATOM      2  C   UNL     1    -117.142 -28.328 -71.551  1.00  0.00     0.038 C 
ATOM      3  O   UNL     1    -118.196 -27.951 -72.125  1.00  0.00    -0.550 OA
ATOM      4  O   UNL     1    -116.373 -29.338 -72.115  1.00  0.00    -0.550 OA
ENDROOT
TORSDOF 0
ENDMDL
MODEL 5
REMARK VINA RESULT:    -2.285     10.025     10.305
REMARK INTER + INTRA:          -2.285
REMARK INTER:                  -2.285
REMARK INTRA:                   0.000
REMARK UNBOUND:                 0.000
REMARK SMILES CC(=O)[O-]
REMARK SMILES IDX 1 1 2 2 3 3 4 4
REMARK H PARENT
REMARK Flexibility Score: inf
ROOT
ATOM      1  C   UNL     1    -120.469 -27.233 -53.784  1.00  0.00     0.063 C 
ATOM      2  C   UNL     1    -119.145 -26.691 -53.362  1.00  0.00     0.038 C 
ATOM      3  O   UNL     1    -118.256 -26.455 -54.221  1.00  0.00    -0.550 OA
ATOM      4  O   UNL     1    -118.871 -26.495 -52.014  1.00  0.00    -0.550 OA
ENDROOT
TORSDOF 0
ENDMDL
MODEL 6
REMARK VINA RESULT:    -2.284      9.959     10.304
REMARK INTER + INTRA:          -2.284
REMARK INTER:                  -2.284
REMARK INTRA:                   0.000
REMARK UNBOUND:                 0.000
REMARK SMILES CC(=O)[O-]
REMARK SMILES IDX 1 1 2 2 3 3 4 4
REMARK H PARENT
REMARK Flexibility Score: inf
ROOT
ATOM      1  C   UNL     1    -118.998 -26.365 -52.054  1.00  0.00     0.063 C 
ATOM      2  C   UNL     1    -119.195 -26.780 -53.473  1.00  0.00     0.038 C 
ATOM      3  O   UNL     1    -120.297 -27.264 -53.843  1.00  0.00    -0.550 OA
ATOM      4  O   UNL     1    -118.146 -26.682 -54.378  1.00  0.00    -0.550 OA
ENDROOT
TORSDOF 0
ENDMDL
MODEL 7
REMARK VINA RESULT:    -2.271     10.901     11.290
REMARK INTER + INTRA:          -2.271
REMARK INTER:                  -2.271
REMARK INTRA:                   0.000
REMARK UNBOUND:                 0.000
REMARK SMILES CC(=O)[O-]
REMARK SMILES IDX 1 1 2 2 3 3 4 4
REMARK H PARENT
REMARK Flexibility Score: inf
ROOT
ATOM      1  C   UNL     1    -120.745 -42.634 -64.763  1.00  0.00     0.063 C 
ATOM      2  C   UNL     1    -121.705 -42.795 -63.634  1.00  0.00     0.038 C 
ATOM      3  O   UNL     1    -122.945 -42.730 -63.844  1.00  0.00    -0.550 OA
ATOM      4  O   UNL     1    -121.234 -42.964 -62.338  1.00  0.00    -0.550 OA
ENDROOT
TORSDOF 0
ENDMDL
MODEL 8
REMARK VINA RESULT:    -2.225     10.866     11.169
REMARK INTER + INTRA:          -2.225
REMARK INTER:                  -2.225
REMARK INTRA:                   0.000
REMARK UNBOUND:                 0.000
REMARK SMILES CC(=O)[O-]
REMARK SMILES IDX 1 1 2 2 3 3 4 4
REMARK H PARENT
REMARK Flexibility Score: inf
ROOT
ATOM      1  C   UNL     1    -123.052 -43.035 -62.572  1.00  0.00     0.063 C 
ATOM      2  C   UNL     1    -121.974 -42.703 -63.547  1.00  0.00     0.038 C 
ATOM      3  O   UNL     1    -120.798 -42.500 -63.145  1.00  0.00    -0.550 OA
ATOM      4  O   UNL     1    -122.274 -42.566 -64.896  1.00  0.00    -0.550 OA
ENDROOT
TORSDOF 0
ENDMDL
