MODEL 1
REMARK VINA RESULT:    -3.265      0.000      0.000
REMARK INTER + INTRA:         -10.875
REMARK INTER:                  -7.465
REMARK INTRA:                  -3.410
REMARK UNBOUND:                -3.410
REMARK SMILES CCCCCCCCCCCCCCCCCCCCCCCC(=O)[O-]
REMARK SMILES IDX 13 1 14 2 15 3 16 4 17 5 18 6 19 7 20 8 21 9 22 10 23 11
REMARK SMILES IDX 24 12 25 13 26 14 12 15 11 16 10 17 9 18 8 19 7 20 6 21 5 22
REMARK SMILES IDX 4 23 3 24 2 25 1 26
REMARK H PARENT
REMARK Flexibility Score: inf
ROOT
ATOM      1  C   UNL     1      40.114  11.758  11.968  1.00  0.00     0.000 C 
ENDROOT
BRANCH   1   2
ATOM      2  C   UNL     1      40.672  10.483  11.316  1.00  0.00     0.000 C 
BRANCH   2   3
ATOM      3  C   UNL     1      40.135   9.187  11.953  1.00  0.00     0.000 C 
BRANCH   3   4
ATOM      4  C   UNL     1      38.721   9.279  12.560  1.00  0.00     0.000 C 
BRANCH   4   5
ATOM      5  C   UNL     1      38.596   8.583  13.926  1.00  0.00     0.000 C 
BRANCH   5   6
ATOM      6  C   UNL     1      39.002   9.486  15.108  1.00  0.00     0.000 C 
BRANCH   6   7
ATOM      7  C   UNL     1      38.430   9.060  16.478  1.00  0.00     0.000 C 
BRANCH   7   8
ATOM      8  C   UNL     1      39.170   9.609  17.713  1.00  0.00     0.000 C 
BRANCH   8   9
ATOM      9  C   UNL     1      40.400   8.777  18.109  1.00  0.00     0.000 C 
BRANCH   9  10
ATOM     10  C   UNL     1      41.645   9.667  18.240  1.00  0.00     0.006 C 
BRANCH  10  11
ATOM     11  C   UNL     1      41.289  11.156  18.334  1.00  0.00     0.053 C 
BRANCH  11  12
ATOM     12  C   UNL     1      42.384  12.027  17.799  1.00  0.00     0.041 C 
ATOM     13  O   UNL     1      43.242  12.517  18.579  1.00  0.00    -0.550 OA
ATOM     14  O   UNL     1      42.447  12.314  16.441  1.00  0.00    -0.550 OA
ENDBRANCH  11  12
ENDBRANCH  10  11
ENDBRANCH   9  10
ENDBRANCH   8   9
ENDBRANCH   7   8
ENDBRANCH   6   7
ENDBRANCH   5   6
ENDBRANCH   4   5
ENDBRANCH   3   4
ENDBRANCH   2   3
ENDBRANCH   1   2
BRANCH   1  15
ATOM     15  C   UNL     1      40.878  12.100  13.257  1.00  0.00     0.000 C 
BRANCH  15  16
ATOM     16  C   UNL     1      40.335  13.371  13.945  1.00  0.00     0.000 C 
BRANCH  16  17
ATOM     17  C   UNL     1      38.915  13.212  14.513  1.00  0.00     0.000 C 
BRANCH  17  18
ATOM     18  C   UNL     1      38.903  12.731  15.973  1.00  0.00    -0.000 C 
BRANCH  18  19
ATOM     19  C   UNL     1      38.180  13.713  16.910  1.00  0.00    -0.000 C 
BRANCH  19  20
ATOM     20  C   UNL     1      38.493  13.449  18.392  1.00  0.00    -0.000 C 
BRANCH  20  21
ATOM     21  C   UNL     1      39.328  14.573  19.032  1.00  0.00    -0.000 C 
BRANCH  21  22
ATOM     22  C   UNL     1      40.502  15.084  18.168  1.00  0.00    -0.000 C 
BRANCH  22  23
ATOM     23  C   UNL     1      40.828  16.579  18.333  1.00  0.00    -0.000 C 
BRANCH  23  24
ATOM     24  C   UNL     1      40.481  17.406  17.082  1.00  0.00    -0.000 C 
BRANCH  24  25
ATOM     25  C   UNL     1      40.132  16.526  15.872  1.00  0.00    -0.003 C 
ATOM     26  C   UNL     1      38.724  16.792  15.337  1.00  0.00     0.004 C 
ENDBRANCH  24  25
ENDBRANCH  23  24
ENDBRANCH  22  23
ENDBRANCH  21  22
ENDBRANCH  20  21
ENDBRANCH  19  20
ENDBRANCH  18  19
ENDBRANCH  17  18
ENDBRANCH  16  17
ENDBRANCH  15  16
ENDBRANCH   1  15
TORSDOF 22
ENDMDL
MODEL 2
REMARK VINA RESULT:    -2.609      1.862      5.018
REMARK INTER + INTRA:          -9.375
REMARK INTER:                  -6.419
REMARK INTRA:                  -2.956
REMARK UNBOUND:                -3.410
REMARK SMILES CCCCCCCCCCCCCCCCCCCCCCCC(=O)[O-]
REMARK SMILES IDX 13 1 14 2 15 3 16 4 17 5 18 6 19 7 20 8 21 9 22 10 23 11
REMARK SMILES IDX 24 12 25 13 26 14 12 15 11 16 10 17 9 18 8 19 7 20 6 21 5 22
REMARK SMILES IDX 4 23 3 24 2 25 1 26
REMARK H PARENT
REMARK Flexibility Score: inf
ROOT
ATOM      1  C   UNL     1      41.051  10.856  11.988  1.00  0.00     0.000 C 
ENDROOT
BRANCH   1   2
ATOM      2  C   UNL     1      41.166  11.261  13.466  1.00  0.00     0.000 C 
BRANCH   2   3
ATOM      3  C   UNL     1      41.187  12.787  13.680  1.00  0.00     0.000 C 
BRANCH   3   4
ATOM      4  C   UNL     1      39.827  13.498  13.539  1.00  0.00     0.000 C 
BRANCH   4   5
ATOM      5  C   UNL     1      38.831  13.140  14.656  1.00  0.00     0.000 C 
BRANCH   5   6
ATOM      6  C   UNL     1      38.054  14.358  15.191  1.00  0.00     0.000 C 
BRANCH   6   7
ATOM      7  C   UNL     1      38.098  14.536  16.726  1.00  0.00     0.000 C 
BRANCH   7   8
ATOM      8  C   UNL     1      39.194  13.741  17.461  1.00  0.00     0.000 C 
BRANCH   8   9
ATOM      9  C   UNL     1      39.349  14.134  18.938  1.00  0.00     0.000 C 
BRANCH   9  10
ATOM     10  C   UNL     1      39.352  15.662  19.101  1.00  0.00     0.006 C 
BRANCH  10  11
ATOM     11  C   UNL     1      40.684  16.291  18.671  1.00  0.00     0.053 C 
BRANCH  11  12
ATOM     12  C   UNL     1      40.486  17.382  17.664  1.00  0.00     0.041 C 
ATOM     13  O   UNL     1      39.868  18.431  17.979  1.00  0.00    -0.550 OA
ATOM     14  O   UNL     1      40.968  17.232  16.368  1.00  0.00    -0.550 OA
ENDBRANCH  11  12
ENDBRANCH  10  11
ENDBRANCH   9  10
ENDBRANCH   8   9
ENDBRANCH   7   8
ENDBRANCH   6   7
ENDBRANCH   5   6
ENDBRANCH   4   5
ENDBRANCH   3   4
ENDBRANCH   2   3
ENDBRANCH   1   2
BRANCH   1  15
ATOM     15  C   UNL     1      39.841   9.936  11.759  1.00  0.00     0.000 C 
BRANCH  15  16
ATOM     16  C   UNL     1      38.747  10.122  12.832  1.00  0.00     0.000 C 
BRANCH  16  17
ATOM     17  C   UNL     1      38.772   9.055  13.939  1.00  0.00     0.000 C 
BRANCH  17  18
ATOM     18  C   UNL     1      38.889   9.657  15.349  1.00  0.00    -0.000 C 
BRANCH  18  19
ATOM     19  C   UNL     1      38.165   8.813  16.411  1.00  0.00    -0.000 C 
BRANCH  19  20
ATOM     20  C   UNL     1      38.586   9.182  17.842  1.00  0.00    -0.000 C 
BRANCH  20  21
ATOM     21  C   UNL     1      39.886   8.481  18.279  1.00  0.00    -0.000 C 
BRANCH  21  22
ATOM     22  C   UNL     1      40.842   9.350  19.123  1.00  0.00    -0.000 C 
BRANCH  22  23
ATOM     23  C   UNL     1      40.936  10.824  18.689  1.00  0.00    -0.000 C 
BRANCH  23  24
ATOM     24  C   UNL     1      41.740  11.013  17.390  1.00  0.00    -0.000 C 
BRANCH  24  25
ATOM     25  C   UNL     1      42.477  12.360  17.343  1.00  0.00    -0.003 C 
ATOM     26  C   UNL     1      43.136  12.718  18.676  1.00  0.00     0.004 C 
ENDBRANCH  24  25
ENDBRANCH  23  24
ENDBRANCH  22  23
ENDBRANCH  21  22
ENDBRANCH  20  21
ENDBRANCH  19  20
ENDBRANCH  18  19
ENDBRANCH  17  18
ENDBRANCH  16  17
ENDBRANCH  15  16
ENDBRANCH   1  15
TORSDOF 22
ENDMDL
MODEL 3
REMARK VINA RESULT:    -2.484      2.270      5.372
REMARK INTER + INTRA:          -9.088
REMARK INTER:                  -6.614
REMARK INTRA:                  -2.474
REMARK UNBOUND:                -3.410
REMARK SMILES CCCCCCCCCCCCCCCCCCCCCCCC(=O)[O-]
REMARK SMILES IDX 13 1 14 2 15 3 16 4 17 5 18 6 19 7 20 8 21 9 22 10 23 11
REMARK SMILES IDX 24 12 25 13 26 14 12 15 11 16 10 17 9 18 8 19 7 20 6 21 5 22
REMARK SMILES IDX 4 23 3 24 2 25 1 26
REMARK H PARENT
REMARK Flexibility Score: inf
ROOT
ATOM      1  C   UNL     1      40.866  14.946  14.656  1.00  0.00     0.000 C 
ENDROOT
BRANCH   1   2
ATOM      2  C   UNL     1      40.436  13.645  13.961  1.00  0.00     0.000 C 
BRANCH   2   3
ATOM      3  C   UNL     1      41.216  12.408  14.446  1.00  0.00     0.000 C 
BRANCH   3   4
ATOM      4  C   UNL     1      40.428  11.434  15.344  1.00  0.00     0.000 C 
BRANCH   4   5
ATOM      5  C   UNL     1      38.921  11.736  15.397  1.00  0.00     0.000 C 
BRANCH   5   6
ATOM      6  C   UNL     1      38.208  11.515  14.049  1.00  0.00     0.000 C 
BRANCH   6   7
ATOM      7  C   UNL     1      37.876  10.042  13.722  1.00  0.00     0.000 C 
BRANCH   7   8
ATOM      8  C   UNL     1      39.003   9.026  13.988  1.00  0.00     0.000 C 
BRANCH   8   9
ATOM      9  C   UNL     1      39.063   7.893  12.952  1.00  0.00     0.000 C 
BRANCH   9  10
ATOM     10  C   UNL     1      39.960   8.281  11.766  1.00  0.00     0.006 C 
BRANCH  10  11
ATOM     11  C   UNL     1      40.809   9.524  12.061  1.00  0.00     0.053 C 
BRANCH  11  12
ATOM     12  C   UNL     1      40.636  10.579  11.011  1.00  0.00     0.041 C 
ATOM     13  O   UNL     1      39.891  11.570  11.227  1.00  0.00    -0.550 OA
ATOM     14  O   UNL     1      41.282  10.459   9.786  1.00  0.00    -0.550 OA
ENDBRANCH  11  12
ENDBRANCH  10  11
ENDBRANCH   9  10
ENDBRANCH   8   9
ENDBRANCH   7   8
ENDBRANCH   6   7
ENDBRANCH   5   6
ENDBRANCH   4   5
ENDBRANCH   3   4
ENDBRANCH   2   3
ENDBRANCH   1   2
BRANCH   1  15
ATOM     15  C   UNL     1      39.747  15.487  15.560  1.00  0.00     0.000 C 
BRANCH  15  16
ATOM     16  C   UNL     1      40.207  15.672  17.022  1.00  0.00     0.000 C 
BRANCH  16  17
ATOM     17  C   UNL     1      39.089  15.461  18.057  1.00  0.00     0.000 C 
BRANCH  17  18
ATOM     18  C   UNL     1      38.629  13.997  18.153  1.00  0.00    -0.000 C 
BRANCH  18  19
ATOM     19  C   UNL     1      39.645  13.108  18.888  1.00  0.00    -0.000 C 
BRANCH  19  20
ATOM     20  C   UNL     1      41.098  13.529  18.619  1.00  0.00    -0.000 C 
BRANCH  20  21
ATOM     21  C   UNL     1      42.089  12.358  18.745  1.00  0.00    -0.000 C 
BRANCH  21  22
ATOM     22  C   UNL     1      41.446  10.995  19.079  1.00  0.00    -0.000 C 
BRANCH  22  23
ATOM     23  C   UNL     1      41.898   9.826  18.186  1.00  0.00    -0.000 C 
BRANCH  23  24
ATOM     24  C   UNL     1      40.880   8.672  18.152  1.00  0.00    -0.000 C 
BRANCH  24  25
ATOM     25  C   UNL     1      39.533   9.056  18.786  1.00  0.00    -0.003 C 
ATOM     26  C   UNL     1      38.382   9.038  17.780  1.00  0.00     0.004 C 
ENDBRANCH  24  25
ENDBRANCH  23  24
ENDBRANCH  22  23
ENDBRANCH  21  22
ENDBRANCH  20  21
ENDBRANCH  19  20
ENDBRANCH  18  19
ENDBRANCH  17  18
ENDBRANCH  16  17
ENDBRANCH  15  16
ENDBRANCH   1  15
TORSDOF 22
ENDMDL
MODEL 4
REMARK VINA RESULT:    -2.319      1.683      6.074
REMARK INTER + INTRA:          -8.713
REMARK INTER:                  -6.046
REMARK INTRA:                  -2.667
REMARK UNBOUND:                -3.410
REMARK SMILES CCCCCCCCCCCCCCCCCCCCCCCC(=O)[O-]
REMARK SMILES IDX 13 1 14 2 15 3 16 4 17 5 18 6 19 7 20 8 21 9 22 10 23 11
REMARK SMILES IDX 24 12 25 13 26 14 12 15 11 16 10 17 9 18 8 19 7 20 6 21 5 22
REMARK SMILES IDX 4 23 3 24 2 25 1 26
REMARK H PARENT
REMARK Flexibility Score: inf
ROOT
ATOM      1  C   UNL     1      39.611  13.774  14.811  1.00  0.00     0.000 C 
ENDROOT
BRANCH   1   2
ATOM      2  C   UNL     1      39.789  15.298  14.740  1.00  0.00     0.000 C 
BRANCH   2   3
ATOM      3  C   UNL     1      40.520  15.885  15.964  1.00  0.00     0.000 C 
BRANCH   3   4
ATOM      4  C   UNL     1      39.662  16.765  16.893  1.00  0.00     0.000 C 
BRANCH   4   5
ATOM      5  C   UNL     1      39.595  16.241  18.338  1.00  0.00     0.000 C 
BRANCH   5   6
ATOM      6  C   UNL     1      39.818  14.720  18.446  1.00  0.00     0.000 C 
BRANCH   6   7
ATOM      7  C   UNL     1      41.271  14.297  18.760  1.00  0.00     0.000 C 
BRANCH   7   8
ATOM      8  C   UNL     1      41.909  13.307  17.767  1.00  0.00     0.000 C 
BRANCH   8   9
ATOM      9  C   UNL     1      43.087  12.518  18.361  1.00  0.00     0.000 C 
BRANCH   9  10
ATOM     10  C   UNL     1      42.589  11.278  19.118  1.00  0.00     0.006 C 
BRANCH  10  11
ATOM     11  C   UNL     1      41.133  10.934  18.779  1.00  0.00     0.053 C 
BRANCH  11  12
ATOM     12  C   UNL     1      40.928   9.456  18.634  1.00  0.00     0.041 C 
ATOM     13  O   UNL     1      41.851   8.730  18.184  1.00  0.00    -0.550 OA
ATOM     14  O   UNL     1      39.708   8.884  18.978  1.00  0.00    -0.550 OA
ENDBRANCH  11  12
ENDBRANCH  10  11
ENDBRANCH   9  10
ENDBRANCH   8   9
ENDBRANCH   7   8
ENDBRANCH   6   7
ENDBRANCH   5   6
ENDBRANCH   4   5
ENDBRANCH   3   4
ENDBRANCH   2   3
ENDBRANCH   1   2
BRANCH   1  15
ATOM     15  C   UNL     1      38.249  13.404  15.420  1.00  0.00     0.000 C 
BRANCH  15  16
ATOM     16  C   UNL     1      37.922  11.904  15.265  1.00  0.00     0.000 C 
BRANCH  16  17
ATOM     17  C   UNL     1      38.876  10.975  16.036  1.00  0.00     0.000 C 
BRANCH  17  18
ATOM     18  C   UNL     1      38.751   9.502  15.613  1.00  0.00    -0.000 C 
BRANCH  18  19
ATOM     19  C   UNL     1      37.900   9.324  14.345  1.00  0.00    -0.000 C 
BRANCH  19  20
ATOM     20  C   UNL     1      38.514   8.315  13.362  1.00  0.00    -0.000 C 
BRANCH  20  21
ATOM     21  C   UNL     1      38.689   8.896  11.947  1.00  0.00    -0.000 C 
BRANCH  21  22
ATOM     22  C   UNL     1      40.074   8.652  11.310  1.00  0.00    -0.000 C 
BRANCH  22  23
ATOM     23  C   UNL     1      41.129   9.731  11.613  1.00  0.00    -0.000 C 
BRANCH  23  24
ATOM     24  C   UNL     1      40.631  10.787  12.616  1.00  0.00    -0.000 C 
BRANCH  24  25
ATOM     25  C   UNL     1      41.744  11.749  13.061  1.00  0.00    -0.003 C 
ATOM     26  C   UNL     1      42.025  11.669  14.562  1.00  0.00     0.004 C 
ENDBRANCH  24  25
ENDBRANCH  23  24
ENDBRANCH  22  23
ENDBRANCH  21  22
ENDBRANCH  20  21
ENDBRANCH  19  20
ENDBRANCH  18  19
ENDBRANCH  17  18
ENDBRANCH  16  17
ENDBRANCH  15  16
ENDBRANCH   1  15
TORSDOF 22
ENDMDL
MODEL 5
REMARK VINA RESULT:    -2.299      1.715      3.897
REMARK INTER + INTRA:          -8.667
REMARK INTER:                  -6.141
REMARK INTRA:                  -2.525
REMARK UNBOUND:                -3.410
REMARK SMILES CCCCCCCCCCCCCCCCCCCCCCCC(=O)[O-]
REMARK SMILES IDX 13 1 14 2 15 3 16 4 17 5 18 6 19 7 20 8 21 9 22 10 23 11
REMARK SMILES IDX 24 12 25 13 26 14 12 15 11 16 10 17 9 18 8 19 7 20 6 21 5 22
REMARK SMILES IDX 4 23 3 24 2 25 1 26
REMARK H PARENT
REMARK Flexibility Score: inf
ROOT
ATOM      1  C   UNL     1      40.330  13.831  14.643  1.00  0.00     0.000 C 
ENDROOT
BRANCH   1   2
ATOM      2  C   UNL     1      41.084  12.493  14.690  1.00  0.00     0.000 C 
BRANCH   2   3
ATOM      3  C   UNL     1      40.458  11.408  13.791  1.00  0.00     0.000 C 
BRANCH   3   4
ATOM      4  C   UNL     1      41.005  11.339  12.352  1.00  0.00     0.000 C 
BRANCH   4   5
ATOM      5  C   UNL     1      40.404  10.190  11.525  1.00  0.00     0.000 C 
BRANCH   5   6
ATOM      6  C   UNL     1      40.459   8.828  12.244  1.00  0.00     0.000 C 
BRANCH   6   7
ATOM      7  C   UNL     1      39.230   7.920  12.014  1.00  0.00     0.000 C 
BRANCH   7   8
ATOM      8  C   UNL     1      37.932   8.357  12.718  1.00  0.00     0.000 C 
BRANCH   8   9
ATOM      9  C   UNL     1      37.955   8.134  14.239  1.00  0.00     0.000 C 
BRANCH   9  10
ATOM     10  C   UNL     1      38.399   9.408  14.973  1.00  0.00     0.006 C 
BRANCH  10  11
ATOM     11  C   UNL     1      37.876   9.462  16.414  1.00  0.00     0.053 C 
BRANCH  11  12
ATOM     12  C   UNL     1      38.986   9.634  17.405  1.00  0.00     0.041 C 
ATOM     13  O   UNL     1      40.154   9.885  17.010  1.00  0.00    -0.550 OA
ATOM     14  O   UNL     1      38.735   9.497  18.765  1.00  0.00    -0.550 OA
ENDBRANCH  11  12
ENDBRANCH  10  11
ENDBRANCH   9  10
ENDBRANCH   8   9
ENDBRANCH   7   8
ENDBRANCH   6   7
ENDBRANCH   5   6
ENDBRANCH   4   5
ENDBRANCH   3   4
ENDBRANCH   2   3
ENDBRANCH   1   2
BRANCH   1  15
ATOM     15  C   UNL     1      38.810  13.608  14.593  1.00  0.00     0.000 C 
BRANCH  15  16
ATOM     16  C   UNL     1      38.015  14.895  14.902  1.00  0.00     0.000 C 
BRANCH  16  17
ATOM     17  C   UNL     1      38.200  15.411  16.340  1.00  0.00     0.000 C 
BRANCH  17  18
ATOM     18  C   UNL     1      38.148  16.944  16.437  1.00  0.00    -0.000 C 
BRANCH  18  19
ATOM     19  C   UNL     1      38.168  17.442  17.892  1.00  0.00    -0.000 C 
BRANCH  19  20
ATOM     20  C   UNL     1      39.371  18.353  18.185  1.00  0.00    -0.000 C 
BRANCH  20  21
ATOM     21  C   UNL     1      40.714  17.701  17.811  1.00  0.00    -0.000 C 
BRANCH  21  22
ATOM     22  C   UNL     1      41.570  17.240  19.010  1.00  0.00    -0.000 C 
BRANCH  22  23
ATOM     23  C   UNL     1      41.763  15.717  19.125  1.00  0.00    -0.000 C 
BRANCH  23  24
ATOM     24  C   UNL     1      41.109  14.944  17.965  1.00  0.00    -0.000 C 
BRANCH  24  25
ATOM     25  C   UNL     1      40.637  13.542  18.382  1.00  0.00    -0.003 C 
ATOM     26  C   UNL     1      39.278  13.563  19.082  1.00  0.00     0.004 C 
ENDBRANCH  24  25
ENDBRANCH  23  24
ENDBRANCH  22  23
ENDBRANCH  21  22
ENDBRANCH  20  21
ENDBRANCH  19  20
ENDBRANCH  18  19
ENDBRANCH  17  18
ENDBRANCH  16  17
ENDBRANCH  15  16
ENDBRANCH   1  15
TORSDOF 22
ENDMDL
MODEL 6
REMARK VINA RESULT:    -2.236      1.934      5.670
REMARK INTER + INTRA:          -8.522
REMARK INTER:                  -5.460
REMARK INTRA:                  -3.062
REMARK UNBOUND:                -3.410
REMARK SMILES CCCCCCCCCCCCCCCCCCCCCCCC(=O)[O-]
REMARK SMILES IDX 13 1 14 2 15 3 16 4 17 5 18 6 19 7 20 8 21 9 22 10 23 11
REMARK SMILES IDX 24 12 25 13 26 14 12 15 11 16 10 17 9 18 8 19 7 20 6 21 5 22
REMARK SMILES IDX 4 23 3 24 2 25 1 26
REMARK H PARENT
REMARK Flexibility Score: inf
ROOT
ATOM      1  C   UNL     1      40.948  13.614  13.452  1.00  0.00     0.000 C 
ENDROOT
BRANCH   1   2
ATOM      2  C   UNL     1      40.552  14.724  14.437  1.00  0.00     0.000 C 
BRANCH   2   3
ATOM      3  C   UNL     1      39.058  14.696  14.817  1.00  0.00     0.000 C 
BRANCH   3   4
ATOM      4  C   UNL     1      38.591  13.448  15.591  1.00  0.00     0.000 C 
BRANCH   4   5
ATOM      5  C   UNL     1      37.899  13.781  16.925  1.00  0.00     0.000 C 
BRANCH   5   6
ATOM      6  C   UNL     1      38.872  13.826  18.120  1.00  0.00     0.000 C 
BRANCH   6   7
ATOM      7  C   UNL     1      38.615  14.971  19.125  1.00  0.00     0.000 C 
BRANCH   7   8
ATOM      8  C   UNL     1      37.904  16.215  18.557  1.00  0.00     0.000 C 
BRANCH   8   9
ATOM      9  C   UNL     1      38.561  17.540  18.975  1.00  0.00     0.000 C 
BRANCH   9  10
ATOM     10  C   UNL     1      38.956  18.368  17.743  1.00  0.00     0.006 C 
BRANCH  10  11
ATOM     11  C   UNL     1      40.045  17.685  16.906  1.00  0.00     0.053 C 
BRANCH  11  12
ATOM     12  C   UNL     1      41.367  17.677  17.610  1.00  0.00     0.041 C 
ATOM     13  O   UNL     1      42.354  18.276  17.111  1.00  0.00    -0.550 OA
ATOM     14  O   UNL     1      41.515  16.990  18.810  1.00  0.00    -0.550 OA
ENDBRANCH  11  12
ENDBRANCH  10  11
ENDBRANCH   9  10
ENDBRANCH   8   9
ENDBRANCH   7   8
ENDBRANCH   6   7
ENDBRANCH   5   6
ENDBRANCH   4   5
ENDBRANCH   3   4
ENDBRANCH   2   3
ENDBRANCH   1   2
BRANCH   1  15
ATOM     15  C   UNL     1      39.706  12.958  12.828  1.00  0.00     0.000 C 
BRANCH  15  16
ATOM     16  C   UNL     1      39.713  11.422  12.979  1.00  0.00     0.000 C 
BRANCH  16  17
ATOM     17  C   UNL     1      38.331  10.820  13.285  1.00  0.00     0.000 C 
BRANCH  17  18
ATOM     18  C   UNL     1      38.388   9.315  13.598  1.00  0.00    -0.000 C 
BRANCH  18  19
ATOM     19  C   UNL     1      38.953   9.026  14.998  1.00  0.00    -0.000 C 
BRANCH  19  20
ATOM     20  C   UNL     1      38.113   9.665  16.115  1.00  0.00    -0.000 C 
BRANCH  20  21
ATOM     21  C   UNL     1      38.976  10.258  17.242  1.00  0.00    -0.000 C 
BRANCH  21  22
ATOM     22  C   UNL     1      40.242   9.446  17.590  1.00  0.00    -0.000 C 
BRANCH  22  23
ATOM     23  C   UNL     1      41.570  10.203  17.414  1.00  0.00    -0.000 C 
BRANCH  23  24
ATOM     24  C   UNL     1      41.424  11.472  16.554  1.00  0.00    -0.000 C 
BRANCH  24  25
ATOM     25  C   UNL     1      42.231  12.656  17.110  1.00  0.00    -0.003 C 
ATOM     26  C   UNL     1      42.528  12.518  18.603  1.00  0.00     0.004 C 
ENDBRANCH  24  25
ENDBRANCH  23  24
ENDBRANCH  22  23
ENDBRANCH  21  22
ENDBRANCH  20  21
ENDBRANCH  19  20
ENDBRANCH  18  19
ENDBRANCH  17  18
ENDBRANCH  16  17
ENDBRANCH  15  16
ENDBRANCH   1  15
TORSDOF 22
ENDMDL
MODEL 7
REMARK VINA RESULT:    -2.111      1.873      5.533
REMARK INTER + INTRA:          -8.236
REMARK INTER:                  -4.921
REMARK INTRA:                  -3.315
REMARK UNBOUND:                -3.410
REMARK SMILES CCCCCCCCCCCCCCCCCCCCCCCC(=O)[O-]
REMARK SMILES IDX 13 1 14 2 15 3 16 4 17 5 18 6 19 7 20 8 21 9 22 10 23 11
REMARK SMILES IDX 24 12 25 13 26 14 12 15 11 16 10 17 9 18 8 19 7 20 6 21 5 22
REMARK SMILES IDX 4 23 3 24 2 25 1 26
REMARK H PARENT
REMARK Flexibility Score: inf
ROOT
ATOM      1  C   UNL     1      41.204  13.134  13.604  1.00  0.00     0.000 C 
ENDROOT
BRANCH   1   2
ATOM      2  C   UNL     1      41.694  13.238  15.056  1.00  0.00     0.000 C 
BRANCH   2   3
ATOM      3  C   UNL     1      41.988  11.869  15.700  1.00  0.00     0.000 C 
BRANCH   3   4
ATOM      4  C   UNL     1      41.964  11.838  17.240  1.00  0.00     0.000 C 
BRANCH   4   5
ATOM      5  C   UNL     1      41.891  10.416  17.822  1.00  0.00     0.000 C 
BRANCH   5   6
ATOM      6  C   UNL     1      40.459   9.979  18.184  1.00  0.00     0.000 C 
BRANCH   6   7
ATOM      7  C   UNL     1      39.702  10.944  19.124  1.00  0.00     0.000 C 
BRANCH   7   8
ATOM      8  C   UNL     1      38.720  11.914  18.440  1.00  0.00     0.000 C 
BRANCH   8   9
ATOM      9  C   UNL     1      38.854  13.366  18.927  1.00  0.00     0.000 C 
BRANCH   9  10
ATOM     10  C   UNL     1      39.673  14.204  17.933  1.00  0.00     0.006 C 
BRANCH  10  11
ATOM     11  C   UNL     1      40.728  15.070  18.633  1.00  0.00     0.053 C 
BRANCH  11  12
ATOM     12  C   UNL     1      40.865  16.414  17.984  1.00  0.00     0.041 C 
ATOM     13  O   UNL     1      41.551  17.315  18.533  1.00  0.00    -0.550 OA
ATOM     14  O   UNL     1      40.217  16.679  16.783  1.00  0.00    -0.550 OA
ENDBRANCH  11  12
ENDBRANCH  10  11
ENDBRANCH   9  10
ENDBRANCH   8   9
ENDBRANCH   7   8
ENDBRANCH   6   7
ENDBRANCH   5   6
ENDBRANCH   4   5
ENDBRANCH   3   4
ENDBRANCH   2   3
ENDBRANCH   1   2
BRANCH   1  15
ATOM     15  C   UNL     1      39.763  13.650  13.467  1.00  0.00     0.000 C 
BRANCH  15  16
ATOM     16  C   UNL     1      39.109  13.942  14.835  1.00  0.00     0.000 C 
BRANCH  16  17
ATOM     17  C   UNL     1      37.938  13.006  15.177  1.00  0.00     0.000 C 
BRANCH  17  18
ATOM     18  C   UNL     1      37.986  11.678  14.404  1.00  0.00    -0.000 C 
BRANCH  18  19
ATOM     19  C   UNL     1      38.190  10.466  15.327  1.00  0.00    -0.000 C 
BRANCH  19  20
ATOM     20  C   UNL     1      38.225   9.138  14.555  1.00  0.00    -0.000 C 
BRANCH  20  21
ATOM     21  C   UNL     1      39.560   8.911  13.823  1.00  0.00    -0.000 C 
BRANCH  21  22
ATOM     22  C   UNL     1      39.430   8.554  12.327  1.00  0.00    -0.000 C 
BRANCH  22  23
ATOM     23  C   UNL     1      38.473   9.454  11.524  1.00  0.00    -0.000 C 
BRANCH  23  24
ATOM     24  C   UNL     1      39.050  10.857  11.265  1.00  0.00    -0.000 C 
BRANCH  24  25
ATOM     25  C   UNL     1      40.557  10.828  10.967  1.00  0.00    -0.003 C 
ATOM     26  C   UNL     1      40.862  10.831   9.468  1.00  0.00     0.004 C 
ENDBRANCH  24  25
ENDBRANCH  23  24
ENDBRANCH  22  23
ENDBRANCH  21  22
ENDBRANCH  20  21
ENDBRANCH  19  20
ENDBRANCH  18  19
ENDBRANCH  17  18
ENDBRANCH  16  17
ENDBRANCH  15  16
ENDBRANCH   1  15
TORSDOF 22
ENDMDL
MODEL 8
REMARK VINA RESULT:    -1.879      2.674      6.296
REMARK INTER + INTRA:          -7.706
REMARK INTER:                  -5.468
REMARK INTRA:                  -2.238
REMARK UNBOUND:                -3.410
REMARK SMILES CCCCCCCCCCCCCCCCCCCCCCCC(=O)[O-]
REMARK SMILES IDX 13 1 14 2 15 3 16 4 17 5 18 6 19 7 20 8 21 9 22 10 23 11
REMARK SMILES IDX 24 12 25 13 26 14 12 15 11 16 10 17 9 18 8 19 7 20 6 21 5 22
REMARK SMILES IDX 4 23 3 24 2 25 1 26
REMARK H PARENT
REMARK Flexibility Score: inf
ROOT
ATOM      1  C   UNL     1      41.547  12.572  13.465  1.00  0.00     0.000 C 
ENDROOT
BRANCH   1   2
ATOM      2  C   UNL     1      40.465  12.344  14.531  1.00  0.00     0.000 C 
BRANCH   2   3
ATOM      3  C   UNL     1      39.462  13.509  14.641  1.00  0.00     0.000 C 
BRANCH   3   4
ATOM      4  C   UNL     1      38.042  13.124  15.098  1.00  0.00     0.000 C 
BRANCH   4   5
ATOM      5  C   UNL     1      37.989  12.580  16.536  1.00  0.00     0.000 C 
BRANCH   5   6
ATOM      6  C   UNL     1      38.206  13.668  17.606  1.00  0.00     0.000 C 
BRANCH   6   7
ATOM      7  C   UNL     1      39.680  14.073  17.833  1.00  0.00     0.000 C 
BRANCH   7   8
ATOM      8  C   UNL     1      39.952  14.944  19.074  1.00  0.00     0.000 C 
BRANCH   8   9
ATOM      9  C   UNL     1      40.818  16.179  18.778  1.00  0.00     0.000 C 
BRANCH   9  10
ATOM     10  C   UNL     1      40.005  17.471  18.946  1.00  0.00     0.006 C 
BRANCH  10  11
ATOM     11  C   UNL     1      39.408  17.960  17.620  1.00  0.00     0.053 C 
BRANCH  11  12
ATOM     12  C   UNL     1      38.451  19.094  17.824  1.00  0.00     0.041 C 
ATOM     13  O   UNL     1      37.876  19.623  16.838  1.00  0.00    -0.550 OA
ATOM     14  O   UNL     1      38.208  19.582  19.104  1.00  0.00    -0.550 OA
ENDBRANCH  11  12
ENDBRANCH  10  11
ENDBRANCH   9  10
ENDBRANCH   8   9
ENDBRANCH   7   8
ENDBRANCH   6   7
ENDBRANCH   5   6
ENDBRANCH   4   5
ENDBRANCH   3   4
ENDBRANCH   2   3
ENDBRANCH   1   2
BRANCH   1  15
ATOM     15  C   UNL     1      41.912  11.258  12.756  1.00  0.00     0.000 C 
BRANCH  15  16
ATOM     16  C   UNL     1      40.702  10.309  12.615  1.00  0.00     0.000 C 
BRANCH  16  17
ATOM     17  C   UNL     1      39.556  10.883  11.764  1.00  0.00     0.000 C 
BRANCH  17  18
ATOM     18  C   UNL     1      38.167  10.432  12.246  1.00  0.00    -0.000 C 
BRANCH  18  19
ATOM     19  C   UNL     1      38.032   8.901  12.298  1.00  0.00    -0.000 C 
BRANCH  19  20
ATOM     20  C   UNL     1      37.920   8.370  13.736  1.00  0.00    -0.000 C 
BRANCH  20  21
ATOM     21  C   UNL     1      37.899   9.496  14.785  1.00  0.00    -0.000 C 
BRANCH  21  22
ATOM     22  C   UNL     1      38.995   9.399  15.867  1.00  0.00    -0.000 C 
BRANCH  22  23
ATOM     23  C   UNL     1      38.545   8.760  17.194  1.00  0.00    -0.000 C 
BRANCH  23  24
ATOM     24  C   UNL     1      39.591   8.913  18.313  1.00  0.00    -0.000 C 
BRANCH  24  25
ATOM     25  C   UNL     1      40.142  10.344  18.414  1.00  0.00    -0.003 C 
ATOM     26  C   UNL     1      41.340  10.579  17.493  1.00  0.00     0.004 C 
ENDBRANCH  24  25
ENDBRANCH  23  24
ENDBRANCH  22  23
ENDBRANCH  21  22
ENDBRANCH  20  21
ENDBRANCH  19  20
ENDBRANCH  18  19
ENDBRANCH  17  18
ENDBRANCH  16  17
ENDBRANCH  15  16
ENDBRANCH   1  15
TORSDOF 22
ENDMDL
MODEL 9
REMARK VINA RESULT:    -1.771      1.502      5.923
REMARK INTER + INTRA:          -7.458
REMARK INTER:                  -4.638
REMARK INTRA:                  -2.821
REMARK UNBOUND:                -3.410
REMARK SMILES CCCCCCCCCCCCCCCCCCCCCCCC(=O)[O-]
REMARK SMILES IDX 13 1 14 2 15 3 16 4 17 5 18 6 19 7 20 8 21 9 22 10 23 11
REMARK SMILES IDX 24 12 25 13 26 14 12 15 11 16 10 17 9 18 8 19 7 20 6 21 5 22
REMARK SMILES IDX 4 23 3 24 2 25 1 26
REMARK H PARENT
REMARK Flexibility Score: inf
ROOT
ATOM      1  C   UNL     1      41.601  13.025  13.612  1.00  0.00     0.000 C 
ENDROOT
BRANCH   1   2
ATOM      2  C   UNL     1      40.393  12.834  14.543  1.00  0.00     0.000 C 
BRANCH   2   3
ATOM      3  C   UNL     1      39.260  13.847  14.286  1.00  0.00     0.000 C 
BRANCH   3   4
ATOM      4  C   UNL     1      37.960  13.605  15.078  1.00  0.00     0.000 C 
BRANCH   4   5
ATOM      5  C   UNL     1      37.875  14.425  16.377  1.00  0.00     0.000 C 
BRANCH   5   6
ATOM      6  C   UNL     1      38.160  15.925  16.170  1.00  0.00     0.000 C 
BRANCH   6   7
ATOM      7  C   UNL     1      38.232  16.760  17.468  1.00  0.00     0.000 C 
BRANCH   7   8
ATOM      8  C   UNL     1      39.035  18.072  17.378  1.00  0.00     0.000 C 
BRANCH   8   9
ATOM      9  C   UNL     1      39.956  18.310  18.585  1.00  0.00     0.000 C 
BRANCH   9  10
ATOM     10  C   UNL     1      41.343  17.696  18.344  1.00  0.00     0.006 C 
BRANCH  10  11
ATOM     11  C   UNL     1      41.546  16.391  19.125  1.00  0.00     0.053 C 
BRANCH  11  12
ATOM     12  C   UNL     1      41.064  15.199  18.355  1.00  0.00     0.041 C 
ATOM     13  O   UNL     1      41.412  15.037  17.156  1.00  0.00    -0.550 OA
ATOM     14  O   UNL     1      40.214  14.277  18.954  1.00  0.00    -0.550 OA
ENDBRANCH  11  12
ENDBRANCH  10  11
ENDBRANCH   9  10
ENDBRANCH   8   9
ENDBRANCH   7   8
ENDBRANCH   6   7
ENDBRANCH   5   6
ENDBRANCH   4   5
ENDBRANCH   3   4
ENDBRANCH   2   3
ENDBRANCH   1   2
BRANCH   1  15
ATOM     15  C   UNL     1      42.213  11.672  13.217  1.00  0.00     0.000 C 
BRANCH  15  16
ATOM     16  C   UNL     1      41.145  10.575  13.022  1.00  0.00     0.000 C 
BRANCH  16  17
ATOM     17  C   UNL     1      40.529  10.549  11.613  1.00  0.00     0.000 C 
BRANCH  17  18
ATOM     18  C   UNL     1      39.143  11.212  11.552  1.00  0.00    -0.000 C 
BRANCH  18  19
ATOM     19  C   UNL     1      38.038  10.321  12.142  1.00  0.00    -0.000 C 
BRANCH  19  20
ATOM     20  C   UNL     1      37.880  10.507  13.659  1.00  0.00    -0.000 C 
BRANCH  20  21
ATOM     21  C   UNL     1      38.520   9.364  14.467  1.00  0.00    -0.000 C 
BRANCH  21  22
ATOM     22  C   UNL     1      38.126   9.321  15.959  1.00  0.00    -0.000 C 
BRANCH  22  23
ATOM     23  C   UNL     1      38.958  10.233  16.878  1.00  0.00    -0.000 C 
BRANCH  23  24
ATOM     24  C   UNL     1      40.414   9.759  17.031  1.00  0.00    -0.000 C 
BRANCH  24  25
ATOM     25  C   UNL     1      41.208  10.606  18.037  1.00  0.00    -0.003 C 
ATOM     26  C   UNL     1      42.131  11.618  17.355  1.00  0.00     0.004 C 
ENDBRANCH  24  25
ENDBRANCH  23  24
ENDBRANCH  22  23
ENDBRANCH  21  22
ENDBRANCH  20  21
ENDBRANCH  19  20
ENDBRANCH  18  19
ENDBRANCH  17  18
ENDBRANCH  16  17
ENDBRANCH  15  16
ENDBRANCH   1  15
TORSDOF 22
ENDMDL
