MODEL 1
REMARK VINA RESULT:    50.217      0.000      0.000
REMARK INTER + INTRA:          56.609
REMARK INTER:                  54.620
REMARK INTRA:                   1.988
REMARK UNBOUND:                 1.988
REMARK SMILES C[C@@H]1[C@@H](C)CC[C@]2(C(=O)[O-])CC[C@]3(C)C(=CC[C@H]4[C@]5(C)CC[C@H](O)C(C)(C)[C@@H]5CC[C@]43C)[C@@H]12
REMARK SMILES IDX 7 1 6 2 11 3 33 4 5 5 12 6 15 7 2 8 3 9 13 10 16 11 1 12
REMARK SMILES IDX 4 13 14 14 31 15 17 16 18 17 30 18 32 19 19 20 29 21 28 22
REMARK SMILES IDX 21 23 20 24 25 25 22 26 23 27 26 28 27 29 8 30 9 31 10 32
REMARK SMILES IDX 24 33
REMARK H PARENT 24 34
REMARK Flexibility Score: inf
ROOT
ATOM      1  C   UNL     1      13.689 -30.033  13.983  1.00  0.00     0.017 C 
ATOM      2  C   UNL     1      14.721 -28.902  14.211  1.00  0.00     0.014 C 
ATOM      3  C   UNL     1      12.588 -29.511  13.008  1.00  0.00     0.014 C 
ATOM      4  C   UNL     1      13.001 -30.367  15.352  1.00  0.00     0.030 C 
ATOM      5  C   UNL     1      15.746 -29.277  15.287  1.00  0.00     0.004 C 
ATOM      6  C   UNL     1      11.363 -30.456  12.878  1.00  0.00     0.013 C 
ATOM      7  C   UNL     1      11.874 -31.382  15.091  1.00  0.00    -0.063 C 
ATOM      8  C   UNL     1      13.996 -30.678  16.522  1.00  0.00    -0.003 C 
ATOM      9  C   UNL     1      15.060 -29.544  16.642  1.00  0.00    -0.011 C 
ATOM     10  C   UNL     1      10.705 -30.891  14.242  1.00  0.00    -0.006 C 
ATOM     11  C   UNL     1      12.139 -32.688  15.180  1.00  0.00    -0.027 C 
ATOM     12  C   UNL     1      13.220 -30.842  17.844  1.00  0.00     0.008 C 
ATOM     13  C   UNL     1      16.137 -29.869  17.695  1.00  0.00     0.008 C 
ATOM     14  C   UNL     1      10.086 -29.627  14.948  1.00  0.00     0.017 C 
ATOM     15  C   UNL     1       9.561 -32.024  14.030  1.00  0.00    -0.020 C 
ATOM     16  C   UNL     1      11.552 -33.720  14.277  1.00  0.00     0.032 C 
ATOM     17  C   UNL     1      10.165 -33.428  13.602  1.00  0.00     0.006 C 
ATOM     18  C   UNL     1       8.675 -32.255  15.317  1.00  0.00     0.008 C 
ATOM     19  C   UNL     1       8.633 -31.493  12.875  1.00  0.00     0.012 C 
ATOM     20  C   UNL     1       9.190 -34.699  13.777  1.00  0.00    -0.025 C 
ATOM     21  C   UNL     1       8.958 -33.546  16.109  1.00  0.00     0.005 C 
ATOM     22  C   UNL     1       8.830 -34.891  15.306  1.00  0.00     0.003 C 
ATOM     23  C   UNL     1       7.894 -34.619  12.877  1.00  0.00     0.010 C 
ATOM     24  C   UNL     1       9.991 -35.950  13.240  1.00  0.00     0.012 C 
ATOM     25  C   UNL     1       7.498 -35.700  15.574  1.00  0.00    -0.006 C 
ATOM     26  C   UNL     1       6.509 -34.393  13.549  1.00  0.00     0.033 C 
ATOM     27  C   UNL     1       6.276 -34.955  14.976  1.00  0.00     0.120 C 
ATOM     28  C   UNL     1       7.563 -37.125  14.950  1.00  0.00     0.014 C 
ATOM     29  C   UNL     1       7.290 -35.953  17.099  1.00  0.00     0.014 C 
ENDROOT
BRANCH   1  30
ATOM     30  C   UNL     1      14.410 -31.213  13.326  1.00  0.00     0.048 C 
ATOM     31  O   UNL     1      15.579 -31.059  12.875  1.00  0.00    -0.550 OA
ATOM     32  O   UNL     1      13.865 -32.491  13.312  1.00  0.00    -0.550 OA
ENDBRANCH   1  30
BRANCH  27  33
ATOM     33  O   UNL     1       5.876 -33.894  15.813  1.00  0.00    -0.393 OA
ATOM     34  H   UNL     1       5.493 -34.286  16.640  1.00  0.00     0.210 HD
ENDBRANCH  27  33
TORSDOF 2
ENDMDL
