MODEL 1
REMARK VINA RESULT:    -6.305      0.000      0.000
REMARK INTER + INTRA:          -7.916
REMARK INTER:                  -7.595
REMARK INTRA:                  -0.321
REMARK UNBOUND:                -0.321
REMARK SMILES O=c1c(O)c(-c2ccc(O)c(O)c2)oc2cc(O)cc(O)c12
REMARK SMILES IDX 5 1 3 2 2 3 1 4 22 5 20 6 19 7 17 8 16 9 15 10 14 11 6 12
REMARK SMILES IDX 7 13 8 14 9 15 13 16 11 17 10 18 12 20 4 22 21 24 18 26
REMARK H PARENT 10 19 12 21 4 23 21 25 18 27
REMARK Flexibility Score: inf
ROOT
ATOM      1  C   UNL     1      72.249  46.337   5.252  1.00  0.00     0.180 A 
ATOM      2  C   UNL     1      71.757  47.009   6.385  1.00  0.00     0.208 A 
ATOM      3  C   UNL     1      71.075  48.225   6.212  1.00  0.00     0.238 A 
ATOM      4  O   UNL     1      70.589  48.794   7.224  1.00  0.00    -0.285 OA
ATOM      5  C   UNL     1      70.907  48.760   4.913  1.00  0.00     0.111 A 
ATOM      6  C   UNL     1      70.268  50.003   4.624  1.00  0.00     0.134 A 
ATOM      7  C   UNL     1      70.043  50.371   3.292  1.00  0.00     0.093 A 
ATOM      8  C   UNL     1      70.491  49.575   2.239  1.00  0.00     0.123 A 
ATOM      9  C   UNL     1      71.171  48.386   2.509  1.00  0.00     0.094 A 
ATOM     10  C   UNL     1      71.378  47.974   3.828  1.00  0.00     0.146 A 
ATOM     11  O   UNL     1      72.019  46.832   4.042  1.00  0.00    -0.452 OA
ENDROOT
BRANCH   1  12
ATOM     12  C   UNL     1      72.999  45.065   5.356  1.00  0.00     0.025 A 
ATOM     13  C   UNL     1      74.374  45.048   5.653  1.00  0.00     0.016 A 
ATOM     14  C   UNL     1      75.067  43.836   5.721  1.00  0.00     0.051 A 
ATOM     15  C   UNL     1      74.405  42.627   5.482  1.00  0.00     0.157 A 
ATOM     16  C   UNL     1      72.343  43.851   5.096  1.00  0.00     0.062 A 
ATOM     17  C   UNL     1      73.037  42.634   5.164  1.00  0.00     0.158 A 
BRANCH  15  18
ATOM     18  O   UNL     1      75.122  41.435   5.560  1.00  0.00    -0.504 OA
ATOM     19  H   UNL     1      74.672  40.548   5.754  1.00  0.00     0.293 HD
ENDBRANCH  15  18
BRANCH  17  20
ATOM     20  O   UNL     1      72.372  41.434   4.917  1.00  0.00    -0.504 OA
ATOM     21  H   UNL     1      72.530  40.905   4.067  1.00  0.00     0.293 HD
ENDBRANCH  17  20
ENDBRANCH   1  12
BRANCH   2  22
ATOM     22  O   UNL     1      71.914  46.452   7.657  1.00  0.00    -0.502 OA
ATOM     23  H   UNL     1      72.394  45.574   7.811  1.00  0.00     0.293 HD
ENDBRANCH   2  22
BRANCH   6  24
ATOM     24  O   UNL     1      69.863  50.917   5.602  1.00  0.00    -0.507 OA
ATOM     25  H   UNL     1      69.425  51.806   5.412  1.00  0.00     0.293 HD
ENDBRANCH   6  24
BRANCH   8  26
ATOM     26  O   UNL     1      70.263  49.980   0.925  1.00  0.00    -0.508 OA
ATOM     27  H   UNL     1      71.024  50.269   0.321  1.00  0.00     0.293 HD
ENDBRANCH   8  26
TORSDOF 6
ENDMDL
MODEL 2
REMARK VINA RESULT:    -6.234      3.992      7.559
REMARK INTER + INTRA:          -7.830
REMARK INTER:                  -7.733
REMARK INTRA:                  -0.096
REMARK UNBOUND:                -0.321
REMARK SMILES O=c1c(O)c(-c2ccc(O)c(O)c2)oc2cc(O)cc(O)c12
REMARK SMILES IDX 5 1 3 2 2 3 1 4 22 5 20 6 19 7 17 8 16 9 15 10 14 11 6 12
REMARK SMILES IDX 7 13 8 14 9 15 13 16 11 17 10 18 12 20 4 22 21 24 18 26
REMARK H PARENT 10 19 12 21 4 23 21 25 18 27
REMARK Flexibility Score: inf
ROOT
ATOM      1  C   UNL     1      69.435  48.323   8.049  1.00  0.00     0.180 A 
ATOM      2  C   UNL     1      69.751  48.547   6.697  1.00  0.00     0.208 A 
ATOM      3  C   UNL     1      71.083  48.399   6.276  1.00  0.00     0.238 A 
ATOM      4  O   UNL     1      71.350  48.546   5.055  1.00  0.00    -0.285 OA
ATOM      5  C   UNL     1      72.083  48.044   7.213  1.00  0.00     0.111 A 
ATOM      6  C   UNL     1      73.470  47.906   6.905  1.00  0.00     0.134 A 
ATOM      7  C   UNL     1      74.349  47.425   7.882  1.00  0.00     0.093 A 
ATOM      8  C   UNL     1      73.906  47.140   9.173  1.00  0.00     0.123 A 
ATOM      9  C   UNL     1      72.563  47.329   9.502  1.00  0.00     0.094 A 
ATOM     10  C   UNL     1      71.654  47.773   8.539  1.00  0.00     0.146 A 
ATOM     11  O   UNL     1      70.384  47.928   8.890  1.00  0.00    -0.452 OA
ENDROOT
BRANCH   1  12
ATOM     12  C   UNL     1      68.059  48.484   8.572  1.00  0.00     0.025 A 
ATOM     13  C   UNL     1      67.772  49.390   9.608  1.00  0.00     0.016 A 
ATOM     14  C   UNL     1      66.470  49.507  10.103  1.00  0.00     0.051 A 
ATOM     15  C   UNL     1      65.441  48.713   9.585  1.00  0.00     0.157 A 
ATOM     16  C   UNL     1      67.029  47.674   8.068  1.00  0.00     0.062 A 
ATOM     17  C   UNL     1      65.722  47.789   8.565  1.00  0.00     0.158 A 
BRANCH  15  18
ATOM     18  O   UNL     1      64.153  48.854  10.098  1.00  0.00    -0.504 OA
ATOM     19  H   UNL     1      63.963  48.821  11.092  1.00  0.00     0.293 HD
ENDBRANCH  15  18
BRANCH  17  20
ATOM     20  O   UNL     1      64.703  46.990   8.048  1.00  0.00    -0.504 OA
ATOM     21  H   UNL     1      63.852  47.393   7.672  1.00  0.00     0.293 HD
ENDBRANCH  17  20
ENDBRANCH   1  12
BRANCH   2  22
ATOM     22  O   UNL     1      68.745  48.874   5.784  1.00  0.00    -0.502 OA
ATOM     23  H   UNL     1      68.668  48.430   4.877  1.00  0.00     0.293 HD
ENDBRANCH   2  22
BRANCH   6  24
ATOM     24  O   UNL     1      74.034  48.251   5.673  1.00  0.00    -0.507 OA
ATOM     25  H   UNL     1      74.751  47.723   5.200  1.00  0.00     0.293 HD
ENDBRANCH   6  24
BRANCH   8  26
ATOM     26  O   UNL     1      74.813  46.677  10.125  1.00  0.00    -0.508 OA
ATOM     27  H   UNL     1      75.808  46.643   9.937  1.00  0.00     0.293 HD
ENDBRANCH   8  26
TORSDOF 6
ENDMDL
MODEL 3
REMARK VINA RESULT:    -5.740      5.301      7.309
REMARK INTER + INTRA:          -7.235
REMARK INTER:                  -7.164
REMARK INTRA:                  -0.071
REMARK UNBOUND:                -0.321
REMARK SMILES O=c1c(O)c(-c2ccc(O)c(O)c2)oc2cc(O)cc(O)c12
REMARK SMILES IDX 5 1 3 2 2 3 1 4 22 5 20 6 19 7 17 8 16 9 15 10 14 11 6 12
REMARK SMILES IDX 7 13 8 14 9 15 13 16 11 17 10 18 12 20 4 22 21 24 18 26
REMARK H PARENT 10 19 12 21 4 23 21 25 18 27
REMARK Flexibility Score: inf
ROOT
ATOM      1  C   UNL     1      68.282  47.725   8.949  1.00  0.00     0.180 A 
ATOM      2  C   UNL     1      67.337  48.622   9.479  1.00  0.00     0.208 A 
ATOM      3  C   UNL     1      65.979  48.265   9.467  1.00  0.00     0.238 A 
ATOM      4  O   UNL     1      65.145  49.048   9.992  1.00  0.00    -0.285 OA
ATOM      5  C   UNL     1      65.580  47.025   8.913  1.00  0.00     0.111 A 
ATOM      6  C   UNL     1      64.228  46.579   8.813  1.00  0.00     0.134 A 
ATOM      7  C   UNL     1      63.961  45.280   8.366  1.00  0.00     0.093 A 
ATOM      8  C   UNL     1      64.990  44.433   7.955  1.00  0.00     0.123 A 
ATOM      9  C   UNL     1      66.312  44.880   7.992  1.00  0.00     0.094 A 
ATOM     10  C   UNL     1      66.613  46.159   8.467  1.00  0.00     0.146 A 
ATOM     11  O   UNL     1      67.883  46.541   8.496  1.00  0.00    -0.452 OA
ENDROOT
BRANCH   1  12
ATOM     12  C   UNL     1      69.728  48.040   8.903  1.00  0.00     0.025 A 
ATOM     13  C   UNL     1      70.443  48.363  10.070  1.00  0.00     0.016 A 
ATOM     14  C   UNL     1      71.802  48.682  10.000  1.00  0.00     0.051 A 
ATOM     15  C   UNL     1      72.463  48.697   8.767  1.00  0.00     0.157 A 
ATOM     16  C   UNL     1      70.389  48.077   7.665  1.00  0.00     0.062 A 
ATOM     17  C   UNL     1      71.753  48.397   7.593  1.00  0.00     0.158 A 
BRANCH  15  18
ATOM     18  O   UNL     1      73.819  49.016   8.729  1.00  0.00    -0.504 OA
ATOM     19  H   UNL     1      74.180  49.881   9.116  1.00  0.00     0.293 HD
ENDBRANCH  15  18
BRANCH  17  20
ATOM     20  O   UNL     1      72.403  48.418   6.360  1.00  0.00    -0.504 OA
ATOM     21  H   UNL     1      73.239  47.870   6.192  1.00  0.00     0.293 HD
ENDBRANCH  17  20
ENDBRANCH   1  12
BRANCH   2  22
ATOM     22  O   UNL     1      67.755  49.832  10.041  1.00  0.00    -0.502 OA
ATOM     23  H   UNL     1      67.101  50.525  10.383  1.00  0.00     0.293 HD
ENDBRANCH   2  22
BRANCH   6  24
ATOM     24  O   UNL     1      63.119  47.377   9.111  1.00  0.00    -0.507 OA
ATOM     25  H   UNL     1      62.469  47.201   9.861  1.00  0.00     0.293 HD
ENDBRANCH   6  24
BRANCH   8  26
ATOM     26  O   UNL     1      64.687  43.151   7.500  1.00  0.00    -0.508 OA
ATOM     27  H   UNL     1      63.977  42.993   6.794  1.00  0.00     0.293 HD
ENDBRANCH   8  26
TORSDOF 6
ENDMDL
MODEL 4
REMARK VINA RESULT:    -5.731      3.931      5.816
REMARK INTER + INTRA:          -7.224
REMARK INTER:                  -7.186
REMARK INTRA:                  -0.038
REMARK UNBOUND:                -0.321
REMARK SMILES O=c1c(O)c(-c2ccc(O)c(O)c2)oc2cc(O)cc(O)c12
REMARK SMILES IDX 5 1 3 2 2 3 1 4 22 5 20 6 19 7 17 8 16 9 15 10 14 11 6 12
REMARK SMILES IDX 7 13 8 14 9 15 13 16 11 17 10 18 12 20 4 22 21 24 18 26
REMARK H PARENT 10 19 12 21 4 23 21 25 18 27
REMARK Flexibility Score: inf
ROOT
ATOM      1  C   UNL     1      69.817  48.075   7.456  1.00  0.00     0.180 A 
ATOM      2  C   UNL     1      69.491  49.031   8.434  1.00  0.00     0.208 A 
ATOM      3  C   UNL     1      68.213  49.001   9.016  1.00  0.00     0.238 A 
ATOM      4  O   UNL     1      67.945  49.825   9.930  1.00  0.00    -0.285 OA
ATOM      5  C   UNL     1      67.273  48.027   8.603  1.00  0.00     0.111 A 
ATOM      6  C   UNL     1      65.937  47.928   9.096  1.00  0.00     0.134 A 
ATOM      7  C   UNL     1      65.138  46.845   8.711  1.00  0.00     0.093 A 
ATOM      8  C   UNL     1      65.601  45.893   7.804  1.00  0.00     0.123 A 
ATOM      9  C   UNL     1      66.885  46.013   7.269  1.00  0.00     0.094 A 
ATOM     10  C   UNL     1      67.719  47.063   7.660  1.00  0.00     0.146 A 
ATOM     11  O   UNL     1      68.937  47.134   7.137  1.00  0.00    -0.452 OA
ENDROOT
BRANCH   1  12
ATOM     12  C   UNL     1      71.134  48.059   6.780  1.00  0.00     0.025 A 
ATOM     13  C   UNL     1      72.333  48.017   7.514  1.00  0.00     0.016 A 
ATOM     14  C   UNL     1      73.565  48.028   6.856  1.00  0.00     0.051 A 
ATOM     15  C   UNL     1      73.622  48.094   5.460  1.00  0.00     0.157 A 
ATOM     16  C   UNL     1      71.195  48.147   5.380  1.00  0.00     0.062 A 
ATOM     17  C   UNL     1      72.431  48.158   4.717  1.00  0.00     0.158 A 
BRANCH  15  18
ATOM     18  O   UNL     1      74.865  48.101   4.831  1.00  0.00    -0.504 OA
ATOM     19  H   UNL     1      75.289  47.255   4.467  1.00  0.00     0.293 HD
ENDBRANCH  15  18
BRANCH  17  20
ATOM     20  O   UNL     1      72.479  48.231   3.326  1.00  0.00    -0.504 OA
ATOM     21  H   UNL     1      73.360  48.221   2.824  1.00  0.00     0.293 HD
ENDBRANCH  17  20
ENDBRANCH   1  12
BRANCH   2  22
ATOM     22  O   UNL     1      70.441  49.971   8.844  1.00  0.00    -0.502 OA
ATOM     23  H   UNL     1      70.184  50.885   9.197  1.00  0.00     0.293 HD
ENDBRANCH   2  22
BRANCH   6  24
ATOM     24  O   UNL     1      65.344  48.875   9.935  1.00  0.00    -0.507 OA
ATOM     25  H   UNL     1      64.501  49.386   9.721  1.00  0.00     0.293 HD
ENDBRANCH   6  24
BRANCH   8  26
ATOM     26  O   UNL     1      64.773  44.837   7.431  1.00  0.00    -0.508 OA
ATOM     27  H   UNL     1      64.677  44.554   6.463  1.00  0.00     0.293 HD
ENDBRANCH   8  26
TORSDOF 6
ENDMDL
MODEL 5
REMARK VINA RESULT:    -5.579      3.839      7.057
REMARK INTER + INTRA:          -7.042
REMARK INTER:                  -7.150
REMARK INTRA:                   0.109
REMARK UNBOUND:                -0.321
REMARK SMILES O=c1c(O)c(-c2ccc(O)c(O)c2)oc2cc(O)cc(O)c12
REMARK SMILES IDX 5 1 3 2 2 3 1 4 22 5 20 6 19 7 17 8 16 9 15 10 14 11 6 12
REMARK SMILES IDX 7 13 8 14 9 15 13 16 11 17 10 18 12 20 4 22 21 24 18 26
REMARK H PARENT 10 19 12 21 4 23 21 25 18 27
REMARK Flexibility Score: inf
ROOT
ATOM      1  C   UNL     1      69.595  47.970   8.373  1.00  0.00     0.180 A 
ATOM      2  C   UNL     1      70.486  48.888   8.957  1.00  0.00     0.208 A 
ATOM      3  C   UNL     1      71.860  48.762   8.695  1.00  0.00     0.238 A 
ATOM      4  O   UNL     1      72.648  49.619   9.177  1.00  0.00    -0.285 OA
ATOM      5  C   UNL     1      72.328  47.714   7.867  1.00  0.00     0.111 A 
ATOM      6  C   UNL     1      73.702  47.469   7.568  1.00  0.00     0.134 A 
ATOM      7  C   UNL     1      74.039  46.483   6.632  1.00  0.00     0.093 A 
ATOM      8  C   UNL     1      73.059  45.691   6.035  1.00  0.00     0.123 A 
ATOM      9  C   UNL     1      71.717  45.882   6.366  1.00  0.00     0.094 A 
ATOM     10  C   UNL     1      71.346  46.882   7.269  1.00  0.00     0.146 A 
ATOM     11  O   UNL     1      70.058  47.038   7.548  1.00  0.00    -0.452 OA
ENDROOT
BRANCH   1  12
ATOM     12  C   UNL     1      68.137  48.022   8.621  1.00  0.00     0.025 A 
ATOM     13  C   UNL     1      67.621  48.304   9.899  1.00  0.00     0.016 A 
ATOM     14  C   UNL     1      66.241  48.323  10.115  1.00  0.00     0.051 A 
ATOM     15  C   UNL     1      65.356  48.049   9.067  1.00  0.00     0.157 A 
ATOM     16  C   UNL     1      67.246  47.728   7.576  1.00  0.00     0.062 A 
ATOM     17  C   UNL     1      65.860  47.746   7.791  1.00  0.00     0.158 A 
BRANCH  15  18
ATOM     18  O   UNL     1      63.985  48.079   9.312  1.00  0.00    -0.504 OA
ATOM     19  H   UNL     1      63.528  48.886   9.721  1.00  0.00     0.293 HD
ENDBRANCH  15  18
BRANCH  17  20
ATOM     20  O   UNL     1      64.984  47.466   6.743  1.00  0.00    -0.504 OA
ATOM     21  H   UNL     1      65.309  47.391   5.786  1.00  0.00     0.293 HD
ENDBRANCH  17  20
ENDBRANCH   1  12
BRANCH   2  22
ATOM     22  O   UNL     1      70.002  49.929   9.754  1.00  0.00    -0.502 OA
ATOM     23  H   UNL     1      70.571  50.386  10.455  1.00  0.00     0.293 HD
ENDBRANCH   2  22
BRANCH   6  24
ATOM     24  O   UNL     1      74.765  48.141   8.177  1.00  0.00    -0.507 OA
ATOM     25  H   UNL     1      75.301  48.880   7.747  1.00  0.00     0.293 HD
ENDBRANCH   6  24
BRANCH   8  26
ATOM     26  O   UNL     1      73.432  44.708   5.120  1.00  0.00    -0.508 OA
ATOM     27  H   UNL     1      73.547  43.741   5.399  1.00  0.00     0.293 HD
ENDBRANCH   8  26
TORSDOF 6
ENDMDL
MODEL 6
REMARK VINA RESULT:    -5.568      4.188      6.368
REMARK INTER + INTRA:          -7.028
REMARK INTER:                  -6.828
REMARK INTRA:                  -0.200
REMARK UNBOUND:                -0.321
REMARK SMILES O=c1c(O)c(-c2ccc(O)c(O)c2)oc2cc(O)cc(O)c12
REMARK SMILES IDX 5 1 3 2 2 3 1 4 22 5 20 6 19 7 17 8 16 9 15 10 14 11 6 12
REMARK SMILES IDX 7 13 8 14 9 15 13 16 11 17 10 18 12 20 4 22 21 24 18 26
REMARK H PARENT 10 19 12 21 4 23 21 25 18 27
REMARK Flexibility Score: inf
ROOT
ATOM      1  C   UNL     1      68.884  47.446   7.923  1.00  0.00     0.180 A 
ATOM      2  C   UNL     1      69.321  48.137   9.067  1.00  0.00     0.208 A 
ATOM      3  C   UNL     1      70.650  48.588   9.122  1.00  0.00     0.238 A 
ATOM      4  O   UNL     1      71.020  49.254  10.125  1.00  0.00    -0.285 OA
ATOM      5  C   UNL     1      71.528  48.331   8.042  1.00  0.00     0.111 A 
ATOM      6  C   UNL     1      72.904  48.707   8.009  1.00  0.00     0.134 A 
ATOM      7  C   UNL     1      73.644  48.516   6.836  1.00  0.00     0.093 A 
ATOM      8  C   UNL     1      73.077  47.905   5.718  1.00  0.00     0.123 A 
ATOM      9  C   UNL     1      71.749  47.478   5.760  1.00  0.00     0.094 A 
ATOM     10  C   UNL     1      70.975  47.688   6.904  1.00  0.00     0.146 A 
ATOM     11  O   UNL     1      69.713  47.277   6.899  1.00  0.00    -0.452 OA
ENDROOT
BRANCH   1  12
ATOM     12  C   UNL     1      67.506  46.918   7.801  1.00  0.00     0.025 A 
ATOM     13  C   UNL     1      66.401  47.779   7.679  1.00  0.00     0.016 A 
ATOM     14  C   UNL     1      65.107  47.258   7.591  1.00  0.00     0.051 A 
ATOM     15  C   UNL     1      64.894  45.877   7.637  1.00  0.00     0.157 A 
ATOM     16  C   UNL     1      67.288  45.532   7.868  1.00  0.00     0.062 A 
ATOM     17  C   UNL     1      65.989  45.008   7.780  1.00  0.00     0.158 A 
BRANCH  15  18
ATOM     18  O   UNL     1      63.593  45.387   7.544  1.00  0.00    -0.504 OA
ATOM     19  H   UNL     1      63.033  45.187   8.365  1.00  0.00     0.293 HD
ENDBRANCH  15  18
BRANCH  17  20
ATOM     20  O   UNL     1      65.785  43.630   7.834  1.00  0.00    -0.504 OA
ATOM     21  H   UNL     1      66.072  43.021   7.076  1.00  0.00     0.293 HD
ENDBRANCH  17  20
ENDBRANCH   1  12
BRANCH   2  22
ATOM     22  O   UNL     1      68.432  48.400  10.113  1.00  0.00    -0.502 OA
ATOM     23  H   UNL     1      67.461  48.114  10.086  1.00  0.00     0.293 HD
ENDBRANCH   2  22
BRANCH   6  24
ATOM     24  O   UNL     1      73.594  49.242   9.102  1.00  0.00    -0.507 OA
ATOM     25  H   UNL     1      73.295  49.167  10.062  1.00  0.00     0.293 HD
ENDBRANCH   6  24
BRANCH   8  26
ATOM     26  O   UNL     1      73.848  47.717   4.572  1.00  0.00    -0.508 OA
ATOM     27  H   UNL     1      74.751  48.162   4.462  1.00  0.00     0.293 HD
ENDBRANCH   8  26
TORSDOF 6
ENDMDL
MODEL 7
REMARK VINA RESULT:    -5.532      3.766      6.844
REMARK INTER + INTRA:          -6.985
REMARK INTER:                  -6.788
REMARK INTRA:                  -0.197
REMARK UNBOUND:                -0.321
REMARK SMILES O=c1c(O)c(-c2ccc(O)c(O)c2)oc2cc(O)cc(O)c12
REMARK SMILES IDX 5 1 3 2 2 3 1 4 22 5 20 6 19 7 17 8 16 9 15 10 14 11 6 12
REMARK SMILES IDX 7 13 8 14 9 15 13 16 11 17 10 18 12 20 4 22 21 24 18 26
REMARK H PARENT 10 19 12 21 4 23 21 25 18 27
REMARK Flexibility Score: inf
ROOT
ATOM      1  C   UNL     1      69.346  47.525   8.049  1.00  0.00     0.180 A 
ATOM      2  C   UNL     1      70.183  46.718   8.839  1.00  0.00     0.208 A 
ATOM      3  C   UNL     1      71.449  46.361   8.344  1.00  0.00     0.238 A 
ATOM      4  O   UNL     1      72.216  45.684   9.078  1.00  0.00    -0.285 OA
ATOM      5  C   UNL     1      71.855  46.803   7.062  1.00  0.00     0.111 A 
ATOM      6  C   UNL     1      73.098  46.469   6.446  1.00  0.00     0.134 A 
ATOM      7  C   UNL     1      73.448  47.068   5.230  1.00  0.00     0.093 A 
ATOM      8  C   UNL     1      72.575  47.937   4.577  1.00  0.00     0.123 A 
ATOM      9  C   UNL     1      71.331  48.224   5.141  1.00  0.00     0.094 A 
ATOM     10  C   UNL     1      70.968  47.670   6.371  1.00  0.00     0.146 A 
ATOM     11  O   UNL     1      69.781  47.977   6.879  1.00  0.00    -0.452 OA
ENDROOT
BRANCH   1  12
ATOM     12  C   UNL     1      67.990  47.921   8.492  1.00  0.00     0.025 A 
ATOM     13  C   UNL     1      67.801  48.803   9.571  1.00  0.00     0.016 A 
ATOM     14  C   UNL     1      66.511  49.143   9.987  1.00  0.00     0.051 A 
ATOM     15  C   UNL     1      65.393  48.601   9.345  1.00  0.00     0.157 A 
ATOM     16  C   UNL     1      66.866  47.363   7.862  1.00  0.00     0.062 A 
ATOM     17  C   UNL     1      65.570  47.703   8.279  1.00  0.00     0.158 A 
BRANCH  15  18
ATOM     18  O   UNL     1      64.119  48.961   9.780  1.00  0.00    -0.504 OA
ATOM     19  H   UNL     1      63.624  48.434  10.490  1.00  0.00     0.293 HD
ENDBRANCH  15  18
BRANCH  17  20
ATOM     20  O   UNL     1      64.461  47.153   7.637  1.00  0.00    -0.504 OA
ATOM     21  H   UNL     1      64.553  46.627   6.776  1.00  0.00     0.293 HD
ENDBRANCH  17  20
ENDBRANCH   1  12
BRANCH   2  22
ATOM     22  O   UNL     1      69.772  46.311  10.112  1.00  0.00    -0.502 OA
ATOM     23  H   UNL     1      70.132  46.732  10.959  1.00  0.00     0.293 HD
ENDBRANCH   2  22
BRANCH   6  24
ATOM     24  O   UNL     1      74.003  45.541   6.969  1.00  0.00    -0.507 OA
ATOM     25  H   UNL     1      75.002  45.572   6.831  1.00  0.00     0.293 HD
ENDBRANCH   6  24
BRANCH   8  26
ATOM     26  O   UNL     1      72.950  48.503   3.360  1.00  0.00    -0.508 OA
ATOM     27  H   UNL     1      72.262  48.799   2.678  1.00  0.00     0.293 HD
ENDBRANCH   8  26
TORSDOF 6
ENDMDL
MODEL 8
REMARK VINA RESULT:    -5.530      4.586      5.406
REMARK INTER + INTRA:          -6.983
REMARK INTER:                  -6.668
REMARK INTRA:                  -0.314
REMARK UNBOUND:                -0.321
REMARK SMILES O=c1c(O)c(-c2ccc(O)c(O)c2)oc2cc(O)cc(O)c12
REMARK SMILES IDX 5 1 3 2 2 3 1 4 22 5 20 6 19 7 17 8 16 9 15 10 14 11 6 12
REMARK SMILES IDX 7 13 8 14 9 15 13 16 11 17 10 18 12 20 4 22 21 24 18 26
REMARK H PARENT 10 19 12 21 4 23 21 25 18 27
REMARK Flexibility Score: inf
ROOT
ATOM      1  C   UNL     1      69.122  44.894   7.638  1.00  0.00     0.180 A 
ATOM      2  C   UNL     1      68.008  45.729   7.439  1.00  0.00     0.208 A 
ATOM      3  C   UNL     1      68.070  47.062   7.878  1.00  0.00     0.238 A 
ATOM      4  O   UNL     1      67.090  47.819   7.648  1.00  0.00    -0.285 OA
ATOM      5  C   UNL     1      69.236  47.539   8.523  1.00  0.00     0.111 A 
ATOM      6  C   UNL     1      69.392  48.858   9.043  1.00  0.00     0.134 A 
ATOM      7  C   UNL     1      70.637  49.259   9.545  1.00  0.00     0.093 A 
ATOM      8  C   UNL     1      71.710  48.371   9.605  1.00  0.00     0.123 A 
ATOM      9  C   UNL     1      71.550  47.060   9.154  1.00  0.00     0.094 A 
ATOM     10  C   UNL     1      70.332  46.640   8.615  1.00  0.00     0.146 A 
ATOM     11  O   UNL     1      70.225  45.389   8.187  1.00  0.00    -0.452 OA
ENDROOT
BRANCH   1  12
ATOM     12  C   UNL     1      69.123  43.472   7.225  1.00  0.00     0.025 A 
ATOM     13  C   UNL     1      68.518  42.480   8.017  1.00  0.00     0.016 A 
ATOM     14  C   UNL     1      68.554  41.141   7.619  1.00  0.00     0.051 A 
ATOM     15  C   UNL     1      69.203  40.769   6.437  1.00  0.00     0.157 A 
ATOM     16  C   UNL     1      69.792  43.094   6.049  1.00  0.00     0.062 A 
ATOM     17  C   UNL     1      69.828  41.750   5.649  1.00  0.00     0.158 A 
BRANCH  15  18
ATOM     18  O   UNL     1      69.219  39.427   6.065  1.00  0.00    -0.504 OA
ATOM     19  H   UNL     1      70.083  38.908   5.959  1.00  0.00     0.293 HD
ENDBRANCH  15  18
BRANCH  17  20
ATOM     20  O   UNL     1      70.483  41.387   4.472  1.00  0.00    -0.504 OA
ATOM     21  H   UNL     1      71.486  41.246   4.446  1.00  0.00     0.293 HD
ENDBRANCH  17  20
ENDBRANCH   1  12
BRANCH   2  22
ATOM     22  O   UNL     1      66.874  45.245   6.780  1.00  0.00    -0.502 OA
ATOM     23  H   UNL     1      66.285  44.522   7.173  1.00  0.00     0.293 HD
ENDBRANCH   2  22
BRANCH   6  24
ATOM     24  O   UNL     1      68.358  49.796   9.116  1.00  0.00    -0.507 OA
ATOM     25  H   UNL     1      68.163  50.376   9.918  1.00  0.00     0.293 HD
ENDBRANCH   6  24
BRANCH   8  26
ATOM     26  O   UNL     1      72.929  48.800  10.125  1.00  0.00    -0.508 OA
ATOM     27  H   UNL     1      73.285  48.444  11.005  1.00  0.00     0.293 HD
ENDBRANCH   8  26
TORSDOF 6
ENDMDL
