MODEL 1
REMARK VINA RESULT:    -4.899      0.000      0.000
REMARK INTER + INTRA:          -5.356
REMARK INTER:                  -5.329
REMARK INTRA:                  -0.027
REMARK UNBOUND:                -0.027
REMARK SMILES O=C([O-])c1ccc(O)cc1
REMARK SMILES IDX 4 1 5 2 10 3 6 4 9 5 7 6 2 7 1 8 3 9 8 10
REMARK H PARENT 8 11
REMARK Flexibility Score: inf
ROOT
ATOM      1  C   UNL     1      14.555  43.171   5.575  1.00  0.00    -0.003 A 
ATOM      2  C   UNL     1      14.776  43.641   4.267  1.00  0.00     0.014 A 
ATOM      3  C   UNL     1      13.367  42.475   5.858  1.00  0.00     0.014 A 
ATOM      4  C   UNL     1      13.826  43.417   3.265  1.00  0.00     0.047 A 
ATOM      5  C   UNL     1      12.420  42.253   4.853  1.00  0.00     0.047 A 
ATOM      6  C   UNL     1      12.645  42.723   3.557  1.00  0.00     0.115 A 
ENDROOT
BRANCH   1   7
ATOM      7  C   UNL     1      15.556  43.403   6.639  1.00  0.00     0.071 C 
ATOM      8  O   UNL     1      16.325  42.475   7.010  1.00  0.00    -0.545 OA
ATOM      9  O   UNL     1      15.666  44.650   7.245  1.00  0.00    -0.545 OA
ENDBRANCH   1   7
BRANCH   6  10
ATOM     10  O   UNL     1      11.692  42.495   2.566  1.00  0.00    -0.508 OA
ATOM     11  H   UNL     1      10.709  42.680   2.725  1.00  0.00     0.293 HD
ENDBRANCH   6  10
TORSDOF 2
ENDMDL
MODEL 2
REMARK VINA RESULT:    -4.870      0.108      1.535
REMARK INTER + INTRA:          -5.325
REMARK INTER:                  -5.297
REMARK INTRA:                  -0.028
REMARK UNBOUND:                -0.027
REMARK SMILES O=C([O-])c1ccc(O)cc1
REMARK SMILES IDX 4 1 5 2 10 3 6 4 9 5 7 6 2 7 1 8 3 9 8 10
REMARK H PARENT 8 11
REMARK Flexibility Score: inf
ROOT
ATOM      1  C   UNL     1      14.582  43.251   5.591  1.00  0.00    -0.003 A 
ATOM      2  C   UNL     1      13.393  42.564   5.898  1.00  0.00     0.014 A 
ATOM      3  C   UNL     1      14.802  43.676   4.269  1.00  0.00     0.014 A 
ATOM      4  C   UNL     1      12.446  42.308   4.901  1.00  0.00     0.047 A 
ATOM      5  C   UNL     1      13.853  43.418   3.275  1.00  0.00     0.047 A 
ATOM      6  C   UNL     1      12.674  42.735   3.587  1.00  0.00     0.115 A 
ENDROOT
BRANCH   1   7
ATOM      7  C   UNL     1      15.587  43.526   6.641  1.00  0.00     0.071 C 
ATOM      8  O   UNL     1      16.306  42.597   7.099  1.00  0.00    -0.545 OA
ATOM      9  O   UNL     1      15.755  44.814   7.137  1.00  0.00    -0.545 OA
ENDBRANCH   1   7
BRANCH   6  10
ATOM     10  O   UNL     1      11.737  42.484   2.586  1.00  0.00    -0.508 OA
ATOM     11  H   UNL     1      11.377  41.553   2.420  1.00  0.00     0.293 HD
ENDBRANCH   6  10
TORSDOF 2
ENDMDL
MODEL 3
REMARK VINA RESULT:    -4.814      2.763      5.177
REMARK INTER + INTRA:          -5.264
REMARK INTER:                  -5.230
REMARK INTRA:                  -0.034
REMARK UNBOUND:                -0.027
REMARK SMILES O=C([O-])c1ccc(O)cc1
REMARK SMILES IDX 4 1 5 2 10 3 6 4 9 5 7 6 2 7 1 8 3 9 8 10
REMARK H PARENT 8 11
REMARK Flexibility Score: inf
ROOT
ATOM      1  C   UNL     1      15.860  44.245   6.137  1.00  0.00    -0.003 A 
ATOM      2  C   UNL     1      16.038  42.896   6.494  1.00  0.00     0.014 A 
ATOM      3  C   UNL     1      16.372  45.247   6.981  1.00  0.00     0.014 A 
ATOM      4  C   UNL     1      16.714  42.559   7.672  1.00  0.00     0.047 A 
ATOM      5  C   UNL     1      17.048  44.906   8.157  1.00  0.00     0.047 A 
ATOM      6  C   UNL     1      17.220  43.563   8.505  1.00  0.00     0.115 A 
ENDROOT
BRANCH   1   7
ATOM      7  C   UNL     1      15.147  44.609   4.893  1.00  0.00     0.071 C 
ATOM      8  O   UNL     1      14.566  45.723   4.790  1.00  0.00    -0.545 OA
ATOM      9  O   UNL     1      15.111  43.729   3.818  1.00  0.00    -0.545 OA
ENDBRANCH   1   7
BRANCH   6  10
ATOM     10  O   UNL     1      17.894  43.238   9.681  1.00  0.00    -0.508 OA
ATOM     11  H   UNL     1      18.769  43.684   9.931  1.00  0.00     0.293 HD
ENDBRANCH   6  10
TORSDOF 2
ENDMDL
MODEL 4
REMARK VINA RESULT:    -4.814      2.798      5.087
REMARK INTER + INTRA:          -5.264
REMARK INTER:                  -5.230
REMARK INTRA:                  -0.033
REMARK UNBOUND:                -0.027
REMARK SMILES O=C([O-])c1ccc(O)cc1
REMARK SMILES IDX 4 1 5 2 10 3 6 4 9 5 7 6 2 7 1 8 3 9 8 10
REMARK H PARENT 8 11
REMARK Flexibility Score: inf
ROOT
ATOM      1  C   UNL     1      15.930  44.237   6.141  1.00  0.00    -0.003 A 
ATOM      2  C   UNL     1      16.505  45.204   6.987  1.00  0.00     0.014 A 
ATOM      3  C   UNL     1      16.037  42.879   6.487  1.00  0.00     0.014 A 
ATOM      4  C   UNL     1      17.172  44.817   8.153  1.00  0.00     0.047 A 
ATOM      5  C   UNL     1      16.705  42.495   7.655  1.00  0.00     0.047 A 
ATOM      6  C   UNL     1      17.273  43.462   8.490  1.00  0.00     0.115 A 
ENDROOT
BRANCH   1   7
ATOM      7  C   UNL     1      15.222  44.639   4.906  1.00  0.00     0.071 C 
ATOM      8  O   UNL     1      14.622  45.746   4.842  1.00  0.00    -0.545 OA
ATOM      9  O   UNL     1      15.210  43.802   3.796  1.00  0.00    -0.545 OA
ENDBRANCH   1   7
BRANCH   6  10
ATOM     10  O   UNL     1      17.936  43.065   9.650  1.00  0.00    -0.508 OA
ATOM     11  H   UNL     1      18.310  43.743  10.304  1.00  0.00     0.293 HD
ENDBRANCH   6  10
TORSDOF 2
ENDMDL
MODEL 5
REMARK VINA RESULT:    -4.796      2.901      4.218
REMARK INTER + INTRA:          -5.244
REMARK INTER:                  -5.216
REMARK INTRA:                  -0.027
REMARK UNBOUND:                -0.027
REMARK SMILES O=C([O-])c1ccc(O)cc1
REMARK SMILES IDX 4 1 5 2 10 3 6 4 9 5 7 6 2 7 1 8 3 9 8 10
REMARK H PARENT 8 11
REMARK Flexibility Score: inf
ROOT
ATOM      1  C   UNL     1      13.197  45.497   4.082  1.00  0.00    -0.003 A 
ATOM      2  C   UNL     1      14.499  45.869   4.465  1.00  0.00     0.014 A 
ATOM      3  C   UNL     1      12.973  44.193   3.605  1.00  0.00     0.014 A 
ATOM      4  C   UNL     1      15.553  44.955   4.370  1.00  0.00     0.047 A 
ATOM      5  C   UNL     1      14.030  43.282   3.512  1.00  0.00     0.047 A 
ATOM      6  C   UNL     1      15.320  43.659   3.893  1.00  0.00     0.115 A 
ENDROOT
BRANCH   1   7
ATOM      7  C   UNL     1      12.077  46.458   4.181  1.00  0.00     0.071 C 
ATOM      8  O   UNL     1      11.588  46.761   5.302  1.00  0.00    -0.545 OA
ATOM      9  O   UNL     1      11.548  47.044   3.036  1.00  0.00    -0.545 OA
ENDBRANCH   1   7
BRANCH   6  10
ATOM     10  O   UNL     1      16.364  42.741   3.795  1.00  0.00    -0.508 OA
ATOM     11  H   UNL     1      16.332  41.971   3.136  1.00  0.00     0.293 HD
ENDBRANCH   6  10
TORSDOF 2
ENDMDL
MODEL 6
REMARK VINA RESULT:    -4.785      2.933      4.636
REMARK INTER + INTRA:          -5.231
REMARK INTER:                  -5.201
REMARK INTRA:                  -0.031
REMARK UNBOUND:                -0.027
REMARK SMILES O=C([O-])c1ccc(O)cc1
REMARK SMILES IDX 4 1 5 2 10 3 6 4 9 5 7 6 2 7 1 8 3 9 8 10
REMARK H PARENT 8 11
REMARK Flexibility Score: inf
ROOT
ATOM      1  C   UNL     1      15.948  43.765   5.867  1.00  0.00    -0.003 A 
ATOM      2  C   UNL     1      15.829  44.950   6.617  1.00  0.00     0.014 A 
ATOM      3  C   UNL     1      15.952  42.530   6.538  1.00  0.00     0.014 A 
ATOM      4  C   UNL     1      15.716  44.896   8.010  1.00  0.00     0.047 A 
ATOM      5  C   UNL     1      15.839  42.481   7.932  1.00  0.00     0.047 A 
ATOM      6  C   UNL     1      15.721  43.662   8.670  1.00  0.00     0.115 A 
ENDROOT
BRANCH   1   7
ATOM      7  C   UNL     1      16.067  43.814   4.393  1.00  0.00     0.071 C 
ATOM      8  O   UNL     1      15.287  44.531   3.711  1.00  0.00    -0.545 OA
ATOM      9  O   UNL     1      17.043  43.070   3.739  1.00  0.00    -0.545 OA
ENDBRANCH   1   7
BRANCH   6  10
ATOM     10  O   UNL     1      15.610  43.598  10.058  1.00  0.00    -0.508 OA
ATOM     11  H   UNL     1      16.413  43.735  10.661  1.00  0.00     0.293 HD
ENDBRANCH   6  10
TORSDOF 2
ENDMDL
MODEL 7
REMARK VINA RESULT:    -4.628      2.658      4.274
REMARK INTER + INTRA:          -5.061
REMARK INTER:                  -5.030
REMARK INTRA:                  -0.031
REMARK UNBOUND:                -0.027
REMARK SMILES O=C([O-])c1ccc(O)cc1
REMARK SMILES IDX 4 1 5 2 10 3 6 4 9 5 7 6 2 7 1 8 3 9 8 10
REMARK H PARENT 8 11
REMARK Flexibility Score: inf
ROOT
ATOM      1  C   UNL     1      13.835  45.288   4.575  1.00  0.00    -0.003 A 
ATOM      2  C   UNL     1      14.184  44.374   3.563  1.00  0.00     0.014 A 
ATOM      3  C   UNL     1      14.728  45.502   5.639  1.00  0.00     0.014 A 
ATOM      4  C   UNL     1      15.402  43.689   3.619  1.00  0.00     0.047 A 
ATOM      5  C   UNL     1      15.946  44.816   5.690  1.00  0.00     0.047 A 
ATOM      6  C   UNL     1      16.286  43.909   4.683  1.00  0.00     0.115 A 
ENDROOT
BRANCH   1   7
ATOM      7  C   UNL     1      12.548  46.016   4.523  1.00  0.00     0.071 C 
ATOM      8  O   UNL     1      12.137  46.515   3.440  1.00  0.00    -0.545 OA
ATOM      9  O   UNL     1      11.772  46.160   5.668  1.00  0.00    -0.545 OA
ENDBRANCH   1   7
BRANCH   6  10
ATOM     10  O   UNL     1      17.502  43.232   4.747  1.00  0.00    -0.508 OA
ATOM     11  H   UNL     1      17.584  42.261   4.467  1.00  0.00     0.293 HD
ENDBRANCH   6  10
TORSDOF 2
ENDMDL
MODEL 8
REMARK VINA RESULT:    -4.621      2.262      4.610
REMARK INTER + INTRA:          -5.054
REMARK INTER:                  -5.023
REMARK INTRA:                  -0.031
REMARK UNBOUND:                -0.027
REMARK SMILES O=C([O-])c1ccc(O)cc1
REMARK SMILES IDX 4 1 5 2 10 3 6 4 9 5 7 6 2 7 1 8 3 9 8 10
REMARK H PARENT 8 11
REMARK Flexibility Score: inf
ROOT
ATOM      1  C   UNL     1      14.664  44.729   4.809  1.00  0.00    -0.003 A 
ATOM      2  C   UNL     1      15.549  43.778   4.267  1.00  0.00     0.014 A 
ATOM      3  C   UNL     1      14.987  45.341   6.033  1.00  0.00     0.014 A 
ATOM      4  C   UNL     1      16.730  43.447   4.938  1.00  0.00     0.047 A 
ATOM      5  C   UNL     1      16.170  45.008   6.701  1.00  0.00     0.047 A 
ATOM      6  C   UNL     1      17.043  44.062   6.157  1.00  0.00     0.115 A 
ENDROOT
BRANCH   1   7
ATOM      7  C   UNL     1      13.413  45.084   4.104  1.00  0.00     0.071 C 
ATOM      8  O   UNL     1      13.063  46.289   3.986  1.00  0.00    -0.545 OA
ATOM      9  O   UNL     1      12.604  44.092   3.559  1.00  0.00    -0.545 OA
ENDBRANCH   1   7
BRANCH   6  10
ATOM     10  O   UNL     1      18.218  43.739   6.833  1.00  0.00    -0.508 OA
ATOM     11  H   UNL     1      18.320  42.862   7.330  1.00  0.00     0.293 HD
ENDBRANCH   6  10
TORSDOF 2
ENDMDL
MODEL 9
REMARK VINA RESULT:    -4.533      2.475      2.947
REMARK INTER + INTRA:          -4.958
REMARK INTER:                  -4.922
REMARK INTRA:                  -0.035
REMARK UNBOUND:                -0.027
REMARK SMILES O=C([O-])c1ccc(O)cc1
REMARK SMILES IDX 4 1 5 2 10 3 6 4 9 5 7 6 2 7 1 8 3 9 8 10
REMARK H PARENT 8 11
REMARK Flexibility Score: inf
ROOT
ATOM      1  C   UNL     1      15.673  44.903   5.893  1.00  0.00    -0.003 A 
ATOM      2  C   UNL     1      14.526  45.485   6.464  1.00  0.00     0.014 A 
ATOM      3  C   UNL     1      15.674  44.606   4.518  1.00  0.00     0.014 A 
ATOM      4  C   UNL     1      13.405  45.761   5.675  1.00  0.00     0.047 A 
ATOM      5  C   UNL     1      14.551  44.884   3.732  1.00  0.00     0.047 A 
ATOM      6  C   UNL     1      13.415  45.462   4.307  1.00  0.00     0.115 A 
ENDROOT
BRANCH   1   7
ATOM      7  C   UNL     1      16.862  44.608   6.721  1.00  0.00     0.071 C 
ATOM      8  O   UNL     1      16.987  45.118   7.867  1.00  0.00    -0.545 OA
ATOM      9  O   UNL     1      17.860  43.762   6.248  1.00  0.00    -0.545 OA
ENDBRANCH   1   7
BRANCH   6  10
ATOM     10  O   UNL     1      12.303  45.733   3.512  1.00  0.00    -0.508 OA
ATOM     11  H   UNL     1      11.712  44.991   3.158  1.00  0.00     0.293 HD
ENDBRANCH   6  10
TORSDOF 2
ENDMDL
