MODEL 1
REMARK VINA RESULT:    50.154      0.000      0.000
REMARK INTER + INTRA:          66.103
REMARK INTER:                  66.280
REMARK INTRA:                  -0.178
REMARK UNBOUND:                -0.178
REMARK SMILES CC[C@H](C=C[C@H](C)[C@@H]1CC[C@H]2C3=CC[C@H]4C[C@@H](O)CC[C@@]4(C)[C@@H]3CC[C@@]21C)C(C)C
REMARK SMILES IDX 6 1 7 2 5 3 4 4 3 5 2 6 1 7 28 8 29 9 30 10 8 11 9 12 26 13
REMARK SMILES IDX 10 14 11 15 25 16 27 17 12 18 24 19 23 20 13 21 21 22 14 23
REMARK SMILES IDX 15 24 20 25 22 26 16 27 19 28 17 29 18 30
REMARK H PARENT 18 31
REMARK Flexibility Score: inf
ROOT
ATOM      1  C   UNL     1     -29.324  31.869  -1.937  1.00  0.00     0.012 C 
ATOM      2  C   UNL     1     -29.330  31.612  -0.419  1.00  0.00     0.012 C 
ENDROOT
BRANCH   1   3
ATOM      3  C   UNL     1     -30.596  32.577  -2.370  1.00  0.00    -0.028 C 
ATOM      4  C   UNL     1     -31.736  31.961  -2.744  1.00  0.00    -0.027 C 
BRANCH   4   5
ATOM      5  C   UNL     1     -31.970  30.457  -2.728  1.00  0.00     0.014 C 
BRANCH   5   6
ATOM      6  C   UNL     1     -31.662  29.923  -1.300  1.00  0.00     0.004 C 
ATOM      7  C   UNL     1     -31.793  28.401  -1.198  1.00  0.00     0.004 C 
ENDBRANCH   5   6
BRANCH   5   8
ATOM      8  C   UNL     1     -33.431  30.149  -3.190  1.00  0.00    -0.011 C 
ATOM      9  C   UNL     1     -34.390  30.073  -1.985  1.00  0.00     0.008 C 
ATOM     10  C   UNL     1     -33.967  31.197  -4.179  1.00  0.00     0.008 C 
ENDBRANCH   5   8
ENDBRANCH   4   5
ENDBRANCH   1   3
BRANCH   1  11
ATOM     11  C   UNL     1     -28.020  32.550  -2.499  1.00  0.00     0.002 C 
ATOM     12  C   UNL     1     -28.343  33.949  -3.100  1.00  0.00     0.005 C 
ATOM     13  C   UNL     1     -27.151  31.855  -3.608  1.00  0.00    -0.023 C 
ATOM     14  C   UNL     1     -27.984  33.909  -4.594  1.00  0.00     0.009 C 
ATOM     15  C   UNL     1     -27.753  32.432  -4.899  1.00  0.00     0.021 C 
ATOM     16  C   UNL     1     -27.129  30.289  -3.681  1.00  0.00     0.008 C 
ATOM     17  C   UNL     1     -25.676  32.353  -3.403  1.00  0.00     0.012 C 
ATOM     18  C   UNL     1     -26.957  32.035  -6.133  1.00  0.00    -0.067 C 
ATOM     19  C   UNL     1     -27.131  29.718  -5.125  1.00  0.00     0.009 C 
ATOM     20  C   UNL     1     -26.381  30.614  -6.155  1.00  0.00     0.021 C 
ATOM     21  C   UNL     1     -26.890  32.850  -7.207  1.00  0.00    -0.027 C 
ATOM     22  C   UNL     1     -26.303  30.012  -7.608  1.00  0.00    -0.023 C 
ATOM     23  C   UNL     1     -26.427  32.402  -8.568  1.00  0.00     0.031 C 
ATOM     24  C   UNL     1     -25.655  31.067  -8.568  1.00  0.00     0.002 C 
ATOM     25  C   UNL     1     -25.439  28.712  -7.666  1.00  0.00     0.010 C 
ATOM     26  C   UNL     1     -27.722  29.652  -8.125  1.00  0.00     0.012 C 
ATOM     27  C   UNL     1     -24.156  31.303  -8.269  1.00  0.00     0.036 C 
ATOM     28  C   UNL     1     -23.944  28.940  -7.393  1.00  0.00     0.032 C 
ATOM     29  C   UNL     1     -23.358  29.993  -8.341  1.00  0.00     0.114 C 
BRANCH  29  30
ATOM     30  O   UNL     1     -22.022  30.233  -7.989  1.00  0.00    -0.393 OA
ATOM     31  H   UNL     1     -21.681  30.923  -8.620  1.00  0.00     0.210 HD
ENDBRANCH  29  30
ENDBRANCH   1  11
TORSDOF 6
ENDMDL
