MODEL 1
REMARK VINA RESULT:    -4.175      0.000      0.000
REMARK INTER + INTRA:          -6.380
REMARK INTER:                  -5.640
REMARK INTRA:                  -0.740
REMARK UNBOUND:                -0.740
REMARK SMILES O=C[C@H](O)[C@@H](O)[C@@H](O)CO
REMARK SMILES IDX 7 1 9 2 10 3 5 5 3 6 2 7 1 8 4 9 6 11 8 13
REMARK H PARENT 10 4 4 10 6 12 8 14
REMARK Flexibility Score: inf
ROOT
ATOM      1  C   UNL     1       2.867  27.895  12.112  1.00  0.00     0.171 C 
ENDROOT
BRANCH   1   2
ATOM      2  C   UNL     1       2.505  26.456  11.688  1.00  0.00     0.190 C 
BRANCH   2   3
ATOM      3  O   UNL     1       1.187  26.125  12.037  1.00  0.00    -0.394 OA
ATOM      4  H   UNL     1       0.800  26.915  12.496  1.00  0.00     0.210 HD
ENDBRANCH   2   3
ENDBRANCH   1   2
BRANCH   1   5
ATOM      5  C   UNL     1       2.765  28.183  13.642  1.00  0.00     0.181 C 
BRANCH   5   6
ATOM      6  C   UNL     1       1.595  29.109  14.095  1.00  0.00     0.209 C 
BRANCH   6   7
ATOM      7  C   UNL     1       1.146  28.806  15.498  1.00  0.00     0.258 C 
ATOM      8  O   UNL     1       1.936  28.850  16.429  1.00  0.00    -0.300 OA
ENDBRANCH   6   7
BRANCH   6   9
ATOM      9  O   UNL     1       0.488  28.931  13.247  1.00  0.00    -0.383 OA
ATOM     10  H   UNL     1       0.630  28.084  12.750  1.00  0.00     0.211 HD
ENDBRANCH   6   9
ENDBRANCH   5   6
BRANCH   5  11
ATOM     11  O   UNL     1       2.720  26.961  14.339  1.00  0.00    -0.387 OA
ATOM     12  H   UNL     1       3.554  26.464  14.128  1.00  0.00     0.211 HD
ENDBRANCH   5  11
ENDBRANCH   1   5
BRANCH   1  13
ATOM     13  O   UNL     1       4.098  28.301  11.566  1.00  0.00    -0.388 OA
ATOM     14  H   UNL     1       4.520  28.944  12.191  1.00  0.00     0.211 HD
ENDBRANCH   1  13
TORSDOF 8
ENDMDL
MODEL 2
REMARK VINA RESULT:    -4.058      2.165      3.734
REMARK INTER + INTRA:          -6.221
REMARK INTER:                  -5.676
REMARK INTRA:                  -0.545
REMARK UNBOUND:                -0.740
REMARK SMILES O=C[C@H](O)[C@@H](O)[C@@H](O)CO
REMARK SMILES IDX 7 1 9 2 10 3 5 5 3 6 2 7 1 8 4 9 6 11 8 13
REMARK H PARENT 10 4 4 10 6 12 8 14
REMARK Flexibility Score: inf
ROOT
ATOM      1  C   UNL     1       1.642  25.015  11.231  1.00  0.00     0.171 C 
ENDROOT
BRANCH   1   2
ATOM      2  C   UNL     1       1.515  24.390   9.825  1.00  0.00     0.190 C 
BRANCH   2   3
ATOM      3  O   UNL     1       2.674  23.688   9.460  1.00  0.00    -0.394 OA
ATOM      4  H   UNL     1       3.373  24.364   9.263  1.00  0.00     0.210 HD
ENDBRANCH   2   3
ENDBRANCH   1   2
BRANCH   1   5
ATOM      5  C   UNL     1       2.693  26.161  11.356  1.00  0.00     0.181 C 
BRANCH   5   6
ATOM      6  C   UNL     1       2.388  27.267  12.413  1.00  0.00     0.209 C 
BRANCH   6   7
ATOM      7  C   UNL     1       3.212  28.504  12.188  1.00  0.00     0.258 C 
ATOM      8  O   UNL     1       4.045  28.546  11.295  1.00  0.00    -0.300 OA
ENDBRANCH   6   7
BRANCH   6   9
ATOM      9  O   UNL     1       2.680  26.790  13.702  1.00  0.00    -0.383 OA
ATOM     10  H   UNL     1       2.052  26.044  13.891  1.00  0.00     0.211 HD
ENDBRANCH   6   9
ENDBRANCH   5   6
BRANCH   5  11
ATOM     11  O   UNL     1       3.962  25.598  11.588  1.00  0.00    -0.387 OA
ATOM     12  H   UNL     1       4.638  26.210  11.196  1.00  0.00     0.211 HD
ENDBRANCH   5  11
ENDBRANCH   1   5
BRANCH   1  13
ATOM     13  O   UNL     1       0.386  25.375  11.753  1.00  0.00    -0.388 OA
ATOM     14  H   UNL     1       0.385  25.181  12.724  1.00  0.00     0.211 HD
ENDBRANCH   1  13
TORSDOF 8
ENDMDL
MODEL 3
REMARK VINA RESULT:    -3.961      1.671      3.055
REMARK INTER + INTRA:          -6.090
REMARK INTER:                  -5.519
REMARK INTRA:                  -0.571
REMARK UNBOUND:                -0.740
REMARK SMILES O=C[C@H](O)[C@@H](O)[C@@H](O)CO
REMARK SMILES IDX 7 1 9 2 10 3 5 5 3 6 2 7 1 8 4 9 6 11 8 13
REMARK H PARENT 10 4 4 10 6 12 8 14
REMARK Flexibility Score: inf
ROOT
ATOM      1  C   UNL     1       2.449  25.855  11.824  1.00  0.00     0.171 C 
ENDROOT
BRANCH   1   2
ATOM      2  C   UNL     1       3.257  25.033  10.798  1.00  0.00     0.190 C 
BRANCH   2   3
ATOM      3  O   UNL     1       4.563  24.781  11.244  1.00  0.00    -0.394 OA
ATOM      4  H   UNL     1       4.719  25.364  12.032  1.00  0.00     0.210 HD
ENDBRANCH   2   3
ENDBRANCH   1   2
BRANCH   1   5
ATOM      5  C   UNL     1       2.730  27.389  11.816  1.00  0.00     0.181 C 
BRANCH   5   6
ATOM      6  C   UNL     1       2.489  28.143  13.161  1.00  0.00     0.209 C 
BRANCH   6   7
ATOM      7  C   UNL     1       3.582  29.133  13.455  1.00  0.00     0.258 C 
ATOM      8  O   UNL     1       3.883  29.992  12.640  1.00  0.00    -0.300 OA
ENDBRANCH   6   7
BRANCH   6   9
ATOM      9  O   UNL     1       2.451  27.225  14.224  1.00  0.00    -0.383 OA
ATOM     10  H   UNL     1       2.381  26.317  13.828  1.00  0.00     0.211 HD
ENDBRANCH   6   9
ENDBRANCH   5   6
BRANCH   5  11
ATOM     11  O   UNL     1       4.041  27.614  11.356  1.00  0.00    -0.387 OA
ATOM     12  H   UNL     1       4.663  27.376  12.093  1.00  0.00     0.211 HD
ENDBRANCH   5  11
ENDBRANCH   1   5
BRANCH   1  13
ATOM     13  O   UNL     1       1.075  25.557  11.759  1.00  0.00    -0.388 OA
ATOM     14  H   UNL     1       0.955  24.595  11.960  1.00  0.00     0.211 HD
ENDBRANCH   1  13
TORSDOF 8
ENDMDL
MODEL 4
REMARK VINA RESULT:    -3.819      1.544      2.267
REMARK INTER + INTRA:          -5.898
REMARK INTER:                  -5.643
REMARK INTRA:                  -0.255
REMARK UNBOUND:                -0.740
REMARK SMILES O=C[C@H](O)[C@@H](O)[C@@H](O)CO
REMARK SMILES IDX 7 1 9 2 10 3 5 5 3 6 2 7 1 8 4 9 6 11 8 13
REMARK H PARENT 10 4 4 10 6 12 8 14
REMARK Flexibility Score: inf
ROOT
ATOM      1  C   UNL     1       2.936  26.738  11.496  1.00  0.00     0.171 C 
ENDROOT
BRANCH   1   2
ATOM      2  C   UNL     1       2.187  25.392  11.610  1.00  0.00     0.190 C 
BRANCH   2   3
ATOM      3  O   UNL     1       0.817  25.576  11.849  1.00  0.00    -0.394 OA
ATOM      4  H   UNL     1       0.349  24.779  11.488  1.00  0.00     0.210 HD
ENDBRANCH   2   3
ENDBRANCH   1   2
BRANCH   1   5
ATOM      5  C   UNL     1       2.812  27.674  12.737  1.00  0.00     0.181 C 
BRANCH   5   6
ATOM      6  C   UNL     1       1.688  28.755  12.678  1.00  0.00     0.209 C 
BRANCH   6   7
ATOM      7  C   UNL     1       2.192  30.063  12.132  1.00  0.00     0.258 C 
ATOM      8  O   UNL     1       1.413  30.936  11.784  1.00  0.00    -0.300 OA
ENDBRANCH   6   7
BRANCH   6   9
ATOM      9  O   UNL     1       1.189  28.998  13.969  1.00  0.00    -0.383 OA
ATOM     10  H   UNL     1       1.087  29.980  14.067  1.00  0.00     0.211 HD
ENDBRANCH   6   9
ENDBRANCH   5   6
BRANCH   5  11
ATOM     11  O   UNL     1       2.674  26.888  13.896  1.00  0.00    -0.387 OA
ATOM     12  H   UNL     1       1.704  26.764  14.062  1.00  0.00     0.211 HD
ENDBRANCH   5  11
ENDBRANCH   1   5
BRANCH   1  13
ATOM     13  O   UNL     1       4.270  26.555  11.087  1.00  0.00    -0.388 OA
ATOM     14  H   UNL     1       4.838  27.197  11.583  1.00  0.00     0.211 HD
ENDBRANCH   1  13
TORSDOF 8
ENDMDL
MODEL 5
REMARK VINA RESULT:    -3.786      3.214      4.819
REMARK INTER + INTRA:          -5.853
REMARK INTER:                  -5.373
REMARK INTRA:                  -0.480
REMARK UNBOUND:                -0.740
REMARK SMILES O=C[C@H](O)[C@@H](O)[C@@H](O)CO
REMARK SMILES IDX 7 1 9 2 10 3 5 5 3 6 2 7 1 8 4 9 6 11 8 13
REMARK H PARENT 10 4 4 10 6 12 8 14
REMARK Flexibility Score: inf
ROOT
ATOM      1  C   UNL     1       2.161  25.381  11.648  1.00  0.00     0.171 C 
ENDROOT
BRANCH   1   2
ATOM      2  C   UNL     1       0.902  24.760  11.008  1.00  0.00     0.190 C 
BRANCH   2   3
ATOM      3  O   UNL     1      -0.204  24.818  11.868  1.00  0.00    -0.394 OA
ATOM      4  H   UNL     1       0.149  24.908  12.791  1.00  0.00     0.210 HD
ENDBRANCH   2   3
ENDBRANCH   1   2
BRANCH   1   5
ATOM      5  C   UNL     1       3.397  25.503  10.703  1.00  0.00     0.181 C 
BRANCH   5   6
ATOM      6  C   UNL     1       3.715  26.931  10.162  1.00  0.00     0.209 C 
BRANCH   6   7
ATOM      7  C   UNL     1       4.742  26.901   9.063  1.00  0.00     0.258 C 
ATOM      8  O   UNL     1       5.861  26.456   9.267  1.00  0.00    -0.300 OA
ENDBRANCH   6   7
BRANCH   6   9
ATOM      9  O   UNL     1       4.223  27.733  11.198  1.00  0.00    -0.383 OA
ATOM     10  H   UNL     1       3.631  27.611  11.984  1.00  0.00     0.211 HD
ENDBRANCH   6   9
ENDBRANCH   5   6
BRANCH   5  11
ATOM     11  O   UNL     1       4.524  24.961  11.348  1.00  0.00    -0.387 OA
ATOM     12  H   UNL     1       5.227  25.661  11.363  1.00  0.00     0.211 HD
ENDBRANCH   5  11
ENDBRANCH   1   5
BRANCH   1  13
ATOM     13  O   UNL     1       1.864  26.588  12.308  1.00  0.00    -0.388 OA
ATOM     14  H   UNL     1       2.479  27.288  11.969  1.00  0.00     0.211 HD
ENDBRANCH   1  13
TORSDOF 8
ENDMDL
MODEL 6
REMARK VINA RESULT:    -3.737      1.612      3.150
REMARK INTER + INTRA:          -5.787
REMARK INTER:                  -5.435
REMARK INTRA:                  -0.352
REMARK UNBOUND:                -0.740
REMARK SMILES O=C[C@H](O)[C@@H](O)[C@@H](O)CO
REMARK SMILES IDX 7 1 9 2 10 3 5 5 3 6 2 7 1 8 4 9 6 11 8 13
REMARK H PARENT 10 4 4 10 6 12 8 14
REMARK Flexibility Score: inf
ROOT
ATOM      1  C   UNL     1       2.720  27.816  13.244  1.00  0.00     0.171 C 
ENDROOT
BRANCH   1   2
ATOM      2  C   UNL     1       2.529  26.821  12.080  1.00  0.00     0.190 C 
BRANCH   2   3
ATOM      3  O   UNL     1       1.251  26.241  12.094  1.00  0.00    -0.394 OA
ATOM      4  H   UNL     1       0.682  26.804  12.680  1.00  0.00     0.210 HD
ENDBRANCH   2   3
ENDBRANCH   1   2
BRANCH   1   5
ATOM      5  C   UNL     1       2.003  29.190  13.067  1.00  0.00     0.181 C 
BRANCH   5   6
ATOM      6  C   UNL     1       2.318  29.971  11.753  1.00  0.00     0.209 C 
BRANCH   6   7
ATOM      7  C   UNL     1       3.692  30.582  11.778  1.00  0.00     0.258 C 
ATOM      8  O   UNL     1       4.642  30.002  11.276  1.00  0.00    -0.300 OA
ENDBRANCH   6   7
BRANCH   6   9
ATOM      9  O   UNL     1       1.392  31.014  11.582  1.00  0.00    -0.383 OA
ATOM     10  H   UNL     1       1.530  31.657  12.326  1.00  0.00     0.211 HD
ENDBRANCH   6   9
ENDBRANCH   5   6
BRANCH   5  11
ATOM     11  O   UNL     1       0.614  29.007  13.206  1.00  0.00    -0.387 OA
ATOM     12  H   UNL     1       0.165  29.786  12.788  1.00  0.00     0.211 HD
ENDBRANCH   5  11
ENDBRANCH   1   5
BRANCH   1  13
ATOM     13  O   UNL     1       2.444  27.218  14.487  1.00  0.00    -0.388 OA
ATOM     14  H   UNL     1       1.526  27.474  14.760  1.00  0.00     0.211 HD
ENDBRANCH   1  13
TORSDOF 8
ENDMDL
MODEL 7
REMARK VINA RESULT:    -3.704      1.385      4.093
REMARK INTER + INTRA:          -5.743
REMARK INTER:                  -5.226
REMARK INTRA:                  -0.517
REMARK UNBOUND:                -0.740
REMARK SMILES O=C[C@H](O)[C@@H](O)[C@@H](O)CO
REMARK SMILES IDX 7 1 9 2 10 3 5 5 3 6 2 7 1 8 4 9 6 11 8 13
REMARK H PARENT 10 4 4 10 6 12 8 14
REMARK Flexibility Score: inf
ROOT
ATOM      1  C   UNL     1       1.931  28.760  13.310  1.00  0.00     0.171 C 
ENDROOT
BRANCH   1   2
ATOM      2  C   UNL     1       2.439  28.555  14.753  1.00  0.00     0.190 C 
BRANCH   2   3
ATOM      3  O   UNL     1       1.665  27.614  15.449  1.00  0.00    -0.394 OA
ATOM      4  H   UNL     1       0.957  28.118  15.929  1.00  0.00     0.210 HD
ENDBRANCH   2   3
ENDBRANCH   1   2
BRANCH   1   5
ATOM      5  C   UNL     1       2.308  27.627  12.306  1.00  0.00     0.181 C 
BRANCH   5   6
ATOM      6  C   UNL     1       3.294  28.018  11.161  1.00  0.00     0.209 C 
BRANCH   6   7
ATOM      7  C   UNL     1       3.826  26.811  10.439  1.00  0.00     0.258 C 
ATOM      8  O   UNL     1       3.101  25.858  10.197  1.00  0.00    -0.300 OA
ENDBRANCH   6   7
BRANCH   6   9
ATOM      9  O   UNL     1       4.393  28.714  11.693  1.00  0.00    -0.383 OA
ATOM     10  H   UNL     1       4.285  28.727  12.680  1.00  0.00     0.211 HD
ENDBRANCH   6   9
ENDBRANCH   5   6
BRANCH   5  11
ATOM     11  O   UNL     1       2.804  26.522  13.022  1.00  0.00    -0.387 OA
ATOM     12  H   UNL     1       3.116  25.851  12.361  1.00  0.00     0.211 HD
ENDBRANCH   5  11
ENDBRANCH   1   5
BRANCH   1  13
ATOM     13  O   UNL     1       0.559  29.072  13.282  1.00  0.00    -0.388 OA
ATOM     14  H   UNL     1       0.058  28.308  13.667  1.00  0.00     0.211 HD
ENDBRANCH   1  13
TORSDOF 8
ENDMDL
MODEL 8
REMARK VINA RESULT:    -3.701      3.507      4.943
REMARK INTER + INTRA:          -5.739
REMARK INTER:                  -5.452
REMARK INTRA:                  -0.287
REMARK UNBOUND:                -0.740
REMARK SMILES O=C[C@H](O)[C@@H](O)[C@@H](O)CO
REMARK SMILES IDX 7 1 9 2 10 3 5 5 3 6 2 7 1 8 4 9 6 11 8 13
REMARK H PARENT 10 4 4 10 6 12 8 14
REMARK Flexibility Score: inf
ROOT
ATOM      1  C   UNL     1       4.340  25.678  10.040  1.00  0.00     0.171 C 
ENDROOT
BRANCH   1   2
ATOM      2  C   UNL     1       4.935  24.297  10.386  1.00  0.00     0.190 C 
BRANCH   2   3
ATOM      3  O   UNL     1       5.737  24.347  11.536  1.00  0.00    -0.394 OA
ATOM      4  H   UNL     1       6.680  24.411  11.231  1.00  0.00     0.210 HD
ENDBRANCH   2   3
ENDBRANCH   1   2
BRANCH   1   5
ATOM      5  C   UNL     1       3.082  26.086  10.868  1.00  0.00     0.181 C 
BRANCH   5   6
ATOM      6  C   UNL     1       1.940  25.026  10.957  1.00  0.00     0.209 C 
BRANCH   6   7
ATOM      7  C   UNL     1       1.396  24.669   9.602  1.00  0.00     0.258 C 
ATOM      8  O   UNL     1       1.136  23.510   9.319  1.00  0.00    -0.300 OA
ENDBRANCH   6   7
BRANCH   6   9
ATOM      9  O   UNL     1       0.876  25.533  11.723  1.00  0.00    -0.383 OA
ATOM     10  H   UNL     1       0.097  25.631  11.116  1.00  0.00     0.211 HD
ENDBRANCH   6   9
ENDBRANCH   5   6
BRANCH   5  11
ATOM     11  O   UNL     1       3.487  26.480  12.157  1.00  0.00    -0.387 OA
ATOM     12  H   UNL     1       3.305  25.723  12.773  1.00  0.00     0.211 HD
ENDBRANCH   5  11
ENDBRANCH   1   5
BRANCH   1  13
ATOM     13  O   UNL     1       5.328  26.680  10.030  1.00  0.00    -0.388 OA
ATOM     14  H   UNL     1       5.439  26.999   9.099  1.00  0.00     0.211 HD
ENDBRANCH   1  13
TORSDOF 8
ENDMDL
MODEL 9
REMARK VINA RESULT:    -3.469      3.832      6.148
REMARK INTER + INTRA:          -5.426
REMARK INTER:                  -5.153
REMARK INTRA:                  -0.273
REMARK UNBOUND:                -0.740
REMARK SMILES O=C[C@H](O)[C@@H](O)[C@@H](O)CO
REMARK SMILES IDX 7 1 9 2 10 3 5 5 3 6 2 7 1 8 4 9 6 11 8 13
REMARK H PARENT 10 4 4 10 6 12 8 14
REMARK Flexibility Score: inf
ROOT
ATOM      1  C   UNL     1       3.000  25.060  11.127  1.00  0.00     0.171 C 
ENDROOT
BRANCH   1   2
ATOM      2  C   UNL     1       1.496  25.134  10.785  1.00  0.00     0.190 C 
BRANCH   2   3
ATOM      3  O   UNL     1       0.722  25.465  11.908  1.00  0.00    -0.394 OA
ATOM      4  H   UNL     1       0.029  26.108  11.604  1.00  0.00     0.210 HD
ENDBRANCH   2   3
ENDBRANCH   1   2
BRANCH   1   5
ATOM      5  C   UNL     1       3.945  24.800   9.913  1.00  0.00     0.181 C 
BRANCH   5   6
ATOM      6  C   UNL     1       5.476  24.887  10.199  1.00  0.00     0.209 C 
BRANCH   6   7
ATOM      7  C   UNL     1       6.289  24.227   9.119  1.00  0.00     0.258 C 
ATOM      8  O   UNL     1       7.299  23.598   9.394  1.00  0.00    -0.300 OA
ENDBRANCH   6   7
BRANCH   6   9
ATOM      9  O   UNL     1       5.774  24.240  11.410  1.00  0.00    -0.383 OA
ATOM     10  H   UNL     1       4.963  23.739  11.685  1.00  0.00     0.211 HD
ENDBRANCH   6   9
ENDBRANCH   5   6
BRANCH   5  11
ATOM     11  O   UNL     1       3.623  23.558   9.336  1.00  0.00    -0.387 OA
ATOM     12  H   UNL     1       2.669  23.372   9.536  1.00  0.00     0.211 HD
ENDBRANCH   5  11
ENDBRANCH   1   5
BRANCH   1  13
ATOM     13  O   UNL     1       3.409  26.157  11.906  1.00  0.00    -0.388 OA
ATOM     14  H   UNL     1       4.101  25.847  12.542  1.00  0.00     0.211 HD
ENDBRANCH   1  13
TORSDOF 8
ENDMDL
