MODEL 1
REMARK VINA RESULT:    -4.037      0.000      0.000
REMARK INTER + INTRA:          -4.363
REMARK INTER:                  -4.273
REMARK INTRA:                  -0.090
REMARK UNBOUND:                -0.090
REMARK SMILES C=C(C)[C@@H]1CC=C(C)C(=O)C1
REMARK SMILES IDX 8 1 7 2 6 3 5 4 4 5 11 6 9 7 10 8 2 9 1 10 3 11
REMARK H PARENT
REMARK Flexibility Score: inf
ROOT
ATOM      1  C   UNL     1      -5.178   8.820   0.376  1.00  0.00     0.048 C 
ATOM      2  C   UNL     1      -4.931   8.895   1.857  1.00  0.00    -0.012 C 
ATOM      3  C   UNL     1      -4.314   9.966   2.387  1.00  0.00    -0.019 C 
ATOM      4  C   UNL     1      -4.115  10.122   3.871  1.00  0.00     0.036 C 
ATOM      5  C   UNL     1      -3.971   8.752   4.560  1.00  0.00     0.025 C 
ATOM      6  C   UNL     1      -5.174   7.853   4.224  1.00  0.00     0.089 C 
ATOM      7  C   UNL     1      -5.391   7.791   2.737  1.00  0.00     0.158 C 
ATOM      8  O   UNL     1      -6.012   6.810   2.247  1.00  0.00    -0.295 OA
ENDROOT
BRANCH   5   9
ATOM      9  C   UNL     1      -3.791   8.902   6.064  1.00  0.00    -0.077 C 
ATOM     10  C   UNL     1      -2.607   9.289   6.566  1.00  0.00     0.008 C 
ATOM     11  C   UNL     1      -4.922   8.620   7.024  1.00  0.00     0.039 C 
ENDBRANCH   5   9
TORSDOF 1
ENDMDL
MODEL 2
REMARK VINA RESULT:    -3.796     11.875     12.951
REMARK INTER + INTRA:          -4.108
REMARK INTER:                  -4.018
REMARK INTRA:                  -0.089
REMARK UNBOUND:                -0.090
REMARK SMILES C=C(C)[C@@H]1CC=C(C)C(=O)C1
REMARK SMILES IDX 8 1 7 2 6 3 5 4 4 5 11 6 9 7 10 8 2 9 1 10 3 11
REMARK H PARENT
REMARK Flexibility Score: inf
ROOT
ATOM      1  C   UNL     1       4.855  10.125   0.762  1.00  0.00     0.048 C 
ATOM      2  C   UNL     1       5.500   9.354  -0.357  1.00  0.00    -0.012 C 
ATOM      3  C   UNL     1       5.192   9.633  -1.636  1.00  0.00    -0.019 C 
ATOM      4  C   UNL     1       5.870   8.944  -2.790  1.00  0.00     0.036 C 
ATOM      5  C   UNL     1       6.294   7.512  -2.412  1.00  0.00     0.025 C 
ATOM      6  C   UNL     1       7.169   7.528  -1.147  1.00  0.00     0.089 C 
ATOM      7  C   UNL     1       6.496   8.298  -0.044  1.00  0.00     0.158 C 
ATOM      8  O   UNL     1       6.820   8.070   1.151  1.00  0.00    -0.295 OA
ENDROOT
BRANCH   5   9
ATOM      9  C   UNL     1       6.998   6.816  -3.568  1.00  0.00    -0.077 C 
ATOM     10  C   UNL     1       6.282   6.281  -4.570  1.00  0.00     0.008 C 
ATOM     11  C   UNL     1       8.503   6.705  -3.620  1.00  0.00     0.039 C 
ENDBRANCH   5   9
TORSDOF 1
ENDMDL
MODEL 3
REMARK VINA RESULT:    -3.770     15.389     16.865
REMARK INTER + INTRA:          -4.080
REMARK INTER:                  -3.992
REMARK INTRA:                  -0.088
REMARK UNBOUND:                -0.090
REMARK SMILES C=C(C)[C@@H]1CC=C(C)C(=O)C1
REMARK SMILES IDX 8 1 7 2 6 3 5 4 4 5 11 6 9 7 10 8 2 9 1 10 3 11
REMARK H PARENT
REMARK Flexibility Score: inf
ROOT
ATOM      1  C   UNL     1       6.317   5.008  -7.615  1.00  0.00     0.048 C 
ATOM      2  C   UNL     1       6.343   3.564  -7.197  1.00  0.00    -0.012 C 
ATOM      3  C   UNL     1       7.421   2.803  -7.460  1.00  0.00    -0.019 C 
ATOM      4  C   UNL     1       7.526   1.376  -6.992  1.00  0.00     0.036 C 
ATOM      5  C   UNL     1       6.137   0.714  -6.909  1.00  0.00     0.025 C 
ATOM      6  C   UNL     1       5.196   1.550  -6.025  1.00  0.00     0.089 C 
ATOM      7  C   UNL     1       5.184   2.986  -6.471  1.00  0.00     0.158 C 
ATOM      8  O   UNL     1       4.195   3.711  -6.182  1.00  0.00    -0.295 OA
ENDROOT
BRANCH   5   9
ATOM      9  C   UNL     1       6.234  -0.724  -6.417  1.00  0.00    -0.077 C 
ATOM     10  C   UNL     1       5.579  -1.702  -7.062  1.00  0.00     0.008 C 
ATOM     11  C   UNL     1       7.055  -1.085  -5.203  1.00  0.00     0.039 C 
ENDBRANCH   5   9
TORSDOF 1
ENDMDL
MODEL 4
REMARK VINA RESULT:    -3.742     14.127     15.231
REMARK INTER + INTRA:          -4.051
REMARK INTER:                  -3.952
REMARK INTRA:                  -0.098
REMARK UNBOUND:                -0.090
REMARK SMILES C=C(C)[C@@H]1CC=C(C)C(=O)C1
REMARK SMILES IDX 8 1 7 2 6 3 5 4 4 5 11 6 9 7 10 8 2 9 1 10 3 11
REMARK H PARENT
REMARK Flexibility Score: inf
ROOT
ATOM      1  C   UNL     1      -6.360  -2.534   8.347  1.00  0.00     0.048 C 
ATOM      2  C   UNL     1      -5.616  -3.835   8.466  1.00  0.00    -0.012 C 
ATOM      3  C   UNL     1      -5.347  -4.353   9.678  1.00  0.00    -0.019 C 
ATOM      4  C   UNL     1      -4.676  -5.690   9.846  1.00  0.00     0.036 C 
ATOM      5  C   UNL     1      -3.723  -5.986   8.673  1.00  0.00     0.025 C 
ATOM      6  C   UNL     1      -4.472  -5.873   7.333  1.00  0.00     0.089 C 
ATOM      7  C   UNL     1      -5.199  -4.560   7.239  1.00  0.00     0.158 C 
ATOM      8  O   UNL     1      -5.493  -4.100   6.104  1.00  0.00    -0.295 OA
ENDROOT
BRANCH   5   9
ATOM      9  C   UNL     1      -3.056  -7.345   8.825  1.00  0.00    -0.077 C 
ATOM     10  C   UNL     1      -3.304  -8.100   9.908  1.00  0.00     0.008 C 
ATOM     11  C   UNL     1      -2.107  -7.877   7.779  1.00  0.00     0.039 C 
ENDBRANCH   5   9
TORSDOF 1
ENDMDL
MODEL 5
REMARK VINA RESULT:    -3.737     15.647     17.226
REMARK INTER + INTRA:          -4.045
REMARK INTER:                  -3.948
REMARK INTRA:                  -0.097
REMARK UNBOUND:                -0.090
REMARK SMILES C=C(C)[C@@H]1CC=C(C)C(=O)C1
REMARK SMILES IDX 8 1 7 2 6 3 5 4 4 5 11 6 9 7 10 8 2 9 1 10 3 11
REMARK H PARENT
REMARK Flexibility Score: inf
ROOT
ATOM      1  C   UNL     1       6.638  -1.869  -8.903  1.00  0.00     0.048 C 
ATOM      2  C   UNL     1       6.172  -0.576  -8.294  1.00  0.00    -0.012 C 
ATOM      3  C   UNL     1       5.731   0.422  -9.081  1.00  0.00    -0.019 C 
ATOM      4  C   UNL     1       5.181   1.704  -8.514  1.00  0.00     0.036 C 
ATOM      5  C   UNL     1       5.841   2.044  -7.164  1.00  0.00     0.025 C 
ATOM      6  C   UNL     1       5.699   0.865  -6.186  1.00  0.00     0.089 C 
ATOM      7  C   UNL     1       6.179  -0.412  -6.818  1.00  0.00     0.158 C 
ATOM      8  O   UNL     1       6.546  -1.364  -6.079  1.00  0.00    -0.295 OA
ENDROOT
BRANCH   5   9
ATOM      9  C   UNL     1       5.275   3.329  -6.575  1.00  0.00    -0.077 C 
ATOM     10  C   UNL     1       4.151   3.295  -5.842  1.00  0.00     0.008 C 
ATOM     11  C   UNL     1       5.952   4.660  -6.796  1.00  0.00     0.039 C 
ENDBRANCH   5   9
TORSDOF 1
ENDMDL
MODEL 6
REMARK VINA RESULT:    -3.640     11.556     12.242
REMARK INTER + INTRA:          -3.943
REMARK INTER:                  -3.844
REMARK INTRA:                  -0.098
REMARK UNBOUND:                -0.090
REMARK SMILES C=C(C)[C@@H]1CC=C(C)C(=O)C1
REMARK SMILES IDX 8 1 7 2 6 3 5 4 4 5 11 6 9 7 10 8 2 9 1 10 3 11
REMARK H PARENT
REMARK Flexibility Score: inf
ROOT
ATOM      1  C   UNL     1       6.013   8.362  -5.728  1.00  0.00     0.048 C 
ATOM      2  C   UNL     1       5.860   8.537  -4.243  1.00  0.00    -0.012 C 
ATOM      3  C   UNL     1       5.114   9.544  -3.753  1.00  0.00    -0.019 C 
ATOM      4  C   UNL     1       4.867   9.712  -2.278  1.00  0.00     0.036 C 
ATOM      5  C   UNL     1       6.053   9.182  -1.451  1.00  0.00     0.025 C 
ATOM      6  C   UNL     1       6.361   7.723  -1.828  1.00  0.00     0.089 C 
ATOM      7  C   UNL     1       6.517   7.580  -3.317  1.00  0.00     0.158 C 
ATOM      8  O   UNL     1       7.176   6.609  -3.776  1.00  0.00    -0.295 OA
ENDROOT
BRANCH   5   9
ATOM      9  C   UNL     1       5.802   9.330   0.043  1.00  0.00    -0.077 C 
ATOM     10  C   UNL     1       4.722   9.997   0.482  1.00  0.00     0.008 C 
ATOM     11  C   UNL     1       6.747   8.741   1.062  1.00  0.00     0.039 C 
ENDBRANCH   5   9
TORSDOF 1
ENDMDL
MODEL 7
REMARK VINA RESULT:    -3.587     17.164     18.069
REMARK INTER + INTRA:          -3.887
REMARK INTER:                  -3.789
REMARK INTRA:                  -0.098
REMARK UNBOUND:                -0.090
REMARK SMILES C=C(C)[C@@H]1CC=C(C)C(=O)C1
REMARK SMILES IDX 8 1 7 2 6 3 5 4 4 5 11 6 9 7 10 8 2 9 1 10 3 11
REMARK H PARENT
REMARK Flexibility Score: inf
ROOT
ATOM      1  C   UNL     1       6.486  -2.634  -4.817  1.00  0.00     0.048 C 
ATOM      2  C   UNL     1       6.632  -1.439  -5.719  1.00  0.00    -0.012 C 
ATOM      3  C   UNL     1       7.583  -0.520  -5.474  1.00  0.00    -0.019 C 
ATOM      4  C   UNL     1       7.820   0.649  -6.392  1.00  0.00     0.036 C 
ATOM      5  C   UNL     1       6.517   1.081  -7.092  1.00  0.00     0.025 C 
ATOM      6  C   UNL     1       5.880  -0.115  -7.822  1.00  0.00     0.089 C 
ATOM      7  C   UNL     1       5.738  -1.290  -6.895  1.00  0.00     0.158 C 
ATOM      8  O   UNL     1       4.880  -2.176  -7.152  1.00  0.00    -0.295 OA
ENDROOT
BRANCH   5   9
ATOM      9  C   UNL     1       6.753   2.250  -8.037  1.00  0.00    -0.077 C 
ATOM     10  C   UNL     1       6.764   2.051  -9.365  1.00  0.00     0.008 C 
ATOM     11  C   UNL     1       6.982   3.649  -7.517  1.00  0.00     0.039 C 
ENDBRANCH   5   9
TORSDOF 1
ENDMDL
MODEL 8
REMARK VINA RESULT:    -3.437      2.213      4.686
REMARK INTER + INTRA:          -3.728
REMARK INTER:                  -3.632
REMARK INTRA:                  -0.096
REMARK UNBOUND:                -0.090
REMARK SMILES C=C(C)[C@@H]1CC=C(C)C(=O)C1
REMARK SMILES IDX 8 1 7 2 6 3 5 4 4 5 11 6 9 7 10 8 2 9 1 10 3 11
REMARK H PARENT
REMARK Flexibility Score: inf
ROOT
ATOM      1  C   UNL     1      -5.199   9.456   8.452  1.00  0.00     0.048 C 
ATOM      2  C   UNL     1      -5.053   9.461   6.955  1.00  0.00    -0.012 C 
ATOM      3  C   UNL     1      -6.118   9.709   6.173  1.00  0.00    -0.019 C 
ATOM      4  C   UNL     1      -6.005   9.802   4.674  1.00  0.00     0.036 C 
ATOM      5  C   UNL     1      -4.874   8.900   4.144  1.00  0.00     0.025 C 
ATOM      6  C   UNL     1      -3.548   9.232   4.852  1.00  0.00     0.089 C 
ATOM      7  C   UNL     1      -3.722   9.212   6.345  1.00  0.00     0.158 C 
ATOM      8  O   UNL     1      -2.715   9.028   7.079  1.00  0.00    -0.295 OA
ENDROOT
BRANCH   5   9
ATOM      9  C   UNL     1      -4.740   9.004   2.632  1.00  0.00    -0.077 C 
ATOM     10  C   UNL     1      -4.175  10.090   2.079  1.00  0.00     0.008 C 
ATOM     11  C   UNL     1      -5.233   7.906   1.721  1.00  0.00     0.039 C 
ENDBRANCH   5   9
TORSDOF 1
ENDMDL
MODEL 9
REMARK VINA RESULT:    -3.416     16.823     17.879
REMARK INTER + INTRA:          -3.706
REMARK INTER:                  -3.608
REMARK INTRA:                  -0.098
REMARK UNBOUND:                -0.090
REMARK SMILES C=C(C)[C@@H]1CC=C(C)C(=O)C1
REMARK SMILES IDX 8 1 7 2 6 3 5 4 4 5 11 6 9 7 10 8 2 9 1 10 3 11
REMARK H PARENT
REMARK Flexibility Score: inf
ROOT
ATOM      1  C   UNL     1       7.744   4.634  -7.336  1.00  0.00     0.048 C 
ATOM      2  C   UNL     1       7.389   3.180  -7.193  1.00  0.00    -0.012 C 
ATOM      3  C   UNL     1       6.103   2.806  -7.076  1.00  0.00    -0.019 C 
ATOM      4  C   UNL     1       5.693   1.359  -7.011  1.00  0.00     0.036 C 
ATOM      5  C   UNL     1       6.790   0.499  -6.355  1.00  0.00     0.025 C 
ATOM      6  C   UNL     1       8.131   0.693  -7.085  1.00  0.00     0.089 C 
ATOM      7  C   UNL     1       8.464   2.155  -7.206  1.00  0.00     0.158 C 
ATOM      8  O   UNL     1       9.665   2.501  -7.364  1.00  0.00    -0.295 OA
ENDROOT
BRANCH   5   9
ATOM      9  C   UNL     1       6.392  -0.970  -6.304  1.00  0.00    -0.077 C 
ATOM     10  C   UNL     1       5.657  -1.503  -7.293  1.00  0.00     0.008 C 
ATOM     11  C   UNL     1       6.804  -1.857  -5.155  1.00  0.00     0.039 C 
ENDBRANCH   5   9
TORSDOF 1
ENDMDL
