MODEL 1
REMARK VINA RESULT:    -3.804      0.000      0.000
REMARK INTER + INTRA:          -4.245
REMARK INTER:                  -4.026
REMARK INTRA:                  -0.218
REMARK UNBOUND:                -0.218
REMARK SMILES C=C(C)[C@@H]1CC=C(C)C(=O)C1
REMARK SMILES IDX 8 1 7 2 6 3 5 4 4 5 11 6 9 7 10 8 2 9 1 10 3 11
REMARK H PARENT
REMARK Flexibility Score: inf
ROOT
ATOM      1  C   UNL     1      -6.161 -12.955   1.402  1.00  0.00     0.048 C 
ATOM      2  C   UNL     1      -6.542 -14.336   0.941  1.00  0.00    -0.012 C 
ATOM      3  C   UNL     1      -6.431 -15.373   1.784  1.00  0.00    -0.019 C 
ATOM      4  C   UNL     1      -6.764 -16.783   1.380  1.00  0.00     0.036 C 
ATOM      5  C   UNL     1      -7.851 -16.871   0.287  1.00  0.00     0.025 C 
ATOM      6  C   UNL     1      -7.584 -15.882  -0.867  1.00  0.00     0.089 C 
ATOM      7  C   UNL     1      -7.179 -14.518  -0.384  1.00  0.00     0.158 C 
ATOM      8  O   UNL     1      -7.355 -13.526  -1.142  1.00  0.00    -0.295 OA
ENDROOT
BRANCH   5   9
ATOM      9  C   UNL     1      -9.269 -16.767   0.850  1.00  0.00    -0.077 C 
ATOM     10  C   UNL     1      -9.592 -17.224   2.072  1.00  0.00     0.008 C 
ATOM     11  C   UNL     1     -10.359 -16.130   0.022  1.00  0.00     0.039 C 
ENDBRANCH   5   9
TORSDOF 1
ENDMDL
MODEL 2
REMARK VINA RESULT:    -3.786     16.099     17.717
REMARK INTER + INTRA:          -4.226
REMARK INTER:                  -4.139
REMARK INTRA:                  -0.087
REMARK UNBOUND:                -0.218
REMARK SMILES C=C(C)[C@@H]1CC=C(C)C(=O)C1
REMARK SMILES IDX 8 1 7 2 6 3 5 4 4 5 11 6 9 7 10 8 2 9 1 10 3 11
REMARK H PARENT
REMARK Flexibility Score: inf
ROOT
ATOM      1  C   UNL     1     -22.691 -15.210  -8.063  1.00  0.00     0.048 C 
ATOM      2  C   UNL     1     -22.336 -13.784  -7.737  1.00  0.00    -0.012 C 
ATOM      3  C   UNL     1     -21.059 -13.381  -7.826  1.00  0.00    -0.019 C 
ATOM      4  C   UNL     1     -20.629 -11.980  -7.484  1.00  0.00     0.036 C 
ATOM      5  C   UNL     1     -21.726 -10.921  -7.725  1.00  0.00     0.025 C 
ATOM      6  C   UNL     1     -23.088 -11.368  -7.153  1.00  0.00     0.089 C 
ATOM      7  C   UNL     1     -23.411 -12.802  -7.469  1.00  0.00     0.158 C 
ATOM      8  O   UNL     1     -24.616 -13.170  -7.465  1.00  0.00    -0.295 OA
ENDROOT
BRANCH   5   9
ATOM      9  C   UNL     1     -21.807 -10.471  -9.184  1.00  0.00    -0.077 C 
ATOM     10  C   UNL     1     -20.963 -10.929 -10.125  1.00  0.00     0.008 C 
ATOM     11  C   UNL     1     -22.864  -9.479  -9.605  1.00  0.00     0.039 C 
ENDBRANCH   5   9
TORSDOF 1
ENDMDL
MODEL 3
REMARK VINA RESULT:    -3.711      5.560      7.246
REMARK INTER + INTRA:          -4.146
REMARK INTER:                  -3.943
REMARK INTRA:                  -0.203
REMARK UNBOUND:                -0.218
REMARK SMILES C=C(C)[C@@H]1CC=C(C)C(=O)C1
REMARK SMILES IDX 8 1 7 2 6 3 5 4 4 5 11 6 9 7 10 8 2 9 1 10 3 11
REMARK H PARENT
REMARK Flexibility Score: inf
ROOT
ATOM      1  C   UNL     1      -7.555 -14.434  -2.864  1.00  0.00     0.048 C 
ATOM      2  C   UNL     1      -8.504 -13.522  -3.593  1.00  0.00    -0.012 C 
ATOM      3  C   UNL     1      -8.846 -12.345  -3.047  1.00  0.00    -0.019 C 
ATOM      4  C   UNL     1      -9.813 -11.400  -3.705  1.00  0.00     0.036 C 
ATOM      5  C   UNL     1      -9.818 -11.494  -5.246  1.00  0.00     0.025 C 
ATOM      6  C   UNL     1      -9.870 -12.959  -5.729  1.00  0.00     0.089 C 
ATOM      7  C   UNL     1      -8.933 -13.857  -4.970  1.00  0.00     0.158 C 
ATOM      8  O   UNL     1      -8.545 -14.928  -5.510  1.00  0.00    -0.295 OA
ENDROOT
BRANCH   5   9
ATOM      9  C   UNL     1      -8.691 -10.689  -5.894  1.00  0.00    -0.077 C 
ATOM     10  C   UNL     1      -8.084  -9.668  -5.265  1.00  0.00     0.008 C 
ATOM     11  C   UNL     1      -8.227 -11.037  -7.287  1.00  0.00     0.039 C 
ENDBRANCH   5   9
TORSDOF 1
ENDMDL
MODEL 4
REMARK VINA RESULT:    -3.624     16.735     18.510
REMARK INTER + INTRA:          -4.054
REMARK INTER:                  -3.832
REMARK INTRA:                  -0.222
REMARK UNBOUND:                -0.218
REMARK SMILES C=C(C)[C@@H]1CC=C(C)C(=O)C1
REMARK SMILES IDX 8 1 7 2 6 3 5 4 4 5 11 6 9 7 10 8 2 9 1 10 3 11
REMARK H PARENT
REMARK Flexibility Score: inf
ROOT
ATOM      1  C   UNL     1     -21.104 -11.240  -7.874  1.00  0.00     0.048 C 
ATOM      2  C   UNL     1     -22.541 -11.056  -7.467  1.00  0.00    -0.012 C 
ATOM      3  C   UNL     1     -23.062 -11.826  -6.500  1.00  0.00    -0.019 C 
ATOM      4  C   UNL     1     -24.498 -11.718  -6.066  1.00  0.00     0.036 C 
ATOM      5  C   UNL     1     -25.092 -10.304  -6.243  1.00  0.00     0.025 C 
ATOM      6  C   UNL     1     -24.758  -9.713  -7.629  1.00  0.00     0.089 C 
ATOM      7  C   UNL     1     -23.325  -9.930  -8.026  1.00  0.00     0.158 C 
ATOM      8  O   UNL     1     -22.805  -9.159  -8.877  1.00  0.00    -0.295 OA
ENDROOT
BRANCH   5   9
ATOM      9  C   UNL     1     -24.741  -9.364  -5.089  1.00  0.00    -0.077 C 
ATOM     10  C   UNL     1     -24.634  -8.035  -5.253  1.00  0.00     0.008 C 
ATOM     11  C   UNL     1     -24.503  -9.927  -3.709  1.00  0.00     0.039 C 
ENDBRANCH   5   9
TORSDOF 1
ENDMDL
MODEL 5
REMARK VINA RESULT:    -3.577      6.104      7.538
REMARK INTER + INTRA:          -4.005
REMARK INTER:                  -3.991
REMARK INTRA:                  -0.014
REMARK UNBOUND:                -0.218
REMARK SMILES C=C(C)[C@@H]1CC=C(C)C(=O)C1
REMARK SMILES IDX 8 1 7 2 6 3 5 4 4 5 11 6 9 7 10 8 2 9 1 10 3 11
REMARK H PARENT
REMARK Flexibility Score: inf
ROOT
ATOM      1  C   UNL     1      -7.763 -10.539  -7.951  1.00  0.00     0.048 C 
ATOM      2  C   UNL     1      -8.564 -10.850  -6.716  1.00  0.00    -0.012 C 
ATOM      3  C   UNL     1      -9.536 -11.772  -6.769  1.00  0.00    -0.019 C 
ATOM      4  C   UNL     1     -10.396 -12.109  -5.582  1.00  0.00     0.036 C 
ATOM      5  C   UNL     1      -9.685 -11.908  -4.227  1.00  0.00     0.025 C 
ATOM      6  C   UNL     1      -8.947 -10.554  -4.164  1.00  0.00     0.089 C 
ATOM      7  C   UNL     1      -8.175 -10.251  -5.418  1.00  0.00     0.158 C 
ATOM      8  O   UNL     1      -7.208  -9.445  -5.358  1.00  0.00    -0.295 OA
ENDROOT
BRANCH   5   9
ATOM      9  C   UNL     1      -8.798 -13.092  -3.839  1.00  0.00    -0.077 C 
ATOM     10  C   UNL     1      -8.213 -13.187  -2.633  1.00  0.00     0.008 C 
ATOM     11  C   UNL     1      -8.559 -14.205  -4.830  1.00  0.00     0.039 C 
ENDBRANCH   5   9
TORSDOF 1
ENDMDL
MODEL 6
REMARK VINA RESULT:    -3.564      5.772      7.517
REMARK INTER + INTRA:          -3.991
REMARK INTER:                  -3.780
REMARK INTRA:                  -0.211
REMARK UNBOUND:                -0.218
REMARK SMILES C=C(C)[C@@H]1CC=C(C)C(=O)C1
REMARK SMILES IDX 8 1 7 2 6 3 5 4 4 5 11 6 9 7 10 8 2 9 1 10 3 11
REMARK H PARENT
REMARK Flexibility Score: inf
ROOT
ATOM      1  C   UNL     1     -11.409 -14.280  -7.132  1.00  0.00     0.048 C 
ATOM      2  C   UNL     1     -10.247 -13.498  -6.580  1.00  0.00    -0.012 C 
ATOM      3  C   UNL     1     -10.363 -12.174  -6.401  1.00  0.00    -0.019 C 
ATOM      4  C   UNL     1      -9.233 -11.327  -5.885  1.00  0.00     0.036 C 
ATOM      5  C   UNL     1      -8.269 -12.087  -4.948  1.00  0.00     0.025 C 
ATOM      6  C   UNL     1      -7.873 -13.461  -5.529  1.00  0.00     0.089 C 
ATOM      7  C   UNL     1      -9.044 -14.213  -6.097  1.00  0.00     0.158 C 
ATOM      8  O   UNL     1      -8.972 -15.468  -6.194  1.00  0.00    -0.295 OA
ENDROOT
BRANCH   5   9
ATOM      9  C   UNL     1      -8.780 -12.168  -3.509  1.00  0.00    -0.077 C 
ATOM     10  C   UNL     1      -9.642 -11.271  -3.001  1.00  0.00     0.008 C 
ATOM     11  C   UNL     1      -8.315 -13.288  -2.611  1.00  0.00     0.039 C 
ENDBRANCH   5   9
TORSDOF 1
ENDMDL
MODEL 7
REMARK VINA RESULT:    -3.499      1.541      3.131
REMARK INTER + INTRA:          -3.922
REMARK INTER:                  -3.705
REMARK INTRA:                  -0.217
REMARK UNBOUND:                -0.218
REMARK SMILES C=C(C)[C@@H]1CC=C(C)C(=O)C1
REMARK SMILES IDX 8 1 7 2 6 3 5 4 4 5 11 6 9 7 10 8 2 9 1 10 3 11
REMARK H PARENT
REMARK Flexibility Score: inf
ROOT
ATOM      1  C   UNL     1      -8.112 -15.764  -2.540  1.00  0.00     0.048 C 
ATOM      2  C   UNL     1      -8.457 -15.855  -1.078  1.00  0.00    -0.012 C 
ATOM      3  C   UNL     1      -9.568 -16.505  -0.697  1.00  0.00    -0.019 C 
ATOM      4  C   UNL     1      -9.990 -16.606   0.743  1.00  0.00     0.036 C 
ATOM      5  C   UNL     1      -8.809 -16.580   1.737  1.00  0.00     0.025 C 
ATOM      6  C   UNL     1      -7.807 -15.453   1.404  1.00  0.00     0.089 C 
ATOM      7  C   UNL     1      -7.497 -15.364  -0.064  1.00  0.00     0.158 C 
ATOM      8  O   UNL     1      -6.416 -14.826  -0.426  1.00  0.00    -0.295 OA
ENDROOT
BRANCH   5   9
ATOM      9  C   UNL     1      -8.141 -17.945   1.903  1.00  0.00    -0.077 C 
ATOM     10  C   UNL     1      -8.825 -19.097   1.794  1.00  0.00     0.008 C 
ATOM     11  C   UNL     1      -6.663 -18.026   2.198  1.00  0.00     0.039 C 
ENDBRANCH   5   9
TORSDOF 1
ENDMDL
MODEL 8
REMARK VINA RESULT:    -3.455      1.893      4.102
REMARK INTER + INTRA:          -3.875
REMARK INTER:                  -3.656
REMARK INTRA:                  -0.219
REMARK UNBOUND:                -0.218
REMARK SMILES C=C(C)[C@@H]1CC=C(C)C(=O)C1
REMARK SMILES IDX 8 1 7 2 6 3 5 4 4 5 11 6 9 7 10 8 2 9 1 10 3 11
REMARK H PARENT
REMARK Flexibility Score: inf
ROOT
ATOM      1  C   UNL     1     -10.760 -16.434  -0.027  1.00  0.00     0.048 C 
ATOM      2  C   UNL     1      -9.255 -16.448   0.005  1.00  0.00    -0.012 C 
ATOM      3  C   UNL     1      -8.564 -15.969  -1.040  1.00  0.00    -0.019 C 
ATOM      4  C   UNL     1      -7.061 -15.982  -1.089  1.00  0.00     0.036 C 
ATOM      5  C   UNL     1      -6.397 -15.889   0.301  1.00  0.00     0.025 C 
ATOM      6  C   UNL     1      -7.049 -16.857   1.311  1.00  0.00     0.089 C 
ATOM      7  C   UNL     1      -8.550 -16.846   1.245  1.00  0.00     0.158 C 
ATOM      8  O   UNL     1      -9.208 -17.220   2.253  1.00  0.00    -0.295 OA
ENDROOT
BRANCH   5   9
ATOM      9  C   UNL     1      -6.304 -14.454   0.821  1.00  0.00    -0.077 C 
ATOM     10  C   UNL     1      -6.184 -13.399  -0.003  1.00  0.00     0.008 C 
ATOM     11  C   UNL     1      -6.347 -14.190   2.306  1.00  0.00     0.039 C 
ENDBRANCH   5   9
TORSDOF 1
ENDMDL
MODEL 9
REMARK VINA RESULT:    -3.452     16.316     17.722
REMARK INTER + INTRA:          -3.873
REMARK INTER:                  -3.656
REMARK INTRA:                  -0.217
REMARK UNBOUND:                -0.218
REMARK SMILES C=C(C)[C@@H]1CC=C(C)C(=O)C1
REMARK SMILES IDX 8 1 7 2 6 3 5 4 4 5 11 6 9 7 10 8 2 9 1 10 3 11
REMARK H PARENT
REMARK Flexibility Score: inf
ROOT
ATOM      1  C   UNL     1     -20.050 -11.989 -10.114  1.00  0.00     0.048 C 
ATOM      2  C   UNL     1     -20.959 -11.644  -8.966  1.00  0.00    -0.012 C 
ATOM      3  C   UNL     1     -21.613 -10.472  -8.964  1.00  0.00    -0.019 C 
ATOM      4  C   UNL     1     -22.512 -10.050  -7.835  1.00  0.00     0.036 C 
ATOM      5  C   UNL     1     -23.177 -11.233  -7.099  1.00  0.00     0.025 C 
ATOM      6  C   UNL     1     -22.160 -12.347  -6.773  1.00  0.00     0.089 C 
ATOM      7  C   UNL     1     -21.246 -12.658  -7.925  1.00  0.00     0.158 C 
ATOM      8  O   UNL     1     -20.690 -13.788  -7.974  1.00  0.00    -0.295 OA
ENDROOT
BRANCH   5   9
ATOM      9  C   UNL     1     -24.426 -11.750  -7.813  1.00  0.00    -0.077 C 
ATOM     10  C   UNL     1     -25.183 -10.963  -8.596  1.00  0.00     0.008 C 
ATOM     11  C   UNL     1     -24.839 -13.192  -7.649  1.00  0.00     0.039 C 
ENDBRANCH   5   9
TORSDOF 1
ENDMDL
