MODEL 1
REMARK VINA RESULT:    -2.468      0.000      0.000
REMARK INTER + INTRA:          -3.474
REMARK INTER:                  -2.973
REMARK INTRA:                  -0.502
REMARK UNBOUND:                -0.502
REMARK SMILES NC(=O)C[C@H]([NH3+])C(=O)[O-]
REMARK SMILES IDX 4 1 5 2 6 3 7 7 8 8 9 9 2 10 3 11 1 12
REMARK H PARENT 6 4 6 5 6 6 1 13 1 14
REMARK Flexibility Score: inf
ROOT
ATOM      1  C   UNL     1      18.566 -11.087   0.487  1.00  0.00     0.171 C 
ENDROOT
BRANCH   1   2
ATOM      2  C   UNL     1      19.215 -11.397   1.851  1.00  0.00     0.237 C 
BRANCH   2   3
ATOM      3  N   UNL     1      18.427 -10.807   2.939  1.00  0.00    -0.350 N 
ATOM      4  H   UNL     1      18.879 -11.015   3.859  1.00  0.00     0.345 HD
ATOM      5  H   UNL     1      17.467 -11.220   2.947  1.00  0.00     0.345 HD
ATOM      6  H   UNL     1      18.351  -9.770   2.820  1.00  0.00     0.345 HD
ENDBRANCH   2   3
BRANCH   2   7
ATOM      7  C   UNL     1      20.632 -10.884   1.901  1.00  0.00     0.100 C 
ATOM      8  O   UNL     1      21.573 -11.658   2.216  1.00  0.00    -0.544 OA
ATOM      9  O   UNL     1      20.909  -9.560   1.585  1.00  0.00    -0.544 OA
ENDBRANCH   2   7
ENDBRANCH   1   2
BRANCH   1  10
ATOM     10  C   UNL     1      17.680  -9.876   0.557  1.00  0.00     0.223 C 
ATOM     11  O   UNL     1      16.468 -10.005   0.879  1.00  0.00    -0.275 OA
ATOM     12  N   UNL     1      18.191  -8.585   0.226  1.00  0.00    -0.369 N 
ATOM     13  H   UNL     1      19.186  -8.463  -0.061  1.00  0.00     0.159 HD
ATOM     14  H   UNL     1      17.568  -7.748   0.262  1.00  0.00     0.159 HD
ENDBRANCH   1  10
TORSDOF 4
ENDMDL
MODEL 2
REMARK VINA RESULT:    -2.460      4.531      4.999
REMARK INTER + INTRA:          -3.465
REMARK INTER:                  -2.993
REMARK INTRA:                  -0.472
REMARK UNBOUND:                -0.502
REMARK SMILES NC(=O)C[C@H]([NH3+])C(=O)[O-]
REMARK SMILES IDX 4 1 5 2 6 3 7 7 8 8 9 9 2 10 3 11 1 12
REMARK H PARENT 6 4 6 5 6 6 1 13 1 14
REMARK Flexibility Score: inf
ROOT
ATOM      1  C   UNL     1      18.527  -5.819   3.687  1.00  0.00     0.171 C 
ENDROOT
BRANCH   1   2
ATOM      2  C   UNL     1      19.726  -6.779   3.827  1.00  0.00     0.237 C 
BRANCH   2   3
ATOM      3  N   UNL     1      20.988  -6.035   3.762  1.00  0.00    -0.350 N 
ATOM      4  H   UNL     1      20.816  -5.074   3.385  1.00  0.00     0.345 HD
ATOM      5  H   UNL     1      21.655  -6.522   3.119  1.00  0.00     0.345 HD
ATOM      6  H   UNL     1      21.423  -5.959   4.710  1.00  0.00     0.345 HD
ENDBRANCH   2   3
BRANCH   2   7
ATOM      7  C   UNL     1      19.694  -7.839   2.756  1.00  0.00     0.100 C 
ATOM      8  O   UNL     1      20.691  -8.587   2.577  1.00  0.00    -0.544 OA
ATOM      9  O   UNL     1      18.561  -8.008   1.970  1.00  0.00    -0.544 OA
ENDBRANCH   2   7
ENDBRANCH   1   2
BRANCH   1  10
ATOM     10  C   UNL     1      18.823  -4.700   2.729  1.00  0.00     0.223 C 
ATOM     11  O   UNL     1      19.278  -3.609   3.164  1.00  0.00    -0.275 OA
ATOM     12  N   UNL     1      18.557  -4.850   1.334  1.00  0.00    -0.369 N 
ATOM     13  H   UNL     1      18.163  -5.741   0.960  1.00  0.00     0.159 HD
ATOM     14  H   UNL     1      18.751  -4.065   0.675  1.00  0.00     0.159 HD
ENDBRANCH   1  10
TORSDOF 4
ENDMDL
MODEL 3
REMARK VINA RESULT:    -2.434      2.620      3.156
REMARK INTER + INTRA:          -3.434
REMARK INTER:                  -3.177
REMARK INTRA:                  -0.257
REMARK UNBOUND:                -0.502
REMARK SMILES NC(=O)C[C@H]([NH3+])C(=O)[O-]
REMARK SMILES IDX 4 1 5 2 6 3 7 7 8 8 9 9 2 10 3 11 1 12
REMARK H PARENT 6 4 6 5 6 6 1 13 1 14
REMARK Flexibility Score: inf
ROOT
ATOM      1  C   UNL     1      19.729  -8.958   3.043  1.00  0.00     0.171 C 
ENDROOT
BRANCH   1   2
ATOM      2  C   UNL     1      20.162  -9.616   1.718  1.00  0.00     0.237 C 
BRANCH   2   3
ATOM      3  N   UNL     1      19.163  -9.367   0.672  1.00  0.00    -0.350 N 
ATOM      4  H   UNL     1      18.323  -8.901   1.086  1.00  0.00     0.345 HD
ATOM      5  H   UNL     1      18.858 -10.274   0.250  1.00  0.00     0.345 HD
ATOM      6  H   UNL     1      19.559  -8.757  -0.080  1.00  0.00     0.345 HD
ENDBRANCH   2   3
BRANCH   2   7
ATOM      7  C   UNL     1      20.366 -11.099   1.895  1.00  0.00     0.100 C 
ATOM      8  O   UNL     1      19.389 -11.888   1.806  1.00  0.00    -0.544 OA
ATOM      9  O   UNL     1      21.636 -11.606   2.144  1.00  0.00    -0.544 OA
ENDBRANCH   2   7
ENDBRANCH   1   2
BRANCH   1  10
ATOM     10  C   UNL     1      19.774  -7.459   2.957  1.00  0.00     0.223 C 
ATOM     11  O   UNL     1      18.841  -6.837   2.383  1.00  0.00    -0.275 OA
ATOM     12  N   UNL     1      20.886  -6.736   3.488  1.00  0.00    -0.369 N 
ATOM     13  H   UNL     1      21.676  -7.236   3.949  1.00  0.00     0.159 HD
ATOM     14  H   UNL     1      20.920  -5.695   3.412  1.00  0.00     0.159 HD
ENDBRANCH   1  10
TORSDOF 4
ENDMDL
MODEL 4
REMARK VINA RESULT:    -2.432      6.371      7.295
REMARK INTER + INTRA:          -3.431
REMARK INTER:                  -3.144
REMARK INTRA:                  -0.287
REMARK UNBOUND:                -0.502
REMARK SMILES NC(=O)C[C@H]([NH3+])C(=O)[O-]
REMARK SMILES IDX 4 1 5 2 6 3 7 7 8 8 9 9 2 10 3 11 1 12
REMARK H PARENT 6 4 6 5 6 6 1 13 1 14
REMARK Flexibility Score: inf
ROOT
ATOM      1  C   UNL     1      19.316  -4.701   4.070  1.00  0.00     0.171 C 
ENDROOT
BRANCH   1   2
ATOM      2  C   UNL     1      18.421  -4.104   2.965  1.00  0.00     0.237 C 
BRANCH   2   3
ATOM      3  N   UNL     1      18.927  -4.473   1.639  1.00  0.00    -0.350 N 
ATOM      4  H   UNL     1      19.374  -5.419   1.680  1.00  0.00     0.345 HD
ATOM      5  H   UNL     1      19.651  -3.784   1.331  1.00  0.00     0.345 HD
ATOM      6  H   UNL     1      18.151  -4.489   0.938  1.00  0.00     0.345 HD
ENDBRANCH   2   3
BRANCH   2   7
ATOM      7  C   UNL     1      18.343  -2.603   3.090  1.00  0.00     0.100 C 
ATOM      8  O   UNL     1      18.779  -2.030   4.123  1.00  0.00    -0.544 OA
ATOM      9  O   UNL     1      17.802  -1.842   2.060  1.00  0.00    -0.544 OA
ENDBRANCH   2   7
ENDBRANCH   1   2
BRANCH   1  10
ATOM     10  C   UNL     1      19.886  -6.029   3.661  1.00  0.00     0.223 C 
ATOM     11  O   UNL     1      19.120  -6.934   3.233  1.00  0.00    -0.275 OA
ATOM     12  N   UNL     1      21.284  -6.288   3.789  1.00  0.00    -0.369 N 
ATOM     13  H   UNL     1      21.930  -5.557   4.160  1.00  0.00     0.159 HD
ATOM     14  H   UNL     1      21.674  -7.218   3.518  1.00  0.00     0.159 HD
ENDBRANCH   1  10
TORSDOF 4
ENDMDL
MODEL 5
REMARK VINA RESULT:    -2.411      2.978      3.602
REMARK INTER + INTRA:          -3.406
REMARK INTER:                  -2.965
REMARK INTRA:                  -0.442
REMARK UNBOUND:                -0.502
REMARK SMILES NC(=O)C[C@H]([NH3+])C(=O)[O-]
REMARK SMILES IDX 4 1 5 2 6 3 7 7 8 8 9 9 2 10 3 11 1 12
REMARK H PARENT 6 4 6 5 6 6 1 13 1 14
REMARK Flexibility Score: inf
ROOT
ATOM      1  C   UNL     1      17.843  -7.848   2.622  1.00  0.00     0.171 C 
ENDROOT
BRANCH   1   2
ATOM      2  C   UNL     1      18.949  -6.957   3.223  1.00  0.00     0.237 C 
BRANCH   2   3
ATOM      3  N   UNL     1      19.092  -5.722   2.444  1.00  0.00    -0.350 N 
ATOM      4  H   UNL     1      18.754  -5.878   1.466  1.00  0.00     0.345 HD
ATOM      5  H   UNL     1      20.099  -5.445   2.400  1.00  0.00     0.345 HD
ATOM      6  H   UNL     1      18.543  -4.945   2.878  1.00  0.00     0.345 HD
ENDBRANCH   2   3
BRANCH   2   7
ATOM      7  C   UNL     1      20.264  -7.692   3.274  1.00  0.00     0.100 C 
ATOM      8  O   UNL     1      21.332  -7.063   3.494  1.00  0.00    -0.544 OA
ATOM      9  O   UNL     1      20.304  -9.069   3.093  1.00  0.00    -0.544 OA
ENDBRANCH   2   7
ENDBRANCH   1   2
BRANCH   1  10
ATOM     10  C   UNL     1      17.921  -7.891   1.123  1.00  0.00     0.223 C 
ATOM     11  O   UNL     1      17.426  -6.952   0.444  1.00  0.00    -0.275 OA
ATOM     12  N   UNL     1      18.517  -9.006   0.459  1.00  0.00    -0.369 N 
ATOM     13  H   UNL     1      18.914  -9.801   1.005  1.00  0.00     0.159 HD
ATOM     14  H   UNL     1      18.555  -9.038  -0.584  1.00  0.00     0.159 HD
ENDBRANCH   1  10
TORSDOF 4
ENDMDL
MODEL 6
REMARK VINA RESULT:    -2.411      8.421      9.267
REMARK INTER + INTRA:          -3.406
REMARK INTER:                  -3.140
REMARK INTRA:                  -0.265
REMARK UNBOUND:                -0.502
REMARK SMILES NC(=O)C[C@H]([NH3+])C(=O)[O-]
REMARK SMILES IDX 4 1 5 2 6 3 7 7 8 8 9 9 2 10 3 11 1 12
REMARK H PARENT 6 4 6 5 6 6 1 13 1 14
REMARK Flexibility Score: inf
ROOT
ATOM      1  C   UNL     1      16.917  -1.242   1.262  1.00  0.00     0.171 C 
ENDROOT
BRANCH   1   2
ATOM      2  C   UNL     1      17.491  -1.996   2.479  1.00  0.00     0.237 C 
BRANCH   2   3
ATOM      3  N   UNL     1      18.495  -1.174   3.165  1.00  0.00    -0.350 N 
ATOM      4  H   UNL     1      18.996  -1.749   3.881  1.00  0.00     0.345 HD
ATOM      5  H   UNL     1      18.027  -0.378   3.655  1.00  0.00     0.345 HD
ATOM      6  H   UNL     1      19.190  -0.793   2.482  1.00  0.00     0.345 HD
ENDBRANCH   2   3
BRANCH   2   7
ATOM      7  C   UNL     1      18.097  -3.311   2.060  1.00  0.00     0.100 C 
ATOM      8  O   UNL     1      19.164  -3.714   2.593  1.00  0.00    -0.544 OA
ATOM      9  O   UNL     1      17.476  -4.092   1.093  1.00  0.00    -0.544 OA
ENDBRANCH   2   7
ENDBRANCH   1   2
BRANCH   1  10
ATOM     10  C   UNL     1      17.221   0.228   1.329  1.00  0.00     0.223 C 
ATOM     11  O   UNL     1      16.735   0.926   2.258  1.00  0.00    -0.275 OA
ATOM     12  N   UNL     1      18.027   0.847   0.325  1.00  0.00    -0.369 N 
ATOM     13  H   UNL     1      18.422   0.288  -0.462  1.00  0.00     0.159 HD
ATOM     14  H   UNL     1      18.223   1.872   0.367  1.00  0.00     0.159 HD
ENDBRANCH   1  10
TORSDOF 4
ENDMDL
MODEL 7
REMARK VINA RESULT:    -2.383      4.452      5.517
REMARK INTER + INTRA:          -3.373
REMARK INTER:                  -2.959
REMARK INTRA:                  -0.413
REMARK UNBOUND:                -0.502
REMARK SMILES NC(=O)C[C@H]([NH3+])C(=O)[O-]
REMARK SMILES IDX 4 1 5 2 6 3 7 7 8 8 9 9 2 10 3 11 1 12
REMARK H PARENT 6 4 6 5 6 6 1 13 1 14
REMARK Flexibility Score: inf
ROOT
ATOM      1  C   UNL     1      19.019  -6.956   3.906  1.00  0.00     0.171 C 
ENDROOT
BRANCH   1   2
ATOM      2  C   UNL     1      18.105  -6.482   2.757  1.00  0.00     0.237 C 
BRANCH   2   3
ATOM      3  N   UNL     1      18.116  -7.455   1.659  1.00  0.00    -0.350 N 
ATOM      4  H   UNL     1      18.834  -7.181   0.949  1.00  0.00     0.345 HD
ATOM      5  H   UNL     1      17.182  -7.470   1.189  1.00  0.00     0.345 HD
ATOM      6  H   UNL     1      18.333  -8.414   2.016  1.00  0.00     0.345 HD
ENDBRANCH   2   3
BRANCH   2   7
ATOM      7  C   UNL     1      18.533  -5.127   2.253  1.00  0.00     0.100 C 
ATOM      8  O   UNL     1      18.317  -4.800   1.057  1.00  0.00    -0.544 OA
ATOM      9  O   UNL     1      19.157  -4.227   3.108  1.00  0.00    -0.544 OA
ENDBRANCH   2   7
ENDBRANCH   1   2
BRANCH   1  10
ATOM     10  C   UNL     1      20.417  -7.223   3.426  1.00  0.00     0.223 C 
ATOM     11  O   UNL     1      20.658  -8.253   2.741  1.00  0.00    -0.275 OA
ATOM     12  N   UNL     1      21.483  -6.338   3.772  1.00  0.00    -0.369 N 
ATOM     13  H   UNL     1      21.305  -5.491   4.354  1.00  0.00     0.159 HD
ATOM     14  H   UNL     1      22.456  -6.536   3.449  1.00  0.00     0.159 HD
ENDBRANCH   1  10
TORSDOF 4
ENDMDL
MODEL 8
REMARK VINA RESULT:    -2.348      1.833      2.229
REMARK INTER + INTRA:          -3.330
REMARK INTER:                  -3.054
REMARK INTRA:                  -0.276
REMARK UNBOUND:                -0.502
REMARK SMILES NC(=O)C[C@H]([NH3+])C(=O)[O-]
REMARK SMILES IDX 4 1 5 2 6 3 7 7 8 8 9 9 2 10 3 11 1 12
REMARK H PARENT 6 4 6 5 6 6 1 13 1 14
REMARK Flexibility Score: inf
ROOT
ATOM      1  C   UNL     1      18.753 -11.752   1.032  1.00  0.00     0.171 C 
ENDROOT
BRANCH   1   2
ATOM      2  C   UNL     1      18.887 -10.274   1.451  1.00  0.00     0.237 C 
BRANCH   2   3
ATOM      3  N   UNL     1      18.504  -9.391   0.343  1.00  0.00    -0.350 N 
ATOM      4  H   UNL     1      18.055  -9.950  -0.418  1.00  0.00     0.345 HD
ATOM      5  H   UNL     1      19.354  -8.927  -0.051  1.00  0.00     0.345 HD
ATOM      6  H   UNL     1      17.835  -8.656   0.670  1.00  0.00     0.345 HD
ENDBRANCH   2   3
BRANCH   2   7
ATOM      7  C   UNL     1      20.294  -9.966   1.895  1.00  0.00     0.100 C 
ATOM      8  O   UNL     1      21.179 -10.861   1.859  1.00  0.00    -0.544 OA
ATOM      9  O   UNL     1      20.627  -8.690   2.334  1.00  0.00    -0.544 OA
ENDBRANCH   2   7
ENDBRANCH   1   2
BRANCH   1  10
ATOM     10  C   UNL     1      17.620 -11.953   0.067  1.00  0.00     0.223 C 
ATOM     11  O   UNL     1      17.854 -12.014  -1.170  1.00  0.00    -0.275 OA
ATOM     12  N   UNL     1      16.274 -12.039   0.537  1.00  0.00    -0.369 N 
ATOM     13  H   UNL     1      16.060 -11.972   1.556  1.00  0.00     0.159 HD
ATOM     14  H   UNL     1      15.488 -12.164  -0.139  1.00  0.00     0.159 HD
ENDBRANCH   1  10
TORSDOF 4
ENDMDL
MODEL 9
REMARK VINA RESULT:    -2.319      2.234      2.622
REMARK INTER + INTRA:          -3.295
REMARK INTER:                  -2.799
REMARK INTRA:                  -0.495
REMARK UNBOUND:                -0.502
REMARK SMILES NC(=O)C[C@H]([NH3+])C(=O)[O-]
REMARK SMILES IDX 4 1 5 2 6 3 7 7 8 8 9 9 2 10 3 11 1 12
REMARK H PARENT 6 4 6 5 6 6 1 13 1 14
REMARK Flexibility Score: inf
ROOT
ATOM      1  C   UNL     1      19.982  -9.714   1.490  1.00  0.00     0.171 C 
ENDROOT
BRANCH   1   2
ATOM      2  C   UNL     1      19.827  -9.193   2.933  1.00  0.00     0.237 C 
BRANCH   2   3
ATOM      3  N   UNL     1      18.488  -9.500   3.448  1.00  0.00    -0.350 N 
ATOM      4  H   UNL     1      17.777  -8.899   2.971  1.00  0.00     0.345 HD
ATOM      5  H   UNL     1      18.448  -9.302   4.474  1.00  0.00     0.345 HD
ATOM      6  H   UNL     1      18.251 -10.507   3.286  1.00  0.00     0.345 HD
ENDBRANCH   2   3
BRANCH   2   7
ATOM      7  C   UNL     1      20.079  -7.708   2.999  1.00  0.00     0.100 C 
ATOM      8  O   UNL     1      21.187  -7.272   3.407  1.00  0.00    -0.544 OA
ATOM      9  O   UNL     1      19.095  -6.813   2.598  1.00  0.00    -0.544 OA
ENDBRANCH   2   7
ENDBRANCH   1   2
BRANCH   1  10
ATOM     10  C   UNL     1      18.659  -9.792   0.785  1.00  0.00     0.223 C 
ATOM     11  O   UNL     1      18.048 -10.893   0.720  1.00  0.00    -0.275 OA
ATOM     12  N   UNL     1      18.104  -8.637   0.155  1.00  0.00    -0.369 N 
ATOM     13  H   UNL     1      18.604  -7.722   0.183  1.00  0.00     0.159 HD
ATOM     14  H   UNL     1      17.190  -8.700  -0.347  1.00  0.00     0.159 HD
ENDBRANCH   1  10
TORSDOF 4
ENDMDL
