MODEL 1
REMARK VINA RESULT:    -3.528      0.000      0.000
REMARK INTER + INTRA:          -4.172
REMARK INTER:                  -4.146
REMARK INTRA:                  -0.026
REMARK UNBOUND:                -0.026
REMARK SMILES O=C([O-])CCC(=O)[O-]
REMARK SMILES IDX 4 1 2 2 1 3 3 4 5 5 6 6 7 7 8 8
REMARK H PARENT
REMARK Flexibility Score: inf
ROOT
ATOM      1  C   UNL     1     -23.709  -5.887  14.751  1.00  0.00     0.059 C 
ENDROOT
BRANCH   1   2
ATOM      2  C   UNL     1     -24.691  -6.613  13.889  1.00  0.00     0.042 C 
ATOM      3  O   UNL     1     -24.794  -6.327  12.666  1.00  0.00    -0.550 OA
ATOM      4  O   UNL     1     -25.529  -7.572  14.444  1.00  0.00    -0.550 OA
ENDBRANCH   1   2
BRANCH   1   5
ATOM      5  C   UNL     1     -24.419  -4.831  15.599  1.00  0.00     0.059 C 
BRANCH   5   6
ATOM      6  C   UNL     1     -23.433  -3.848  16.146  1.00  0.00     0.042 C 
ATOM      7  O   UNL     1     -22.824  -4.091  17.220  1.00  0.00    -0.550 OA
ATOM      8  O   UNL     1     -23.223  -2.638  15.494  1.00  0.00    -0.550 OA
ENDBRANCH   5   6
ENDBRANCH   1   5
TORSDOF 3
ENDMDL
MODEL 2
REMARK VINA RESULT:    -3.526      0.081      4.260
REMARK INTER + INTRA:          -4.171
REMARK INTER:                  -4.144
REMARK INTRA:                  -0.026
REMARK UNBOUND:                -0.026
REMARK SMILES O=C([O-])CCC(=O)[O-]
REMARK SMILES IDX 4 1 2 2 1 3 3 4 5 5 6 6 7 7 8 8
REMARK H PARENT
REMARK Flexibility Score: inf
ROOT
ATOM      1  C   UNL     1     -24.434  -4.857  15.635  1.00  0.00     0.059 C 
ENDROOT
BRANCH   1   2
ATOM      2  C   UNL     1     -23.447  -3.872  16.174  1.00  0.00     0.042 C 
ATOM      3  O   UNL     1     -22.829  -4.116  17.244  1.00  0.00    -0.550 OA
ATOM      4  O   UNL     1     -23.244  -2.662  15.522  1.00  0.00    -0.550 OA
ENDBRANCH   1   2
BRANCH   1   5
ATOM      5  C   UNL     1     -23.740  -5.862  14.714  1.00  0.00     0.059 C 
BRANCH   5   6
ATOM      6  C   UNL     1     -24.746  -6.595  13.885  1.00  0.00     0.042 C 
ATOM      7  O   UNL     1     -25.498  -7.455  14.414  1.00  0.00    -0.550 OA
ATOM      8  O   UNL     1     -24.820  -6.364  12.517  1.00  0.00    -0.550 OA
ENDBRANCH   5   6
ENDBRANCH   1   5
TORSDOF 3
ENDMDL
MODEL 3
REMARK VINA RESULT:    -3.497      1.156      3.970
REMARK INTER + INTRA:          -4.136
REMARK INTER:                  -4.045
REMARK INTRA:                  -0.091
REMARK UNBOUND:                -0.026
REMARK SMILES O=C([O-])CCC(=O)[O-]
REMARK SMILES IDX 4 1 2 2 1 3 3 4 5 5 6 6 7 7 8 8
REMARK H PARENT
REMARK Flexibility Score: inf
ROOT
ATOM      1  C   UNL     1     -22.923  -5.682  15.459  1.00  0.00     0.059 C 
ENDROOT
BRANCH   1   2
ATOM      2  C   UNL     1     -23.081  -4.385  16.186  1.00  0.00     0.042 C 
ATOM      3  O   UNL     1     -22.811  -4.310  17.414  1.00  0.00    -0.550 OA
ATOM      4  O   UNL     1     -23.572  -3.269  15.520  1.00  0.00    -0.550 OA
ENDBRANCH   1   2
BRANCH   1   5
ATOM      5  C   UNL     1     -23.950  -5.793  14.331  1.00  0.00     0.059 C 
BRANCH   5   6
ATOM      6  C   UNL     1     -25.215  -6.411  14.834  1.00  0.00     0.042 C 
ATOM      7  O   UNL     1     -25.466  -7.622  14.598  1.00  0.00    -0.550 OA
ATOM      8  O   UNL     1     -26.142  -5.637  15.521  1.00  0.00    -0.550 OA
ENDBRANCH   5   6
ENDBRANCH   1   5
TORSDOF 3
ENDMDL
MODEL 4
REMARK VINA RESULT:    -3.488      1.144      1.420
REMARK INTER + INTRA:          -4.126
REMARK INTER:                  -4.022
REMARK INTRA:                  -0.104
REMARK UNBOUND:                -0.026
REMARK SMILES O=C([O-])CCC(=O)[O-]
REMARK SMILES IDX 4 1 2 2 1 3 3 4 5 5 6 6 7 7 8 8
REMARK H PARENT
REMARK Flexibility Score: inf
ROOT
ATOM      1  C   UNL     1     -24.002  -5.770  14.331  1.00  0.00     0.059 C 
ENDROOT
BRANCH   1   2
ATOM      2  C   UNL     1     -25.253  -6.430  14.817  1.00  0.00     0.042 C 
ATOM      3  O   UNL     1     -25.487  -7.634  14.528  1.00  0.00    -0.550 OA
ATOM      4  O   UNL     1     -26.186  -5.704  15.546  1.00  0.00    -0.550 OA
ENDBRANCH   1   2
BRANCH   1   5
ATOM      5  C   UNL     1     -22.969  -5.688  15.456  1.00  0.00     0.059 C 
BRANCH   5   6
ATOM      6  C   UNL     1     -23.082  -4.383  16.177  1.00  0.00     0.042 C 
ATOM      7  O   UNL     1     -22.783  -4.305  17.398  1.00  0.00    -0.550 OA
ATOM      8  O   UNL     1     -23.563  -3.261  15.514  1.00  0.00    -0.550 OA
ENDBRANCH   5   6
ENDBRANCH   1   5
TORSDOF 3
ENDMDL
MODEL 5
REMARK VINA RESULT:    -3.477      1.305      1.603
REMARK INTER + INTRA:          -4.113
REMARK INTER:                  -4.007
REMARK INTRA:                  -0.106
REMARK UNBOUND:                -0.026
REMARK SMILES O=C([O-])CCC(=O)[O-]
REMARK SMILES IDX 4 1 2 2 1 3 3 4 5 5 6 6 7 7 8 8
REMARK H PARENT
REMARK Flexibility Score: inf
ROOT
ATOM      1  C   UNL     1     -23.770  -6.052  14.220  1.00  0.00     0.059 C 
ENDROOT
BRANCH   1   2
ATOM      2  C   UNL     1     -24.388  -7.349  14.636  1.00  0.00     0.042 C 
ATOM      3  O   UNL     1     -25.642  -7.468  14.678  1.00  0.00    -0.550 OA
ATOM      4  O   UNL     1     -23.583  -8.412  15.024  1.00  0.00    -0.550 OA
ENDBRANCH   1   2
BRANCH   1   5
ATOM      5  C   UNL     1     -23.114  -5.364  15.418  1.00  0.00     0.059 C 
BRANCH   5   6
ATOM      6  C   UNL     1     -23.893  -4.150  15.816  1.00  0.00     0.042 C 
ATOM      7  O   UNL     1     -25.026  -4.272  16.353  1.00  0.00    -0.550 OA
ATOM      8  O   UNL     1     -23.390  -2.883  15.549  1.00  0.00    -0.550 OA
ENDBRANCH   5   6
ENDBRANCH   1   5
TORSDOF 3
ENDMDL
MODEL 6
REMARK VINA RESULT:    -3.460      1.152      4.159
REMARK INTER + INTRA:          -4.093
REMARK INTER:                  -4.039
REMARK INTRA:                  -0.054
REMARK UNBOUND:                -0.026
REMARK SMILES O=C([O-])CCC(=O)[O-]
REMARK SMILES IDX 4 1 2 2 1 3 3 4 5 5 6 6 7 7 8 8
REMARK H PARENT
REMARK Flexibility Score: inf
ROOT
ATOM      1  C   UNL     1     -22.686  -5.591  15.487  1.00  0.00     0.059 C 
ENDROOT
BRANCH   1   2
ATOM      2  C   UNL     1     -23.119  -4.406  16.289  1.00  0.00     0.042 C 
ATOM      3  O   UNL     1     -23.776  -3.479  15.745  1.00  0.00    -0.550 OA
ATOM      4  O   UNL     1     -22.758  -4.301  17.626  1.00  0.00    -0.550 OA
ENDBRANCH   1   2
BRANCH   1   5
ATOM      5  C   UNL     1     -23.715  -5.909  14.402  1.00  0.00     0.059 C 
BRANCH   5   6
ATOM      6  C   UNL     1     -24.306  -7.265  14.622  1.00  0.00     0.042 C 
ATOM      7  O   UNL     1     -25.551  -7.436  14.535  1.00  0.00    -0.550 OA
ATOM      8  O   UNL     1     -23.488  -8.332  14.973  1.00  0.00    -0.550 OA
ENDBRANCH   5   6
ENDBRANCH   1   5
TORSDOF 3
ENDMDL
MODEL 7
REMARK VINA RESULT:    -3.305      2.401      3.188
REMARK INTER + INTRA:          -3.911
REMARK INTER:                  -3.825
REMARK INTRA:                  -0.087
REMARK UNBOUND:                -0.026
REMARK SMILES O=C([O-])CCC(=O)[O-]
REMARK SMILES IDX 4 1 2 2 1 3 3 4 5 5 6 6 7 7 8 8
REMARK H PARENT
REMARK Flexibility Score: inf
ROOT
ATOM      1  C   UNL     1     -23.803  -5.916  14.338  1.00  0.00     0.059 C 
ENDROOT
BRANCH   1   2
ATOM      2  C   UNL     1     -22.717  -6.572  15.130  1.00  0.00     0.042 C 
ATOM      3  O   UNL     1     -22.613  -7.827  15.144  1.00  0.00    -0.550 OA
ATOM      4  O   UNL     1     -21.850  -5.801  15.894  1.00  0.00    -0.550 OA
ENDBRANCH   1   2
BRANCH   1   5
ATOM      5  C   UNL     1     -25.169  -6.480  14.731  1.00  0.00     0.059 C 
BRANCH   5   6
ATOM      6  C   UNL     1     -25.890  -5.527  15.630  1.00  0.00     0.042 C 
ATOM      7  O   UNL     1     -27.124  -5.665  15.841  1.00  0.00    -0.550 OA
ATOM      8  O   UNL     1     -25.210  -4.455  16.197  1.00  0.00    -0.550 OA
ENDBRANCH   5   6
ENDBRANCH   1   5
TORSDOF 3
ENDMDL
MODEL 8
REMARK VINA RESULT:    -3.277      1.468      4.041
REMARK INTER + INTRA:          -3.877
REMARK INTER:                  -3.792
REMARK INTRA:                  -0.085
REMARK UNBOUND:                -0.026
REMARK SMILES O=C([O-])CCC(=O)[O-]
REMARK SMILES IDX 4 1 2 2 1 3 3 4 5 5 6 6 7 7 8 8
REMARK H PARENT
REMARK Flexibility Score: inf
ROOT
ATOM      1  C   UNL     1     -24.548  -4.977  15.715  1.00  0.00     0.059 C 
ENDROOT
BRANCH   1   2
ATOM      2  C   UNL     1     -23.560  -3.970  16.211  1.00  0.00     0.042 C 
ATOM      3  O   UNL     1     -22.921  -4.182  17.275  1.00  0.00    -0.550 OA
ATOM      4  O   UNL     1     -23.380  -2.775  15.525  1.00  0.00    -0.550 OA
ENDBRANCH   1   2
BRANCH   1   5
ATOM      5  C   UNL     1     -23.996  -5.713  14.494  1.00  0.00     0.059 C 
BRANCH   5   6
ATOM      6  C   UNL     1     -23.209  -6.913  14.917  1.00  0.00     0.042 C 
ATOM      7  O   UNL     1     -21.992  -6.798  15.221  1.00  0.00    -0.550 OA
ATOM      8  O   UNL     1     -23.806  -8.167  14.927  1.00  0.00    -0.550 OA
ENDBRANCH   5   6
ENDBRANCH   1   5
TORSDOF 3
ENDMDL
MODEL 9
REMARK VINA RESULT:    -3.055      1.668      4.197
REMARK INTER + INTRA:          -3.617
REMARK INTER:                  -3.530
REMARK INTRA:                  -0.086
REMARK UNBOUND:                -0.026
REMARK SMILES O=C([O-])CCC(=O)[O-]
REMARK SMILES IDX 4 1 2 2 1 3 3 4 5 5 6 6 7 7 8 8
REMARK H PARENT
REMARK Flexibility Score: inf
ROOT
ATOM      1  C   UNL     1     -23.241  -3.940  16.278  1.00  0.00     0.059 C 
ENDROOT
BRANCH   1   2
ATOM      2  C   UNL     1     -23.253  -4.185  17.754  1.00  0.00     0.042 C 
ATOM      3  O   UNL     1     -22.176  -4.416  18.366  1.00  0.00    -0.550 OA
ATOM      4  O   UNL     1     -24.457  -4.208  18.446  1.00  0.00    -0.550 OA
ENDBRANCH   1   2
BRANCH   1   5
ATOM      5  C   UNL     1     -24.308  -4.788  15.586  1.00  0.00     0.059 C 
BRANCH   5   6
ATOM      6  C   UNL     1     -23.671  -5.835  14.728  1.00  0.00     0.042 C 
ATOM      7  O   UNL     1     -24.228  -6.207  13.662  1.00  0.00    -0.550 OA
ATOM      8  O   UNL     1     -22.485  -6.436  15.132  1.00  0.00    -0.550 OA
ENDBRANCH   5   6
ENDBRANCH   1   5
TORSDOF 3
ENDMDL
