MODEL 1
REMARK VINA RESULT:    -9.572      0.000      0.000
REMARK INTER + INTRA:         -12.649
REMARK INTER:                 -12.090
REMARK INTRA:                  -0.559
REMARK UNBOUND:                -0.559
REMARK SMILES O[C@H]1OC[C@H](Cc2ccc3c(c2)OCO3)[C@@H]1Cc1ccc2c(c1)OCO2
REMARK SMILES IDX 4 1 5 2 16 3 2 4 3 5 6 6 7 7 12 8 8 9 11 10 9 11 10 12 13 13
REMARK SMILES IDX 15 14 14 15 17 16 18 17 23 18 19 19 22 20 20 21 21 22 24 23
REMARK SMILES IDX 26 24 25 25 1 26
REMARK H PARENT 1 27
REMARK Flexibility Score: inf
ROOT
ATOM      1  C   UNL     1     -27.103 -23.529  -9.778  1.00  0.00     0.168 C 
ATOM      2  C   UNL     1     -26.856 -22.072  -9.433  1.00  0.00     0.028 C 
ATOM      3  C   UNL     1     -25.568 -21.771 -10.184  1.00  0.00     0.055 C 
ATOM      4  C   UNL     1     -24.894 -23.157 -10.199  1.00  0.00     0.250 C 
ATOM      5  O   UNL     1     -25.858 -24.162  -9.955  1.00  0.00    -0.352 OA
ENDROOT
BRANCH   2   6
ATOM      6  C   UNL     1     -28.061 -21.152  -9.731  1.00  0.00     0.042 C 
BRANCH   6   7
ATOM      7  C   UNL     1     -28.348 -20.236  -8.570  1.00  0.00    -0.044 A 
ATOM      8  C   UNL     1     -28.286 -20.732  -7.248  1.00  0.00     0.054 A 
ATOM      9  C   UNL     1     -28.731 -18.889  -8.797  1.00  0.00     0.008 A 
ATOM     10  C   UNL     1     -28.592 -19.859  -6.207  1.00  0.00     0.166 A 
ATOM     11  C   UNL     1     -29.032 -18.040  -7.716  1.00  0.00     0.051 A 
ATOM     12  C   UNL     1     -28.949 -18.569  -6.432  1.00  0.00     0.165 A 
ATOM     13  O   UNL     1     -28.598 -20.109  -4.849  1.00  0.00    -0.454 OA
ATOM     14  O   UNL     1     -29.197 -17.943  -5.226  1.00  0.00    -0.454 OA
ATOM     15  C   UNL     1     -28.981 -18.900  -4.178  1.00  0.00     0.468 C 
ENDBRANCH   6   7
ENDBRANCH   2   6
BRANCH   3  16
ATOM     16  C   UNL     1     -25.774 -21.212 -11.618  1.00  0.00     0.044 C 
BRANCH  16  17
ATOM     17  C   UNL     1     -25.327 -22.191 -12.676  1.00  0.00    -0.044 A 
ATOM     18  C   UNL     1     -26.251 -23.090 -13.254  1.00  0.00     0.054 A 
ATOM     19  C   UNL     1     -23.971 -22.215 -13.094  1.00  0.00     0.008 A 
ATOM     20  C   UNL     1     -25.784 -23.977 -14.219  1.00  0.00     0.166 A 
ATOM     21  C   UNL     1     -23.540 -23.128 -14.073  1.00  0.00     0.051 A 
ATOM     22  C   UNL     1     -24.485 -23.996 -14.612  1.00  0.00     0.165 A 
ATOM     23  O   UNL     1     -26.488 -24.940 -14.916  1.00  0.00    -0.454 OA
ATOM     24  O   UNL     1     -24.308 -24.971 -15.574  1.00  0.00    -0.454 OA
ATOM     25  C   UNL     1     -25.575 -25.605 -15.801  1.00  0.00     0.468 C 
ENDBRANCH  16  17
ENDBRANCH   3  16
BRANCH   4  26
ATOM     26  O   UNL     1     -23.884 -23.226  -9.227  1.00  0.00    -0.368 OA
ATOM     27  H   UNL     1     -24.271 -22.893  -8.375  1.00  0.00     0.213 HD
ENDBRANCH   4  26
TORSDOF 5
ENDMDL
MODEL 2
REMARK VINA RESULT:    -9.421      2.316      3.085
REMARK INTER + INTRA:         -12.458
REMARK INTER:                 -11.435
REMARK INTRA:                  -1.023
REMARK UNBOUND:                -0.559
REMARK SMILES O[C@H]1OC[C@H](Cc2ccc3c(c2)OCO3)[C@@H]1Cc1ccc2c(c1)OCO2
REMARK SMILES IDX 4 1 5 2 16 3 2 4 3 5 6 6 7 7 12 8 8 9 11 10 9 11 10 12 13 13
REMARK SMILES IDX 15 14 14 15 17 16 18 17 23 18 19 19 22 20 20 21 21 22 24 23
REMARK SMILES IDX 26 24 25 25 1 26
REMARK H PARENT 1 27
REMARK Flexibility Score: inf
ROOT
ATOM      1  C   UNL     1     -27.103 -24.438  -9.137  1.00  0.00     0.168 C 
ATOM      2  C   UNL     1     -27.080 -22.938  -8.911  1.00  0.00     0.028 C 
ATOM      3  C   UNL     1     -26.156 -22.453 -10.018  1.00  0.00     0.055 C 
ATOM      4  C   UNL     1     -25.240 -23.677 -10.207  1.00  0.00     0.250 C 
ATOM      5  O   UNL     1     -25.858 -24.828  -9.666  1.00  0.00    -0.352 OA
ENDROOT
BRANCH   2   6
ATOM      6  C   UNL     1     -28.484 -22.297  -8.853  1.00  0.00     0.042 C 
BRANCH   6   7
ATOM      7  C   UNL     1     -28.509 -21.120  -7.913  1.00  0.00    -0.044 A 
ATOM      8  C   UNL     1     -28.488 -21.331  -6.516  1.00  0.00     0.054 A 
ATOM      9  C   UNL     1     -28.604 -19.798  -8.422  1.00  0.00     0.008 A 
ATOM     10  C   UNL     1     -28.546 -20.216  -5.685  1.00  0.00     0.166 A 
ATOM     11  C   UNL     1     -28.659 -18.699  -7.546  1.00  0.00     0.051 A 
ATOM     12  C   UNL     1     -28.628 -18.954  -6.179  1.00  0.00     0.165 A 
ATOM     13  O   UNL     1     -28.537 -20.171  -4.305  1.00  0.00    -0.454 OA
ATOM     14  O   UNL     1     -28.674 -18.053  -5.134  1.00  0.00    -0.454 OA
ATOM     15  C   UNL     1     -28.617 -18.794  -3.906  1.00  0.00     0.468 C 
ENDBRANCH   6   7
ENDBRANCH   2   6
BRANCH   3  16
ATOM     16  C   UNL     1     -26.880 -22.064 -11.336  1.00  0.00     0.044 C 
BRANCH  16  17
ATOM     17  C   UNL     1     -26.001 -21.237 -12.242  1.00  0.00    -0.044 A 
ATOM     18  C   UNL     1     -25.924 -19.835 -12.080  1.00  0.00     0.054 A 
ATOM     19  C   UNL     1     -25.246 -21.866 -13.266  1.00  0.00     0.008 A 
ATOM     20  C   UNL     1     -25.105 -19.120 -12.947  1.00  0.00     0.166 A 
ATOM     21  C   UNL     1     -24.429 -21.106 -14.122  1.00  0.00     0.051 A 
ATOM     22  C   UNL     1     -24.388 -19.728 -13.927  1.00  0.00     0.165 A 
ATOM     23  O   UNL     1     -24.873 -17.759 -12.987  1.00  0.00    -0.454 OA
ATOM     24  O   UNL     1     -23.671 -18.780 -14.631  1.00  0.00    -0.454 OA
ATOM     25  C   UNL     1     -23.954 -17.496 -14.058  1.00  0.00     0.468 C 
ENDBRANCH  16  17
ENDBRANCH   3  16
BRANCH   4  26
ATOM     26  O   UNL     1     -24.001 -23.469  -9.580  1.00  0.00    -0.368 OA
ATOM     27  H   UNL     1     -23.408 -23.025 -10.242  1.00  0.00     0.213 HD
ENDBRANCH   4  26
TORSDOF 5
ENDMDL
MODEL 3
REMARK VINA RESULT:    -9.370      2.158      3.019
REMARK INTER + INTRA:         -12.394
REMARK INTER:                 -11.310
REMARK INTRA:                  -1.084
REMARK UNBOUND:                -0.559
REMARK SMILES O[C@H]1OC[C@H](Cc2ccc3c(c2)OCO3)[C@@H]1Cc1ccc2c(c1)OCO2
REMARK SMILES IDX 4 1 5 2 16 3 2 4 3 5 6 6 7 7 12 8 8 9 11 10 9 11 10 12 13 13
REMARK SMILES IDX 15 14 14 15 17 16 18 17 23 18 19 19 22 20 20 21 21 22 24 23
REMARK SMILES IDX 26 24 25 25 1 26
REMARK H PARENT 1 27
REMARK Flexibility Score: inf
ROOT
ATOM      1  C   UNL     1     -29.235 -24.722  -8.017  1.00  0.00     0.168 C 
ATOM      2  C   UNL     1     -28.191 -23.628  -8.146  1.00  0.00     0.028 C 
ATOM      3  C   UNL     1     -27.034 -24.355  -8.815  1.00  0.00     0.055 C 
ATOM      4  C   UNL     1     -27.244 -25.794  -8.303  1.00  0.00     0.250 C 
ATOM      5  O   UNL     1     -28.572 -25.952  -7.845  1.00  0.00    -0.352 OA
ENDROOT
BRANCH   2   6
ATOM      6  C   UNL     1     -28.710 -22.357  -8.854  1.00  0.00     0.042 C 
BRANCH   6   7
ATOM      7  C   UNL     1     -28.650 -21.160  -7.940  1.00  0.00    -0.044 A 
ATOM      8  C   UNL     1     -28.593 -21.344  -6.540  1.00  0.00     0.054 A 
ATOM      9  C   UNL     1     -28.702 -19.847  -8.474  1.00  0.00     0.008 A 
ATOM     10  C   UNL     1     -28.574 -20.210  -5.733  1.00  0.00     0.166 A 
ATOM     11  C   UNL     1     -28.679 -18.728  -7.622  1.00  0.00     0.051 A 
ATOM     12  C   UNL     1     -28.614 -18.956  -6.251  1.00  0.00     0.165 A 
ATOM     13  O   UNL     1     -28.518 -20.137  -4.354  1.00  0.00    -0.454 OA
ATOM     14  O   UNL     1     -28.585 -18.032  -5.225  1.00  0.00    -0.454 OA
ATOM     15  C   UNL     1     -28.522 -18.751  -3.984  1.00  0.00     0.468 C 
ENDBRANCH   6   7
ENDBRANCH   2   6
BRANCH   3  16
ATOM     16  C   UNL     1     -27.041 -24.286 -10.366  1.00  0.00     0.044 C 
BRANCH  16  17
ATOM     17  C   UNL     1     -26.186 -23.157 -10.886  1.00  0.00    -0.044 A 
ATOM     18  C   UNL     1     -26.189 -22.832 -12.261  1.00  0.00     0.054 A 
ATOM     19  C   UNL     1     -25.369 -22.415  -9.993  1.00  0.00     0.008 A 
ATOM     20  C   UNL     1     -25.375 -21.788 -12.689  1.00  0.00     0.166 A 
ATOM     21  C   UNL     1     -24.561 -21.366 -10.467  1.00  0.00     0.051 A 
ATOM     22  C   UNL     1     -24.594 -21.085 -11.829  1.00  0.00     0.165 A 
ATOM     23  O   UNL     1     -25.208 -21.294 -13.968  1.00  0.00    -0.454 OA
ATOM     24  O   UNL     1     -23.898 -20.116 -12.525  1.00  0.00    -0.454 OA
ATOM     25  C   UNL     1     -24.264 -20.215 -13.909  1.00  0.00     0.468 C 
ENDBRANCH  16  17
ENDBRANCH   3  16
BRANCH   4  26
ATOM     26  O   UNL     1     -26.347 -26.083  -7.263  1.00  0.00    -0.368 OA
ATOM     27  H   UNL     1     -25.856 -25.246  -7.055  1.00  0.00     0.213 HD
ENDBRANCH   4  26
TORSDOF 5
ENDMDL
MODEL 4
REMARK VINA RESULT:    -9.187      2.786      6.764
REMARK INTER + INTRA:         -12.163
REMARK INTER:                 -10.333
REMARK INTRA:                  -1.831
REMARK UNBOUND:                -0.559
REMARK SMILES O[C@H]1OC[C@H](Cc2ccc3c(c2)OCO3)[C@@H]1Cc1ccc2c(c1)OCO2
REMARK SMILES IDX 4 1 5 2 16 3 2 4 3 5 6 6 7 7 12 8 8 9 11 10 9 11 10 12 13 13
REMARK SMILES IDX 15 14 14 15 17 16 18 17 23 18 19 19 22 20 20 21 21 22 24 23
REMARK SMILES IDX 26 24 25 25 1 26
REMARK H PARENT 1 27
REMARK Flexibility Score: inf
ROOT
ATOM      1  C   UNL     1     -23.811 -24.816 -14.888  1.00  0.00     0.168 C 
ATOM      2  C   UNL     1     -24.435 -23.617 -14.199  1.00  0.00     0.028 C 
ATOM      3  C   UNL     1     -25.708 -24.203 -13.607  1.00  0.00     0.055 C 
ATOM      4  C   UNL     1     -26.012 -25.337 -14.605  1.00  0.00     0.250 C 
ATOM      5  O   UNL     1     -24.845 -25.661 -15.335  1.00  0.00    -0.352 OA
ENDROOT
BRANCH   2   6
ATOM      6  C   UNL     1     -23.481 -22.901 -13.216  1.00  0.00     0.042 C 
BRANCH   6   7
ATOM      7  C   UNL     1     -23.885 -21.464 -13.014  1.00  0.00    -0.044 A 
ATOM      8  C   UNL     1     -23.987 -20.597 -14.125  1.00  0.00     0.054 A 
ATOM      9  C   UNL     1     -24.114 -20.961 -11.707  1.00  0.00     0.008 A 
ATOM     10  C   UNL     1     -24.330 -19.268 -13.888  1.00  0.00     0.166 A 
ATOM     11  C   UNL     1     -24.459 -19.611 -11.512  1.00  0.00     0.051 A 
ATOM     12  C   UNL     1     -24.557 -18.796 -12.635  1.00  0.00     0.165 A 
ATOM     13  O   UNL     1     -24.491 -18.245 -14.802  1.00  0.00    -0.454 OA
ATOM     14  O   UNL     1     -24.873 -17.453 -12.700  1.00  0.00    -0.454 OA
ATOM     15  C   UNL     1     -24.843 -17.057 -14.079  1.00  0.00     0.468 C 
ENDBRANCH   6   7
ENDBRANCH   2   6
BRANCH   3  16
ATOM     16  C   UNL     1     -25.557 -24.734 -12.156  1.00  0.00     0.044 C 
BRANCH  16  17
ATOM     17  C   UNL     1     -26.200 -23.815 -11.147  1.00  0.00    -0.044 A 
ATOM     18  C   UNL     1     -27.150 -22.853 -11.559  1.00  0.00     0.054 A 
ATOM     19  C   UNL     1     -25.849 -23.909  -9.775  1.00  0.00     0.008 A 
ATOM     20  C   UNL     1     -27.706 -22.025 -10.589  1.00  0.00     0.166 A 
ATOM     21  C   UNL     1     -26.436 -23.052  -8.826  1.00  0.00     0.051 A 
ATOM     22  C   UNL     1     -27.364 -22.119  -9.279  1.00  0.00     0.165 A 
ATOM     23  O   UNL     1     -28.641 -21.020 -10.748  1.00  0.00    -0.454 OA
ATOM     24  O   UNL     1     -28.066 -21.179  -8.550  1.00  0.00    -0.454 OA
ATOM     25  C   UNL     1     -28.902 -20.448  -9.458  1.00  0.00     0.468 C 
ENDBRANCH  16  17
ENDBRANCH   3  16
BRANCH   4  26
ATOM     26  O   UNL     1     -27.032 -24.956 -15.490  1.00  0.00    -0.368 OA
ATOM     27  H   UNL     1     -26.718 -25.162 -16.408  1.00  0.00     0.213 HD
ENDBRANCH   4  26
TORSDOF 5
ENDMDL
MODEL 5
REMARK VINA RESULT:    -8.903      2.371      7.009
REMARK INTER + INTRA:         -11.804
REMARK INTER:                 -10.381
REMARK INTRA:                  -1.423
REMARK UNBOUND:                -0.559
REMARK SMILES O[C@H]1OC[C@H](Cc2ccc3c(c2)OCO3)[C@@H]1Cc1ccc2c(c1)OCO2
REMARK SMILES IDX 4 1 5 2 16 3 2 4 3 5 6 6 7 7 12 8 8 9 11 10 9 11 10 12 13 13
REMARK SMILES IDX 15 14 14 15 17 16 18 17 23 18 19 19 22 20 20 21 21 22 24 23
REMARK SMILES IDX 26 24 25 25 1 26
REMARK H PARENT 1 27
REMARK Flexibility Score: inf
ROOT
ATOM      1  C   UNL     1     -25.621 -22.040 -12.495  1.00  0.00     0.168 C 
ATOM      2  C   UNL     1     -26.217 -22.261 -11.117  1.00  0.00     0.028 C 
ATOM      3  C   UNL     1     -26.165 -20.868 -10.509  1.00  0.00     0.055 C 
ATOM      4  C   UNL     1     -24.945 -20.266 -11.233  1.00  0.00     0.250 C 
ATOM      5  O   UNL     1     -24.672 -21.003 -12.409  1.00  0.00    -0.352 OA
ENDROOT
BRANCH   2   6
ATOM      6  C   UNL     1     -27.599 -22.952 -11.143  1.00  0.00     0.042 C 
BRANCH   6   7
ATOM      7  C   UNL     1     -27.797 -23.820  -9.928  1.00  0.00    -0.044 A 
ATOM      8  C   UNL     1     -26.759 -24.673  -9.492  1.00  0.00     0.054 A 
ATOM      9  C   UNL     1     -29.042 -23.823  -9.245  1.00  0.00     0.008 A 
ATOM     10  C   UNL     1     -26.999 -25.483  -8.385  1.00  0.00     0.166 A 
ATOM     11  C   UNL     1     -29.241 -24.657  -8.129  1.00  0.00     0.051 A 
ATOM     12  C   UNL     1     -28.188 -25.474  -7.732  1.00  0.00     0.165 A 
ATOM     13  O   UNL     1     -26.147 -26.386  -7.780  1.00  0.00    -0.454 OA
ATOM     14  O   UNL     1     -28.144 -26.371  -6.682  1.00  0.00    -0.454 OA
ATOM     15  C   UNL     1     -26.844 -26.981  -6.676  1.00  0.00     0.468 C 
ENDBRANCH   6   7
ENDBRANCH   2   6
BRANCH   3  16
ATOM     16  C   UNL     1     -27.446 -20.019 -10.732  1.00  0.00     0.044 C 
BRANCH  16  17
ATOM     17  C   UNL     1     -28.105 -19.636  -9.430  1.00  0.00    -0.044 A 
ATOM     18  C   UNL     1     -28.223 -20.579  -8.384  1.00  0.00     0.054 A 
ATOM     19  C   UNL     1     -28.613 -18.323  -9.250  1.00  0.00     0.008 A 
ATOM     20  C   UNL     1     -28.847 -20.176  -7.207  1.00  0.00     0.166 A 
ATOM     21  C   UNL     1     -29.236 -17.957  -8.044  1.00  0.00     0.051 A 
ATOM     22  C   UNL     1     -29.334 -18.919  -7.044  1.00  0.00     0.165 A 
ATOM     23  O   UNL     1     -29.081 -20.911  -6.061  1.00  0.00    -0.454 OA
ATOM     24  O   UNL     1     -29.896 -18.802  -5.788  1.00  0.00    -0.454 OA
ATOM     25  C   UNL     1     -29.755 -20.064  -5.119  1.00  0.00     0.468 C 
ENDBRANCH  16  17
ENDBRANCH   3  16
BRANCH   4  26
ATOM     26  O   UNL     1     -23.818 -20.278 -10.396  1.00  0.00    -0.368 OA
ATOM     27  H   UNL     1     -23.162 -19.637 -10.775  1.00  0.00     0.213 HD
ENDBRANCH   4  26
TORSDOF 5
ENDMDL
MODEL 6
REMARK VINA RESULT:    -8.814      2.526      7.288
REMARK INTER + INTRA:         -11.691
REMARK INTER:                 -10.329
REMARK INTRA:                  -1.363
REMARK UNBOUND:                -0.559
REMARK SMILES O[C@H]1OC[C@H](Cc2ccc3c(c2)OCO3)[C@@H]1Cc1ccc2c(c1)OCO2
REMARK SMILES IDX 4 1 5 2 16 3 2 4 3 5 6 6 7 7 12 8 8 9 11 10 9 11 10 12 13 13
REMARK SMILES IDX 15 14 14 15 17 16 18 17 23 18 19 19 22 20 20 21 21 22 24 23
REMARK SMILES IDX 26 24 25 25 1 26
REMARK H PARENT 1 27
REMARK Flexibility Score: inf
ROOT
ATOM      1  C   UNL     1     -27.068 -26.173  -7.712  1.00  0.00     0.168 C 
ATOM      2  C   UNL     1     -27.350 -25.008  -8.643  1.00  0.00     0.028 C 
ATOM      3  C   UNL     1     -28.850 -24.808  -8.474  1.00  0.00     0.055 C 
ATOM      4  C   UNL     1     -29.308 -26.238  -8.128  1.00  0.00     0.250 C 
ATOM      5  O   UNL     1     -28.206 -27.001  -7.677  1.00  0.00    -0.352 OA
ENDROOT
BRANCH   2   6
ATOM      6  C   UNL     1     -26.456 -23.775  -8.382  1.00  0.00     0.042 C 
BRANCH   6   7
ATOM      7  C   UNL     1     -25.829 -23.277  -9.658  1.00  0.00    -0.044 A 
ATOM      8  C   UNL     1     -25.844 -21.896  -9.959  1.00  0.00     0.054 A 
ATOM      9  C   UNL     1     -25.268 -24.192 -10.586  1.00  0.00     0.008 A 
ATOM     10  C   UNL     1     -25.283 -21.484 -11.165  1.00  0.00     0.166 A 
ATOM     11  C   UNL     1     -24.710 -23.732 -11.794  1.00  0.00     0.051 A 
ATOM     12  C   UNL     1     -24.739 -22.364 -12.044  1.00  0.00     0.165 A 
ATOM     13  O   UNL     1     -25.178 -20.203 -11.671  1.00  0.00    -0.454 OA
ATOM     14  O   UNL     1     -24.265 -21.681 -13.146  1.00  0.00    -0.454 OA
ATOM     15  C   UNL     1     -24.527 -20.284 -12.948  1.00  0.00     0.468 C 
ENDBRANCH   6   7
ENDBRANCH   2   6
BRANCH   3  16
ATOM     16  C   UNL     1     -29.243 -23.790  -7.369  1.00  0.00     0.044 C 
BRANCH  16  17
ATOM     17  C   UNL     1     -29.184 -22.366  -7.865  1.00  0.00    -0.044 A 
ATOM     18  C   UNL     1     -28.857 -21.314  -6.980  1.00  0.00     0.054 A 
ATOM     19  C   UNL     1     -29.460 -22.076  -9.227  1.00  0.00     0.008 A 
ATOM     20  C   UNL     1     -28.825 -20.019  -7.487  1.00  0.00     0.166 A 
ATOM     21  C   UNL     1     -29.416 -20.752  -9.698  1.00  0.00     0.051 A 
ATOM     22  C   UNL     1     -29.093 -19.749  -8.790  1.00  0.00     0.165 A 
ATOM     23  O   UNL     1     -28.538 -18.841  -6.824  1.00  0.00    -0.454 OA
ATOM     24  O   UNL     1     -28.989 -18.389  -9.010  1.00  0.00    -0.454 OA
ATOM     25  C   UNL     1     -28.632 -17.765  -7.768  1.00  0.00     0.468 C 
ENDBRANCH  16  17
ENDBRANCH   3  16
BRANCH   4  26
ATOM     26  O   UNL     1     -29.885 -26.857  -9.248  1.00  0.00    -0.368 OA
ATOM     27  H   UNL     1     -29.715 -27.831  -9.166  1.00  0.00     0.213 HD
ENDBRANCH   4  26
TORSDOF 5
ENDMDL
MODEL 7
REMARK VINA RESULT:    -8.789      2.377      7.588
REMARK INTER + INTRA:         -11.660
REMARK INTER:                 -10.514
REMARK INTRA:                  -1.146
REMARK UNBOUND:                -0.559
REMARK SMILES O[C@H]1OC[C@H](Cc2ccc3c(c2)OCO3)[C@@H]1Cc1ccc2c(c1)OCO2
REMARK SMILES IDX 4 1 5 2 16 3 2 4 3 5 6 6 7 7 12 8 8 9 11 10 9 11 10 12 13 13
REMARK SMILES IDX 15 14 14 15 17 16 18 17 23 18 19 19 22 20 20 21 21 22 24 23
REMARK SMILES IDX 26 24 25 25 1 26
REMARK H PARENT 1 27
REMARK Flexibility Score: inf
ROOT
ATOM      1  C   UNL     1     -27.142 -26.241  -7.827  1.00  0.00     0.168 C 
ATOM      2  C   UNL     1     -27.371 -25.054  -8.744  1.00  0.00     0.028 C 
ATOM      3  C   UNL     1     -28.843 -24.742  -8.518  1.00  0.00     0.055 C 
ATOM      4  C   UNL     1     -29.395 -26.135  -8.157  1.00  0.00     0.250 C 
ATOM      5  O   UNL     1     -28.337 -26.981  -7.749  1.00  0.00    -0.352 OA
ENDROOT
BRANCH   2   6
ATOM      6  C   UNL     1     -26.377 -23.893  -8.515  1.00  0.00     0.042 C 
BRANCH   6   7
ATOM      7  C   UNL     1     -25.709 -23.485  -9.803  1.00  0.00    -0.044 A 
ATOM      8  C   UNL     1     -25.607 -24.408 -10.868  1.00  0.00     0.054 A 
ATOM      9  C   UNL     1     -25.137 -22.194  -9.936  1.00  0.00     0.008 A 
ATOM     10  C   UNL     1     -24.952 -24.000 -12.027  1.00  0.00     0.166 A 
ATOM     11  C   UNL     1     -24.484 -21.821 -11.126  1.00  0.00     0.051 A 
ATOM     12  C   UNL     1     -24.415 -22.759 -12.150  1.00  0.00     0.165 A 
ATOM     13  O   UNL     1     -24.732 -24.715 -13.188  1.00  0.00    -0.454 OA
ATOM     14  O   UNL     1     -23.830 -22.632 -13.395  1.00  0.00    -0.454 OA
ATOM     15  C   UNL     1     -24.012 -23.870 -14.098  1.00  0.00     0.468 C 
ENDBRANCH   6   7
ENDBRANCH   2   6
BRANCH   3  16
ATOM     16  C   UNL     1     -29.116 -23.703  -7.397  1.00  0.00     0.044 C 
BRANCH  16  17
ATOM     17  C   UNL     1     -29.033 -22.285  -7.908  1.00  0.00    -0.044 A 
ATOM     18  C   UNL     1     -28.865 -21.209  -7.008  1.00  0.00     0.054 A 
ATOM     19  C   UNL     1     -29.127 -22.025  -9.300  1.00  0.00     0.008 A 
ATOM     20  C   UNL     1     -28.804 -19.922  -7.531  1.00  0.00     0.166 A 
ATOM     21  C   UNL     1     -29.060 -20.708  -9.788  1.00  0.00     0.051 A 
ATOM     22  C   UNL     1     -28.898 -19.680  -8.864  1.00  0.00     0.165 A 
ATOM     23  O   UNL     1     -28.649 -18.725  -6.858  1.00  0.00    -0.454 OA
ATOM     24  O   UNL     1     -28.806 -18.322  -9.094  1.00  0.00    -0.454 OA
ATOM     25  C   UNL     1     -28.645 -17.667  -7.827  1.00  0.00     0.468 C 
ENDBRANCH  16  17
ENDBRANCH   3  16
BRANCH   4  26
ATOM     26  O   UNL     1     -30.059 -26.703  -9.255  1.00  0.00    -0.368 OA
ATOM     27  H   UNL     1     -29.952 -27.688  -9.187  1.00  0.00     0.213 HD
ENDBRANCH   4  26
TORSDOF 5
ENDMDL
MODEL 8
REMARK VINA RESULT:    -8.777      4.468      7.791
REMARK INTER + INTRA:         -11.645
REMARK INTER:                 -10.614
REMARK INTRA:                  -1.031
REMARK UNBOUND:                -0.559
REMARK SMILES O[C@H]1OC[C@H](Cc2ccc3c(c2)OCO3)[C@@H]1Cc1ccc2c(c1)OCO2
REMARK SMILES IDX 4 1 5 2 16 3 2 4 3 5 6 6 7 7 12 8 8 9 11 10 9 11 10 12 13 13
REMARK SMILES IDX 15 14 14 15 17 16 18 17 23 18 19 19 22 20 20 21 21 22 24 23
REMARK SMILES IDX 26 24 25 25 1 26
REMARK H PARENT 1 27
REMARK Flexibility Score: inf
ROOT
ATOM      1  C   UNL     1     -23.597 -21.276 -13.776  1.00  0.00     0.168 C 
ATOM      2  C   UNL     1     -24.820 -20.465 -13.390  1.00  0.00     0.028 C 
ATOM      3  C   UNL     1     -25.638 -21.467 -12.589  1.00  0.00     0.055 C 
ATOM      4  C   UNL     1     -25.204 -22.797 -13.233  1.00  0.00     0.250 C 
ATOM      5  O   UNL     1     -23.982 -22.622 -13.922  1.00  0.00    -0.352 OA
ENDROOT
BRANCH   2   6
ATOM      6  C   UNL     1     -24.484 -19.130 -12.689  1.00  0.00     0.042 C 
BRANCH   6   7
ATOM      7  C   UNL     1     -24.769 -17.955 -13.588  1.00  0.00    -0.044 A 
ATOM      8  C   UNL     1     -23.730 -17.062 -13.933  1.00  0.00     0.054 A 
ATOM      9  C   UNL     1     -26.088 -17.710 -14.051  1.00  0.00     0.008 A 
ATOM     10  C   UNL     1     -24.046 -15.971 -14.738  1.00  0.00     0.166 A 
ATOM     11  C   UNL     1     -26.364 -16.595 -14.864  1.00  0.00     0.051 A 
ATOM     12  C   UNL     1     -25.309 -15.748 -15.185  1.00  0.00     0.165 A 
ATOM     13  O   UNL     1     -23.210 -14.975 -15.205  1.00  0.00    -0.454 OA
ATOM     14  O   UNL     1     -25.329 -14.601 -15.954  1.00  0.00    -0.454 OA
ATOM     15  C   UNL     1     -23.996 -14.070 -15.994  1.00  0.00     0.468 C 
ENDBRANCH   6   7
ENDBRANCH   2   6
BRANCH   3  16
ATOM     16  C   UNL     1     -25.363 -21.447 -11.061  1.00  0.00     0.044 C 
BRANCH  16  17
ATOM     17  C   UNL     1     -26.570 -20.998 -10.274  1.00  0.00    -0.044 A 
ATOM     18  C   UNL     1     -27.099 -21.814  -9.249  1.00  0.00     0.054 A 
ATOM     19  C   UNL     1     -27.184 -19.751 -10.564  1.00  0.00     0.008 A 
ATOM     20  C   UNL     1     -28.218 -21.357  -8.561  1.00  0.00     0.166 A 
ATOM     21  C   UNL     1     -28.314 -19.326  -9.843  1.00  0.00     0.051 A 
ATOM     22  C   UNL     1     -28.802 -20.164  -8.845  1.00  0.00     0.165 A 
ATOM     23  O   UNL     1     -28.908 -21.971  -7.534  1.00  0.00    -0.454 OA
ATOM     24  O   UNL     1     -29.886 -19.970  -8.012  1.00  0.00    -0.454 OA
ATOM     25  C   UNL     1     -29.991 -21.112  -7.149  1.00  0.00     0.468 C 
ENDBRANCH  16  17
ENDBRANCH   3  16
BRANCH   4  26
ATOM     26  O   UNL     1     -26.187 -23.258 -14.124  1.00  0.00    -0.368 OA
ATOM     27  H   UNL     1     -27.018 -23.398 -13.599  1.00  0.00     0.213 HD
ENDBRANCH   4  26
TORSDOF 5
ENDMDL
MODEL 9
REMARK VINA RESULT:    -8.752      4.544      7.413
REMARK INTER + INTRA:         -11.614
REMARK INTER:                 -10.863
REMARK INTRA:                  -0.750
REMARK UNBOUND:                -0.559
REMARK SMILES O[C@H]1OC[C@H](Cc2ccc3c(c2)OCO3)[C@@H]1Cc1ccc2c(c1)OCO2
REMARK SMILES IDX 4 1 5 2 16 3 2 4 3 5 6 6 7 7 12 8 8 9 11 10 9 11 10 12 13 13
REMARK SMILES IDX 15 14 14 15 17 16 18 17 23 18 19 19 22 20 20 21 21 22 24 23
REMARK SMILES IDX 26 24 25 25 1 26
REMARK H PARENT 1 27
REMARK Flexibility Score: inf
ROOT
ATOM      1  C   UNL     1     -23.619 -20.988 -13.750  1.00  0.00     0.168 C 
ATOM      2  C   UNL     1     -24.881 -20.301 -13.262  1.00  0.00     0.028 C 
ATOM      3  C   UNL     1     -25.534 -21.381 -12.411  1.00  0.00     0.055 C 
ATOM      4  C   UNL     1     -25.026 -22.660 -13.103  1.00  0.00     0.250 C 
ATOM      5  O   UNL     1     -23.883 -22.365 -13.881  1.00  0.00    -0.352 OA
ENDROOT
BRANCH   2   6
ATOM      6  C   UNL     1     -24.620 -18.943 -12.573  1.00  0.00     0.042 C 
BRANCH   6   7
ATOM      7  C   UNL     1     -24.837 -17.797 -13.528  1.00  0.00    -0.044 A 
ATOM      8  C   UNL     1     -23.795 -16.876 -13.773  1.00  0.00     0.054 A 
ATOM      9  C   UNL     1     -26.101 -17.608 -14.145  1.00  0.00     0.008 A 
ATOM     10  C   UNL     1     -24.050 -15.813 -14.635  1.00  0.00     0.166 A 
ATOM     11  C   UNL     1     -26.317 -16.521 -15.012  1.00  0.00     0.051 A 
ATOM     12  C   UNL     1     -25.259 -15.644 -15.230  1.00  0.00     0.165 A 
ATOM     13  O   UNL     1     -23.198 -14.799 -15.027  1.00  0.00    -0.454 OA
ATOM     14  O   UNL     1     -25.227 -14.515 -16.024  1.00  0.00    -0.454 OA
ATOM     15  C   UNL     1     -23.916 -13.939 -15.923  1.00  0.00     0.468 C 
ENDBRANCH   6   7
ENDBRANCH   2   6
BRANCH   3  16
ATOM     16  C   UNL     1     -25.144 -21.340 -10.909  1.00  0.00     0.044 C 
BRANCH  16  17
ATOM     17  C   UNL     1     -26.111 -22.121 -10.053  1.00  0.00    -0.044 A 
ATOM     18  C   UNL     1     -25.888 -23.492  -9.791  1.00  0.00     0.054 A 
ATOM     19  C   UNL     1     -27.254 -21.481  -9.507  1.00  0.00     0.008 A 
ATOM     20  C   UNL     1     -26.815 -24.167  -9.003  1.00  0.00     0.166 A 
ATOM     21  C   UNL     1     -28.166 -22.199  -8.714  1.00  0.00     0.051 A 
ATOM     22  C   UNL     1     -27.907 -23.548  -8.486  1.00  0.00     0.165 A 
ATOM     23  O   UNL     1     -26.814 -25.493  -8.617  1.00  0.00    -0.454 OA
ATOM     24  O   UNL     1     -28.646 -24.454  -7.751  1.00  0.00    -0.454 OA
ATOM     25  C   UNL     1     -27.977 -25.722  -7.808  1.00  0.00     0.468 C 
ENDBRANCH  16  17
ENDBRANCH   3  16
BRANCH   4  26
ATOM     26  O   UNL     1     -26.025 -23.211 -13.921  1.00  0.00    -0.368 OA
ATOM     27  H   UNL     1     -26.651 -23.704 -13.329  1.00  0.00     0.213 HD
ENDBRANCH   4  26
TORSDOF 5
ENDMDL
