MODEL 1
REMARK VINA RESULT:    -6.271      0.000      0.000
REMARK INTER + INTRA:          -6.271
REMARK INTER:                  -6.271
REMARK INTRA:                   0.000
REMARK UNBOUND:                 0.000
REMARK SMILES CC1=CC(=O)[C@H]2C[C@@H]1C2(C)C
REMARK SMILES IDX 1 1 2 2 3 3 4 4 5 5 6 6 7 7 8 8 9 9 10 10 11 11
REMARK H PARENT
REMARK Flexibility Score: inf
ROOT
ATOM      1  C   UNL     1     -14.739 -30.913  28.385  1.00  0.00     0.040 C 
ATOM      2  C   UNL     1     -14.197 -32.268  28.715  1.00  0.00    -0.066 C 
ATOM      3  C   UNL     1     -14.168 -32.727  29.997  1.00  0.00     0.047 C 
ATOM      4  C   UNL     1     -13.572 -34.087  30.201  1.00  0.00     0.159 C 
ATOM      5  O   UNL     1     -13.452 -34.603  31.343  1.00  0.00    -0.295 OA
ATOM      6  C   UNL     1     -13.119 -34.800  28.928  1.00  0.00     0.067 C 
ATOM      7  C   UNL     1     -14.289 -34.593  27.941  1.00  0.00     0.021 C 
ATOM      8  C   UNL     1     -13.662 -33.218  27.622  1.00  0.00     0.022 C 
ATOM      9  C   UNL     1     -12.291 -33.802  28.069  1.00  0.00    -0.019 C 
ATOM     10  C   UNL     1     -11.290 -32.857  28.793  1.00  0.00     0.012 C 
ATOM     11  C   UNL     1     -11.542 -34.503  26.908  1.00  0.00     0.012 C 
ENDROOT
TORSDOF 0
ENDMDL
MODEL 2
REMARK VINA RESULT:    -5.969      1.539      2.914
REMARK INTER + INTRA:          -5.969
REMARK INTER:                  -5.969
REMARK INTRA:                   0.000
REMARK UNBOUND:                 0.000
REMARK SMILES CC1=CC(=O)[C@H]2C[C@@H]1C2(C)C
REMARK SMILES IDX 1 1 2 2 3 3 4 4 5 5 6 6 7 7 8 8 9 9 10 10 11 11
REMARK H PARENT
REMARK Flexibility Score: inf
ROOT
ATOM      1  C   UNL     1     -10.072 -32.687  29.309  1.00  0.00     0.040 C 
ATOM      2  C   UNL     1     -11.303 -33.507  29.086  1.00  0.00    -0.066 C 
ATOM      3  C   UNL     1     -11.287 -34.862  29.224  1.00  0.00     0.047 C 
ATOM      4  C   UNL     1     -12.577 -35.573  28.942  1.00  0.00     0.159 C 
ATOM      5  O   UNL     1     -12.678 -36.826  28.996  1.00  0.00    -0.295 OA
ATOM      6  C   UNL     1     -13.756 -34.669  28.584  1.00  0.00     0.067 C 
ATOM      7  C   UNL     1     -13.695 -33.534  29.629  1.00  0.00     0.021 C 
ATOM      8  C   UNL     1     -12.653 -32.860  28.708  1.00  0.00     0.022 C 
ATOM      9  C   UNL     1     -13.286 -33.639  27.519  1.00  0.00    -0.019 C 
ATOM     10  C   UNL     1     -12.347 -34.130  26.379  1.00  0.00     0.012 C 
ATOM     11  C   UNL     1     -14.469 -32.873  26.875  1.00  0.00     0.012 C 
ENDROOT
TORSDOF 0
ENDMDL
MODEL 3
REMARK VINA RESULT:    -5.919      1.571      3.298
REMARK INTER + INTRA:          -5.919
REMARK INTER:                  -5.919
REMARK INTRA:                   0.000
REMARK UNBOUND:                 0.000
REMARK SMILES CC1=CC(=O)[C@H]2C[C@@H]1C2(C)C
REMARK SMILES IDX 1 1 2 2 3 3 4 4 5 5 6 6 7 7 8 8 9 9 10 10 11 11
REMARK H PARENT
REMARK Flexibility Score: inf
ROOT
ATOM      1  C   UNL     1     -14.384 -36.866  28.485  1.00  0.00     0.040 C 
ATOM      2  C   UNL     1     -13.539 -35.632  28.433  1.00  0.00    -0.066 C 
ATOM      3  C   UNL     1     -12.270 -35.621  28.925  1.00  0.00     0.047 C 
ATOM      4  C   UNL     1     -11.538 -34.315  28.842  1.00  0.00     0.159 C 
ATOM      5  O   UNL     1     -10.375 -34.167  29.299  1.00  0.00    -0.295 OA
ATOM      6  C   UNL     1     -12.304 -33.179  28.165  1.00  0.00     0.067 C 
ATOM      7  C   UNL     1     -12.903 -33.828  26.899  1.00  0.00     0.021 C 
ATOM      8  C   UNL     1     -14.056 -34.321  27.802  1.00  0.00     0.022 C 
ATOM      9  C   UNL     1     -13.743 -33.130  28.754  1.00  0.00    -0.019 C 
ATOM     10  C   UNL     1     -13.922 -33.346  30.284  1.00  0.00     0.012 C 
ATOM     11  C   UNL     1     -14.501 -31.840  28.354  1.00  0.00     0.012 C 
ENDROOT
TORSDOF 0
ENDMDL
MODEL 4
REMARK VINA RESULT:    -5.806      1.847      3.292
REMARK INTER + INTRA:          -5.806
REMARK INTER:                  -5.806
REMARK INTRA:                   0.000
REMARK UNBOUND:                 0.000
REMARK SMILES CC1=CC(=O)[C@H]2C[C@@H]1C2(C)C
REMARK SMILES IDX 1 1 2 2 3 3 4 4 5 5 6 6 7 7 8 8 9 9 10 10 11 11
REMARK H PARENT
REMARK Flexibility Score: inf
ROOT
ATOM      1  C   UNL     1     -13.763 -36.849  28.769  1.00  0.00     0.040 C 
ATOM      2  C   UNL     1     -13.622 -35.368  28.611  1.00  0.00    -0.066 C 
ATOM      3  C   UNL     1     -14.437 -34.663  27.778  1.00  0.00     0.047 C 
ATOM      4  C   UNL     1     -14.174 -33.190  27.684  1.00  0.00     0.159 C 
ATOM      5  O   UNL     1     -14.832 -32.438  26.918  1.00  0.00    -0.295 OA
ATOM      6  C   UNL     1     -13.052 -32.667  28.580  1.00  0.00     0.067 C 
ATOM      7  C   UNL     1     -13.318 -33.334  29.948  1.00  0.00     0.021 C 
ATOM      8  C   UNL     1     -12.564 -34.564  29.397  1.00  0.00     0.022 C 
ATOM      9  C   UNL     1     -11.819 -33.602  28.427  1.00  0.00    -0.019 C 
ATOM     10  C   UNL     1     -11.459 -34.123  27.006  1.00  0.00     0.012 C 
ATOM     11  C   UNL     1     -10.539 -33.000  29.060  1.00  0.00     0.012 C 
ENDROOT
TORSDOF 0
ENDMDL
MODEL 5
REMARK VINA RESULT:    -5.722      1.531      2.505
REMARK INTER + INTRA:          -5.722
REMARK INTER:                  -5.722
REMARK INTRA:                   0.000
REMARK UNBOUND:                 0.000
REMARK SMILES CC1=CC(=O)[C@H]2C[C@@H]1C2(C)C
REMARK SMILES IDX 1 1 2 2 3 3 4 4 5 5 6 6 7 7 8 8 9 9 10 10 11 11
REMARK H PARENT
REMARK Flexibility Score: inf
ROOT
ATOM      1  C   UNL     1     -14.689 -31.614  27.980  1.00  0.00     0.040 C 
ATOM      2  C   UNL     1     -13.852 -32.826  28.244  1.00  0.00    -0.066 C 
ATOM      3  C   UNL     1     -14.314 -34.079  27.978  1.00  0.00     0.047 C 
ATOM      4  C   UNL     1     -13.392 -35.212  28.317  1.00  0.00     0.159 C 
ATOM      5  O   UNL     1     -13.720 -36.416  28.155  1.00  0.00    -0.295 OA
ATOM      6  C   UNL     1     -12.029 -34.801  28.873  1.00  0.00     0.067 C 
ATOM      7  C   UNL     1     -11.567 -33.662  27.939  1.00  0.00     0.021 C 
ATOM      8  C   UNL     1     -12.420 -32.716  28.812  1.00  0.00     0.022 C 
ATOM      9  C   UNL     1     -12.247 -33.731  29.979  1.00  0.00    -0.019 C 
ATOM     10  C   UNL     1     -13.432 -33.922  30.969  1.00  0.00     0.012 C 
ATOM     11  C   UNL     1     -10.964 -33.466  30.806  1.00  0.00     0.012 C 
ENDROOT
TORSDOF 0
ENDMDL
MODEL 6
REMARK VINA RESULT:    -5.709      1.490      3.044
REMARK INTER + INTRA:          -5.709
REMARK INTER:                  -5.709
REMARK INTRA:                   0.000
REMARK UNBOUND:                 0.000
REMARK SMILES CC1=CC(=O)[C@H]2C[C@@H]1C2(C)C
REMARK SMILES IDX 1 1 2 2 3 3 4 4 5 5 6 6 7 7 8 8 9 9 10 10 11 11
REMARK H PARENT
REMARK Flexibility Score: inf
ROOT
ATOM      1  C   UNL     1     -13.010 -35.810  31.406  1.00  0.00     0.040 C 
ATOM      2  C   UNL     1     -13.089 -34.631  30.489  1.00  0.00    -0.066 C 
ATOM      3  C   UNL     1     -13.979 -33.623  30.704  1.00  0.00     0.047 C 
ATOM      4  C   UNL     1     -13.981 -32.513  29.697  1.00  0.00     0.159 C 
ATOM      5  O   UNL     1     -14.784 -31.547  29.764  1.00  0.00    -0.295 OA
ATOM      6  C   UNL     1     -12.942 -32.639  28.583  1.00  0.00     0.067 C 
ATOM      7  C   UNL     1     -11.643 -33.031  29.320  1.00  0.00     0.021 C 
ATOM      8  C   UNL     1     -12.155 -34.488  29.268  1.00  0.00     0.022 C 
ATOM      9  C   UNL     1     -12.993 -34.088  28.019  1.00  0.00    -0.019 C 
ATOM     10  C   UNL     1     -14.384 -34.755  27.823  1.00  0.00     0.012 C 
ATOM     11  C   UNL     1     -12.194 -34.236  26.700  1.00  0.00     0.012 C 
ENDROOT
TORSDOF 0
ENDMDL
MODEL 7
REMARK VINA RESULT:    -5.691      1.817      2.601
REMARK INTER + INTRA:          -5.691
REMARK INTER:                  -5.691
REMARK INTRA:                   0.000
REMARK UNBOUND:                 0.000
REMARK SMILES CC1=CC(=O)[C@H]2C[C@@H]1C2(C)C
REMARK SMILES IDX 1 1 2 2 3 3 4 4 5 5 6 6 7 7 8 8 9 9 10 10 11 11
REMARK H PARENT
REMARK Flexibility Score: inf
ROOT
ATOM      1  C   UNL     1     -14.866 -32.079  32.449  1.00  0.00     0.040 C 
ATOM      2  C   UNL     1     -14.209 -33.176  31.671  1.00  0.00    -0.066 C 
ATOM      3  C   UNL     1     -14.231 -34.466  32.108  1.00  0.00     0.047 C 
ATOM      4  C   UNL     1     -13.511 -35.467  31.256  1.00  0.00     0.159 C 
ATOM      5  O   UNL     1     -13.425 -36.681  31.574  1.00  0.00    -0.295 OA
ATOM      6  C   UNL     1     -12.887 -34.909  29.977  1.00  0.00     0.067 C 
ATOM      7  C   UNL     1     -13.993 -34.014  29.376  1.00  0.00     0.021 C 
ATOM      8  C   UNL     1     -13.494 -32.906  30.330  1.00  0.00     0.022 C 
ATOM      9  C   UNL     1     -12.107 -33.611  30.331  1.00  0.00    -0.019 C 
ATOM     10  C   UNL     1     -11.271 -33.587  31.643  1.00  0.00     0.012 C 
ATOM     11  C   UNL     1     -11.200 -33.132  29.170  1.00  0.00     0.012 C 
ENDROOT
TORSDOF 0
ENDMDL
MODEL 8
REMARK VINA RESULT:    -5.664      1.625      2.923
REMARK INTER + INTRA:          -5.664
REMARK INTER:                  -5.664
REMARK INTRA:                   0.000
REMARK UNBOUND:                 0.000
REMARK SMILES CC1=CC(=O)[C@H]2C[C@@H]1C2(C)C
REMARK SMILES IDX 1 1 2 2 3 3 4 4 5 5 6 6 7 7 8 8 9 9 10 10 11 11
REMARK H PARENT
REMARK Flexibility Score: inf
ROOT
ATOM      1  C   UNL     1     -13.900 -34.545  31.676  1.00  0.00     0.040 C 
ATOM      2  C   UNL     1     -13.120 -34.189  30.450  1.00  0.00    -0.066 C 
ATOM      3  C   UNL     1     -11.942 -33.510  30.531  1.00  0.00     0.047 C 
ATOM      4  C   UNL     1     -11.272 -33.187  29.230  1.00  0.00     0.159 C 
ATOM      5  O   UNL     1     -10.201 -32.529  29.172  1.00  0.00    -0.295 OA
ATOM      6  C   UNL     1     -11.981 -33.710  27.981  1.00  0.00     0.067 C 
ATOM      7  C   UNL     1     -12.348 -35.167  28.337  1.00  0.00     0.021 C 
ATOM      8  C   UNL     1     -13.598 -34.590  29.037  1.00  0.00     0.022 C 
ATOM      9  C   UNL     1     -13.493 -33.362  28.088  1.00  0.00    -0.019 C 
ATOM     10  C   UNL     1     -13.892 -31.965  28.644  1.00  0.00     0.012 C 
ATOM     11  C   UNL     1     -14.245 -33.583  26.751  1.00  0.00     0.012 C 
ENDROOT
TORSDOF 0
ENDMDL
MODEL 9
REMARK VINA RESULT:    -5.576      1.848      3.176
REMARK INTER + INTRA:          -5.576
REMARK INTER:                  -5.576
REMARK INTRA:                   0.000
REMARK UNBOUND:                 0.000
REMARK SMILES CC1=CC(=O)[C@H]2C[C@@H]1C2(C)C
REMARK SMILES IDX 1 1 2 2 3 3 4 4 5 5 6 6 7 7 8 8 9 9 10 10 11 11
REMARK H PARENT
REMARK Flexibility Score: inf
ROOT
ATOM      1  C   UNL     1     -14.231 -32.043  28.402  1.00  0.00     0.040 C 
ATOM      2  C   UNL     1     -13.238 -32.945  29.064  1.00  0.00    -0.066 C 
ATOM      3  C   UNL     1     -11.978 -33.098  28.569  1.00  0.00     0.047 C 
ATOM      4  C   UNL     1     -11.088 -34.054  29.304  1.00  0.00     0.159 C 
ATOM      5  O   UNL     1      -9.917 -34.311  28.921  1.00  0.00    -0.295 OA
ATOM      6  C   UNL     1     -11.703 -34.694  30.549  1.00  0.00     0.067 C 
ATOM      7  C   UNL     1     -12.375 -33.516  31.287  1.00  0.00     0.021 C 
ATOM      8  C   UNL     1     -13.583 -33.729  30.348  1.00  0.00     0.022 C 
ATOM      9  C   UNL     1     -13.126 -35.208  30.190  1.00  0.00    -0.019 C 
ATOM     10  C   UNL     1     -13.335 -35.900  28.812  1.00  0.00     0.012 C 
ATOM     11  C   UNL     1     -13.714 -36.129  31.288  1.00  0.00     0.012 C 
ENDROOT
TORSDOF 0
ENDMDL
