MODEL 1
REMARK VINA RESULT:    -7.339      0.000      0.000
REMARK INTER + INTRA:          -9.310
REMARK INTER:                  -8.841
REMARK INTRA:                  -0.469
REMARK UNBOUND:                -0.469
REMARK SMILES O=c1c(O)c(-c2ccc(O)cc2O)oc2cc(O)cc(O)c12
REMARK SMILES IDX 5 1 3 2 2 3 1 4 22 5 20 6 19 7 17 8 16 9 15 10 14 11 6 12
REMARK SMILES IDX 8 13 7 14 9 15 11 16 12 17 10 18 13 20 4 22 21 24 18 26
REMARK H PARENT 10 19 13 21 4 23 21 25 18 27
REMARK Flexibility Score: inf
ROOT
ATOM      1  C   UNL     1      17.927  44.460  57.044  1.00  0.00     0.184 A 
ATOM      2  C   UNL     1      18.025  43.378  56.153  1.00  0.00     0.208 A 
ATOM      3  C   UNL     1      19.296  42.915  55.780  1.00  0.00     0.238 A 
ATOM      4  O   UNL     1      19.377  41.982  54.940  1.00  0.00    -0.285 OA
ATOM      5  C   UNL     1      20.454  43.527  56.319  1.00  0.00     0.111 A 
ATOM      6  C   UNL     1      21.792  43.114  56.041  1.00  0.00     0.134 A 
ATOM      7  C   UNL     1      22.864  43.874  56.528  1.00  0.00     0.093 A 
ATOM      8  C   UNL     1      22.645  44.993  57.335  1.00  0.00     0.123 A 
ATOM      9  C   UNL     1      21.344  45.369  57.660  1.00  0.00     0.094 A 
ATOM     10  C   UNL     1      20.254  44.653  57.159  1.00  0.00     0.146 A 
ATOM     11  O   UNL     1      19.031  45.053  57.484  1.00  0.00    -0.451 OA
ENDROOT
BRANCH   1  12
ATOM     12  C   UNL     1      16.617  44.984  57.497  1.00  0.00     0.063 A 
ATOM     13  C   UNL     1      14.597  44.741  58.833  1.00  0.00     0.047 A 
ATOM     14  C   UNL     1      15.820  44.237  58.383  1.00  0.00     0.020 A 
ATOM     15  C   UNL     1      14.160  46.003  58.414  1.00  0.00     0.119 A 
ATOM     16  C   UNL     1      14.951  46.759  57.545  1.00  0.00     0.093 A 
ATOM     17  C   UNL     1      16.179  46.259  57.086  1.00  0.00     0.130 A 
BRANCH  15  18
ATOM     18  O   UNL     1      12.942  46.515  58.858  1.00  0.00    -0.508 OA
ATOM     19  H   UNL     1      12.696  46.520  59.840  1.00  0.00     0.293 HD
ENDBRANCH  15  18
BRANCH  17  20
ATOM     20  O   UNL     1      16.955  47.021  56.213  1.00  0.00    -0.507 OA
ATOM     21  H   UNL     1      17.671  46.600  55.633  1.00  0.00     0.293 HD
ENDBRANCH  17  20
ENDBRANCH   1  12
BRANCH   2  22
ATOM     22  O   UNL     1      16.867  42.798  55.625  1.00  0.00    -0.502 OA
ATOM     23  H   UNL     1      16.370  43.198  54.839  1.00  0.00     0.293 HD
ENDBRANCH   2  22
BRANCH   6  24
ATOM     24  O   UNL     1      22.121  41.961  55.323  1.00  0.00    -0.507 OA
ATOM     25  H   UNL     1      21.471  41.226  55.087  1.00  0.00     0.293 HD
ENDBRANCH   6  24
BRANCH   8  26
ATOM     26  O   UNL     1      23.718  45.733  57.828  1.00  0.00    -0.508 OA
ATOM     27  H   UNL     1      24.085  46.534  57.325  1.00  0.00     0.293 HD
ENDBRANCH   8  26
TORSDOF 6
ENDMDL
MODEL 2
REMARK VINA RESULT:    -7.033      1.978      6.627
REMARK INTER + INTRA:          -8.940
REMARK INTER:                  -9.038
REMARK INTRA:                   0.098
REMARK UNBOUND:                -0.469
REMARK SMILES O=c1c(O)c(-c2ccc(O)cc2O)oc2cc(O)cc(O)c12
REMARK SMILES IDX 5 1 3 2 2 3 1 4 22 5 20 6 19 7 17 8 16 9 15 10 14 11 6 12
REMARK SMILES IDX 8 13 7 14 9 15 11 16 12 17 10 18 13 20 4 22 21 24 18 26
REMARK H PARENT 10 19 13 21 4 23 21 25 18 27
REMARK Flexibility Score: inf
ROOT
ATOM      1  C   UNL     1      21.578  43.867  57.592  1.00  0.00     0.184 A 
ATOM      2  C   UNL     1      21.171  42.709  56.908  1.00  0.00     0.208 A 
ATOM      3  C   UNL     1      19.904  42.685  56.304  1.00  0.00     0.238 A 
ATOM      4  O   UNL     1      19.523  41.625  55.742  1.00  0.00    -0.285 OA
ATOM      5  C   UNL     1      19.069  43.826  56.374  1.00  0.00     0.111 A 
ATOM      6  C   UNL     1      17.782  43.927  55.765  1.00  0.00     0.134 A 
ATOM      7  C   UNL     1      16.990  45.057  56.008  1.00  0.00     0.093 A 
ATOM      8  C   UNL     1      17.465  46.117  56.784  1.00  0.00     0.123 A 
ATOM      9  C   UNL     1      18.743  46.053  57.334  1.00  0.00     0.094 A 
ATOM     10  C   UNL     1      19.542  44.923  57.141  1.00  0.00     0.146 A 
ATOM     11  O   UNL     1      20.749  44.899  57.693  1.00  0.00    -0.451 OA
ENDROOT
BRANCH   1  12
ATOM     12  C   UNL     1      22.912  43.969  58.231  1.00  0.00     0.063 A 
ATOM     13  C   UNL     1      24.796  42.917  59.356  1.00  0.00     0.047 A 
ATOM     14  C   UNL     1      23.528  42.828  58.778  1.00  0.00     0.020 A 
ATOM     15  C   UNL     1      25.471  44.142  59.387  1.00  0.00     0.119 A 
ATOM     16  C   UNL     1      24.873  45.278  58.834  1.00  0.00     0.093 A 
ATOM     17  C   UNL     1      23.599  45.199  58.254  1.00  0.00     0.130 A 
BRANCH  15  18
ATOM     18  O   UNL     1      26.737  44.242  59.961  1.00  0.00    -0.508 OA
ATOM     19  H   UNL     1      26.861  44.546  60.919  1.00  0.00     0.293 HD
ENDBRANCH  15  18
BRANCH  17  20
ATOM     20  O   UNL     1      23.011  46.342  57.712  1.00  0.00    -0.507 OA
ATOM     21  H   UNL     1      23.286  47.272  58.006  1.00  0.00     0.293 HD
ENDBRANCH  17  20
ENDBRANCH   1  12
BRANCH   2  22
ATOM     22  O   UNL     1      22.007  41.590  56.864  1.00  0.00    -0.502 OA
ATOM     23  H   UNL     1      22.302  41.166  55.994  1.00  0.00     0.293 HD
ENDBRANCH   2  22
BRANCH   6  24
ATOM     24  O   UNL     1      17.250  42.968  54.899  1.00  0.00    -0.507 OA
ATOM     25  H   UNL     1      17.715  42.112  54.633  1.00  0.00     0.293 HD
ENDBRANCH   6  24
BRANCH   8  26
ATOM     26  O   UNL     1      16.677  47.243  57.008  1.00  0.00    -0.508 OA
ATOM     27  H   UNL     1      16.881  48.131  56.561  1.00  0.00     0.293 HD
ENDBRANCH   8  26
TORSDOF 6
ENDMDL
MODEL 3
REMARK VINA RESULT:    -6.955      1.456      2.874
REMARK INTER + INTRA:          -8.847
REMARK INTER:                  -8.446
REMARK INTRA:                  -0.401
REMARK UNBOUND:                -0.469
REMARK SMILES O=c1c(O)c(-c2ccc(O)cc2O)oc2cc(O)cc(O)c12
REMARK SMILES IDX 5 1 3 2 2 3 1 4 22 5 20 6 19 7 17 8 16 9 15 10 14 11 6 12
REMARK SMILES IDX 8 13 7 14 9 15 11 16 12 17 10 18 13 20 4 22 21 24 18 26
REMARK H PARENT 10 19 13 21 4 23 21 25 18 27
REMARK Flexibility Score: inf
ROOT
ATOM      1  C   UNL     1      18.274  45.384  57.386  1.00  0.00     0.184 A 
ATOM      2  C   UNL     1      19.165  46.471  57.390  1.00  0.00     0.208 A 
ATOM      3  C   UNL     1      20.507  46.254  57.040  1.00  0.00     0.238 A 
ATOM      4  O   UNL     1      21.311  47.220  57.100  1.00  0.00    -0.285 OA
ATOM      5  C   UNL     1      20.936  44.957  56.669  1.00  0.00     0.111 A 
ATOM      6  C   UNL     1      22.263  44.629  56.257  1.00  0.00     0.134 A 
ATOM      7  C   UNL     1      22.607  43.289  56.036  1.00  0.00     0.093 A 
ATOM      8  C   UNL     1      21.654  42.273  56.151  1.00  0.00     0.123 A 
ATOM      9  C   UNL     1      20.343  42.589  56.495  1.00  0.00     0.094 A 
ATOM     10  C   UNL     1      19.978  43.912  56.757  1.00  0.00     0.146 A 
ATOM     11  O   UNL     1      18.720  44.168  57.093  1.00  0.00    -0.451 OA
ENDROOT
BRANCH   1  12
ATOM     12  C   UNL     1      16.840  45.547  57.723  1.00  0.00     0.063 A 
ATOM     13  C   UNL     1      15.101  46.059  59.346  1.00  0.00     0.047 A 
ATOM     14  C   UNL     1      16.450  45.878  59.033  1.00  0.00     0.020 A 
ATOM     15  C   UNL     1      14.124  45.924  58.353  1.00  0.00     0.119 A 
ATOM     16  C   UNL     1      14.503  45.609  57.046  1.00  0.00     0.093 A 
ATOM     17  C   UNL     1      15.855  45.423  56.723  1.00  0.00     0.130 A 
BRANCH  15  18
ATOM     18  O   UNL     1      12.775  46.103  58.655  1.00  0.00    -0.508 OA
ATOM     19  H   UNL     1      12.344  45.641  59.447  1.00  0.00     0.293 HD
ENDBRANCH  15  18
BRANCH  17  20
ATOM     20  O   UNL     1      16.218  45.102  55.415  1.00  0.00    -0.507 OA
ATOM     21  H   UNL     1      17.184  45.130  55.109  1.00  0.00     0.293 HD
ENDBRANCH  17  20
ENDBRANCH   1  12
BRANCH   2  22
ATOM     22  O   UNL     1      18.720  47.740  57.773  1.00  0.00    -0.502 OA
ATOM     23  H   UNL     1      18.410  47.945  58.714  1.00  0.00     0.293 HD
ENDBRANCH   2  22
BRANCH   6  24
ATOM     24  O   UNL     1      23.264  45.576  56.025  1.00  0.00    -0.507 OA
ATOM     25  H   UNL     1      23.345  46.458  56.508  1.00  0.00     0.293 HD
ENDBRANCH   6  24
BRANCH   8  26
ATOM     26  O   UNL     1      22.002  40.945  55.915  1.00  0.00    -0.508 OA
ATOM     27  H   UNL     1      21.873  40.229  56.622  1.00  0.00     0.293 HD
ENDBRANCH   8  26
TORSDOF 6
ENDMDL
MODEL 4
REMARK VINA RESULT:    -6.876      1.880      2.279
REMARK INTER + INTRA:          -8.751
REMARK INTER:                  -8.444
REMARK INTRA:                  -0.307
REMARK UNBOUND:                -0.469
REMARK SMILES O=c1c(O)c(-c2ccc(O)cc2O)oc2cc(O)cc(O)c12
REMARK SMILES IDX 5 1 3 2 2 3 1 4 22 5 20 6 19 7 17 8 16 9 15 10 14 11 6 12
REMARK SMILES IDX 8 13 7 14 9 15 11 16 12 17 10 18 13 20 4 22 21 24 18 26
REMARK H PARENT 10 19 13 21 4 23 21 25 18 27
REMARK Flexibility Score: inf
ROOT
ATOM      1  C   UNL     1      19.428  44.971  57.028  1.00  0.00     0.184 A 
ATOM      2  C   UNL     1      19.309  44.017  56.003  1.00  0.00     0.208 A 
ATOM      3  C   UNL     1      20.296  43.027  55.876  1.00  0.00     0.238 A 
ATOM      4  O   UNL     1      20.213  42.210  54.922  1.00  0.00    -0.285 OA
ATOM      5  C   UNL     1      21.378  42.990  56.788  1.00  0.00     0.111 A 
ATOM      6  C   UNL     1      22.414  42.008  56.778  1.00  0.00     0.134 A 
ATOM      7  C   UNL     1      23.504  42.145  57.647  1.00  0.00     0.093 A 
ATOM      8  C   UNL     1      23.562  43.193  58.570  1.00  0.00     0.123 A 
ATOM      9  C   UNL     1      22.527  44.123  58.627  1.00  0.00     0.094 A 
ATOM     10  C   UNL     1      21.445  44.034  57.748  1.00  0.00     0.146 A 
ATOM     11  O   UNL     1      20.486  44.948  57.829  1.00  0.00    -0.451 OA
ENDROOT
BRANCH   1  12
ATOM     12  C   UNL     1      18.411  46.029  57.233  1.00  0.00     0.063 A 
ATOM     13  C   UNL     1      16.099  46.685  57.617  1.00  0.00     0.047 A 
ATOM     14  C   UNL     1      17.055  45.691  57.396  1.00  0.00     0.020 A 
ATOM     15  C   UNL     1      16.484  48.028  57.690  1.00  0.00     0.119 A 
ATOM     16  C   UNL     1      17.831  48.373  57.543  1.00  0.00     0.093 A 
ATOM     17  C   UNL     1      18.797  47.382  57.318  1.00  0.00     0.130 A 
BRANCH  15  18
ATOM     18  O   UNL     1      15.538  49.027  57.911  1.00  0.00    -0.508 OA
ATOM     19  H   UNL     1      14.572  48.805  58.120  1.00  0.00     0.293 HD
ENDBRANCH  15  18
BRANCH  17  20
ATOM     20  O   UNL     1      20.137  47.741  57.167  1.00  0.00    -0.507 OA
ATOM     21  H   UNL     1      20.834  47.499  57.862  1.00  0.00     0.293 HD
ENDBRANCH  17  20
ENDBRANCH   1  12
BRANCH   2  22
ATOM     22  O   UNL     1      18.238  44.081  55.106  1.00  0.00    -0.502 OA
ATOM     23  H   UNL     1      18.361  43.989  54.106  1.00  0.00     0.293 HD
ENDBRANCH   2  22
BRANCH   6  24
ATOM     24  O   UNL     1      22.407  40.875  55.960  1.00  0.00    -0.507 OA
ATOM     25  H   UNL     1      22.925  40.783  55.099  1.00  0.00     0.293 HD
ENDBRANCH   6  24
BRANCH   8  26
ATOM     26  O   UNL     1      24.643  43.312  59.441  1.00  0.00    -0.508 OA
ATOM     27  H   UNL     1      25.293  42.548  59.587  1.00  0.00     0.293 HD
ENDBRANCH   8  26
TORSDOF 6
ENDMDL
MODEL 5
REMARK VINA RESULT:    -6.749      1.636      6.316
REMARK INTER + INTRA:          -8.598
REMARK INTER:                  -8.513
REMARK INTRA:                  -0.085
REMARK UNBOUND:                -0.469
REMARK SMILES O=c1c(O)c(-c2ccc(O)cc2O)oc2cc(O)cc(O)c12
REMARK SMILES IDX 5 1 3 2 2 3 1 4 22 5 20 6 19 7 17 8 16 9 15 10 14 11 6 12
REMARK SMILES IDX 8 13 7 14 9 15 11 16 12 17 10 18 13 20 4 22 21 24 18 26
REMARK H PARENT 10 19 13 21 4 23 21 25 18 27
REMARK Flexibility Score: inf
ROOT
ATOM      1  C   UNL     1      18.393  44.295  56.614  1.00  0.00     0.184 A 
ATOM      2  C   UNL     1      17.248  43.934  55.883  1.00  0.00     0.208 A 
ATOM      3  C   UNL     1      16.061  44.658  56.075  1.00  0.00     0.238 A 
ATOM      4  O   UNL     1      15.026  44.294  55.459  1.00  0.00    -0.285 OA
ATOM      5  C   UNL     1      16.039  45.746  56.980  1.00  0.00     0.111 A 
ATOM      6  C   UNL     1      14.902  46.575  57.223  1.00  0.00     0.134 A 
ATOM      7  C   UNL     1      14.957  47.543  58.234  1.00  0.00     0.093 A 
ATOM      8  C   UNL     1      16.129  47.755  58.966  1.00  0.00     0.123 A 
ATOM      9  C   UNL     1      17.261  46.992  58.695  1.00  0.00     0.094 A 
ATOM     10  C   UNL     1      17.226  45.994  57.718  1.00  0.00     0.146 A 
ATOM     11  O   UNL     1      18.325  45.281  57.500  1.00  0.00    -0.451 OA
ENDROOT
BRANCH   1  12
ATOM     12  C   UNL     1      19.685  43.589  56.443  1.00  0.00     0.063 A 
ATOM     13  C   UNL     1      20.934  41.522  56.146  1.00  0.00     0.047 A 
ATOM     14  C   UNL     1      19.721  42.187  56.335  1.00  0.00     0.020 A 
ATOM     15  C   UNL     1      22.127  42.247  56.051  1.00  0.00     0.119 A 
ATOM     16  C   UNL     1      22.100  43.642  56.144  1.00  0.00     0.093 A 
ATOM     17  C   UNL     1      20.886  44.318  56.336  1.00  0.00     0.130 A 
BRANCH  15  18
ATOM     18  O   UNL     1      23.343  41.594  55.862  1.00  0.00    -0.508 OA
ATOM     19  H   UNL     1      23.701  40.934  56.543  1.00  0.00     0.293 HD
ENDBRANCH  15  18
BRANCH  17  20
ATOM     20  O   UNL     1      20.875  45.709  56.433  1.00  0.00    -0.507 OA
ATOM     21  H   UNL     1      21.468  46.201  57.092  1.00  0.00     0.293 HD
ENDBRANCH  17  20
ENDBRANCH   1  12
BRANCH   2  22
ATOM     22  O   UNL     1      17.291  42.846  55.006  1.00  0.00    -0.502 OA
ATOM     23  H   UNL     1      17.973  42.777  54.261  1.00  0.00     0.293 HD
ENDBRANCH   2  22
BRANCH   6  24
ATOM     24  O   UNL     1      13.715  46.507  56.489  1.00  0.00    -0.507 OA
ATOM     25  H   UNL     1      13.152  45.676  56.381  1.00  0.00     0.293 HD
ENDBRANCH   6  24
BRANCH   8  26
ATOM     26  O   UNL     1      16.179  48.731  59.959  1.00  0.00    -0.508 OA
ATOM     27  H   UNL     1      16.427  49.691  59.747  1.00  0.00     0.293 HD
ENDBRANCH   8  26
TORSDOF 6
ENDMDL
MODEL 6
REMARK VINA RESULT:    -6.713      1.521      6.849
REMARK INTER + INTRA:          -8.555
REMARK INTER:                  -8.269
REMARK INTRA:                  -0.286
REMARK UNBOUND:                -0.469
REMARK SMILES O=c1c(O)c(-c2ccc(O)cc2O)oc2cc(O)cc(O)c12
REMARK SMILES IDX 5 1 3 2 2 3 1 4 22 5 20 6 19 7 17 8 16 9 15 10 14 11 6 12
REMARK SMILES IDX 8 13 7 14 9 15 11 16 12 17 10 18 13 20 4 22 21 24 18 26
REMARK H PARENT 10 19 13 21 4 23 21 25 18 27
REMARK Flexibility Score: inf
ROOT
ATOM      1  C   UNL     1      18.677  44.888  57.033  1.00  0.00     0.184 A 
ATOM      2  C   UNL     1      19.035  46.246  56.978  1.00  0.00     0.208 A 
ATOM      3  C   UNL     1      18.069  47.219  57.281  1.00  0.00     0.238 A 
ATOM      4  O   UNL     1      18.381  48.433  57.176  1.00  0.00    -0.285 OA
ATOM      5  C   UNL     1      16.763  46.820  57.655  1.00  0.00     0.111 A 
ATOM      6  C   UNL     1      15.715  47.719  58.022  1.00  0.00     0.134 A 
ATOM      7  C   UNL     1      14.426  47.220  58.250  1.00  0.00     0.093 A 
ATOM      8  C   UNL     1      14.163  45.849  58.187  1.00  0.00     0.123 A 
ATOM      9  C   UNL     1      15.191  44.959  57.888  1.00  0.00     0.094 A 
ATOM     10  C   UNL     1      16.479  45.430  57.619  1.00  0.00     0.146 A 
ATOM     11  O   UNL     1      17.427  44.548  57.327  1.00  0.00    -0.451 OA
ENDROOT
BRANCH   1  12
ATOM     12  C   UNL     1      19.653  43.810  56.748  1.00  0.00     0.063 A 
ATOM     13  C   UNL     1      21.793  42.736  57.179  1.00  0.00     0.047 A 
ATOM     14  C   UNL     1      20.884  43.767  57.426  1.00  0.00     0.020 A 
ATOM     15  C   UNL     1      21.481  41.728  56.260  1.00  0.00     0.119 A 
ATOM     16  C   UNL     1      20.255  41.755  55.591  1.00  0.00     0.093 A 
ATOM     17  C   UNL     1      19.336  42.787  55.831  1.00  0.00     0.130 A 
BRANCH  15  18
ATOM     18  O   UNL     1      22.381  40.695  56.006  1.00  0.00    -0.508 OA
ATOM     19  H   UNL     1      22.528  40.339  55.069  1.00  0.00     0.293 HD
ENDBRANCH  15  18
BRANCH  17  20
ATOM     20  O   UNL     1      18.118  42.805  55.151  1.00  0.00    -0.507 OA
ATOM     21  H   UNL     1      17.715  43.668  54.805  1.00  0.00     0.293 HD
ENDBRANCH  17  20
ENDBRANCH   1  12
BRANCH   2  22
ATOM     22  O   UNL     1      20.327  46.615  56.593  1.00  0.00    -0.502 OA
ATOM     23  H   UNL     1      21.139  46.429  57.168  1.00  0.00     0.293 HD
ENDBRANCH   2  22
BRANCH   6  24
ATOM     24  O   UNL     1      15.893  49.093  58.202  1.00  0.00    -0.507 OA
ATOM     25  H   UNL     1      16.645  49.633  57.801  1.00  0.00     0.293 HD
ENDBRANCH   6  24
BRANCH   8  26
ATOM     26  O   UNL     1      12.881  45.361  58.430  1.00  0.00    -0.508 OA
ATOM     27  H   UNL     1      12.668  44.819  59.261  1.00  0.00     0.293 HD
ENDBRANCH   8  26
TORSDOF 6
ENDMDL
MODEL 7
REMARK VINA RESULT:    -6.622      2.139      6.998
REMARK INTER + INTRA:          -8.446
REMARK INTER:                  -8.212
REMARK INTRA:                  -0.234
REMARK UNBOUND:                -0.469
REMARK SMILES O=c1c(O)c(-c2ccc(O)cc2O)oc2cc(O)cc(O)c12
REMARK SMILES IDX 5 1 3 2 2 3 1 4 22 5 20 6 19 7 17 8 16 9 15 10 14 11 6 12
REMARK SMILES IDX 8 13 7 14 9 15 11 16 12 17 10 18 13 20 4 22 21 24 18 26
REMARK H PARENT 10 19 13 21 4 23 21 25 18 27
REMARK Flexibility Score: inf
ROOT
ATOM      1  C   UNL     1      19.874  45.439  57.702  1.00  0.00     0.184 A 
ATOM      2  C   UNL     1      20.236  46.219  58.814  1.00  0.00     0.208 A 
ATOM      3  C   UNL     1      19.298  47.114  59.353  1.00  0.00     0.238 A 
ATOM      4  O   UNL     1      19.647  47.849  60.312  1.00  0.00    -0.285 OA
ATOM      5  C   UNL     1      18.003  47.201  58.787  1.00  0.00     0.111 A 
ATOM      6  C   UNL     1      16.960  48.044  59.276  1.00  0.00     0.134 A 
ATOM      7  C   UNL     1      15.760  48.144  58.560  1.00  0.00     0.093 A 
ATOM      8  C   UNL     1      15.543  47.384  57.408  1.00  0.00     0.123 A 
ATOM      9  C   UNL     1      16.532  46.514  56.956  1.00  0.00     0.094 A 
ATOM     10  C   UNL     1      17.754  46.420  57.628  1.00  0.00     0.146 A 
ATOM     11  O   UNL     1      18.673  45.587  57.156  1.00  0.00    -0.451 OA
ENDROOT
BRANCH   1  12
ATOM     12  C   UNL     1      20.808  44.458  57.098  1.00  0.00     0.063 A 
ATOM     13  C   UNL     1      21.360  42.165  56.502  1.00  0.00     0.047 A 
ATOM     14  C   UNL     1      20.495  43.087  57.095  1.00  0.00     0.020 A 
ATOM     15  C   UNL     1      22.543  42.600  55.894  1.00  0.00     0.119 A 
ATOM     16  C   UNL     1      22.856  43.962  55.880  1.00  0.00     0.093 A 
ATOM     17  C   UNL     1      21.994  44.895  56.475  1.00  0.00     0.130 A 
BRANCH  15  18
ATOM     18  O   UNL     1      23.413  41.688  55.298  1.00  0.00    -0.508 OA
ATOM     19  H   UNL     1      24.228  41.995  54.781  1.00  0.00     0.293 HD
ENDBRANCH  15  18
BRANCH  17  20
ATOM     20  O   UNL     1      22.322  46.251  56.460  1.00  0.00    -0.507 OA
ATOM     21  H   UNL     1      21.618  46.969  56.587  1.00  0.00     0.293 HD
ENDBRANCH  17  20
ENDBRANCH   1  12
BRANCH   2  22
ATOM     22  O   UNL     1      21.525  46.125  59.346  1.00  0.00    -0.502 OA
ATOM     23  H   UNL     1      22.133  46.928  59.442  1.00  0.00     0.293 HD
ENDBRANCH   2  22
BRANCH   6  24
ATOM     24  O   UNL     1      17.040  48.775  60.465  1.00  0.00    -0.507 OA
ATOM     25  H   UNL     1      16.345  48.762  61.196  1.00  0.00     0.293 HD
ENDBRANCH   6  24
BRANCH   8  26
ATOM     26  O   UNL     1      14.341  47.479  56.711  1.00  0.00    -0.508 OA
ATOM     27  H   UNL     1      14.284  47.267  55.721  1.00  0.00     0.293 HD
ENDBRANCH   8  26
TORSDOF 6
ENDMDL
MODEL 8
REMARK VINA RESULT:    -6.534      2.026      6.744
REMARK INTER + INTRA:          -8.340
REMARK INTER:                  -7.861
REMARK INTRA:                  -0.479
REMARK UNBOUND:                -0.469
REMARK SMILES O=c1c(O)c(-c2ccc(O)cc2O)oc2cc(O)cc(O)c12
REMARK SMILES IDX 5 1 3 2 2 3 1 4 22 5 20 6 19 7 17 8 16 9 15 10 14 11 6 12
REMARK SMILES IDX 8 13 7 14 9 15 11 16 12 17 10 18 13 20 4 22 21 24 18 26
REMARK H PARENT 10 19 13 21 4 23 21 25 18 27
REMARK Flexibility Score: inf
ROOT
ATOM      1  C   UNL     1      17.706  45.117  57.482  1.00  0.00     0.184 A 
ATOM      2  C   UNL     1      17.358  46.358  56.923  1.00  0.00     0.208 A 
ATOM      3  C   UNL     1      16.520  47.221  57.646  1.00  0.00     0.238 A 
ATOM      4  O   UNL     1      16.167  48.306  57.116  1.00  0.00    -0.285 OA
ATOM      5  C   UNL     1      16.058  46.841  58.929  1.00  0.00     0.111 A 
ATOM      6  C   UNL     1      15.236  47.653  59.768  1.00  0.00     0.134 A 
ATOM      7  C   UNL     1      14.733  47.123  60.963  1.00  0.00     0.093 A 
ATOM      8  C   UNL     1      15.074  45.833  61.379  1.00  0.00     0.123 A 
ATOM      9  C   UNL     1      15.922  45.055  60.596  1.00  0.00     0.094 A 
ATOM     10  C   UNL     1      16.410  45.542  59.381  1.00  0.00     0.146 A 
ATOM     11  O   UNL     1      17.207  44.762  58.660  1.00  0.00    -0.451 OA
ENDROOT
BRANCH   1  12
ATOM     12  C   UNL     1      18.604  44.168  56.783  1.00  0.00     0.063 A 
ATOM     13  C   UNL     1      20.849  43.428  56.205  1.00  0.00     0.047 A 
ATOM     14  C   UNL     1      20.000  44.336  56.840  1.00  0.00     0.020 A 
ATOM     15  C   UNL     1      20.318  42.333  55.513  1.00  0.00     0.119 A 
ATOM     16  C   UNL     1      18.934  42.149  55.463  1.00  0.00     0.093 A 
ATOM     17  C   UNL     1      18.073  43.058  56.096  1.00  0.00     0.130 A 
BRANCH  15  18
ATOM     18  O   UNL     1      21.157  41.420  54.877  1.00  0.00    -0.508 OA
ATOM     19  H   UNL     1      20.801  40.760  54.195  1.00  0.00     0.293 HD
ENDBRANCH  15  18
BRANCH  17  20
ATOM     20  O   UNL     1      16.693  42.867  56.031  1.00  0.00    -0.507 OA
ATOM     21  H   UNL     1      16.065  43.296  56.701  1.00  0.00     0.293 HD
ENDBRANCH  17  20
ENDBRANCH   1  12
BRANCH   2  22
ATOM     22  O   UNL     1      17.816  46.706  55.648  1.00  0.00    -0.502 OA
ATOM     23  H   UNL     1      17.860  46.040  54.887  1.00  0.00     0.293 HD
ENDBRANCH   2  22
BRANCH   6  24
ATOM     24  O   UNL     1      14.911  48.983  59.490  1.00  0.00    -0.507 OA
ATOM     25  H   UNL     1      13.992  49.309  59.233  1.00  0.00     0.293 HD
ENDBRANCH   6  24
BRANCH   8  26
ATOM     26  O   UNL     1      14.581  45.320  62.577  1.00  0.00    -0.508 OA
ATOM     27  H   UNL     1      14.765  44.364  62.860  1.00  0.00     0.293 HD
ENDBRANCH   8  26
TORSDOF 6
ENDMDL
MODEL 9
REMARK VINA RESULT:    -6.504      4.473      6.990
REMARK INTER + INTRA:          -8.303
REMARK INTER:                  -8.022
REMARK INTRA:                  -0.280
REMARK UNBOUND:                -0.469
REMARK SMILES O=c1c(O)c(-c2ccc(O)cc2O)oc2cc(O)cc(O)c12
REMARK SMILES IDX 5 1 3 2 2 3 1 4 22 5 20 6 19 7 17 8 16 9 15 10 14 11 6 12
REMARK SMILES IDX 8 13 7 14 9 15 11 16 12 17 10 18 13 20 4 22 21 24 18 26
REMARK H PARENT 10 19 13 21 4 23 21 25 18 27
REMARK Flexibility Score: inf
ROOT
ATOM      1  C   UNL     1      16.501  46.188  60.343  1.00  0.00     0.184 A 
ATOM      2  C   UNL     1      15.318  46.608  60.976  1.00  0.00     0.208 A 
ATOM      3  C   UNL     1      15.365  46.987  62.327  1.00  0.00     0.238 A 
ATOM      4  O   UNL     1      14.293  47.308  62.902  1.00  0.00    -0.285 OA
ATOM      5  C   UNL     1      16.598  46.962  63.022  1.00  0.00     0.111 A 
ATOM      6  C   UNL     1      16.770  47.364  64.381  1.00  0.00     0.134 A 
ATOM      7  C   UNL     1      18.011  47.176  65.005  1.00  0.00     0.093 A 
ATOM      8  C   UNL     1      19.101  46.661  64.298  1.00  0.00     0.123 A 
ATOM      9  C   UNL     1      18.959  46.322  62.955  1.00  0.00     0.094 A 
ATOM     10  C   UNL     1      17.724  46.464  62.316  1.00  0.00     0.146 A 
ATOM     11  O   UNL     1      17.630  46.117  61.038  1.00  0.00    -0.451 OA
ENDROOT
BRANCH   1  12
ATOM     12  C   UNL     1      16.526  45.797  58.914  1.00  0.00     0.063 A 
ATOM     13  C   UNL     1      17.295  46.178  56.637  1.00  0.00     0.047 A 
ATOM     14  C   UNL     1      17.247  46.562  57.979  1.00  0.00     0.020 A 
ATOM     15  C   UNL     1      16.634  45.020  56.212  1.00  0.00     0.119 A 
ATOM     16  C   UNL     1      15.927  44.246  57.136  1.00  0.00     0.093 A 
ATOM     17  C   UNL     1      15.871  44.625  58.485  1.00  0.00     0.130 A 
BRANCH  15  18
ATOM     18  O   UNL     1      16.676  44.629  54.875  1.00  0.00    -0.508 OA
ATOM     19  H   UNL     1      15.829  44.458  54.347  1.00  0.00     0.293 HD
ENDBRANCH  15  18
BRANCH  17  20
ATOM     20  O   UNL     1      15.155  43.846  59.395  1.00  0.00    -0.507 OA
ATOM     21  H   UNL     1      14.208  43.542  59.204  1.00  0.00     0.293 HD
ENDBRANCH  17  20
ENDBRANCH   1  12
BRANCH   2  22
ATOM     22  O   UNL     1      14.110  46.611  60.272  1.00  0.00    -0.502 OA
ATOM     23  H   UNL     1      13.868  47.338  59.611  1.00  0.00     0.293 HD
ENDBRANCH   2  22
BRANCH   6  24
ATOM     24  O   UNL     1      15.773  47.971  65.148  1.00  0.00    -0.507 OA
ATOM     25  H   UNL     1      15.189  47.491  65.816  1.00  0.00     0.293 HD
ENDBRANCH   6  24
BRANCH   8  26
ATOM     26  O   UNL     1      20.335  46.492  64.922  1.00  0.00    -0.508 OA
ATOM     27  H   UNL     1      21.153  46.185  64.406  1.00  0.00     0.293 HD
ENDBRANCH   8  26
TORSDOF 6
ENDMDL
