MODEL 1
REMARK VINA RESULT:     1.430      0.000      0.000
REMARK INTER + INTRA:           1.505
REMARK INTER:                   1.639
REMARK INTRA:                  -0.134
REMARK UNBOUND:                -0.134
REMARK SMILES COc1ccc(C(C)=O)cc1O
REMARK SMILES IDX 6 1 10 2 11 3 3 4 4 5 5 6 7 7 8 8 9 9 12 10 2 12 1 13
REMARK H PARENT 12 11
REMARK Flexibility Score: inf
ROOT
ATOM      1  C   UNL     1      91.533  17.430 119.936  1.00  0.00     0.021 A 
ATOM      2  C   UNL     1      92.120  16.958 118.747  1.00  0.00     0.062 A 
ATOM      3  C   UNL     1      93.422  16.444 118.742  1.00  0.00     0.158 A 
ATOM      4  C   UNL     1      94.165  16.392 119.934  1.00  0.00     0.160 A 
ATOM      5  C   UNL     1      93.582  16.862 121.125  1.00  0.00     0.051 A 
ATOM      6  C   UNL     1      92.282  17.373 121.125  1.00  0.00     0.016 A 
ENDROOT
BRANCH   1   7
ATOM      7  C   UNL     1      90.150  17.978 119.953  1.00  0.00     0.159 C 
ATOM      8  C   UNL     1      89.615  18.746 121.125  1.00  0.00     0.093 C 
ATOM      9  O   UNL     1      89.394  17.799 118.959  1.00  0.00    -0.295 OA
ENDBRANCH   1   7
BRANCH   3  10
ATOM     10  O   UNL     1      93.960  15.989 117.540  1.00  0.00    -0.504 OA
ATOM     11  H   UNL     1      93.426  15.434 116.883  1.00  0.00     0.293 HD
ENDBRANCH   3  10
BRANCH   4  12
ATOM     12  O   UNL     1      95.469  15.871 119.900  1.00  0.00    -0.493 OA
ATOM     13  C   UNL     1      96.645  16.619 120.190  1.00  0.00     0.278 C 
ENDBRANCH   4  12
TORSDOF 3
ENDMDL
MODEL 2
REMARK VINA RESULT:     1.814      1.666      1.806
REMARK INTER + INTRA:           1.946
REMARK INTER:                   2.071
REMARK INTRA:                  -0.125
REMARK UNBOUND:                -0.134
REMARK SMILES COc1ccc(C(C)=O)cc1O
REMARK SMILES IDX 6 1 10 2 11 3 3 4 4 5 5 6 7 7 8 8 9 9 12 10 2 12 1 13
REMARK H PARENT 12 11
REMARK Flexibility Score: inf
ROOT
ATOM      1  C   UNL     1      92.246  17.224 119.922  1.00  0.00     0.021 A 
ATOM      2  C   UNL     1      92.625  16.627 118.705  1.00  0.00     0.062 A 
ATOM      3  C   UNL     1      93.498  15.534 118.681  1.00  0.00     0.158 A 
ATOM      4  C   UNL     1      94.012  15.014 119.881  1.00  0.00     0.160 A 
ATOM      5  C   UNL     1      93.636  15.607 121.100  1.00  0.00     0.051 A 
ATOM      6  C   UNL     1      92.763  16.698 121.119  1.00  0.00     0.016 A 
ENDROOT
BRANCH   1   7
ATOM      7  C   UNL     1      91.318  18.386 119.959  1.00  0.00     0.159 C 
ATOM      8  C   UNL     1      90.265  18.529 121.018  1.00  0.00     0.093 C 
ATOM      9  O   UNL     1      91.407  19.287 119.080  1.00  0.00    -0.295 OA
ENDBRANCH   1   7
BRANCH   3  10
ATOM     10  O   UNL     1      93.845  14.977 117.451  1.00  0.00    -0.504 OA
ATOM     11  H   UNL     1      94.402  15.476 116.769  1.00  0.00     0.293 HD
ENDBRANCH   3  10
BRANCH   4  12
ATOM     12  O   UNL     1      94.886  13.917 119.827  1.00  0.00    -0.493 OA
ATOM     13  C   UNL     1      94.647  12.662 120.457  1.00  0.00     0.278 C 
ENDBRANCH   4  12
TORSDOF 3
ENDMDL
MODEL 3
REMARK VINA RESULT:     4.271      3.374      5.243
REMARK INTER + INTRA:           4.761
REMARK INTER:                   4.883
REMARK INTRA:                  -0.122
REMARK UNBOUND:                -0.134
REMARK SMILES COc1ccc(C(C)=O)cc1O
REMARK SMILES IDX 6 1 10 2 11 3 3 4 4 5 5 6 7 7 8 8 9 9 12 10 2 12 1 13
REMARK H PARENT 12 11
REMARK Flexibility Score: inf
ROOT
ATOM      1  C   UNL     1      93.732  12.963 120.857  1.00  0.00     0.021 A 
ATOM      2  C   UNL     1      94.779  13.817 120.461  1.00  0.00     0.062 A 
ATOM      3  C   UNL     1      94.574  15.196 120.334  1.00  0.00     0.158 A 
ATOM      4  C   UNL     1      93.311  15.749 120.603  1.00  0.00     0.160 A 
ATOM      5  C   UNL     1      92.262  14.900 120.999  1.00  0.00     0.051 A 
ATOM      6  C   UNL     1      92.471  13.525 121.124  1.00  0.00     0.016 A 
ENDROOT
BRANCH   1   7
ATOM      7  C   UNL     1      93.938  11.497 120.995  1.00  0.00     0.159 C 
ATOM      8  C   UNL     1      92.789  10.537 121.070  1.00  0.00     0.093 C 
ATOM      9  O   UNL     1      95.110  11.032 121.052  1.00  0.00    -0.295 OA
ENDBRANCH   1   7
BRANCH   3  10
ATOM     10  O   UNL     1      95.642  16.000 119.939  1.00  0.00    -0.504 OA
ATOM     11  H   UNL     1      95.587  16.617 119.139  1.00  0.00     0.293 HD
ENDBRANCH   3  10
BRANCH   4  12
ATOM     12  O   UNL     1      93.134  17.136 120.468  1.00  0.00    -0.493 OA
ATOM     13  C   UNL     1      91.966  17.753 119.936  1.00  0.00     0.278 C 
ENDBRANCH   4  12
TORSDOF 3
ENDMDL
