MODEL 1
REMARK VINA RESULT:    -6.536      0.000      0.000
REMARK INTER + INTRA:          -7.109
REMARK INTER:                  -7.109
REMARK INTRA:                   0.000
REMARK UNBOUND:                 0.000
REMARK SMILES Cc1cc(O)c2c(c1)C(=O)c1cc(O)cc(O)c1C2=O
REMARK SMILES IDX 1 1 2 2 8 3 7 4 6 5 4 6 3 7 19 8 20 9 18 10 11 11 9 12 10 13
REMARK SMILES IDX 12 14 13 15 15 16 16 17 5 18 17 20 14 22
REMARK H PARENT 5 19 17 21 14 23
REMARK Flexibility Score: inf
ROOT
ATOM      1  C   UNL     1      18.447 -39.119  -3.637  1.00  0.00     0.044 C 
ATOM      2  C   UNL     1      17.491 -38.108  -3.074  1.00  0.00    -0.047 A 
ATOM      3  C   UNL     1      16.234 -37.928  -3.660  1.00  0.00     0.016 A 
ATOM      4  C   UNL     1      15.342 -36.965  -3.158  1.00  0.00     0.038 A 
ATOM      5  C   UNL     1      15.715 -36.169  -2.052  1.00  0.00     0.076 A 
ATOM      6  C   UNL     1      17.023 -36.299  -1.517  1.00  0.00     0.127 A 
ATOM      7  C   UNL     1      17.886 -37.278  -2.020  1.00  0.00     0.050 A 
ATOM      8  C   UNL     1      14.694 -35.269  -1.458  1.00  0.00     0.201 C 
ATOM      9  O   UNL     1      14.738 -34.996  -0.228  1.00  0.00    -0.288 OA
ATOM     10  C   UNL     1      13.523 -34.843  -2.268  1.00  0.00     0.076 A 
ATOM     11  C   UNL     1      13.154 -35.640  -3.376  1.00  0.00     0.041 A 
ATOM     12  C   UNL     1      14.014 -36.774  -3.789  1.00  0.00     0.194 C 
ATOM     13  O   UNL     1      13.626 -37.563  -4.695  1.00  0.00    -0.289 OA
ATOM     14  C   UNL     1      11.975 -35.351  -4.083  1.00  0.00     0.059 A 
ATOM     15  C   UNL     1      11.172 -34.273  -3.710  1.00  0.00     0.120 A 
ATOM     16  C   UNL     1      11.554 -33.458  -2.642  1.00  0.00     0.093 A 
ATOM     17  C   UNL     1      12.733 -33.713  -1.934  1.00  0.00     0.131 A 
ENDROOT
BRANCH   6  18
ATOM     18  O   UNL     1      17.517 -35.457  -0.517  1.00  0.00    -0.507 OA
ATOM     19  H   UNL     1      18.305 -35.691   0.070  1.00  0.00     0.293 HD
ENDBRANCH   6  18
BRANCH  17  20
ATOM     20  O   UNL     1      13.096 -32.803  -0.939  1.00  0.00    -0.507 OA
ATOM     21  H   UNL     1      13.846 -32.965  -0.281  1.00  0.00     0.293 HD
ENDBRANCH  17  20
BRANCH  15  22
ATOM     22  O   UNL     1      10.001 -34.013  -4.419  1.00  0.00    -0.508 OA
ATOM     23  H   UNL     1       9.295 -34.727  -4.558  1.00  0.00     0.293 HD
ENDBRANCH  15  22
TORSDOF 3
ENDMDL
MODEL 2
REMARK VINA RESULT:    -6.479      1.597      5.578
REMARK INTER + INTRA:          -7.048
REMARK INTER:                  -7.048
REMARK INTRA:                   0.000
REMARK UNBOUND:                 0.000
REMARK SMILES Cc1cc(O)c2c(c1)C(=O)c1cc(O)cc(O)c1C2=O
REMARK SMILES IDX 1 1 2 2 8 3 7 4 6 5 4 6 3 7 19 8 20 9 18 10 11 11 9 12 10 13
REMARK SMILES IDX 12 14 13 15 15 16 16 17 5 18 17 20 14 22
REMARK H PARENT 5 19 17 21 14 23
REMARK Flexibility Score: inf
ROOT
ATOM      1  C   UNL     1       8.906 -35.126  -4.746  1.00  0.00     0.044 C 
ATOM      2  C   UNL     1      10.310 -35.053  -4.221  1.00  0.00    -0.047 A 
ATOM      3  C   UNL     1      11.181 -36.134  -4.390  1.00  0.00     0.016 A 
ATOM      4  C   UNL     1      12.489 -36.087  -3.877  1.00  0.00     0.038 A 
ATOM      5  C   UNL     1      12.931 -34.938  -3.184  1.00  0.00     0.076 A 
ATOM      6  C   UNL     1      12.017 -33.880  -2.944  1.00  0.00     0.127 A 
ATOM      7  C   UNL     1      10.727 -33.941  -3.481  1.00  0.00     0.050 A 
ATOM      8  C   UNL     1      14.361 -34.864  -2.789  1.00  0.00     0.201 C 
ATOM      9  O   UNL     1      14.933 -33.743  -2.713  1.00  0.00    -0.288 OA
ATOM     10  C   UNL     1      15.159 -36.111  -2.665  1.00  0.00     0.076 A 
ATOM     11  C   UNL     1      14.711 -37.260  -3.357  1.00  0.00     0.041 A 
ATOM     12  C   UNL     1      13.403 -37.240  -4.053  1.00  0.00     0.194 C 
ATOM     13  O   UNL     1      13.057 -38.216  -4.775  1.00  0.00    -0.289 OA
ATOM     14  C   UNL     1      15.508 -38.418  -3.379  1.00  0.00     0.059 A 
ATOM     15  C   UNL     1      16.731 -38.448  -2.709  1.00  0.00     0.120 A 
ATOM     16  C   UNL     1      17.159 -37.329  -1.990  1.00  0.00     0.093 A 
ATOM     17  C   UNL     1      16.376 -36.172  -1.937  1.00  0.00     0.131 A 
ENDROOT
BRANCH   6  18
ATOM     18  O   UNL     1      12.333 -32.774  -2.152  1.00  0.00    -0.507 OA
ATOM     19  H   UNL     1      13.279 -32.498  -1.930  1.00  0.00     0.293 HD
ENDBRANCH   6  18
BRANCH  17  20
ATOM     20  O   UNL     1      16.823 -35.128  -1.125  1.00  0.00    -0.507 OA
ATOM     21  H   UNL     1      16.880 -34.167  -1.431  1.00  0.00     0.293 HD
ENDBRANCH  17  20
BRANCH  15  22
ATOM     22  O   UNL     1      17.510 -39.603  -2.755  1.00  0.00    -0.508 OA
ATOM     23  H   UNL     1      17.109 -40.519  -2.591  1.00  0.00     0.293 HD
ENDBRANCH  15  22
TORSDOF 3
ENDMDL
MODEL 3
REMARK VINA RESULT:    -6.467      3.175      6.188
REMARK INTER + INTRA:          -7.035
REMARK INTER:                  -7.035
REMARK INTRA:                   0.000
REMARK UNBOUND:                 0.000
REMARK SMILES Cc1cc(O)c2c(c1)C(=O)c1cc(O)cc(O)c1C2=O
REMARK SMILES IDX 1 1 2 2 8 3 7 4 6 5 4 6 3 7 19 8 20 9 18 10 11 11 9 12 10 13
REMARK SMILES IDX 12 14 13 15 15 16 16 17 5 18 17 20 14 22
REMARK H PARENT 5 19 17 21 14 23
REMARK Flexibility Score: inf
ROOT
ATOM      1  C   UNL     1      13.359 -32.847   0.134  1.00  0.00     0.044 C 
ATOM      2  C   UNL     1      14.315 -34.004   0.119  1.00  0.00    -0.047 A 
ATOM      3  C   UNL     1      15.046 -34.296  -1.038  1.00  0.00     0.016 A 
ATOM      4  C   UNL     1      15.923 -35.394  -1.072  1.00  0.00     0.038 A 
ATOM      5  C   UNL     1      16.070 -36.212   0.070  1.00  0.00     0.076 A 
ATOM      6  C   UNL     1      15.264 -35.960   1.210  1.00  0.00     0.127 A 
ATOM      7  C   UNL     1      14.413 -34.850   1.228  1.00  0.00     0.050 A 
ATOM      8  C   UNL     1      17.113 -37.270   0.047  1.00  0.00     0.201 C 
ATOM      9  O   UNL     1      17.676 -37.618   1.119  1.00  0.00    -0.288 OA
ATOM     10  C   UNL     1      17.619 -37.779  -1.254  1.00  0.00     0.076 A 
ATOM     11  C   UNL     1      17.467 -36.959  -2.396  1.00  0.00     0.041 A 
ATOM     12  C   UNL     1      16.687 -35.702  -2.304  1.00  0.00     0.194 C 
ATOM     13  O   UNL     1      16.654 -34.907  -3.283  1.00  0.00    -0.289 OA
ATOM     14  C   UNL     1      18.053 -37.342  -3.615  1.00  0.00     0.059 A 
ATOM     15  C   UNL     1      18.772 -38.533  -3.712  1.00  0.00     0.120 A 
ATOM     16  C   UNL     1      18.890 -39.367  -2.597  1.00  0.00     0.093 A 
ATOM     17  C   UNL     1      18.300 -39.018  -1.378  1.00  0.00     0.131 A 
ENDROOT
BRANCH   6  18
ATOM     18  O   UNL     1      15.248 -36.801   2.325  1.00  0.00    -0.507 OA
ATOM     19  H   UNL     1      14.460 -37.380   2.576  1.00  0.00     0.293 HD
ENDBRANCH   6  18
BRANCH  17  20
ATOM     20  O   UNL     1      18.382 -39.943  -0.335  1.00  0.00    -0.507 OA
ATOM     21  H   UNL     1      17.777 -39.927   0.475  1.00  0.00     0.293 HD
ENDBRANCH  17  20
BRANCH  15  22
ATOM     22  O   UNL     1      19.355 -38.886  -4.927  1.00  0.00    -0.508 OA
ATOM     23  H   UNL     1      18.997 -38.534  -5.808  1.00  0.00     0.293 HD
ENDBRANCH  15  22
TORSDOF 3
ENDMDL
MODEL 4
REMARK VINA RESULT:    -6.292      2.573      6.111
REMARK INTER + INTRA:          -6.844
REMARK INTER:                  -6.844
REMARK INTRA:                   0.000
REMARK UNBOUND:                 0.000
REMARK SMILES Cc1cc(O)c2c(c1)C(=O)c1cc(O)cc(O)c1C2=O
REMARK SMILES IDX 1 1 2 2 8 3 7 4 6 5 4 6 3 7 19 8 20 9 18 10 11 11 9 12 10 13
REMARK SMILES IDX 12 14 13 15 15 16 16 17 5 18 17 20 14 22
REMARK H PARENT 5 19 17 21 14 23
REMARK Flexibility Score: inf
ROOT
ATOM      1  C   UNL     1      12.364 -32.272  -2.148  1.00  0.00     0.044 C 
ATOM      2  C   UNL     1      13.388 -33.025  -1.351  1.00  0.00    -0.047 A 
ATOM      3  C   UNL     1      14.121 -34.057  -1.945  1.00  0.00     0.016 A 
ATOM      4  C   UNL     1      15.063 -34.787  -1.200  1.00  0.00     0.038 A 
ATOM      5  C   UNL     1      15.273 -34.478   0.162  1.00  0.00     0.076 A 
ATOM      6  C   UNL     1      14.468 -33.487   0.780  1.00  0.00     0.127 A 
ATOM      7  C   UNL     1      13.551 -32.760   0.013  1.00  0.00     0.050 A 
ATOM      8  C   UNL     1      16.379 -35.168   0.877  1.00  0.00     0.201 C 
ATOM      9  O   UNL     1      16.975 -34.585   1.821  1.00  0.00    -0.288 OA
ATOM     10  C   UNL     1      16.899 -36.460   0.359  1.00  0.00     0.076 A 
ATOM     11  C   UNL     1      16.684 -36.768  -1.004  1.00  0.00     0.041 A 
ATOM     12  C   UNL     1      15.830 -35.886  -1.834  1.00  0.00     0.194 C 
ATOM     13  O   UNL     1      15.737 -36.084  -3.077  1.00  0.00    -0.289 OA
ATOM     14  C   UNL     1      17.278 -37.911  -1.565  1.00  0.00     0.059 A 
ATOM     15  C   UNL     1      18.066 -38.756  -0.784  1.00  0.00     0.120 A 
ATOM     16  C   UNL     1      18.248 -38.478   0.574  1.00  0.00     0.093 A 
ATOM     17  C   UNL     1      17.653 -37.357   1.160  1.00  0.00     0.131 A 
ENDROOT
BRANCH   6  18
ATOM     18  O   UNL     1      14.517 -33.219   2.150  1.00  0.00    -0.507 OA
ATOM     19  H   UNL     1      15.377 -33.085   2.662  1.00  0.00     0.293 HD
ENDBRANCH   6  18
BRANCH  17  20
ATOM     20  O   UNL     1      17.804 -37.195   2.539  1.00  0.00    -0.507 OA
ATOM     21  H   UNL     1      18.691 -37.275   3.017  1.00  0.00     0.293 HD
ENDBRANCH  17  20
BRANCH  15  22
ATOM     22  O   UNL     1      18.655 -39.877  -1.364  1.00  0.00    -0.508 OA
ATOM     23  H   UNL     1      18.400 -40.187  -2.295  1.00  0.00     0.293 HD
ENDBRANCH  15  22
TORSDOF 3
ENDMDL
MODEL 5
REMARK VINA RESULT:    -6.270      1.683      2.082
REMARK INTER + INTRA:          -6.819
REMARK INTER:                  -6.819
REMARK INTRA:                   0.000
REMARK UNBOUND:                 0.000
REMARK SMILES Cc1cc(O)c2c(c1)C(=O)c1cc(O)cc(O)c1C2=O
REMARK SMILES IDX 1 1 2 2 8 3 7 4 6 5 4 6 3 7 19 8 20 9 18 10 11 11 9 12 10 13
REMARK SMILES IDX 12 14 13 15 15 16 16 17 5 18 17 20 14 22
REMARK H PARENT 5 19 17 21 14 23
REMARK Flexibility Score: inf
ROOT
ATOM      1  C   UNL     1      18.489 -39.629  -3.244  1.00  0.00     0.044 C 
ATOM      2  C   UNL     1      17.777 -38.623  -2.388  1.00  0.00    -0.047 A 
ATOM      3  C   UNL     1      16.721 -37.873  -2.916  1.00  0.00     0.016 A 
ATOM      4  C   UNL     1      16.065 -36.908  -2.132  1.00  0.00     0.038 A 
ATOM      5  C   UNL     1      16.474 -36.692  -0.797  1.00  0.00     0.076 A 
ATOM      6  C   UNL     1      17.599 -37.396  -0.294  1.00  0.00     0.127 A 
ATOM      7  C   UNL     1      18.222 -38.365  -1.088  1.00  0.00     0.050 A 
ATOM      8  C   UNL     1      15.665 -35.774   0.046  1.00  0.00     0.201 C 
ATOM      9  O   UNL     1      15.597 -35.961   1.290  1.00  0.00    -0.288 OA
ATOM     10  C   UNL     1      14.793 -34.757  -0.597  1.00  0.00     0.076 A 
ATOM     11  C   UNL     1      14.389 -34.975  -1.934  1.00  0.00     0.041 A 
ATOM     12  C   UNL     1      14.953 -36.111  -2.701  1.00  0.00     0.194 C 
ATOM     13  O   UNL     1      14.503 -36.384  -3.847  1.00  0.00    -0.289 OA
ATOM     14  C   UNL     1      13.456 -34.110  -2.532  1.00  0.00     0.059 A 
ATOM     15  C   UNL     1      12.936 -33.028  -1.822  1.00  0.00     0.120 A 
ATOM     16  C   UNL     1      13.364 -32.785  -0.514  1.00  0.00     0.093 A 
ATOM     17  C   UNL     1      14.306 -33.618   0.096  1.00  0.00     0.131 A 
ENDROOT
BRANCH   6  18
ATOM     18  O   UNL     1      18.150 -37.141   0.963  1.00  0.00    -0.507 OA
ATOM     19  H   UNL     1      19.091 -36.798   1.101  1.00  0.00     0.293 HD
ENDBRANCH   6  18
BRANCH  17  20
ATOM     20  O   UNL     1      14.753 -33.261   1.370  1.00  0.00    -0.507 OA
ATOM     21  H   UNL     1      14.441 -33.712   2.219  1.00  0.00     0.293 HD
ENDBRANCH  17  20
BRANCH  15  22
ATOM     22  O   UNL     1      12.003 -32.192  -2.431  1.00  0.00    -0.508 OA
ATOM     23  H   UNL     1      11.079 -32.054  -2.039  1.00  0.00     0.293 HD
ENDBRANCH  15  22
TORSDOF 3
ENDMDL
MODEL 6
REMARK VINA RESULT:    -6.210      2.002      3.791
REMARK INTER + INTRA:          -6.754
REMARK INTER:                  -6.754
REMARK INTRA:                   0.000
REMARK UNBOUND:                 0.000
REMARK SMILES Cc1cc(O)c2c(c1)C(=O)c1cc(O)cc(O)c1C2=O
REMARK SMILES IDX 1 1 2 2 8 3 7 4 6 5 4 6 3 7 19 8 20 9 18 10 11 11 9 12 10 13
REMARK SMILES IDX 12 14 13 15 15 16 16 17 5 18 17 20 14 22
REMARK H PARENT 5 19 17 21 14 23
REMARK Flexibility Score: inf
ROOT
ATOM      1  C   UNL     1      17.724 -35.508   2.864  1.00  0.00     0.044 C 
ATOM      2  C   UNL     1      17.019 -35.587   1.541  1.00  0.00    -0.047 A 
ATOM      3  C   UNL     1      16.015 -34.667   1.224  1.00  0.00     0.016 A 
ATOM      4  C   UNL     1      15.329 -34.750   0.000  1.00  0.00     0.038 A 
ATOM      5  C   UNL     1      15.656 -35.770  -0.921  1.00  0.00     0.076 A 
ATOM      6  C   UNL     1      16.617 -36.749  -0.558  1.00  0.00     0.127 A 
ATOM      7  C   UNL     1      17.299 -36.634   0.658  1.00  0.00     0.050 A 
ATOM      8  C   UNL     1      15.017 -35.737  -2.262  1.00  0.00     0.201 C 
ATOM      9  O   UNL     1      15.630 -36.201  -3.260  1.00  0.00    -0.288 OA
ATOM     10  C   UNL     1      13.744 -34.995  -2.455  1.00  0.00     0.076 A 
ATOM     11  C   UNL     1      13.419 -33.976  -1.530  1.00  0.00     0.041 A 
ATOM     12  C   UNL     1      14.259 -33.777  -0.325  1.00  0.00     0.194 C 
ATOM     13  O   UNL     1      14.049 -32.793   0.435  1.00  0.00    -0.289 OA
ATOM     14  C   UNL     1      12.297 -33.160  -1.754  1.00  0.00     0.059 A 
ATOM     15  C   UNL     1      11.491 -33.356  -2.875  1.00  0.00     0.120 A 
ATOM     16  C   UNL     1      11.785 -34.387  -3.771  1.00  0.00     0.093 A 
ATOM     17  C   UNL     1      12.884 -35.226  -3.560  1.00  0.00     0.131 A 
ENDROOT
BRANCH   6  18
ATOM     18  O   UNL     1      16.896 -37.865  -1.350  1.00  0.00    -0.507 OA
ATOM     19  H   UNL     1      17.265 -37.804  -2.289  1.00  0.00     0.293 HD
ENDBRANCH   6  18
BRANCH  17  20
ATOM     20  O   UNL     1      13.062 -36.290  -4.447  1.00  0.00    -0.507 OA
ATOM     21  H   UNL     1      12.493 -36.433  -5.270  1.00  0.00     0.293 HD
ENDBRANCH  17  20
BRANCH  15  22
ATOM     22  O   UNL     1      10.392 -32.527  -3.084  1.00  0.00    -0.508 OA
ATOM     23  H   UNL     1      10.502 -31.565  -3.385  1.00  0.00     0.293 HD
ENDBRANCH  15  22
TORSDOF 3
ENDMDL
MODEL 7
REMARK VINA RESULT:    -6.087      2.887      5.575
REMARK INTER + INTRA:          -6.621
REMARK INTER:                  -6.621
REMARK INTRA:                   0.000
REMARK UNBOUND:                 0.000
REMARK SMILES Cc1cc(O)c2c(c1)C(=O)c1cc(O)cc(O)c1C2=O
REMARK SMILES IDX 1 1 2 2 8 3 7 4 6 5 4 6 3 7 19 8 20 9 18 10 11 11 9 12 10 13
REMARK SMILES IDX 12 14 13 15 15 16 16 17 5 18 17 20 14 22
REMARK H PARENT 5 19 17 21 14 23
REMARK Flexibility Score: inf
ROOT
ATOM      1  C   UNL     1       9.932 -36.964  -4.974  1.00  0.00     0.044 C 
ATOM      2  C   UNL     1      10.674 -36.021  -4.074  1.00  0.00    -0.047 A 
ATOM      3  C   UNL     1      11.678 -36.501  -3.227  1.00  0.00     0.016 A 
ATOM      4  C   UNL     1      12.360 -35.631  -2.360  1.00  0.00     0.038 A 
ATOM      5  C   UNL     1      12.031 -34.257  -2.340  1.00  0.00     0.076 A 
ATOM      6  C   UNL     1      10.955 -33.792  -3.140  1.00  0.00     0.127 A 
ATOM      7  C   UNL     1      10.305 -34.674  -4.010  1.00  0.00     0.050 A 
ATOM      8  C   UNL     1      12.871 -33.345  -1.522  1.00  0.00     0.201 C 
ATOM      9  O   UNL     1      13.020 -32.144  -1.876  1.00  0.00    -0.288 OA
ATOM     10  C   UNL     1      13.679 -33.891  -0.401  1.00  0.00     0.076 A 
ATOM     11  C   UNL     1      14.004 -35.267  -0.422  1.00  0.00     0.041 A 
ATOM     12  C   UNL     1      13.418 -36.149  -1.459  1.00  0.00     0.194 C 
ATOM     13  O   UNL     1      13.801 -37.346  -1.559  1.00  0.00    -0.289 OA
ATOM     14  C   UNL     1      14.879 -35.793   0.544  1.00  0.00     0.059 A 
ATOM     15  C   UNL     1      15.418 -34.972   1.533  1.00  0.00     0.120 A 
ATOM     16  C   UNL     1      15.068 -33.620   1.583  1.00  0.00     0.093 A 
ATOM     17  C   UNL     1      14.184 -33.077   0.646  1.00  0.00     0.131 A 
ENDROOT
BRANCH   6  18
ATOM     18  O   UNL     1      10.478 -32.481  -3.076  1.00  0.00    -0.507 OA
ATOM     19  H   UNL     1      10.613 -31.801  -3.811  1.00  0.00     0.293 HD
ENDBRANCH   6  18
BRANCH  17  20
ATOM     20  O   UNL     1      13.809 -31.742   0.813  1.00  0.00    -0.507 OA
ATOM     21  H   UNL     1      14.421 -31.034   1.195  1.00  0.00     0.293 HD
ENDBRANCH  17  20
BRANCH  15  22
ATOM     22  O   UNL     1      16.293 -35.513   2.473  1.00  0.00    -0.508 OA
ATOM     23  H   UNL     1      16.059 -35.546   3.459  1.00  0.00     0.293 HD
ENDBRANCH  15  22
TORSDOF 3
ENDMDL
MODEL 8
REMARK VINA RESULT:    -6.027      2.075      5.337
REMARK INTER + INTRA:          -6.556
REMARK INTER:                  -6.556
REMARK INTRA:                   0.000
REMARK UNBOUND:                 0.000
REMARK SMILES Cc1cc(O)c2c(c1)C(=O)c1cc(O)cc(O)c1C2=O
REMARK SMILES IDX 1 1 2 2 8 3 7 4 6 5 4 6 3 7 19 8 20 9 18 10 11 11 9 12 10 13
REMARK SMILES IDX 12 14 13 15 15 16 16 17 5 18 17 20 14 22
REMARK H PARENT 5 19 17 21 14 23
REMARK Flexibility Score: inf
ROOT
ATOM      1  C   UNL     1       9.997 -39.587  -6.487  1.00  0.00     0.044 C 
ATOM      2  C   UNL     1      10.524 -38.442  -5.673  1.00  0.00    -0.047 A 
ATOM      3  C   UNL     1      11.882 -38.380  -5.344  1.00  0.00     0.016 A 
ATOM      4  C   UNL     1      12.381 -37.327  -4.559  1.00  0.00     0.038 A 
ATOM      5  C   UNL     1      11.506 -36.319  -4.096  1.00  0.00     0.076 A 
ATOM      6  C   UNL     1      10.117 -36.433  -4.362  1.00  0.00     0.127 A 
ATOM      7  C   UNL     1       9.647 -37.480  -5.162  1.00  0.00     0.050 A 
ATOM      8  C   UNL     1      12.092 -35.146  -3.397  1.00  0.00     0.201 C 
ATOM      9  O   UNL     1      11.524 -34.024  -3.472  1.00  0.00    -0.288 OA
ATOM     10  C   UNL     1      13.434 -35.256  -2.770  1.00  0.00     0.076 A 
ATOM     11  C   UNL     1      14.307 -36.267  -3.233  1.00  0.00     0.041 A 
ATOM     12  C   UNL     1      13.820 -37.272  -4.207  1.00  0.00     0.194 C 
ATOM     13  O   UNL     1      14.626 -38.097  -4.719  1.00  0.00    -0.289 OA
ATOM     14  C   UNL     1      15.631 -36.316  -2.765  1.00  0.00     0.059 A 
ATOM     15  C   UNL     1      16.089 -35.384  -1.834  1.00  0.00     0.120 A 
ATOM     16  C   UNL     1      15.218 -34.408  -1.342  1.00  0.00     0.093 A 
ATOM     17  C   UNL     1      13.891 -34.349  -1.777  1.00  0.00     0.131 A 
ENDROOT
BRANCH   6  18
ATOM     18  O   UNL     1       9.170 -35.558  -3.825  1.00  0.00    -0.507 OA
ATOM     19  H   UNL     1       9.366 -34.592  -3.602  1.00  0.00     0.293 HD
ENDBRANCH   6  18
BRANCH  17  20
ATOM     20  O   UNL     1      13.057 -33.406  -1.174  1.00  0.00    -0.507 OA
ATOM     21  H   UNL     1      12.656 -32.619  -1.665  1.00  0.00     0.293 HD
ENDBRANCH  17  20
BRANCH  15  22
ATOM     22  O   UNL     1      17.409 -35.445  -1.394  1.00  0.00    -0.508 OA
ATOM     23  H   UNL     1      17.841 -34.669  -0.906  1.00  0.00     0.293 HD
ENDBRANCH  15  22
TORSDOF 3
ENDMDL
MODEL 9
REMARK VINA RESULT:    -5.974      2.463      4.262
REMARK INTER + INTRA:          -6.498
REMARK INTER:                  -6.498
REMARK INTRA:                   0.000
REMARK UNBOUND:                 0.000
REMARK SMILES Cc1cc(O)c2c(c1)C(=O)c1cc(O)cc(O)c1C2=O
REMARK SMILES IDX 1 1 2 2 8 3 7 4 6 5 4 6 3 7 19 8 20 9 18 10 11 11 9 12 10 13
REMARK SMILES IDX 12 14 13 15 15 16 16 17 5 18 17 20 14 22
REMARK H PARENT 5 19 17 21 14 23
REMARK Flexibility Score: inf
ROOT
ATOM      1  C   UNL     1      13.250 -38.311  -5.479  1.00  0.00     0.044 C 
ATOM      2  C   UNL     1      13.708 -37.922  -4.104  1.00  0.00    -0.047 A 
ATOM      3  C   UNL     1      13.326 -36.693  -3.557  1.00  0.00     0.016 A 
ATOM      4  C   UNL     1      13.771 -36.307  -2.282  1.00  0.00     0.038 A 
ATOM      5  C   UNL     1      14.613 -37.166  -1.542  1.00  0.00     0.076 A 
ATOM      6  C   UNL     1      15.064 -38.374  -2.136  1.00  0.00     0.127 A 
ATOM      7  C   UNL     1      14.591 -38.745  -3.399  1.00  0.00     0.050 A 
ATOM      8  C   UNL     1      14.942 -36.794  -0.142  1.00  0.00     0.201 C 
ATOM      9  O   UNL     1      15.165 -37.694   0.711  1.00  0.00    -0.288 OA
ATOM     10  C   UNL     1      14.826 -35.377   0.292  1.00  0.00     0.076 A 
ATOM     11  C   UNL     1      13.985 -34.518  -0.453  1.00  0.00     0.041 A 
ATOM     12  C   UNL     1      13.369 -34.998  -1.713  1.00  0.00     0.194 C 
ATOM     13  O   UNL     1      12.521 -34.283  -2.313  1.00  0.00    -0.289 OA
ATOM     14  C   UNL     1      13.740 -33.212   0.002  1.00  0.00     0.059 A 
ATOM     15  C   UNL     1      14.333 -32.748   1.177  1.00  0.00     0.120 A 
ATOM     16  C   UNL     1      15.197 -33.579   1.895  1.00  0.00     0.093 A 
ATOM     17  C   UNL     1      15.473 -34.877   1.452  1.00  0.00     0.131 A 
ENDROOT
BRANCH   6  18
ATOM     18  O   UNL     1      16.004 -39.209  -1.529  1.00  0.00    -0.507 OA
ATOM     19  H   UNL     1      16.908 -38.892  -1.206  1.00  0.00     0.293 HD
ENDBRANCH   6  18
BRANCH  17  20
ATOM     20  O   UNL     1      16.415 -35.615   2.170  1.00  0.00    -0.507 OA
ATOM     21  H   UNL     1      16.356 -35.781   3.165  1.00  0.00     0.293 HD
ENDBRANCH  17  20
BRANCH  15  22
ATOM     22  O   UNL     1      14.065 -31.453   1.616  1.00  0.00    -0.508 OA
ATOM     23  H   UNL     1      14.805 -30.771   1.735  1.00  0.00     0.293 HD
ENDBRANCH  15  22
TORSDOF 3
ENDMDL
