MODEL 1
REMARK VINA RESULT:    -5.554      0.000      0.000
REMARK INTER + INTRA:          -8.152
REMARK INTER:                  -7.827
REMARK INTRA:                  -0.325
REMARK UNBOUND:                -0.325
REMARK SMILES CCCCCCCCC(=O)[O-]
REMARK SMILES IDX 6 1 7 2 8 3 9 4 10 5 11 6 5 7 4 8 3 9 2 10 1 11
REMARK H PARENT
REMARK Flexibility Score: inf
ROOT
ATOM      1  C   UNL     1     114.877 104.259 113.345  1.00  0.00     0.000 C 
ENDROOT
BRANCH   1   2
ATOM      2  C   UNL     1     116.130 105.102 113.629  1.00  0.00     0.006 C 
BRANCH   2   3
ATOM      3  C   UNL     1     117.302 104.652 112.752  1.00  0.00     0.053 C 
BRANCH   3   4
ATOM      4  C   UNL     1     118.594 105.175 113.296  1.00  0.00     0.041 C 
ATOM      5  O   UNL     1     119.086 104.682 114.346  1.00  0.00    -0.550 OA
ATOM      6  O   UNL     1     119.281 106.174 112.617  1.00  0.00    -0.550 OA
ENDBRANCH   3   4
ENDBRANCH   2   3
ENDBRANCH   1   2
BRANCH   1   7
ATOM      7  C   UNL     1     114.390 104.393 111.893  1.00  0.00     0.000 C 
BRANCH   7   8
ATOM      8  C   UNL     1     114.219 103.034 111.197  1.00  0.00    -0.000 C 
BRANCH   8   9
ATOM      9  C   UNL     1     113.484 102.042 112.109  1.00  0.00    -0.000 C 
BRANCH   9  10
ATOM     10  C   UNL     1     111.994 102.382 112.273  1.00  0.00    -0.003 C 
ATOM     11  C   UNL     1     111.135 101.844 111.129  1.00  0.00     0.004 C 
ENDBRANCH   9  10
ENDBRANCH   8   9
ENDBRANCH   7   8
ENDBRANCH   1   7
TORSDOF 7
ENDMDL
MODEL 2
REMARK VINA RESULT:    -5.239      3.637      6.127
REMARK INTER + INTRA:          -7.708
REMARK INTER:                  -7.309
REMARK INTRA:                  -0.399
REMARK UNBOUND:                -0.325
REMARK SMILES CCCCCCCCC(=O)[O-]
REMARK SMILES IDX 6 1 7 2 8 3 9 4 10 5 11 6 5 7 4 8 3 9 2 10 1 11
REMARK H PARENT
REMARK Flexibility Score: inf
ROOT
ATOM      1  C   UNL     1     114.305 104.408 111.882  1.00  0.00     0.000 C 
ENDROOT
BRANCH   1   2
ATOM      2  C   UNL     1     114.282 103.066 111.134  1.00  0.00     0.006 C 
BRANCH   2   3
ATOM      3  C   UNL     1     113.545 101.998 111.949  1.00  0.00     0.053 C 
BRANCH   3   4
ATOM      4  C   UNL     1     112.068 102.230 111.901  1.00  0.00     0.041 C 
ATOM      5  O   UNL     1     111.418 101.961 110.856  1.00  0.00    -0.550 OA
ATOM      6  O   UNL     1     111.400 102.696 113.026  1.00  0.00    -0.550 OA
ENDBRANCH   3   4
ENDBRANCH   2   3
ENDBRANCH   1   2
BRANCH   1   7
ATOM      7  C   UNL     1     114.836 104.276 113.319  1.00  0.00     0.000 C 
BRANCH   7   8
ATOM      8  C   UNL     1     116.098 105.117 113.564  1.00  0.00    -0.000 C 
BRANCH   8   9
ATOM      9  C   UNL     1     117.237 104.678 112.632  1.00  0.00    -0.000 C 
BRANCH   9  10
ATOM     10  C   UNL     1     118.620 105.112 113.144  1.00  0.00    -0.003 C 
ATOM     11  C   UNL     1     119.002 104.436 114.461  1.00  0.00     0.004 C 
ENDBRANCH   9  10
ENDBRANCH   8   9
ENDBRANCH   7   8
ENDBRANCH   1   7
TORSDOF 7
ENDMDL
MODEL 3
REMARK VINA RESULT:    -3.570      1.861      2.618
REMARK INTER + INTRA:          -5.356
REMARK INTER:                  -5.059
REMARK INTRA:                  -0.297
REMARK UNBOUND:                -0.325
REMARK SMILES CCCCCCCCC(=O)[O-]
REMARK SMILES IDX 6 1 7 2 8 3 9 4 10 5 11 6 5 7 4 8 3 9 2 10 1 11
REMARK H PARENT
REMARK Flexibility Score: inf
ROOT
ATOM      1  C   UNL     1     113.502 103.361 112.437  1.00  0.00     0.000 C 
ENDROOT
BRANCH   1   2
ATOM      2  C   UNL     1     114.505 104.281 111.723  1.00  0.00     0.006 C 
BRANCH   2   3
ATOM      3  C   UNL     1     115.945 103.891 112.067  1.00  0.00     0.053 C 
BRANCH   3   4
ATOM      4  C   UNL     1     116.499 104.806 113.114  1.00  0.00     0.041 C 
ATOM      5  O   UNL     1     115.723 105.472 113.848  1.00  0.00    -0.550 OA
ATOM      6  O   UNL     1     117.872 104.885 113.312  1.00  0.00    -0.550 OA
ENDBRANCH   3   4
ENDBRANCH   2   3
ENDBRANCH   1   2
BRANCH   1   7
ATOM      7  C   UNL     1     113.301 102.023 111.705  1.00  0.00     0.000 C 
BRANCH   7   8
ATOM      8  C   UNL     1     111.845 101.797 111.272  1.00  0.00    -0.000 C 
BRANCH   8   9
ATOM      9  C   UNL     1     110.964 102.989 111.672  1.00  0.00    -0.000 C 
BRANCH   9  10
ATOM     10  C   UNL     1     110.049 103.458 110.530  1.00  0.00    -0.003 C 
ATOM     11  C   UNL     1     109.176 104.650 110.922  1.00  0.00     0.004 C 
ENDBRANCH   9  10
ENDBRANCH   8   9
ENDBRANCH   7   8
ENDBRANCH   1   7
TORSDOF 7
ENDMDL
MODEL 4
REMARK VINA RESULT:    -3.188      3.273      4.659
REMARK INTER + INTRA:          -4.818
REMARK INTER:                  -4.584
REMARK INTRA:                  -0.234
REMARK UNBOUND:                -0.325
REMARK SMILES CCCCCCCCC(=O)[O-]
REMARK SMILES IDX 6 1 7 2 8 3 9 4 10 5 11 6 5 7 4 8 3 9 2 10 1 11
REMARK H PARENT
REMARK Flexibility Score: inf
ROOT
ATOM      1  C   UNL     1     111.444 101.997 111.562  1.00  0.00     0.000 C 
ENDROOT
BRANCH   1   2
ATOM      2  C   UNL     1     112.572 102.659 112.369  1.00  0.00     0.006 C 
BRANCH   2   3
ATOM      3  C   UNL     1     113.750 103.026 111.462  1.00  0.00     0.053 C 
BRANCH   3   4
ATOM      4  C   UNL     1     114.820 103.717 112.248  1.00  0.00     0.041 C 
ATOM      5  O   UNL     1     114.562 104.199 113.383  1.00  0.00    -0.550 OA
ATOM      6  O   UNL     1     116.114 103.787 111.748  1.00  0.00    -0.550 OA
ENDBRANCH   3   4
ENDBRANCH   2   3
ENDBRANCH   1   2
BRANCH   1   7
ATOM      7  C   UNL     1     110.688 102.996 110.671  1.00  0.00     0.000 C 
BRANCH   7   8
ATOM      8  C   UNL     1     109.881 104.021 111.482  1.00  0.00    -0.000 C 
BRANCH   8   9
ATOM      9  C   UNL     1     108.905 104.788 110.579  1.00  0.00    -0.000 C 
BRANCH   9  10
ATOM     10  C   UNL     1     108.595 106.198 111.106  1.00  0.00    -0.003 C 
ATOM     11  C   UNL     1     107.995 106.185 112.512  1.00  0.00     0.004 C 
ENDBRANCH   9  10
ENDBRANCH   8   9
ENDBRANCH   7   8
ENDBRANCH   1   7
TORSDOF 7
ENDMDL
MODEL 5
REMARK VINA RESULT:    -3.180      2.682      5.422
REMARK INTER + INTRA:          -4.807
REMARK INTER:                  -4.622
REMARK INTRA:                  -0.185
REMARK UNBOUND:                -0.325
REMARK SMILES CCCCCCCCC(=O)[O-]
REMARK SMILES IDX 6 1 7 2 8 3 9 4 10 5 11 6 5 7 4 8 3 9 2 10 1 11
REMARK H PARENT
REMARK Flexibility Score: inf
ROOT
ATOM      1  C   UNL     1     114.803 104.923 113.451  1.00  0.00     0.000 C 
ENDROOT
BRANCH   1   2
ATOM      2  C   UNL     1     114.739 103.389 113.390  1.00  0.00     0.006 C 
BRANCH   2   3
ATOM      3  C   UNL     1     114.010 102.922 112.127  1.00  0.00     0.053 C 
BRANCH   3   4
ATOM      4  C   UNL     1     114.656 103.497 110.907  1.00  0.00     0.041 C 
ATOM      5  O   UNL     1     115.650 102.925 110.386  1.00  0.00    -0.550 OA
ATOM      6  O   UNL     1     114.131 104.639 110.315  1.00  0.00    -0.550 OA
ENDBRANCH   3   4
ENDBRANCH   2   3
ENDBRANCH   1   2
BRANCH   1   7
ATOM      7  C   UNL     1     116.229 105.447 113.690  1.00  0.00     0.000 C 
BRANCH   7   8
ATOM      8  C   UNL     1     117.306 104.541 113.074  1.00  0.00    -0.000 C 
BRANCH   8   9
ATOM      9  C   UNL     1     118.546 104.473 113.976  1.00  0.00    -0.000 C 
BRANCH   9  10
ATOM     10  C   UNL     1     119.565 105.581 113.664  1.00  0.00    -0.003 C 
ATOM     11  C   UNL     1     119.247 106.330 112.370  1.00  0.00     0.004 C 
ENDBRANCH   9  10
ENDBRANCH   8   9
ENDBRANCH   7   8
ENDBRANCH   1   7
TORSDOF 7
ENDMDL
MODEL 6
REMARK VINA RESULT:    -3.082      5.250      7.137
REMARK INTER + INTRA:          -4.669
REMARK INTER:                  -4.331
REMARK INTRA:                  -0.337
REMARK UNBOUND:                -0.325
REMARK SMILES CCCCCCCCC(=O)[O-]
REMARK SMILES IDX 6 1 7 2 8 3 9 4 10 5 11 6 5 7 4 8 3 9 2 10 1 11
REMARK H PARENT
REMARK Flexibility Score: inf
ROOT
ATOM      1  C   UNL     1     110.564 103.143 110.725  1.00  0.00     0.000 C 
ENDROOT
BRANCH   1   2
ATOM      2  C   UNL     1     109.785 104.155 111.580  1.00  0.00     0.006 C 
BRANCH   2   3
ATOM      3  C   UNL     1     108.888 105.034 110.704  1.00  0.00     0.053 C 
BRANCH   3   4
ATOM      4  C   UNL     1     108.484 106.270 111.444  1.00  0.00     0.041 C 
ATOM      5  O   UNL     1     108.740 107.407 110.966  1.00  0.00    -0.550 OA
ATOM      6  O   UNL     1     107.781 106.168 112.637  1.00  0.00    -0.550 OA
ENDBRANCH   3   4
ENDBRANCH   2   3
ENDBRANCH   1   2
BRANCH   1   7
ATOM      7  C   UNL     1     111.236 102.047 111.569  1.00  0.00     0.000 C 
BRANCH   7   8
ATOM      8  C   UNL     1     112.763 102.030 111.412  1.00  0.00    -0.000 C 
BRANCH   8   9
ATOM      9  C   UNL     1     113.430 102.952 112.442  1.00  0.00    -0.000 C 
BRANCH   9  10
ATOM     10  C   UNL     1     114.262 104.066 111.787  1.00  0.00    -0.003 C 
ATOM     11  C   UNL     1     115.280 103.531 110.780  1.00  0.00     0.004 C 
ENDBRANCH   9  10
ENDBRANCH   8   9
ENDBRANCH   7   8
ENDBRANCH   1   7
TORSDOF 7
ENDMDL
