MODEL 1
REMARK VINA RESULT:    -4.659      0.000      0.000
REMARK INTER + INTRA:          -9.638
REMARK INTER:                  -8.472
REMARK INTRA:                  -1.166
REMARK UNBOUND:                -1.166
REMARK SMILES CCCCCC=CCC=CCCCCCCCC(=O)[O-]
REMARK SMILES IDX 11 1 12 2 13 3 14 4 15 5 16 6 17 7 18 8 19 9 20 10 10 11
REMARK SMILES IDX 9 12 8 13 7 14 6 15 5 16 4 17 3 18 2 19 1 20
REMARK H PARENT
REMARK Flexibility Score: inf
ROOT
ATOM      1  C   UNL     1      34.060 169.231 157.615  1.00  0.00     0.027 C 
ENDROOT
BRANCH   1   2
ATOM      2  C   UNL     1      33.718 170.521 156.858  1.00  0.00     0.004 C 
BRANCH   2   3
ATOM      3  C   UNL     1      34.111 170.465 155.370  1.00  0.00     0.000 C 
BRANCH   3   4
ATOM      4  C   UNL     1      32.953 170.147 154.406  1.00  0.00     0.000 C 
BRANCH   4   5
ATOM      5  C   UNL     1      31.571 170.338 155.049  1.00  0.00     0.000 C 
BRANCH   5   6
ATOM      6  C   UNL     1      30.694 171.270 154.203  1.00  0.00     0.006 C 
BRANCH   6   7
ATOM      7  C   UNL     1      31.424 172.582 153.898  1.00  0.00     0.053 C 
BRANCH   7   8
ATOM      8  C   UNL     1      30.522 173.751 154.131  1.00  0.00     0.041 C 
ATOM      9  O   UNL     1      29.279 173.579 154.229  1.00  0.00    -0.550 OA
ATOM     10  O   UNL     1      31.047 175.035 154.204  1.00  0.00    -0.550 OA
ENDBRANCH   7   8
ENDBRANCH   6   7
ENDBRANCH   5   6
ENDBRANCH   4   5
ENDBRANCH   3   4
ENDBRANCH   2   3
ENDBRANCH   1   2
BRANCH   1  11
ATOM     11  C   UNL     1      32.994 168.903 158.622  1.00  0.00    -0.031 C 
ATOM     12  C   UNL     1      32.243 169.861 159.186  1.00  0.00    -0.027 C 
BRANCH  12  13
ATOM     13  C   UNL     1      31.170 169.531 160.186  1.00  0.00     0.054 C 
BRANCH  13  14
ATOM     14  C   UNL     1      30.564 170.775 160.772  1.00  0.00    -0.027 C 
ATOM     15  C   UNL     1      29.315 171.141 160.452  1.00  0.00    -0.031 C 
BRANCH  15  16
ATOM     16  C   UNL     1      28.663 172.352 161.059  1.00  0.00     0.027 C 
BRANCH  16  17
ATOM     17  C   UNL     1      29.676 173.334 161.675  1.00  0.00     0.004 C 
BRANCH  17  18
ATOM     18  C   UNL     1      29.201 173.976 162.993  1.00  0.00     0.000 C 
BRANCH  18  19
ATOM     19  C   UNL     1      29.960 173.456 164.222  1.00  0.00    -0.003 C 
ATOM     20  C   UNL     1      29.398 174.052 165.509  1.00  0.00     0.004 C 
ENDBRANCH  18  19
ENDBRANCH  17  18
ENDBRANCH  16  17
ENDBRANCH  15  16
ENDBRANCH  13  14
ENDBRANCH  12  13
ENDBRANCH   1  11
TORSDOF 14
ENDMDL
MODEL 2
REMARK VINA RESULT:    -4.522      1.293      1.863
REMARK INTER + INTRA:          -9.389
REMARK INTER:                  -7.998
REMARK INTRA:                  -1.391
REMARK UNBOUND:                -1.166
REMARK SMILES CCCCCC=CCC=CCCCCCCCC(=O)[O-]
REMARK SMILES IDX 11 1 12 2 13 3 14 4 15 5 16 6 17 7 18 8 19 9 20 10 10 11
REMARK SMILES IDX 9 12 8 13 7 14 6 15 5 16 4 17 3 18 2 19 1 20
REMARK H PARENT
REMARK Flexibility Score: inf
ROOT
ATOM      1  C   UNL     1      33.492 169.248 158.202  1.00  0.00     0.027 C 
ENDROOT
BRANCH   1   2
ATOM      2  C   UNL     1      34.288 169.512 156.916  1.00  0.00     0.004 C 
BRANCH   2   3
ATOM      3  C   UNL     1      33.634 170.574 156.014  1.00  0.00     0.000 C 
BRANCH   3   4
ATOM      4  C   UNL     1      33.476 170.161 154.539  1.00  0.00     0.000 C 
BRANCH   4   5
ATOM      5  C   UNL     1      32.234 170.778 153.876  1.00  0.00     0.000 C 
BRANCH   5   6
ATOM      6  C   UNL     1      31.617 171.862 154.767  1.00  0.00     0.006 C 
BRANCH   6   7
ATOM      7  C   UNL     1      30.142 172.087 154.416  1.00  0.00     0.053 C 
BRANCH   7   8
ATOM      8  C   UNL     1      29.873 173.538 154.177  1.00  0.00     0.041 C 
ATOM      9  O   UNL     1      28.693 173.941 154.009  1.00  0.00    -0.550 OA
ATOM     10  O   UNL     1      30.926 174.441 154.105  1.00  0.00    -0.550 OA
ENDBRANCH   7   8
ENDBRANCH   6   7
ENDBRANCH   5   6
ENDBRANCH   4   5
ENDBRANCH   3   4
ENDBRANCH   2   3
ENDBRANCH   1   2
BRANCH   1  11
ATOM     11  C   UNL     1      32.036 169.569 158.006  1.00  0.00    -0.031 C 
ATOM     12  C   UNL     1      31.224 169.804 159.047  1.00  0.00    -0.027 C 
BRANCH  12  13
ATOM     13  C   UNL     1      29.771 170.135 158.850  1.00  0.00     0.054 C 
BRANCH  13  14
ATOM     14  C   UNL     1      29.237 170.963 159.986  1.00  0.00    -0.027 C 
ATOM     15  C   UNL     1      30.065 171.454 160.919  1.00  0.00    -0.031 C 
BRANCH  15  16
ATOM     16  C   UNL     1      29.568 172.326 162.039  1.00  0.00     0.027 C 
BRANCH  16  17
ATOM     17  C   UNL     1      29.530 173.819 161.666  1.00  0.00     0.004 C 
BRANCH  17  18
ATOM     18  C   UNL     1      28.357 174.592 162.300  1.00  0.00     0.000 C 
BRANCH  18  19
ATOM     19  C   UNL     1      26.999 173.912 162.077  1.00  0.00    -0.003 C 
ATOM     20  C   UNL     1      26.483 174.164 160.663  1.00  0.00     0.004 C 
ENDBRANCH  18  19
ENDBRANCH  17  18
ENDBRANCH  16  17
ENDBRANCH  15  16
ENDBRANCH  13  14
ENDBRANCH  12  13
ENDBRANCH   1  11
TORSDOF 14
ENDMDL
MODEL 3
REMARK VINA RESULT:    -4.414      4.342      9.158
REMARK INTER + INTRA:          -9.192
REMARK INTER:                  -7.628
REMARK INTRA:                  -1.564
REMARK UNBOUND:                -1.166
REMARK SMILES CCCCCC=CCC=CCCCCCCCC(=O)[O-]
REMARK SMILES IDX 11 1 12 2 13 3 14 4 15 5 16 6 17 7 18 8 19 9 20 10 10 11
REMARK SMILES IDX 9 12 8 13 7 14 6 15 5 16 4 17 3 18 2 19 1 20
REMARK H PARENT
REMARK Flexibility Score: inf
ROOT
ATOM      1  C   UNL     1      29.269 173.978 161.727  1.00  0.00     0.027 C 
ENDROOT
BRANCH   1   2
ATOM      2  C   UNL     1      28.204 174.326 162.775  1.00  0.00     0.004 C 
BRANCH   2   3
ATOM      3  C   UNL     1      28.343 173.501 164.068  1.00  0.00     0.000 C 
BRANCH   3   4
ATOM      4  C   UNL     1      29.486 173.944 164.999  1.00  0.00     0.000 C 
BRANCH   4   5
ATOM      5  C   UNL     1      30.737 173.060 164.871  1.00  0.00     0.000 C 
BRANCH   5   6
ATOM      6  C   UNL     1      30.356 171.577 164.788  1.00  0.00     0.006 C 
BRANCH   6   7
ATOM      7  C   UNL     1      31.538 170.734 164.299  1.00  0.00     0.053 C 
BRANCH   7   8
ATOM      8  C   UNL     1      32.219 170.065 165.450  1.00  0.00     0.041 C 
ATOM      9  O   UNL     1      33.262 169.388 165.258  1.00  0.00    -0.550 OA
ATOM     10  O   UNL     1      31.684 170.158 166.728  1.00  0.00    -0.550 OA
ENDBRANCH   7   8
ENDBRANCH   6   7
ENDBRANCH   5   6
ENDBRANCH   4   5
ENDBRANCH   3   4
ENDBRANCH   2   3
ENDBRANCH   1   2
BRANCH   1  11
ATOM     11  C   UNL     1      29.179 172.530 161.332  1.00  0.00    -0.031 C 
ATOM     12  C   UNL     1      30.260 171.844 160.932  1.00  0.00    -0.027 C 
BRANCH  12  13
ATOM     13  C   UNL     1      30.172 170.394 160.547  1.00  0.00     0.054 C 
BRANCH  13  14
ATOM     14  C   UNL     1      31.363 169.967 159.735  1.00  0.00    -0.027 C 
ATOM     15  C   UNL     1      32.168 168.988 160.170  1.00  0.00    -0.031 C 
BRANCH  15  16
ATOM     16  C   UNL     1      33.339 168.505 159.358  1.00  0.00     0.027 C 
BRANCH  16  17
ATOM     17  C   UNL     1      33.394 169.132 157.953  1.00  0.00     0.004 C 
BRANCH  17  18
ATOM     18  C   UNL     1      34.787 169.071 157.296  1.00  0.00     0.000 C 
BRANCH  18  19
ATOM     19  C   UNL     1      34.985 170.134 156.208  1.00  0.00    -0.003 C 
ATOM     20  C   UNL     1      33.686 170.397 155.452  1.00  0.00     0.004 C 
ENDBRANCH  18  19
ENDBRANCH  17  18
ENDBRANCH  16  17
ENDBRANCH  15  16
ENDBRANCH  13  14
ENDBRANCH  12  13
ENDBRANCH   1  11
TORSDOF 14
ENDMDL
MODEL 4
REMARK VINA RESULT:    -4.409      3.563      7.741
REMARK INTER + INTRA:          -9.183
REMARK INTER:                  -7.363
REMARK INTRA:                  -1.820
REMARK UNBOUND:                -1.166
REMARK SMILES CCCCCC=CCC=CCCCCCCCC(=O)[O-]
REMARK SMILES IDX 11 1 12 2 13 3 14 4 15 5 16 6 17 7 18 8 19 9 20 10 10 11
REMARK SMILES IDX 9 12 8 13 7 14 6 15 5 16 4 17 3 18 2 19 1 20
REMARK H PARENT
REMARK Flexibility Score: inf
ROOT
ATOM      1  C   UNL     1      31.561 169.711 159.726  1.00  0.00     0.027 C 
ENDROOT
BRANCH   1   2
ATOM      2  C   UNL     1      30.085 169.750 159.309  1.00  0.00     0.004 C 
BRANCH   2   3
ATOM      3  C   UNL     1      29.309 170.911 159.959  1.00  0.00     0.000 C 
BRANCH   3   4
ATOM      4  C   UNL     1      29.909 171.432 161.278  1.00  0.00     0.000 C 
BRANCH   4   5
ATOM      5  C   UNL     1      30.255 172.929 161.226  1.00  0.00     0.000 C 
BRANCH   5   6
ATOM      6  C   UNL     1      29.330 173.739 162.143  1.00  0.00     0.006 C 
BRANCH   6   7
ATOM      7  C   UNL     1      29.006 172.960 163.422  1.00  0.00     0.053 C 
BRANCH   7   8
ATOM      8  C   UNL     1      30.056 173.193 164.460  1.00  0.00     0.041 C 
ATOM      9  O   UNL     1      30.061 174.262 165.124  1.00  0.00    -0.550 OA
ATOM     10  O   UNL     1      31.051 172.247 164.672  1.00  0.00    -0.550 OA
ENDBRANCH   7   8
ENDBRANCH   6   7
ENDBRANCH   5   6
ENDBRANCH   4   5
ENDBRANCH   3   4
ENDBRANCH   2   3
ENDBRANCH   1   2
BRANCH   1  11
ATOM     11  C   UNL     1      32.454 170.066 158.569  1.00  0.00    -0.031 C 
ATOM     12  C   UNL     1      33.476 169.277 158.206  1.00  0.00    -0.027 C 
BRANCH  12  13
ATOM     13  C   UNL     1      34.362 169.627 157.043  1.00  0.00     0.054 C 
BRANCH  13  14
ATOM     14  C   UNL     1      33.663 170.538 156.073  1.00  0.00    -0.027 C 
ATOM     15  C   UNL     1      33.321 170.101 154.853  1.00  0.00    -0.031 C 
BRANCH  15  16
ATOM     16  C   UNL     1      32.578 170.972 153.878  1.00  0.00     0.027 C 
BRANCH  16  17
ATOM     17  C   UNL     1      31.637 171.976 154.567  1.00  0.00     0.004 C 
BRANCH  17  18
ATOM     18  C   UNL     1      30.163 171.526 154.607  1.00  0.00     0.000 C 
BRANCH  18  19
ATOM     19  C   UNL     1      29.815 170.721 155.866  1.00  0.00    -0.003 C 
ATOM     20  C   UNL     1      29.726 169.229 155.558  1.00  0.00     0.004 C 
ENDBRANCH  18  19
ENDBRANCH  17  18
ENDBRANCH  16  17
ENDBRANCH  15  16
ENDBRANCH  13  14
ENDBRANCH  12  13
ENDBRANCH   1  11
TORSDOF 14
ENDMDL
MODEL 5
REMARK VINA RESULT:    -4.345      2.926      7.405
REMARK INTER + INTRA:          -9.067
REMARK INTER:                  -7.546
REMARK INTRA:                  -1.521
REMARK UNBOUND:                -1.166
REMARK SMILES CCCCCC=CCC=CCCCCCCCC(=O)[O-]
REMARK SMILES IDX 11 1 12 2 13 3 14 4 15 5 16 6 17 7 18 8 19 9 20 10 10 11
REMARK SMILES IDX 9 12 8 13 7 14 6 15 5 16 4 17 3 18 2 19 1 20
REMARK H PARENT
REMARK Flexibility Score: inf
ROOT
ATOM      1  C   UNL     1      28.842 170.155 157.554  1.00  0.00     0.027 C 
ENDROOT
BRANCH   1   2
ATOM      2  C   UNL     1      29.174 169.809 159.012  1.00  0.00     0.004 C 
BRANCH   2   3
ATOM      3  C   UNL     1      28.986 171.001 159.968  1.00  0.00     0.000 C 
BRANCH   3   4
ATOM      4  C   UNL     1      30.244 171.396 160.764  1.00  0.00     0.000 C 
BRANCH   4   5
ATOM      5  C   UNL     1      29.921 172.205 162.030  1.00  0.00     0.000 C 
BRANCH   5   6
ATOM      6  C   UNL     1      29.443 173.618 161.673  1.00  0.00     0.006 C 
BRANCH   6   7
ATOM      7  C   UNL     1      28.427 174.129 162.700  1.00  0.00     0.053 C 
BRANCH   7   8
ATOM      8  C   UNL     1      27.196 174.631 162.016  1.00  0.00     0.041 C 
ATOM      9  O   UNL     1      27.104 174.577 160.763  1.00  0.00    -0.550 OA
ATOM     10  O   UNL     1      26.164 175.191 162.759  1.00  0.00    -0.550 OA
ENDBRANCH   7   8
ENDBRANCH   6   7
ENDBRANCH   5   6
ENDBRANCH   4   5
ENDBRANCH   3   4
ENDBRANCH   2   3
ENDBRANCH   1   2
BRANCH   1  11
ATOM     11  C   UNL     1      30.079 170.118 156.700  1.00  0.00    -0.031 C 
ATOM     12  C   UNL     1      30.140 170.767 155.528  1.00  0.00    -0.027 C 
BRANCH  12  13
ATOM     13  C   UNL     1      31.380 170.739 154.679  1.00  0.00     0.054 C 
BRANCH  13  14
ATOM     14  C   UNL     1      32.622 170.885 155.514  1.00  0.00    -0.027 C 
ATOM     15  C   UNL     1      33.640 170.023 155.377  1.00  0.00    -0.031 C 
BRANCH  15  16
ATOM     16  C   UNL     1      34.914 170.171 156.162  1.00  0.00     0.027 C 
BRANCH  16  17
ATOM     17  C   UNL     1      35.164 168.997 157.126  1.00  0.00     0.004 C 
BRANCH  17  18
ATOM     18  C   UNL     1      33.978 168.019 157.240  1.00  0.00     0.000 C 
BRANCH  18  19
ATOM     19  C   UNL     1      33.413 167.925 158.664  1.00  0.00    -0.003 C 
ATOM     20  C   UNL     1      32.781 169.246 159.094  1.00  0.00     0.004 C 
ENDBRANCH  18  19
ENDBRANCH  17  18
ENDBRANCH  16  17
ENDBRANCH  15  16
ENDBRANCH  13  14
ENDBRANCH  12  13
ENDBRANCH   1  11
TORSDOF 14
ENDMDL
MODEL 6
REMARK VINA RESULT:    -4.342      3.641      8.973
REMARK INTER + INTRA:          -9.062
REMARK INTER:                  -7.760
REMARK INTRA:                  -1.302
REMARK UNBOUND:                -1.166
REMARK SMILES CCCCCC=CCC=CCCCCCCCC(=O)[O-]
REMARK SMILES IDX 11 1 12 2 13 3 14 4 15 5 16 6 17 7 18 8 19 9 20 10 10 11
REMARK SMILES IDX 9 12 8 13 7 14 6 15 5 16 4 17 3 18 2 19 1 20
REMARK H PARENT
REMARK Flexibility Score: inf
ROOT
ATOM      1  C   UNL     1      28.774 172.178 161.329  1.00  0.00     0.027 C 
ENDROOT
BRANCH   1   2
ATOM      2  C   UNL     1      29.146 173.646 161.581  1.00  0.00     0.004 C 
BRANCH   2   3
ATOM      3  C   UNL     1      27.920 174.537 161.851  1.00  0.00     0.000 C 
BRANCH   3   4
ATOM      4  C   UNL     1      26.920 173.968 162.875  1.00  0.00     0.000 C 
BRANCH   4   5
ATOM      5  C   UNL     1      27.098 174.566 164.280  1.00  0.00     0.000 C 
BRANCH   5   6
ATOM      6  C   UNL     1      27.669 173.527 165.251  1.00  0.00     0.006 C 
BRANCH   6   7
ATOM      7  C   UNL     1      29.153 173.792 165.528  1.00  0.00     0.053 C 
BRANCH   7   8
ATOM      8  C   UNL     1      29.999 172.704 164.947  1.00  0.00     0.041 C 
ATOM      9  O   UNL     1      31.105 172.982 164.416  1.00  0.00    -0.550 OA
ATOM     10  O   UNL     1      29.551 171.389 164.960  1.00  0.00    -0.550 OA
ENDBRANCH   7   8
ENDBRANCH   6   7
ENDBRANCH   5   6
ENDBRANCH   4   5
ENDBRANCH   3   4
ENDBRANCH   2   3
ENDBRANCH   1   2
BRANCH   1  11
ATOM     11  C   UNL     1      29.990 171.297 161.408  1.00  0.00    -0.031 C 
ATOM     12  C   UNL     1      30.504 170.714 160.315  1.00  0.00    -0.027 C 
BRANCH  12  13
ATOM     13  C   UNL     1      31.725 169.841 160.392  1.00  0.00     0.054 C 
BRANCH  13  14
ATOM     14  C   UNL     1      32.287 169.558 159.026  1.00  0.00    -0.027 C 
ATOM     15  C   UNL     1      33.302 168.697 158.872  1.00  0.00    -0.031 C 
BRANCH  15  16
ATOM     16  C   UNL     1      33.853 168.356 157.515  1.00  0.00     0.027 C 
BRANCH  16  17
ATOM     17  C   UNL     1      35.149 169.118 157.185  1.00  0.00     0.004 C 
BRANCH  17  18
ATOM     18  C   UNL     1      34.996 170.147 156.047  1.00  0.00     0.000 C 
BRANCH  18  19
ATOM     19  C   UNL     1      33.532 170.483 155.734  1.00  0.00    -0.003 C 
ATOM     20  C   UNL     1      33.175 170.110 154.298  1.00  0.00     0.004 C 
ENDBRANCH  18  19
ENDBRANCH  17  18
ENDBRANCH  16  17
ENDBRANCH  15  16
ENDBRANCH  13  14
ENDBRANCH  12  13
ENDBRANCH   1  11
TORSDOF 14
ENDMDL
MODEL 7
REMARK VINA RESULT:    -4.327      4.030      8.585
REMARK INTER + INTRA:          -9.034
REMARK INTER:                  -7.369
REMARK INTRA:                  -1.665
REMARK UNBOUND:                -1.166
REMARK SMILES CCCCCC=CCC=CCCCCCCCC(=O)[O-]
REMARK SMILES IDX 11 1 12 2 13 3 14 4 15 5 16 6 17 7 18 8 19 9 20 10 10 11
REMARK SMILES IDX 9 12 8 13 7 14 6 15 5 16 4 17 3 18 2 19 1 20
REMARK H PARENT
REMARK Flexibility Score: inf
ROOT
ATOM      1  C   UNL     1      29.114 171.524 160.578  1.00  0.00     0.027 C 
ENDROOT
BRANCH   1   2
ATOM      2  C   UNL     1      30.050 172.515 161.281  1.00  0.00     0.004 C 
BRANCH   2   3
ATOM      3  C   UNL     1      29.295 173.565 162.116  1.00  0.00     0.000 C 
BRANCH   3   4
ATOM      4  C   UNL     1      29.470 173.428 163.640  1.00  0.00     0.000 C 
BRANCH   4   5
ATOM      5  C   UNL     1      30.802 172.772 164.032  1.00  0.00     0.000 C 
BRANCH   5   6
ATOM      6  C   UNL     1      30.567 171.463 164.795  1.00  0.00     0.006 C 
BRANCH   6   7
ATOM      7  C   UNL     1      31.042 170.258 163.976  1.00  0.00     0.053 C 
BRANCH   7   8
ATOM      8  C   UNL     1      32.351 169.753 164.495  1.00  0.00     0.041 C 
ATOM      9  O   UNL     1      32.602 169.801 165.727  1.00  0.00    -0.550 OA
ATOM     10  O   UNL     1      33.307 169.260 163.616  1.00  0.00    -0.550 OA
ENDBRANCH   7   8
ENDBRANCH   6   7
ENDBRANCH   5   6
ENDBRANCH   4   5
ENDBRANCH   3   4
ENDBRANCH   2   3
ENDBRANCH   1   2
BRANCH   1  11
ATOM     11  C   UNL     1      29.884 170.353 160.033  1.00  0.00    -0.031 C 
ATOM     12  C   UNL     1      31.209 170.244 160.208  1.00  0.00    -0.027 C 
BRANCH  12  13
ATOM     13  C   UNL     1      31.977 169.069 159.672  1.00  0.00     0.054 C 
BRANCH  13  14
ATOM     14  C   UNL     1      33.195 169.510 158.907  1.00  0.00    -0.027 C 
ATOM     15  C   UNL     1      33.679 168.760 157.907  1.00  0.00    -0.031 C 
BRANCH  15  16
ATOM     16  C   UNL     1      34.865 169.197 157.091  1.00  0.00     0.027 C 
BRANCH  16  17
ATOM     17  C   UNL     1      34.552 170.389 156.169  1.00  0.00     0.004 C 
BRANCH  17  18
ATOM     18  C   UNL     1      33.556 170.061 155.039  1.00  0.00     0.000 C 
BRANCH  18  19
ATOM     19  C   UNL     1      32.334 170.989 155.028  1.00  0.00    -0.003 C 
ATOM     20  C   UNL     1      31.131 170.324 155.690  1.00  0.00     0.004 C 
ENDBRANCH  18  19
ENDBRANCH  17  18
ENDBRANCH  16  17
ENDBRANCH  15  16
ENDBRANCH  13  14
ENDBRANCH  12  13
ENDBRANCH   1  11
TORSDOF 14
ENDMDL
MODEL 8
REMARK VINA RESULT:    -4.315      3.501      7.614
REMARK INTER + INTRA:          -9.012
REMARK INTER:                  -7.211
REMARK INTRA:                  -1.802
REMARK UNBOUND:                -1.166
REMARK SMILES CCCCCC=CCC=CCCCCCCCC(=O)[O-]
REMARK SMILES IDX 11 1 12 2 13 3 14 4 15 5 16 6 17 7 18 8 19 9 20 10 10 11
REMARK SMILES IDX 9 12 8 13 7 14 6 15 5 16 4 17 3 18 2 19 1 20
REMARK H PARENT
REMARK Flexibility Score: inf
ROOT
ATOM      1  C   UNL     1      32.257 169.178 160.194  1.00  0.00     0.027 C 
ENDROOT
BRANCH   1   2
ATOM      2  C   UNL     1      31.833 169.314 161.662  1.00  0.00     0.004 C 
BRANCH   2   3
ATOM      3  C   UNL     1      30.309 169.219 161.857  1.00  0.00     0.000 C 
BRANCH   3   4
ATOM      4  C   UNL     1      29.683 170.384 162.645  1.00  0.00     0.000 C 
BRANCH   4   5
ATOM      5  C   UNL     1      29.039 171.442 161.736  1.00  0.00     0.000 C 
BRANCH   5   6
ATOM      6  C   UNL     1      29.995 172.617 161.496  1.00  0.00     0.006 C 
BRANCH   6   7
ATOM      7  C   UNL     1      29.311 173.953 161.802  1.00  0.00     0.053 C 
BRANCH   7   8
ATOM      8  C   UNL     1      28.940 174.034 163.248  1.00  0.00     0.041 C 
ATOM      9  O   UNL     1      29.815 173.859 164.135  1.00  0.00    -0.550 OA
ATOM     10  O   UNL     1      27.622 174.268 163.619  1.00  0.00    -0.550 OA
ENDBRANCH   7   8
ENDBRANCH   6   7
ENDBRANCH   5   6
ENDBRANCH   4   5
ENDBRANCH   3   4
ENDBRANCH   2   3
ENDBRANCH   1   2
BRANCH   1  11
ATOM     11  C   UNL     1      31.279 169.873 159.287  1.00  0.00    -0.031 C 
ATOM     12  C   UNL     1      30.661 169.221 158.292  1.00  0.00    -0.027 C 
BRANCH  12  13
ATOM     13  C   UNL     1      29.676 169.914 157.392  1.00  0.00     0.054 C 
BRANCH  13  14
ATOM     14  C   UNL     1      30.260 170.169 156.030  1.00  0.00    -0.027 C 
ATOM     15  C   UNL     1      31.329 169.480 155.608  1.00  0.00    -0.031 C 
BRANCH  15  16
ATOM     16  C   UNL     1      31.907 169.678 154.233  1.00  0.00     0.027 C 
BRANCH  16  17
ATOM     17  C   UNL     1      33.325 170.275 154.258  1.00  0.00     0.004 C 
BRANCH  17  18
ATOM     18  C   UNL     1      33.809 170.677 155.666  1.00  0.00     0.000 C 
BRANCH  18  19
ATOM     19  C   UNL     1      35.048 169.893 156.121  1.00  0.00    -0.003 C 
ATOM     20  C   UNL     1      34.757 169.088 157.384  1.00  0.00     0.004 C 
ENDBRANCH  18  19
ENDBRANCH  17  18
ENDBRANCH  16  17
ENDBRANCH  15  16
ENDBRANCH  13  14
ENDBRANCH  12  13
ENDBRANCH   1  11
TORSDOF 14
ENDMDL
MODEL 9
REMARK VINA RESULT:    -4.296      1.171      2.422
REMARK INTER + INTRA:          -8.977
REMARK INTER:                  -7.568
REMARK INTRA:                  -1.410
REMARK UNBOUND:                -1.166
REMARK SMILES CCCCCC=CCC=CCCCCCCCC(=O)[O-]
REMARK SMILES IDX 11 1 12 2 13 3 14 4 15 5 16 6 17 7 18 8 19 9 20 10 10 11
REMARK SMILES IDX 9 12 8 13 7 14 6 15 5 16 4 17 3 18 2 19 1 20
REMARK H PARENT
REMARK Flexibility Score: inf
ROOT
ATOM      1  C   UNL     1      32.611 169.274 160.090  1.00  0.00     0.027 C 
ENDROOT
BRANCH   1   2
ATOM      2  C   UNL     1      33.333 168.824 158.813  1.00  0.00     0.004 C 
BRANCH   2   3
ATOM      3  C   UNL     1      33.024 169.721 157.601  1.00  0.00     0.000 C 
BRANCH   3   4
ATOM      4  C   UNL     1      34.235 170.037 156.704  1.00  0.00     0.000 C 
BRANCH   4   5
ATOM      5  C   UNL     1      33.834 170.414 155.269  1.00  0.00     0.000 C 
BRANCH   5   6
ATOM      6  C   UNL     1      32.312 170.359 155.091  1.00  0.00     0.006 C 
BRANCH   6   7
ATOM      7  C   UNL     1      31.783 171.660 154.479  1.00  0.00     0.053 C 
BRANCH   7   8
ATOM      8  C   UNL     1      30.335 171.843 154.802  1.00  0.00     0.041 C 
ATOM      9  O   UNL     1      29.729 170.981 155.491  1.00  0.00    -0.550 OA
ATOM     10  O   UNL     1      29.644 172.945 154.315  1.00  0.00    -0.550 OA
ENDBRANCH   7   8
ENDBRANCH   6   7
ENDBRANCH   5   6
ENDBRANCH   4   5
ENDBRANCH   3   4
ENDBRANCH   2   3
ENDBRANCH   1   2
BRANCH   1  11
ATOM     11  C   UNL     1      31.346 170.016 159.756  1.00  0.00    -0.031 C 
ATOM     12  C   UNL     1      30.409 170.256 160.685  1.00  0.00    -0.027 C 
BRANCH  12  13
ATOM     13  C   UNL     1      29.149 171.006 160.354  1.00  0.00     0.054 C 
BRANCH  13  14
ATOM     14  C   UNL     1      28.852 172.063 161.381  1.00  0.00    -0.027 C 
ATOM     15  C   UNL     1      29.603 173.171 161.454  1.00  0.00    -0.031 C 
BRANCH  15  16
ATOM     16  C   UNL     1      29.302 174.269 162.438  1.00  0.00     0.027 C 
BRANCH  16  17
ATOM     17  C   UNL     1      28.951 173.738 163.840  1.00  0.00     0.004 C 
BRANCH  17  18
ATOM     18  C   UNL     1      30.179 173.490 164.739  1.00  0.00     0.000 C 
BRANCH  18  19
ATOM     19  C   UNL     1      30.290 172.035 165.214  1.00  0.00    -0.003 C 
ATOM     20  C   UNL     1      31.152 171.209 164.263  1.00  0.00     0.004 C 
ENDBRANCH  18  19
ENDBRANCH  17  18
ENDBRANCH  16  17
ENDBRANCH  15  16
ENDBRANCH  13  14
ENDBRANCH  12  13
ENDBRANCH   1  11
TORSDOF 14
ENDMDL
