MODEL 1
REMARK VINA RESULT:    -5.503      0.000      0.000
REMARK INTER + INTRA:          -8.048
REMARK INTER:                  -7.433
REMARK INTRA:                  -0.615
REMARK UNBOUND:                -0.615
REMARK SMILES CC(=O)CCC=C(C)CCC=C(C)C
REMARK SMILES IDX 7 1 6 2 8 3 9 4 10 5 11 6 13 7 12 8 14 9 5 10 4 11 2 12 3 13
REMARK SMILES IDX 1 14
REMARK H PARENT
REMARK Flexibility Score: inf
ROOT
ATOM      1  C   UNL     1       3.614  17.876  -7.172  1.00  0.00    -0.077 C 
ATOM      2  C   UNL     1       3.412  16.804  -7.974  1.00  0.00    -0.028 C 
ATOM      3  C   UNL     1       3.688  17.743  -5.669  1.00  0.00     0.039 C 
ENDROOT
BRANCH   1   4
ATOM      4  C   UNL     1       3.750  19.247  -7.797  1.00  0.00     0.034 C 
BRANCH   4   5
ATOM      5  C   UNL     1       2.538  19.564  -8.683  1.00  0.00     0.032 C 
BRANCH   5   6
ATOM      6  C   UNL     1       1.600  20.515  -7.984  1.00  0.00    -0.028 C 
ATOM      7  C   UNL     1       2.543  22.536  -9.123  1.00  0.00     0.039 C 
ATOM      8  C   UNL     1       1.574  21.850  -8.189  1.00  0.00    -0.080 C 
ATOM      9  C   UNL     1       0.552  22.672  -7.446  1.00  0.00     0.039 C 
ENDBRANCH   5   6
ENDBRANCH   4   5
ENDBRANCH   1   4
BRANCH   2  10
ATOM     10  C   UNL     1       3.298  15.382  -7.486  1.00  0.00     0.035 C 
BRANCH  10  11
ATOM     11  C   UNL     1       4.454  14.531  -8.017  1.00  0.00     0.079 C 
BRANCH  11  12
ATOM     12  C   UNL     1       5.322  14.047  -6.885  1.00  0.00     0.130 C 
ATOM     13  O   UNL     1       5.564  14.796  -5.951  1.00  0.00    -0.300 OA
ATOM     14  C   UNL     1       5.892  12.660  -6.875  1.00  0.00     0.087 C 
ENDBRANCH  11  12
ENDBRANCH  10  11
ENDBRANCH   2  10
TORSDOF 6
ENDMDL
MODEL 2
REMARK VINA RESULT:    -5.266      1.463      2.119
REMARK INTER + INTRA:          -7.728
REMARK INTER:                  -6.587
REMARK INTRA:                  -1.141
REMARK UNBOUND:                -0.615
REMARK SMILES CC(=O)CCC=C(C)CCC=C(C)C
REMARK SMILES IDX 7 1 6 2 8 3 9 4 10 5 11 6 13 7 12 8 14 9 5 10 4 11 2 12 3 13
REMARK SMILES IDX 1 14
REMARK H PARENT
REMARK Flexibility Score: inf
ROOT
ATOM      1  C   UNL     1       2.519  16.959  -7.994  1.00  0.00    -0.077 C 
ATOM      2  C   UNL     1       2.169  16.495  -6.772  1.00  0.00    -0.028 C 
ATOM      3  C   UNL     1       3.965  17.136  -8.394  1.00  0.00     0.039 C 
ENDROOT
BRANCH   1   4
ATOM      4  C   UNL     1       1.432  17.330  -8.979  1.00  0.00     0.034 C 
BRANCH   4   5
ATOM      5  C   UNL     1       0.666  18.571  -8.503  1.00  0.00     0.032 C 
BRANCH   5   6
ATOM      6  C   UNL     1       1.309  19.829  -9.030  1.00  0.00    -0.028 C 
ATOM      7  C   UNL     1       2.297  20.444  -6.812  1.00  0.00     0.039 C 
ATOM      8  C   UNL     1       2.065  20.668  -8.288  1.00  0.00    -0.080 C 
ATOM      9  C   UNL     1       2.676  21.870  -8.961  1.00  0.00     0.039 C 
ENDBRANCH   5   6
ENDBRANCH   4   5
ENDBRANCH   1   4
BRANCH   2  10
ATOM     10  C   UNL     1       3.147  16.055  -5.712  1.00  0.00     0.035 C 
BRANCH  10  11
ATOM     11  C   UNL     1       3.288  14.531  -5.701  1.00  0.00     0.079 C 
BRANCH  11  12
ATOM     12  C   UNL     1       4.570  14.110  -6.370  1.00  0.00     0.130 C 
ATOM     13  O   UNL     1       5.636  14.537  -5.951  1.00  0.00    -0.300 OA
ATOM     14  C   UNL     1       4.569  13.169  -7.538  1.00  0.00     0.087 C 
ENDBRANCH  11  12
ENDBRANCH  10  11
ENDBRANCH   2  10
TORSDOF 6
ENDMDL
MODEL 3
REMARK VINA RESULT:    -5.190      0.999      1.474
REMARK INTER + INTRA:          -7.625
REMARK INTER:                  -6.938
REMARK INTRA:                  -0.687
REMARK UNBOUND:                -0.615
REMARK SMILES CC(=O)CCC=C(C)CCC=C(C)C
REMARK SMILES IDX 7 1 6 2 8 3 9 4 10 5 11 6 13 7 12 8 14 9 5 10 4 11 2 12 3 13
REMARK SMILES IDX 1 14
REMARK H PARENT
REMARK Flexibility Score: inf
ROOT
ATOM      1  C   UNL     1       3.761  17.210  -6.527  1.00  0.00    -0.077 C 
ATOM      2  C   UNL     1       3.425  16.448  -7.593  1.00  0.00    -0.028 C 
ATOM      3  C   UNL     1       4.122  16.600  -5.193  1.00  0.00     0.039 C 
ENDROOT
BRANCH   1   4
ATOM      4  C   UNL     1       3.755  18.717  -6.669  1.00  0.00     0.034 C 
BRANCH   4   5
ATOM      5  C   UNL     1       3.933  19.126  -8.135  1.00  0.00     0.032 C 
BRANCH   5   6
ATOM      6  C   UNL     1       3.353  20.497  -8.381  1.00  0.00    -0.028 C 
ATOM      7  C   UNL     1       1.136  19.601  -9.125  1.00  0.00     0.039 C 
ATOM      8  C   UNL     1       2.090  20.727  -8.802  1.00  0.00    -0.080 C 
ATOM      9  C   UNL     1       1.637  22.155  -8.967  1.00  0.00     0.039 C 
ENDBRANCH   5   6
ENDBRANCH   4   5
ENDBRANCH   1   4
BRANCH   2  10
ATOM     10  C   UNL     1       3.427  14.940  -7.600  1.00  0.00     0.035 C 
BRANCH  10  11
ATOM     11  C   UNL     1       4.762  14.400  -8.118  1.00  0.00     0.079 C 
BRANCH  11  12
ATOM     12  C   UNL     1       5.277  13.304  -7.223  1.00  0.00     0.130 C 
ATOM     13  O   UNL     1       5.353  13.497  -6.019  1.00  0.00    -0.300 OA
ATOM     14  C   UNL     1       5.691  11.974  -7.777  1.00  0.00     0.087 C 
ENDBRANCH  11  12
ENDBRANCH  10  11
ENDBRANCH   2  10
TORSDOF 6
ENDMDL
MODEL 4
REMARK VINA RESULT:    -5.125      1.343      1.412
REMARK INTER + INTRA:          -7.537
REMARK INTER:                  -7.313
REMARK INTRA:                  -0.225
REMARK UNBOUND:                -0.615
REMARK SMILES CC(=O)CCC=C(C)CCC=C(C)C
REMARK SMILES IDX 7 1 6 2 8 3 9 4 10 5 11 6 13 7 12 8 14 9 5 10 4 11 2 12 3 13
REMARK SMILES IDX 1 14
REMARK H PARENT
REMARK Flexibility Score: inf
ROOT
ATOM      1  C   UNL     1       3.683  18.452  -7.436  1.00  0.00    -0.077 C 
ATOM      2  C   UNL     1       3.778  17.368  -8.240  1.00  0.00    -0.028 C 
ATOM      3  C   UNL     1       3.767  18.338  -5.932  1.00  0.00     0.039 C 
ENDROOT
BRANCH   1   4
ATOM      4  C   UNL     1       3.467  19.814  -8.060  1.00  0.00     0.034 C 
BRANCH   4   5
ATOM      5  C   UNL     1       2.070  19.912  -8.683  1.00  0.00     0.032 C 
BRANCH   5   6
ATOM      6  C   UNL     1       1.220  20.908  -7.935  1.00  0.00    -0.028 C 
ATOM      7  C   UNL     1       2.201  22.881  -9.125  1.00  0.00     0.039 C 
ATOM      8  C   UNL     1       1.250  22.243  -8.139  1.00  0.00    -0.080 C 
ATOM      9  C   UNL     1       0.313  23.113  -7.342  1.00  0.00     0.039 C 
ENDBRANCH   5   6
ENDBRANCH   4   5
ENDBRANCH   1   4
BRANCH   2  10
ATOM     10  C   UNL     1       4.029  15.963  -7.754  1.00  0.00     0.035 C 
BRANCH  10  11
ATOM     11  C   UNL     1       2.791  15.401  -7.051  1.00  0.00     0.079 C 
BRANCH  11  12
ATOM     12  C   UNL     1       3.131  14.141  -6.299  1.00  0.00     0.130 C 
ATOM     13  O   UNL     1       3.723  14.218  -5.233  1.00  0.00    -0.300 OA
ATOM     14  C   UNL     1       2.752  12.790  -6.828  1.00  0.00     0.087 C 
ENDBRANCH  11  12
ENDBRANCH  10  11
ENDBRANCH   2  10
TORSDOF 6
ENDMDL
MODEL 5
REMARK VINA RESULT:    -5.070      2.249      7.085
REMARK INTER + INTRA:          -7.463
REMARK INTER:                  -6.748
REMARK INTRA:                  -0.716
REMARK UNBOUND:                -0.615
REMARK SMILES CC(=O)CCC=C(C)CCC=C(C)C
REMARK SMILES IDX 7 1 6 2 8 3 9 4 10 5 11 6 13 7 12 8 14 9 5 10 4 11 2 12 3 13
REMARK SMILES IDX 1 14
REMARK H PARENT
REMARK Flexibility Score: inf
ROOT
ATOM      1  C   UNL     1       3.407  17.018  -8.103  1.00  0.00    -0.077 C 
ATOM      2  C   UNL     1       3.974  18.203  -8.430  1.00  0.00    -0.028 C 
ATOM      3  C   UNL     1       2.552  16.857  -6.868  1.00  0.00     0.039 C 
ENDROOT
BRANCH   1   4
ATOM      4  C   UNL     1       3.653  15.816  -8.989  1.00  0.00     0.034 C 
BRANCH   4   5
ATOM      5  C   UNL     1       5.150  15.490  -9.061  1.00  0.00     0.032 C 
BRANCH   5   6
ATOM      6  C   UNL     1       5.373  13.999  -9.033  1.00  0.00    -0.028 C 
ATOM      7  C   UNL     1       5.407  13.889  -6.531  1.00  0.00     0.039 C 
ATOM      8  C   UNL     1       5.466  13.262  -7.904  1.00  0.00    -0.080 C 
ATOM      9  C   UNL     1       5.652  11.771  -8.032  1.00  0.00     0.039 C 
ENDBRANCH   5   6
ENDBRANCH   4   5
ENDBRANCH   1   4
BRANCH   2  10
ATOM     10  C   UNL     1       3.780  19.483  -7.657  1.00  0.00     0.035 C 
BRANCH  10  11
ATOM     11  C   UNL     1       3.086  20.540  -8.521  1.00  0.00     0.079 C 
BRANCH  11  12
ATOM     12  C   UNL     1       1.647  20.705  -8.107  1.00  0.00     0.130 C 
ATOM     13  O   UNL     1       0.881  19.759  -8.204  1.00  0.00    -0.300 OA
ATOM     14  C   UNL     1       1.135  22.008  -7.568  1.00  0.00     0.087 C 
ENDBRANCH  11  12
ENDBRANCH  10  11
ENDBRANCH   2  10
TORSDOF 6
ENDMDL
MODEL 6
REMARK VINA RESULT:    -5.049      2.650      6.739
REMARK INTER + INTRA:          -7.436
REMARK INTER:                  -6.531
REMARK INTRA:                  -0.905
REMARK UNBOUND:                -0.615
REMARK SMILES CC(=O)CCC=C(C)CCC=C(C)C
REMARK SMILES IDX 7 1 6 2 8 3 9 4 10 5 11 6 13 7 12 8 14 9 5 10 4 11 2 12 3 13
REMARK SMILES IDX 1 14
REMARK H PARENT
REMARK Flexibility Score: inf
ROOT
ATOM      1  C   UNL     1       2.905  18.339  -6.445  1.00  0.00    -0.077 C 
ATOM      2  C   UNL     1       2.547  18.561  -7.731  1.00  0.00    -0.028 C 
ATOM      3  C   UNL     1       3.872  19.245  -5.719  1.00  0.00     0.039 C 
ENDROOT
BRANCH   1   4
ATOM      4  C   UNL     1       2.337  17.138  -5.720  1.00  0.00     0.034 C 
BRANCH   4   5
ATOM      5  C   UNL     1       2.310  15.910  -6.638  1.00  0.00     0.032 C 
BRANCH   5   6
ATOM      6  C   UNL     1       3.416  14.951  -6.278  1.00  0.00    -0.028 C 
ATOM      7  C   UNL     1       4.786  15.523  -8.295  1.00  0.00     0.039 C 
ATOM      8  C   UNL     1       4.546  14.784  -7.000  1.00  0.00    -0.080 C 
ATOM      9  C   UNL     1       5.584  13.814  -6.496  1.00  0.00     0.039 C 
ENDBRANCH   5   6
ENDBRANCH   4   5
ENDBRANCH   1   4
BRANCH   2  10
ATOM     10  C   UNL     1       3.008  19.736  -8.555  1.00  0.00     0.035 C 
BRANCH  10  11
ATOM     11  C   UNL     1       1.812  20.512  -9.113  1.00  0.00     0.079 C 
BRANCH  11  12
ATOM     12  C   UNL     1       1.815  21.931  -8.607  1.00  0.00     0.130 C 
ATOM     13  O   UNL     1       2.557  22.752  -9.124  1.00  0.00    -0.300 OA
ATOM     14  C   UNL     1       0.918  22.361  -7.485  1.00  0.00     0.087 C 
ENDBRANCH  11  12
ENDBRANCH  10  11
ENDBRANCH   2  10
TORSDOF 6
ENDMDL
MODEL 7
REMARK VINA RESULT:    -5.020      2.637      7.444
REMARK INTER + INTRA:          -7.396
REMARK INTER:                  -6.981
REMARK INTRA:                  -0.415
REMARK UNBOUND:                -0.615
REMARK SMILES CC(=O)CCC=C(C)CCC=C(C)C
REMARK SMILES IDX 7 1 6 2 8 3 9 4 10 5 11 6 13 7 12 8 14 9 5 10 4 11 2 12 3 13
REMARK SMILES IDX 1 14
REMARK H PARENT
REMARK Flexibility Score: inf
ROOT
ATOM      1  C   UNL     1       3.735  17.658  -7.571  1.00  0.00    -0.077 C 
ATOM      2  C   UNL     1       3.677  18.630  -8.512  1.00  0.00    -0.028 C 
ATOM      3  C   UNL     1       3.625  17.969  -6.096  1.00  0.00     0.039 C 
ENDROOT
BRANCH   1   4
ATOM      4  C   UNL     1       3.935  16.223  -8.007  1.00  0.00     0.034 C 
BRANCH   4   5
ATOM      5  C   UNL     1       4.197  15.318  -6.798  1.00  0.00     0.032 C 
BRANCH   5   6
ATOM      6  C   UNL     1       5.062  14.145  -7.186  1.00  0.00    -0.028 C 
ATOM      7  C   UNL     1       3.122  12.572  -7.376  1.00  0.00     0.039 C 
ATOM      8  C   UNL     1       4.591  12.912  -7.473  1.00  0.00    -0.080 C 
ATOM      9  C   UNL     1       5.574  11.845  -7.884  1.00  0.00     0.039 C 
ENDBRANCH   5   6
ENDBRANCH   4   5
ENDBRANCH   1   4
BRANCH   2  10
ATOM     10  C   UNL     1       3.444  20.090  -8.217  1.00  0.00     0.035 C 
BRANCH  10  11
ATOM     11  C   UNL     1       2.037  20.514  -8.646  1.00  0.00     0.079 C 
BRANCH  11  12
ATOM     12  C   UNL     1       1.865  22.004  -8.510  1.00  0.00     0.130 C 
ATOM     13  O   UNL     1       2.609  22.753  -9.124  1.00  0.00    -0.300 OA
ATOM     14  C   UNL     1       0.793  22.590  -7.641  1.00  0.00     0.087 C 
ENDBRANCH  11  12
ENDBRANCH  10  11
ENDBRANCH   2  10
TORSDOF 6
ENDMDL
MODEL 8
REMARK VINA RESULT:    -4.979      1.426      2.241
REMARK INTER + INTRA:          -7.341
REMARK INTER:                  -6.592
REMARK INTRA:                  -0.750
REMARK UNBOUND:                -0.615
REMARK SMILES CC(=O)CCC=C(C)CCC=C(C)C
REMARK SMILES IDX 7 1 6 2 8 3 9 4 10 5 11 6 13 7 12 8 14 9 5 10 4 11 2 12 3 13
REMARK SMILES IDX 1 14
REMARK H PARENT
REMARK Flexibility Score: inf
ROOT
ATOM      1  C   UNL     1       1.592  18.378  -7.969  1.00  0.00    -0.077 C 
ATOM      2  C   UNL     1       2.521  17.853  -7.137  1.00  0.00    -0.028 C 
ATOM      3  C   UNL     1       0.127  18.023  -7.854  1.00  0.00     0.039 C 
ENDROOT
BRANCH   1   4
ATOM      4  C   UNL     1       2.034  19.332  -9.057  1.00  0.00     0.034 C 
BRANCH   4   5
ATOM      5  C   UNL     1       2.831  20.501  -8.465  1.00  0.00     0.032 C 
BRANCH   5   6
ATOM      6  C   UNL     1       2.354  21.814  -9.032  1.00  0.00    -0.028 C 
ATOM      7  C   UNL     1       0.818  22.272  -7.108  1.00  0.00     0.039 C 
ATOM      8  C   UNL     1       1.469  22.633  -8.423  1.00  0.00    -0.080 C 
ATOM      9  C   UNL     1       1.115  23.935  -9.093  1.00  0.00     0.039 C 
ENDBRANCH   5   6
ENDBRANCH   4   5
ENDBRANCH   1   4
BRANCH   2  10
ATOM     10  C   UNL     1       2.213  16.922  -5.991  1.00  0.00     0.035 C 
BRANCH  10  11
ATOM     11  C   UNL     1       2.554  15.476  -6.358  1.00  0.00     0.079 C 
BRANCH  11  12
ATOM     12  C   UNL     1       4.042  15.249  -6.300  1.00  0.00     0.130 C 
ATOM     13  O   UNL     1       4.654  15.534  -5.282  1.00  0.00    -0.300 OA
ATOM     14  C   UNL     1       4.789  14.672  -7.465  1.00  0.00     0.087 C 
ENDBRANCH  11  12
ENDBRANCH  10  11
ENDBRANCH   2  10
TORSDOF 6
ENDMDL
MODEL 9
REMARK VINA RESULT:    -4.783      1.751      2.231
REMARK INTER + INTRA:          -7.076
REMARK INTER:                  -6.498
REMARK INTRA:                  -0.578
REMARK UNBOUND:                -0.615
REMARK SMILES CC(=O)CCC=C(C)CCC=C(C)C
REMARK SMILES IDX 7 1 6 2 8 3 9 4 10 5 11 6 13 7 12 8 14 9 5 10 4 11 2 12 3 13
REMARK SMILES IDX 1 14
REMARK H PARENT
REMARK Flexibility Score: inf
ROOT
ATOM      1  C   UNL     1       3.356  16.743  -6.910  1.00  0.00    -0.077 C 
ATOM      2  C   UNL     1       3.006  15.457  -6.676  1.00  0.00    -0.028 C 
ATOM      3  C   UNL     1       3.878  17.194  -8.254  1.00  0.00     0.039 C 
ENDROOT
BRANCH   1   4
ATOM      4  C   UNL     1       3.239  17.753  -5.789  1.00  0.00     0.034 C 
BRANCH   4   5
ATOM      5  C   UNL     1       3.717  19.135  -6.250  1.00  0.00     0.032 C 
BRANCH   5   6
ATOM      6  C   UNL     1       2.548  20.072  -6.428  1.00  0.00    -0.028 C 
ATOM      7  C   UNL     1       3.220  20.727  -8.750  1.00  0.00     0.039 C 
ATOM      8  C   UNL     1       2.298  20.775  -7.554  1.00  0.00    -0.080 C 
ATOM      9  C   UNL     1       1.067  21.644  -7.600  1.00  0.00     0.039 C 
ENDBRANCH   5   6
ENDBRANCH   4   5
ENDBRANCH   1   4
BRANCH   2  10
ATOM     10  C   UNL     1       3.038  14.361  -7.711  1.00  0.00     0.035 C 
BRANCH  10  11
ATOM     11  C   UNL     1       3.674  13.091  -7.139  1.00  0.00     0.079 C 
BRANCH  11  12
ATOM     12  C   UNL     1       4.500  12.391  -8.186  1.00  0.00     0.130 C 
ATOM     13  O   UNL     1       3.943  11.843  -9.125  1.00  0.00    -0.300 OA
ATOM     14  C   UNL     1       5.997  12.358  -8.105  1.00  0.00     0.087 C 
ENDBRANCH  11  12
ENDBRANCH  10  11
ENDBRANCH   2  10
TORSDOF 6
ENDMDL
