MODEL 1
REMARK VINA RESULT:    -3.823      0.000      0.000
REMARK INTER + INTRA:          -9.652
REMARK INTER:                  -7.175
REMARK INTRA:                  -2.477
REMARK UNBOUND:                -2.477
REMARK SMILES O=C([O-])CCCCCCCCCCCCCCC(=O)[O-]
REMARK SMILES IDX 10 1 9 2 8 3 7 4 6 5 5 6 4 7 2 8 1 9 3 10 11 11 12 12 13 13
REMARK SMILES IDX 14 14 15 15 16 16 17 17 18 18 19 19 20 20
REMARK H PARENT
REMARK Flexibility Score: inf
ROOT
ATOM      1  C   UNL     1      -0.388   6.116  -8.404  1.00  0.00     0.000 C 
ENDROOT
BRANCH   1   2
ATOM      2  C   UNL     1      -1.924   6.042  -8.489  1.00  0.00     0.000 C 
BRANCH   2   3
ATOM      3  C   UNL     1      -2.509   6.966  -9.570  1.00  0.00     0.000 C 
BRANCH   3   4
ATOM      4  C   UNL     1      -3.680   6.321 -10.327  1.00  0.00     0.000 C 
BRANCH   4   5
ATOM      5  C   UNL     1      -4.429   5.283  -9.480  1.00  0.00     0.000 C 
BRANCH   5   6
ATOM      6  C   UNL     1      -4.656   3.989 -10.271  1.00  0.00     0.006 C 
BRANCH   6   7
ATOM      7  C   UNL     1      -4.365   2.758  -9.407  1.00  0.00     0.053 C 
BRANCH   7   8
ATOM      8  C   UNL     1      -5.633   2.034  -9.082  1.00  0.00     0.041 C 
ATOM      9  O   UNL     1      -6.114   2.088  -7.920  1.00  0.00    -0.550 OA
ATOM     10  O   UNL     1      -6.312   1.340 -10.077  1.00  0.00    -0.550 OA
ENDBRANCH   7   8
ENDBRANCH   6   7
ENDBRANCH   5   6
ENDBRANCH   4   5
ENDBRANCH   3   4
ENDBRANCH   2   3
ENDBRANCH   1   2
BRANCH   1  11
ATOM     11  C   UNL     1       0.263   7.188  -9.298  1.00  0.00     0.000 C 
BRANCH  11  12
ATOM     12  C   UNL     1       1.270   6.599 -10.301  1.00  0.00     0.000 C 
BRANCH  12  13
ATOM     13  C   UNL     1       0.603   6.152 -11.613  1.00  0.00     0.000 C 
BRANCH  13  14
ATOM     14  C   UNL     1       0.488   4.624 -11.729  1.00  0.00     0.000 C 
BRANCH  14  15
ATOM     15  C   UNL     1      -0.975   4.176 -11.622  1.00  0.00     0.000 C 
BRANCH  15  16
ATOM     16  C   UNL     1      -1.125   3.017 -10.625  1.00  0.00     0.006 C 
BRANCH  16  17
ATOM     17  C   UNL     1       0.175   2.737  -9.859  1.00  0.00     0.053 C 
BRANCH  17  18
ATOM     18  C   UNL     1      -0.091   2.169  -8.499  1.00  0.00     0.041 C 
ATOM     19  O   UNL     1      -0.860   2.767  -7.703  1.00  0.00    -0.550 OA
ATOM     20  O   UNL     1       0.537   0.995  -8.100  1.00  0.00    -0.550 OA
ENDBRANCH  17  18
ENDBRANCH  16  17
ENDBRANCH  15  16
ENDBRANCH  14  15
ENDBRANCH  13  14
ENDBRANCH  12  13
ENDBRANCH  11  12
ENDBRANCH   1  11
TORSDOF 15
ENDMDL
MODEL 2
REMARK VINA RESULT:    -3.758      2.318      4.685
REMARK INTER + INTRA:          -9.530
REMARK INTER:                  -7.298
REMARK INTRA:                  -2.232
REMARK UNBOUND:                -2.477
REMARK SMILES O=C([O-])CCCCCCCCCCCCCCC(=O)[O-]
REMARK SMILES IDX 10 1 9 2 8 3 7 4 6 5 5 6 4 7 2 8 1 9 3 10 11 11 12 12 13 13
REMARK SMILES IDX 14 14 15 15 16 16 17 17 18 18 19 19 20 20
REMARK H PARENT
REMARK Flexibility Score: inf
ROOT
ATOM      1  C   UNL     1       1.181   2.116 -10.306  1.00  0.00     0.000 C 
ENDROOT
BRANCH   1   2
ATOM      2  C   UNL     1       0.315   1.389  -9.261  1.00  0.00     0.000 C 
BRANCH   2   3
ATOM      3  C   UNL     1      -0.131   2.307  -8.110  1.00  0.00     0.000 C 
BRANCH   3   4
ATOM      4  C   UNL     1      -1.272   3.252  -8.515  1.00  0.00     0.000 C 
BRANCH   4   5
ATOM      5  C   UNL     1      -0.815   4.713  -8.634  1.00  0.00     0.000 C 
BRANCH   5   6
ATOM      6  C   UNL     1      -1.995   5.675  -8.452  1.00  0.00     0.006 C 
BRANCH   6   7
ATOM      7  C   UNL     1      -2.834   5.765  -9.730  1.00  0.00     0.053 C 
BRANCH   7   8
ATOM      8  C   UNL     1      -4.214   5.242  -9.489  1.00  0.00     0.041 C 
ATOM      9  O   UNL     1      -4.472   4.592  -8.442  1.00  0.00    -0.550 OA
ATOM     10  O   UNL     1      -5.230   5.516 -10.397  1.00  0.00    -0.550 OA
ENDBRANCH   7   8
ENDBRANCH   6   7
ENDBRANCH   5   6
ENDBRANCH   4   5
ENDBRANCH   3   4
ENDBRANCH   2   3
ENDBRANCH   1   2
BRANCH   1  11
ATOM     11  C   UNL     1       0.749   1.906 -11.769  1.00  0.00     0.000 C 
BRANCH  11  12
ATOM     12  C   UNL     1       0.126   3.166 -12.396  1.00  0.00     0.000 C 
BRANCH  12  13
ATOM     13  C   UNL     1      -1.386   3.269 -12.134  1.00  0.00     0.000 C 
BRANCH  13  14
ATOM     14  C   UNL     1      -2.194   2.216 -12.907  1.00  0.00     0.000 C 
BRANCH  14  15
ATOM     15  C   UNL     1      -2.807   1.186 -11.951  1.00  0.00     0.000 C 
BRANCH  15  16
ATOM     16  C   UNL     1      -3.698   1.869 -10.902  1.00  0.00     0.006 C 
BRANCH  16  17
ATOM     17  C   UNL     1      -5.137   2.062 -11.398  1.00  0.00     0.053 C 
BRANCH  17  18
ATOM     18  C   UNL     1      -6.139   1.777 -10.322  1.00  0.00     0.041 C 
ATOM     19  O   UNL     1      -7.362   1.685 -10.605  1.00  0.00    -0.550 OA
ATOM     20  O   UNL     1      -5.725   1.648  -9.002  1.00  0.00    -0.550 OA
ENDBRANCH  17  18
ENDBRANCH  16  17
ENDBRANCH  15  16
ENDBRANCH  14  15
ENDBRANCH  13  14
ENDBRANCH  12  13
ENDBRANCH  11  12
ENDBRANCH   1  11
TORSDOF 15
ENDMDL
MODEL 3
REMARK VINA RESULT:    -3.686      2.344      5.582
REMARK INTER + INTRA:          -9.396
REMARK INTER:                  -6.798
REMARK INTRA:                  -2.598
REMARK UNBOUND:                -2.477
REMARK SMILES O=C([O-])CCCCCCCCCCCCCCC(=O)[O-]
REMARK SMILES IDX 10 1 9 2 8 3 7 4 6 5 5 6 4 7 2 8 1 9 3 10 11 11 12 12 13 13
REMARK SMILES IDX 14 14 15 15 16 16 17 17 18 18 19 19 20 20
REMARK H PARENT
REMARK Flexibility Score: inf
ROOT
ATOM      1  C   UNL     1      -5.401   1.701 -11.720  1.00  0.00     0.000 C 
ENDROOT
BRANCH   1   2
ATOM      2  C   UNL     1      -5.569   2.992 -12.541  1.00  0.00     0.000 C 
BRANCH   2   3
ATOM      3  C   UNL     1      -4.243   3.742 -12.755  1.00  0.00     0.000 C 
BRANCH   3   4
ATOM      4  C   UNL     1      -3.018   2.899 -12.370  1.00  0.00     0.000 C 
BRANCH   4   5
ATOM      5  C   UNL     1      -1.899   3.740 -11.737  1.00  0.00     0.000 C 
BRANCH   5   6
ATOM      6  C   UNL     1      -0.879   2.847 -11.022  1.00  0.00     0.006 C 
BRANCH   6   7
ATOM      7  C   UNL     1      -1.386   2.430  -9.638  1.00  0.00     0.053 C 
BRANCH   7   8
ATOM      8  C   UNL     1      -0.237   2.185  -8.711  1.00  0.00     0.041 C 
ATOM      9  O   UNL     1      -0.356   2.420  -7.480  1.00  0.00    -0.550 OA
ATOM     10  O   UNL     1       0.948   1.650  -9.199  1.00  0.00    -0.550 OA
ENDBRANCH   7   8
ENDBRANCH   6   7
ENDBRANCH   5   6
ENDBRANCH   4   5
ENDBRANCH   3   4
ENDBRANCH   2   3
ENDBRANCH   1   2
BRANCH   1  11
ATOM     11  C   UNL     1      -6.106   1.705 -10.350  1.00  0.00     0.000 C 
BRANCH  11  12
ATOM     12  C   UNL     1      -5.208   2.230  -9.217  1.00  0.00     0.000 C 
BRANCH  12  13
ATOM     13  C   UNL     1      -5.403   3.734  -8.959  1.00  0.00     0.000 C 
BRANCH  13  14
ATOM     14  C   UNL     1      -4.072   4.490  -8.825  1.00  0.00     0.000 C 
BRANCH  14  15
ATOM     15  C   UNL     1      -4.108   5.805  -9.614  1.00  0.00     0.000 C 
BRANCH  15  16
ATOM     16  C   UNL     1      -2.761   6.538  -9.523  1.00  0.00     0.006 C 
BRANCH  16  17
ATOM     17  C   UNL     1      -1.827   5.912  -8.480  1.00  0.00     0.053 C 
BRANCH  17  18
ATOM     18  C   UNL     1      -0.407   6.348  -8.671  1.00  0.00     0.041 C 
ATOM     19  O   UNL     1       0.345   5.725  -9.465  1.00  0.00    -0.550 OA
ATOM     20  O   UNL     1       0.096   7.422  -7.946  1.00  0.00    -0.550 OA
ENDBRANCH  17  18
ENDBRANCH  16  17
ENDBRANCH  15  16
ENDBRANCH  14  15
ENDBRANCH  13  14
ENDBRANCH  12  13
ENDBRANCH  11  12
ENDBRANCH   1  11
TORSDOF 15
ENDMDL
MODEL 4
REMARK VINA RESULT:    -3.663      2.056      5.884
REMARK INTER + INTRA:          -9.353
REMARK INTER:                  -7.239
REMARK INTRA:                  -2.114
REMARK UNBOUND:                -2.477
REMARK SMILES O=C([O-])CCCCCCCCCCCCCCC(=O)[O-]
REMARK SMILES IDX 10 1 9 2 8 3 7 4 6 5 5 6 4 7 2 8 1 9 3 10 11 11 12 12 13 13
REMARK SMILES IDX 14 14 15 15 16 16 17 17 18 18 19 19 20 20
REMARK H PARENT
REMARK Flexibility Score: inf
ROOT
ATOM      1  C   UNL     1       0.356   1.233 -11.162  1.00  0.00     0.000 C 
ENDROOT
BRANCH   1   2
ATOM      2  C   UNL     1       0.480   1.949 -12.520  1.00  0.00     0.000 C 
BRANCH   2   3
ATOM      3  C   UNL     1       0.570   3.478 -12.384  1.00  0.00     0.000 C 
BRANCH   3   4
ATOM      4  C   UNL     1      -0.803   4.161 -12.475  1.00  0.00     0.000 C 
BRANCH   4   5
ATOM      5  C   UNL     1      -0.880   5.443 -11.633  1.00  0.00     0.000 C 
BRANCH   5   6
ATOM      6  C   UNL     1       0.437   5.692 -10.889  1.00  0.00     0.006 C 
BRANCH   6   7
ATOM      7  C   UNL     1       0.522   7.137 -10.387  1.00  0.00     0.053 C 
BRANCH   7   8
ATOM      8  C   UNL     1       0.671   7.168  -8.899  1.00  0.00     0.041 C 
ATOM      9  O   UNL     1       1.732   7.600  -8.378  1.00  0.00    -0.550 OA
ATOM     10  O   UNL     1      -0.382   6.765  -8.087  1.00  0.00    -0.550 OA
ENDBRANCH   7   8
ENDBRANCH   6   7
ENDBRANCH   5   6
ENDBRANCH   4   5
ENDBRANCH   3   4
ENDBRANCH   2   3
ENDBRANCH   1   2
BRANCH   1  11
ATOM     11  C   UNL     1       0.963   1.992  -9.968  1.00  0.00     0.000 C 
BRANCH  11  12
ATOM     12  C   UNL     1       0.077   1.937  -8.711  1.00  0.00     0.000 C 
BRANCH  12  13
ATOM     13  C   UNL     1      -0.749   3.219  -8.515  1.00  0.00     0.000 C 
BRANCH  13  14
ATOM     14  C   UNL     1      -2.203   3.065  -8.989  1.00  0.00     0.000 C 
BRANCH  14  15
ATOM     15  C   UNL     1      -2.980   4.374  -8.803  1.00  0.00     0.000 C 
BRANCH  15  16
ATOM     16  C   UNL     1      -4.490   4.147  -8.972  1.00  0.00     0.006 C 
BRANCH  16  17
ATOM     17  C   UNL     1      -4.803   3.083 -10.032  1.00  0.00     0.053 C 
BRANCH  17  18
ATOM     18  C   UNL     1      -5.749   2.043  -9.514  1.00  0.00     0.041 C 
ATOM     19  O   UNL     1      -6.569   1.491 -10.293  1.00  0.00    -0.550 OA
ATOM     20  O   UNL     1      -5.747   1.710  -8.165  1.00  0.00    -0.550 OA
ENDBRANCH  17  18
ENDBRANCH  16  17
ENDBRANCH  15  16
ENDBRANCH  14  15
ENDBRANCH  13  14
ENDBRANCH  12  13
ENDBRANCH  11  12
ENDBRANCH   1  11
TORSDOF 15
ENDMDL
MODEL 5
REMARK VINA RESULT:    -3.647      1.180      4.969
REMARK INTER + INTRA:          -9.323
REMARK INTER:                  -6.904
REMARK INTRA:                  -2.419
REMARK UNBOUND:                -2.477
REMARK SMILES O=C([O-])CCCCCCCCCCCCCCC(=O)[O-]
REMARK SMILES IDX 10 1 9 2 8 3 7 4 6 5 5 6 4 7 2 8 1 9 3 10 11 11 12 12 13 13
REMARK SMILES IDX 14 14 15 15 16 16 17 17 18 18 19 19 20 20
REMARK H PARENT
REMARK Flexibility Score: inf
ROOT
ATOM      1  C   UNL     1      -1.630   5.700  -8.271  1.00  0.00     0.000 C 
ENDROOT
BRANCH   1   2
ATOM      2  C   UNL     1      -0.207   5.924  -8.816  1.00  0.00     0.000 C 
BRANCH   2   3
ATOM      3  C   UNL     1      -0.179   6.161 -10.335  1.00  0.00     0.000 C 
BRANCH   3   4
ATOM      4  C   UNL     1       0.343   4.944 -11.113  1.00  0.00     0.000 C 
BRANCH   4   5
ATOM      5  C   UNL     1      -0.790   4.053 -11.643  1.00  0.00     0.000 C 
BRANCH   5   6
ATOM      6  C   UNL     1      -0.617   2.604 -11.169  1.00  0.00     0.006 C 
BRANCH   6   7
ATOM      7  C   UNL     1      -1.241   2.399  -9.786  1.00  0.00     0.053 C 
BRANCH   7   8
ATOM      8  C   UNL     1      -0.180   2.128  -8.767  1.00  0.00     0.041 C 
ATOM      9  O   UNL     1       0.932   1.653  -9.120  1.00  0.00    -0.550 OA
ATOM     10  O   UNL     1      -0.401   2.446  -7.432  1.00  0.00    -0.550 OA
ENDBRANCH   7   8
ENDBRANCH   6   7
ENDBRANCH   5   6
ENDBRANCH   4   5
ENDBRANCH   3   4
ENDBRANCH   2   3
ENDBRANCH   1   2
BRANCH   1  11
ATOM     11  C   UNL     1      -2.763   6.222  -9.174  1.00  0.00     0.000 C 
BRANCH  11  12
ATOM     12  C   UNL     1      -3.838   5.159  -9.459  1.00  0.00     0.000 C 
BRANCH  12  13
ATOM     13  C   UNL     1      -5.039   5.728 -10.233  1.00  0.00     0.000 C 
BRANCH  13  14
ATOM     14  C   UNL     1      -5.044   5.307 -11.712  1.00  0.00     0.000 C 
BRANCH  14  15
ATOM     15  C   UNL     1      -4.251   4.011 -11.914  1.00  0.00     0.000 C 
BRANCH  15  16
ATOM     16  C   UNL     1      -5.189   2.797 -11.997  1.00  0.00     0.006 C 
BRANCH  16  17
ATOM     17  C   UNL     1      -4.983   1.822 -10.831  1.00  0.00     0.053 C 
BRANCH  17  18
ATOM     18  C   UNL     1      -6.004   2.019  -9.753  1.00  0.00     0.041 C 
ATOM     19  O   UNL     1      -5.734   1.714  -8.563  1.00  0.00    -0.550 OA
ATOM     20  O   UNL     1      -7.265   2.508 -10.070  1.00  0.00    -0.550 OA
ENDBRANCH  17  18
ENDBRANCH  16  17
ENDBRANCH  15  16
ENDBRANCH  14  15
ENDBRANCH  13  14
ENDBRANCH  12  13
ENDBRANCH  11  12
ENDBRANCH   1  11
TORSDOF 15
ENDMDL
MODEL 6
REMARK VINA RESULT:    -3.644      2.294      4.199
REMARK INTER + INTRA:          -9.318
REMARK INTER:                  -6.956
REMARK INTRA:                  -2.361
REMARK UNBOUND:                -2.477
REMARK SMILES O=C([O-])CCCCCCCCCCCCCCC(=O)[O-]
REMARK SMILES IDX 10 1 9 2 8 3 7 4 6 5 5 6 4 7 2 8 1 9 3 10 11 11 12 12 13 13
REMARK SMILES IDX 14 14 15 15 16 16 17 17 18 18 19 19 20 20
REMARK H PARENT
REMARK Flexibility Score: inf
ROOT
ATOM      1  C   UNL     1       0.368   2.425  -9.946  1.00  0.00     0.000 C 
ENDROOT
BRANCH   1   2
ATOM      2  C   UNL     1      -0.056   1.437 -11.047  1.00  0.00     0.000 C 
BRANCH   2   3
ATOM      3  C   UNL     1      -1.574   1.434 -11.297  1.00  0.00     0.000 C 
BRANCH   3   4
ATOM      4  C   UNL     1      -2.146   2.849 -11.475  1.00  0.00     0.000 C 
BRANCH   4   5
ATOM      5  C   UNL     1      -3.674   2.889 -11.335  1.00  0.00     0.000 C 
BRANCH   5   6
ATOM      6  C   UNL     1      -4.102   2.575  -9.896  1.00  0.00     0.006 C 
BRANCH   6   7
ATOM      7  C   UNL     1      -4.860   3.754  -9.278  1.00  0.00     0.053 C 
BRANCH   7   8
ATOM      8  C   UNL     1      -6.239   3.337  -8.875  1.00  0.00     0.041 C 
ATOM      9  O   UNL     1      -6.516   3.154  -7.660  1.00  0.00    -0.550 OA
ATOM     10  O   UNL     1      -7.232   3.198  -9.837  1.00  0.00    -0.550 OA
ENDBRANCH   7   8
ENDBRANCH   6   7
ENDBRANCH   5   6
ENDBRANCH   4   5
ENDBRANCH   3   4
ENDBRANCH   2   3
ENDBRANCH   1   2
BRANCH   1  11
ATOM     11  C   UNL     1      -0.133   2.079  -8.531  1.00  0.00     0.000 C 
BRANCH  11  12
ATOM     12  C   UNL     1      -0.961   3.209  -7.896  1.00  0.00     0.000 C 
BRANCH  12  13
ATOM     13  C   UNL     1      -0.636   4.587  -8.498  1.00  0.00     0.000 C 
BRANCH  13  14
ATOM     14  C   UNL     1      -1.858   5.518  -8.538  1.00  0.00     0.000 C 
BRANCH  14  15
ATOM     15  C   UNL     1      -1.990   6.188  -9.912  1.00  0.00     0.000 C 
BRANCH  15  16
ATOM     16  C   UNL     1      -0.625   6.285 -10.611  1.00  0.00     0.006 C 
BRANCH  16  17
ATOM     17  C   UNL     1       0.059   7.636 -10.365  1.00  0.00     0.053 C 
BRANCH  17  18
ATOM     18  C   UNL     1       1.413   7.470  -9.747  1.00  0.00     0.041 C 
ATOM     19  O   UNL     1       1.541   7.461  -8.495  1.00  0.00    -0.550 OA
ATOM     20  O   UNL     1       2.538   7.358 -10.555  1.00  0.00    -0.550 OA
ENDBRANCH  17  18
ENDBRANCH  16  17
ENDBRANCH  15  16
ENDBRANCH  14  15
ENDBRANCH  13  14
ENDBRANCH  12  13
ENDBRANCH  11  12
ENDBRANCH   1  11
TORSDOF 15
ENDMDL
MODEL 7
REMARK VINA RESULT:    -3.612      2.242      3.528
REMARK INTER + INTRA:          -9.257
REMARK INTER:                  -6.579
REMARK INTRA:                  -2.678
REMARK UNBOUND:                -2.477
REMARK SMILES O=C([O-])CCCCCCCCCCCCCCC(=O)[O-]
REMARK SMILES IDX 10 1 9 2 8 3 7 4 6 5 5 6 4 7 2 8 1 9 3 10 11 11 12 12 13 13
REMARK SMILES IDX 14 14 15 15 16 16 17 17 18 18 19 19 20 20
REMARK H PARENT
REMARK Flexibility Score: inf
ROOT
ATOM      1  C   UNL     1      -0.910   3.233  -7.979  1.00  0.00     0.000 C 
ENDROOT
BRANCH   1   2
ATOM      2  C   UNL     1      -0.591   4.664  -8.450  1.00  0.00     0.000 C 
BRANCH   2   3
ATOM      3  C   UNL     1      -1.843   5.549  -8.566  1.00  0.00     0.000 C 
BRANCH   3   4
ATOM      4  C   UNL     1      -3.126   4.732  -8.781  1.00  0.00     0.000 C 
BRANCH   4   5
ATOM      5  C   UNL     1      -3.545   4.670 -10.257  1.00  0.00     0.000 C 
BRANCH   5   6
ATOM      6  C   UNL     1      -3.975   3.250 -10.647  1.00  0.00     0.006 C 
BRANCH   6   7
ATOM      7  C   UNL     1      -4.272   2.405  -9.405  1.00  0.00     0.053 C 
BRANCH   7   8
ATOM      8  C   UNL     1      -5.743   2.170  -9.270  1.00  0.00     0.041 C 
ATOM      9  O   UNL     1      -6.343   1.421 -10.085  1.00  0.00    -0.550 OA
ATOM     10  O   UNL     1      -6.443   2.739  -8.213  1.00  0.00    -0.550 OA
ENDBRANCH   7   8
ENDBRANCH   6   7
ENDBRANCH   5   6
ENDBRANCH   4   5
ENDBRANCH   3   4
ENDBRANCH   2   3
ENDBRANCH   1   2
BRANCH   1  11
ATOM     11  C   UNL     1      -0.128   2.121  -8.702  1.00  0.00     0.000 C 
BRANCH  11  12
ATOM     12  C   UNL     1       0.465   2.582 -10.045  1.00  0.00     0.000 C 
BRANCH  12  13
ATOM     13  C   UNL     1      -0.431   2.219 -11.241  1.00  0.00     0.000 C 
BRANCH  13  14
ATOM     14  C   UNL     1      -0.625   3.393 -12.213  1.00  0.00     0.000 C 
BRANCH  14  15
ATOM     15  C   UNL     1       0.258   4.583 -11.817  1.00  0.00     0.000 C 
BRANCH  15  16
ATOM     16  C   UNL     1      -0.489   5.912 -12.009  1.00  0.00     0.006 C 
BRANCH  16  17
ATOM     17  C   UNL     1       0.467   7.105 -12.126  1.00  0.00     0.053 C 
BRANCH  17  18
ATOM     18  C   UNL     1       1.215   7.345 -10.850  1.00  0.00     0.041 C 
ATOM     19  O   UNL     1       0.618   7.807  -9.844  1.00  0.00    -0.550 OA
ATOM     20  O   UNL     1       2.580   7.089 -10.785  1.00  0.00    -0.550 OA
ENDBRANCH  17  18
ENDBRANCH  16  17
ENDBRANCH  15  16
ENDBRANCH  14  15
ENDBRANCH  13  14
ENDBRANCH  12  13
ENDBRANCH  11  12
ENDBRANCH   1  11
TORSDOF 15
ENDMDL
MODEL 8
REMARK VINA RESULT:    -3.603      2.598      4.906
REMARK INTER + INTRA:          -9.240
REMARK INTER:                  -7.077
REMARK INTRA:                  -2.163
REMARK UNBOUND:                -2.477
REMARK SMILES O=C([O-])CCCCCCCCCCCCCCC(=O)[O-]
REMARK SMILES IDX 10 1 9 2 8 3 7 4 6 5 5 6 4 7 2 8 1 9 3 10 11 11 12 12 13 13
REMARK SMILES IDX 14 14 15 15 16 16 17 17 18 18 19 19 20 20
REMARK H PARENT
REMARK Flexibility Score: inf
ROOT
ATOM      1  C   UNL     1       0.215   1.391  -9.221  1.00  0.00     0.000 C 
ENDROOT
BRANCH   1   2
ATOM      2  C   UNL     1       0.939   2.177 -10.328  1.00  0.00     0.000 C 
BRANCH   2   3
ATOM      3  C   UNL     1       0.018   2.540 -11.505  1.00  0.00     0.000 C 
BRANCH   3   4
ATOM      4  C   UNL     1      -1.170   1.576 -11.645  1.00  0.00     0.000 C 
BRANCH   4   5
ATOM      5  C   UNL     1      -2.518   2.308 -11.714  1.00  0.00     0.000 C 
BRANCH   5   6
ATOM      6  C   UNL     1      -3.650   1.426 -11.175  1.00  0.00     0.006 C 
BRANCH   6   7
ATOM      7  C   UNL     1      -5.021   2.012 -11.528  1.00  0.00     0.053 C 
BRANCH   7   8
ATOM      8  C   UNL     1      -6.013   1.710 -10.450  1.00  0.00     0.041 C 
ATOM      9  O   UNL     1      -5.646   1.658  -9.247  1.00  0.00    -0.550 OA
ATOM     10  O   UNL     1      -7.354   1.536 -10.770  1.00  0.00    -0.550 OA
ENDBRANCH   7   8
ENDBRANCH   6   7
ENDBRANCH   5   6
ENDBRANCH   4   5
ENDBRANCH   3   4
ENDBRANCH   2   3
ENDBRANCH   1   2
BRANCH   1  11
ATOM     11  C   UNL     1      -0.117   2.204  -7.956  1.00  0.00     0.000 C 
BRANCH  11  12
ATOM     12  C   UNL     1      -1.360   3.095  -8.126  1.00  0.00     0.000 C 
BRANCH  12  13
ATOM     13  C   UNL     1      -1.000   4.577  -8.323  1.00  0.00     0.000 C 
BRANCH  13  14
ATOM     14  C   UNL     1      -2.178   5.407  -8.857  1.00  0.00     0.000 C 
BRANCH  14  15
ATOM     15  C   UNL     1      -3.366   4.505  -9.213  1.00  0.00     0.000 C 
BRANCH  15  16
ATOM     16  C   UNL     1      -4.637   5.335  -9.448  1.00  0.00     0.006 C 
BRANCH  16  17
ATOM     17  C   UNL     1      -4.862   5.644 -10.934  1.00  0.00     0.053 C 
BRANCH  17  18
ATOM     18  C   UNL     1      -4.436   7.038 -11.283  1.00  0.00     0.041 C 
ATOM     19  O   UNL     1      -3.396   7.229 -11.964  1.00  0.00    -0.550 OA
ATOM     20  O   UNL     1      -5.171   8.125 -10.826  1.00  0.00    -0.550 OA
ENDBRANCH  17  18
ENDBRANCH  16  17
ENDBRANCH  15  16
ENDBRANCH  14  15
ENDBRANCH  13  14
ENDBRANCH  12  13
ENDBRANCH  11  12
ENDBRANCH   1  11
TORSDOF 15
ENDMDL
MODEL 9
REMARK VINA RESULT:    -3.596      2.028      5.039
REMARK INTER + INTRA:          -9.227
REMARK INTER:                  -6.605
REMARK INTRA:                  -2.622
REMARK UNBOUND:                -2.477
REMARK SMILES O=C([O-])CCCCCCCCCCCCCCC(=O)[O-]
REMARK SMILES IDX 10 1 9 2 8 3 7 4 6 5 5 6 4 7 2 8 1 9 3 10 11 11 12 12 13 13
REMARK SMILES IDX 14 14 15 15 16 16 17 17 18 18 19 19 20 20
REMARK H PARENT
REMARK Flexibility Score: inf
ROOT
ATOM      1  C   UNL     1      -3.155   6.268  -9.245  1.00  0.00     0.000 C 
ENDROOT
BRANCH   1   2
ATOM      2  C   UNL     1      -1.850   6.410 -10.049  1.00  0.00     0.000 C 
BRANCH   2   3
ATOM      3  C   UNL     1      -0.828   5.305  -9.733  1.00  0.00     0.000 C 
BRANCH   3   4
ATOM      4  C   UNL     1      -1.064   4.656  -8.361  1.00  0.00     0.000 C 
BRANCH   4   5
ATOM      5  C   UNL     1      -0.743   3.155  -8.355  1.00  0.00     0.000 C 
BRANCH   5   6
ATOM      6  C   UNL     1       0.192   2.788  -9.514  1.00  0.00     0.006 C 
BRANCH   6   7
ATOM      7  C   UNL     1      -0.017   1.335  -9.952  1.00  0.00     0.053 C 
BRANCH   7   8
ATOM      8  C   UNL     1       0.084   1.216 -11.439  1.00  0.00     0.041 C 
ATOM      9  O   UNL     1       0.032   2.246 -12.163  1.00  0.00    -0.550 OA
ATOM     10  O   UNL     1       0.286  -0.028 -12.025  1.00  0.00    -0.550 OA
ENDBRANCH   7   8
ENDBRANCH   6   7
ENDBRANCH   5   6
ENDBRANCH   4   5
ENDBRANCH   3   4
ENDBRANCH   2   3
ENDBRANCH   1   2
BRANCH   1  11
ATOM     11  C   UNL     1      -4.442   6.249 -10.090  1.00  0.00     0.000 C 
BRANCH  11  12
ATOM     12  C   UNL     1      -4.185   5.889 -11.564  1.00  0.00     0.000 C 
BRANCH  12  13
ATOM     13  C   UNL     1      -5.190   4.857 -12.103  1.00  0.00     0.000 C 
BRANCH  13  14
ATOM     14  C   UNL     1      -4.529   3.515 -12.455  1.00  0.00     0.000 C 
BRANCH  14  15
ATOM     15  C   UNL     1      -3.345   3.227 -11.525  1.00  0.00     0.000 C 
BRANCH  15  16
ATOM     16  C   UNL     1      -3.678   2.092 -10.545  1.00  0.00     0.006 C 
BRANCH  16  17
ATOM     17  C   UNL     1      -4.297   2.612  -9.241  1.00  0.00     0.053 C 
BRANCH  17  18
ATOM     18  C   UNL     1      -5.760   2.299  -9.156  1.00  0.00     0.041 C 
ATOM     19  O   UNL     1      -6.457   2.783  -8.227  1.00  0.00    -0.550 OA
ATOM     20  O   UNL     1      -6.344   1.447 -10.085  1.00  0.00    -0.550 OA
ENDBRANCH  17  18
ENDBRANCH  16  17
ENDBRANCH  15  16
ENDBRANCH  14  15
ENDBRANCH  13  14
ENDBRANCH  12  13
ENDBRANCH  11  12
ENDBRANCH   1  11
TORSDOF 15
ENDMDL
