MODEL 1
REMARK VINA RESULT:    -3.135      0.000      0.000
REMARK INTER + INTRA:          -3.539
REMARK INTER:                  -3.502
REMARK INTRA:                  -0.038
REMARK UNBOUND:                -0.038
REMARK SMILES CCCC(=O)[O-]
REMARK SMILES IDX 3 1 4 2 5 3 6 4 2 5 1 6
REMARK H PARENT
REMARK Flexibility Score: inf
ROOT
ATOM      1  C   UNL     1     -31.783  14.675  13.799  1.00  0.00     0.052 C 
ENDROOT
BRANCH   1   2
ATOM      2  C   UNL     1     -30.721  13.795  13.212  1.00  0.00     0.041 C 
ATOM      3  O   UNL     1     -30.761  13.479  11.994  1.00  0.00    -0.550 OA
ATOM      4  O   UNL     1     -29.668  13.353  14.003  1.00  0.00    -0.550 OA
ENDBRANCH   1   2
BRANCH   1   5
ATOM      5  C   UNL     1     -33.054  13.885  14.133  1.00  0.00     0.003 C 
ATOM      6  C   UNL     1     -34.125  14.020  13.051  1.00  0.00     0.004 C 
ENDBRANCH   1   5
TORSDOF 2
ENDMDL
MODEL 2
REMARK VINA RESULT:    -3.085      1.902      3.203
REMARK INTER + INTRA:          -3.483
REMARK INTER:                  -3.474
REMARK INTRA:                  -0.009
REMARK UNBOUND:                -0.038
REMARK SMILES CCCC(=O)[O-]
REMARK SMILES IDX 3 1 4 2 5 3 6 4 2 5 1 6
REMARK H PARENT
REMARK Flexibility Score: inf
ROOT
ATOM      1  C   UNL     1     -30.882  14.866  14.193  1.00  0.00     0.052 C 
ENDROOT
BRANCH   1   2
ATOM      2  C   UNL     1     -31.525  14.190  13.021  1.00  0.00     0.041 C 
ATOM      3  O   UNL     1     -32.776  14.223  12.878  1.00  0.00    -0.550 OA
ATOM      4  O   UNL     1     -30.741  13.554  12.067  1.00  0.00    -0.550 OA
ENDBRANCH   1   2
BRANCH   1   5
ATOM      5  C   UNL     1     -29.488  14.295  14.483  1.00  0.00     0.003 C 
ATOM      6  C   UNL     1     -28.745  15.090  15.556  1.00  0.00     0.004 C 
ENDBRANCH   1   5
TORSDOF 2
ENDMDL
MODEL 3
REMARK VINA RESULT:    -3.000      1.341      2.055
REMARK INTER + INTRA:          -3.389
REMARK INTER:                  -3.370
REMARK INTRA:                  -0.019
REMARK UNBOUND:                -0.038
REMARK SMILES CCCC(=O)[O-]
REMARK SMILES IDX 3 1 4 2 5 3 6 4 2 5 1 6
REMARK H PARENT
REMARK Flexibility Score: inf
ROOT
ATOM      1  C   UNL     1     -30.850  14.812  14.524  1.00  0.00     0.052 C 
ENDROOT
BRANCH   1   2
ATOM      2  C   UNL     1     -29.452  14.277  14.460  1.00  0.00     0.041 C 
ATOM      3  O   UNL     1     -28.484  14.984  14.845  1.00  0.00    -0.550 OA
ATOM      4  O   UNL     1     -29.222  12.983  14.008  1.00  0.00    -0.550 OA
ENDBRANCH   1   2
BRANCH   1   5
ATOM      5  C   UNL     1     -31.621  14.544  13.226  1.00  0.00     0.003 C 
ATOM      6  C   UNL     1     -33.076  14.152  13.483  1.00  0.00     0.004 C 
ENDBRANCH   1   5
TORSDOF 2
ENDMDL
MODEL 4
REMARK VINA RESULT:    -2.960     13.625     14.058
REMARK INTER + INTRA:          -3.344
REMARK INTER:                  -3.328
REMARK INTRA:                  -0.016
REMARK UNBOUND:                -0.038
REMARK SMILES CCCC(=O)[O-]
REMARK SMILES IDX 3 1 4 2 5 3 6 4 2 5 1 6
REMARK H PARENT
REMARK Flexibility Score: inf
ROOT
ATOM      1  C   UNL     1     -31.533  14.642  27.975  1.00  0.00     0.052 C 
ENDROOT
BRANCH   1   2
ATOM      2  C   UNL     1     -30.228  14.975  27.318  1.00  0.00     0.041 C 
ATOM      3  O   UNL     1     -29.241  14.202  27.439  1.00  0.00    -0.550 OA
ATOM      4  O   UNL     1     -30.112  16.123  26.543  1.00  0.00    -0.550 OA
ENDBRANCH   1   2
BRANCH   1   5
ATOM      5  C   UNL     1     -32.691  14.643  26.969  1.00  0.00     0.003 C 
ATOM      6  C   UNL     1     -33.981  15.201  27.568  1.00  0.00     0.004 C 
ENDBRANCH   1   5
TORSDOF 2
ENDMDL
MODEL 5
REMARK VINA RESULT:    -2.928     11.424     11.996
REMARK INTER + INTRA:          -3.307
REMARK INTER:                  -3.271
REMARK INTRA:                  -0.037
REMARK UNBOUND:                -0.038
REMARK SMILES CCCC(=O)[O-]
REMARK SMILES IDX 3 1 4 2 5 3 6 4 2 5 1 6
REMARK H PARENT
REMARK Flexibility Score: inf
ROOT
ATOM      1  C   UNL     1     -28.339   1.817  11.158  1.00  0.00     0.052 C 
ENDROOT
BRANCH   1   2
ATOM      2  C   UNL     1     -28.983   2.707  10.139  1.00  0.00     0.041 C 
ATOM      3  O   UNL     1     -30.011   2.324   9.522  1.00  0.00    -0.550 OA
ATOM      4  O   UNL     1     -28.467   3.974   9.897  1.00  0.00    -0.550 OA
ENDBRANCH   1   2
BRANCH   1   5
ATOM      5  C   UNL     1     -29.146   1.768  12.461  1.00  0.00     0.003 C 
ATOM      6  C   UNL     1     -29.295   3.146  13.105  1.00  0.00     0.004 C 
ENDBRANCH   1   5
TORSDOF 2
ENDMDL
MODEL 6
REMARK VINA RESULT:    -2.886      2.818      3.853
REMARK INTER + INTRA:          -3.261
REMARK INTER:                  -3.255
REMARK INTRA:                  -0.006
REMARK UNBOUND:                -0.038
REMARK SMILES CCCC(=O)[O-]
REMARK SMILES IDX 3 1 4 2 5 3 6 4 2 5 1 6
REMARK H PARENT
REMARK Flexibility Score: inf
ROOT
ATOM      1  C   UNL     1     -30.904  11.361  12.717  1.00  0.00     0.052 C 
ENDROOT
BRANCH   1   2
ATOM      2  C   UNL     1     -30.326  12.743  12.731  1.00  0.00     0.041 C 
ATOM      3  O   UNL     1     -29.186  12.949  13.223  1.00  0.00    -0.550 OA
ATOM      4  O   UNL     1     -31.033  13.799  12.167  1.00  0.00    -0.550 OA
ENDBRANCH   1   2
BRANCH   1   5
ATOM      5  C   UNL     1     -30.106  10.421  11.804  1.00  0.00     0.003 C 
ATOM      6  C   UNL     1     -30.653   8.994  11.818  1.00  0.00     0.004 C 
ENDBRANCH   1   5
TORSDOF 2
ENDMDL
MODEL 7
REMARK VINA RESULT:    -2.868     13.332     13.996
REMARK INTER + INTRA:          -3.241
REMARK INTER:                  -3.224
REMARK INTRA:                  -0.017
REMARK UNBOUND:                -0.038
REMARK SMILES CCCC(=O)[O-]
REMARK SMILES IDX 3 1 4 2 5 3 6 4 2 5 1 6
REMARK H PARENT
REMARK Flexibility Score: inf
ROOT
ATOM      1  C   UNL     1     -29.329  14.010  27.327  1.00  0.00     0.052 C 
ENDROOT
BRANCH   1   2
ATOM      2  C   UNL     1     -30.315  15.136  27.285  1.00  0.00     0.041 C 
ATOM      3  O   UNL     1     -30.119  16.123  26.528  1.00  0.00    -0.550 OA
ATOM      4  O   UNL     1     -31.470  15.080  28.057  1.00  0.00    -0.550 OA
ENDBRANCH   1   2
BRANCH   1   5
ATOM      5  C   UNL     1     -30.000  12.657  27.060  1.00  0.00     0.003 C 
ATOM      6  C   UNL     1     -29.563  12.043  25.731  1.00  0.00     0.004 C 
ENDBRANCH   1   5
TORSDOF 2
ENDMDL
MODEL 8
REMARK VINA RESULT:    -2.847      1.514      2.160
REMARK INTER + INTRA:          -3.217
REMARK INTER:                  -3.183
REMARK INTRA:                  -0.035
REMARK UNBOUND:                -0.038
REMARK SMILES CCCC(=O)[O-]
REMARK SMILES IDX 3 1 4 2 5 3 6 4 2 5 1 6
REMARK H PARENT
REMARK Flexibility Score: inf
ROOT
ATOM      1  C   UNL     1     -30.706  12.987  12.675  1.00  0.00     0.052 C 
ENDROOT
BRANCH   1   2
ATOM      2  C   UNL     1     -29.603  12.562  13.596  1.00  0.00     0.041 C 
ATOM      3  O   UNL     1     -29.665  12.830  14.825  1.00  0.00    -0.550 OA
ATOM      4  O   UNL     1     -28.524  11.840  13.103  1.00  0.00    -0.550 OA
ENDBRANCH   1   2
BRANCH   1   5
ATOM      5  C   UNL     1     -31.353  14.301  13.132  1.00  0.00     0.003 C 
ATOM      6  C   UNL     1     -32.862  14.167  13.334  1.00  0.00     0.004 C 
ENDBRANCH   1   5
TORSDOF 2
ENDMDL
MODEL 9
REMARK VINA RESULT:    -2.720     12.508     13.060
REMARK INTER + INTRA:          -3.076
REMARK INTER:                  -3.011
REMARK INTRA:                  -0.066
REMARK UNBOUND:                -0.038
REMARK SMILES CCCC(=O)[O-]
REMARK SMILES IDX 3 1 4 2 5 3 6 4 2 5 1 6
REMARK H PARENT
REMARK Flexibility Score: inf
ROOT
ATOM      1  C   UNL     1     -31.670  14.226  26.112  1.00  0.00     0.052 C 
ENDROOT
BRANCH   1   2
ATOM      2  C   UNL     1     -30.920  15.520  26.028  1.00  0.00     0.041 C 
ATOM      3  O   UNL     1     -30.990  16.227  24.988  1.00  0.00    -0.550 OA
ATOM      4  O   UNL     1     -30.170  15.962  27.111  1.00  0.00    -0.550 OA
ENDBRANCH   1   2
BRANCH   1   5
ATOM      5  C   UNL     1     -33.188  14.446  26.069  1.00  0.00     0.003 C 
ATOM      6  C   UNL     1     -33.726  15.045  27.368  1.00  0.00     0.004 C 
ENDBRANCH   1   5
TORSDOF 2
ENDMDL
