MODEL 1
REMARK VINA RESULT:    -3.889      0.000      0.000
REMARK INTER + INTRA:          -4.410
REMARK INTER:                  -4.230
REMARK INTRA:                  -0.180
REMARK UNBOUND:                -0.180
REMARK SMILES O=C([O-])c1ccccc1O
REMARK SMILES IDX 4 1 9 2 5 3 8 4 6 5 7 6 2 7 1 8 3 9 10 10
REMARK H PARENT 10 11
REMARK Flexibility Score: inf
ROOT
ATOM      1  C   UNL     1      42.235 184.924  32.564  1.00  0.00     0.039 A 
ATOM      2  C   UNL     1      42.094 186.158  33.252  1.00  0.00     0.124 A 
ATOM      3  C   UNL     1      41.371 184.641  31.490  1.00  0.00     0.014 A 
ATOM      4  C   UNL     1      41.145 187.090  32.813  1.00  0.00     0.047 A 
ATOM      5  C   UNL     1      40.417 185.574  31.078  1.00  0.00     0.001 A 
ATOM      6  C   UNL     1      40.310 186.801  31.732  1.00  0.00     0.004 A 
ENDROOT
BRANCH   1   7
ATOM      7  C   UNL     1      43.278 183.930  32.905  1.00  0.00     0.075 C 
ATOM      8  O   UNL     1      43.235 183.296  33.991  1.00  0.00    -0.545 OA
ATOM      9  O   UNL     1      44.359 183.737  32.053  1.00  0.00    -0.545 OA
ENDBRANCH   1   7
BRANCH   2  10
ATOM     10  O   UNL     1      42.843 186.480  34.385  1.00  0.00    -0.507 OA
ATOM     11  H   UNL     1      42.527 187.122  35.099  1.00  0.00     0.293 HD
ENDBRANCH   2  10
TORSDOF 2
ENDMDL
MODEL 2
REMARK VINA RESULT:    -3.874      2.303      3.536
REMARK INTER + INTRA:          -4.394
REMARK INTER:                  -4.151
REMARK INTRA:                  -0.243
REMARK UNBOUND:                -0.180
REMARK SMILES O=C([O-])c1ccccc1O
REMARK SMILES IDX 4 1 9 2 5 3 8 4 6 5 7 6 2 7 1 8 3 9 10 10
REMARK H PARENT 10 11
REMARK Flexibility Score: inf
ROOT
ATOM      1  C   UNL     1      41.302 185.489  32.134  1.00  0.00     0.039 A 
ATOM      2  C   UNL     1      41.953 186.199  33.177  1.00  0.00     0.124 A 
ATOM      3  C   UNL     1      41.565 184.116  31.978  1.00  0.00     0.014 A 
ATOM      4  C   UNL     1      42.791 185.511  34.064  1.00  0.00     0.047 A 
ATOM      5  C   UNL     1      42.418 183.450  32.860  1.00  0.00     0.001 A 
ATOM      6  C   UNL     1      43.023 184.143  33.907  1.00  0.00     0.004 A 
ENDROOT
BRANCH   1   7
ATOM      7  C   UNL     1      40.329 186.125  31.218  1.00  0.00     0.075 C 
ATOM      8  O   UNL     1      40.180 185.706  30.040  1.00  0.00    -0.545 OA
ATOM      9  O   UNL     1      39.614 187.244  31.631  1.00  0.00    -0.545 OA
ENDBRANCH   1   7
BRANCH   2  10
ATOM     10  O   UNL     1      41.826 187.580  33.346  1.00  0.00    -0.507 OA
ATOM     11  H   UNL     1      42.612 188.201  33.474  1.00  0.00     0.293 HD
ENDBRANCH   2  10
TORSDOF 2
ENDMDL
MODEL 3
REMARK VINA RESULT:    -3.842     22.382     23.016
REMARK INTER + INTRA:          -4.359
REMARK INTER:                  -4.110
REMARK INTRA:                  -0.249
REMARK UNBOUND:                -0.180
REMARK SMILES O=C([O-])c1ccccc1O
REMARK SMILES IDX 4 1 9 2 5 3 8 4 6 5 7 6 2 7 1 8 3 9 10 10
REMARK H PARENT 10 11
REMARK Flexibility Score: inf
ROOT
ATOM      1  C   UNL     1      33.081 170.889  17.529  1.00  0.00     0.039 A 
ATOM      2  C   UNL     1      34.100 169.956  17.856  1.00  0.00     0.124 A 
ATOM      3  C   UNL     1      33.194 171.629  16.338  1.00  0.00     0.014 A 
ATOM      4  C   UNL     1      35.159 169.746  16.963  1.00  0.00     0.047 A 
ATOM      5  C   UNL     1      34.267 171.421  15.469  1.00  0.00     0.001 A 
ATOM      6  C   UNL     1      35.243 170.474  15.775  1.00  0.00     0.004 A 
ENDROOT
BRANCH   1   7
ATOM      7  C   UNL     1      31.882 171.095  18.372  1.00  0.00     0.075 C 
ATOM      8  O   UNL     1      31.979 171.177  19.624  1.00  0.00    -0.545 OA
ATOM      9  O   UNL     1      30.621 171.133  17.790  1.00  0.00    -0.545 OA
ENDBRANCH   1   7
BRANCH   2  10
ATOM     10  O   UNL     1      34.119 169.249  19.061  1.00  0.00    -0.507 OA
ATOM     11  H   UNL     1      34.443 169.642  19.933  1.00  0.00     0.293 HD
ENDBRANCH   2  10
TORSDOF 2
ENDMDL
MODEL 4
REMARK VINA RESULT:    -3.778      2.070      3.180
REMARK INTER + INTRA:          -4.289
REMARK INTER:                  -4.059
REMARK INTRA:                  -0.230
REMARK UNBOUND:                -0.180
REMARK SMILES O=C([O-])c1ccccc1O
REMARK SMILES IDX 4 1 9 2 5 3 8 4 6 5 7 6 2 7 1 8 3 9 10 10
REMARK H PARENT 10 11
REMARK Flexibility Score: inf
ROOT
ATOM      1  C   UNL     1      40.631 186.487  32.068  1.00  0.00     0.039 A 
ATOM      2  C   UNL     1      40.093 186.170  30.793  1.00  0.00     0.124 A 
ATOM      3  C   UNL     1      40.011 187.486  32.840  1.00  0.00     0.014 A 
ATOM      4  C   UNL     1      38.925 186.809  30.357  1.00  0.00     0.047 A 
ATOM      5  C   UNL     1      38.858 188.128  32.381  1.00  0.00     0.001 A 
ATOM      6  C   UNL     1      38.310 187.783  31.146  1.00  0.00     0.004 A 
ENDROOT
BRANCH   1   7
ATOM      7  C   UNL     1      41.804 185.787  32.640  1.00  0.00     0.075 C 
ATOM      8  O   UNL     1      42.508 186.328  33.532  1.00  0.00    -0.545 OA
ATOM      9  O   UNL     1      42.181 184.544  32.144  1.00  0.00    -0.545 OA
ENDBRANCH   1   7
BRANCH   2  10
ATOM     10  O   UNL     1      40.699 185.262  29.922  1.00  0.00    -0.507 OA
ATOM     11  H   UNL     1      40.581 185.287  28.919  1.00  0.00     0.293 HD
ENDBRANCH   2  10
TORSDOF 2
ENDMDL
MODEL 5
REMARK VINA RESULT:    -3.748      3.293      4.806
REMARK INTER + INTRA:          -4.257
REMARK INTER:                  -4.043
REMARK INTRA:                  -0.213
REMARK UNBOUND:                -0.180
REMARK SMILES O=C([O-])c1ccccc1O
REMARK SMILES IDX 4 1 9 2 5 3 8 4 6 5 7 6 2 7 1 8 3 9 10 10
REMARK H PARENT 10 11
REMARK Flexibility Score: inf
ROOT
ATOM      1  C   UNL     1      39.776 186.888  31.714  1.00  0.00     0.039 A 
ATOM      2  C   UNL     1      40.708 185.969  31.162  1.00  0.00     0.124 A 
ATOM      3  C   UNL     1      39.964 187.339  33.033  1.00  0.00     0.014 A 
ATOM      4  C   UNL     1      41.824 185.580  31.914  1.00  0.00     0.047 A 
ATOM      5  C   UNL     1      41.072 186.925  33.776  1.00  0.00     0.001 A 
ATOM      6  C   UNL     1      42.006 186.055  33.215  1.00  0.00     0.004 A 
ENDROOT
BRANCH   1   7
ATOM      7  C   UNL     1      38.627 187.421  30.948  1.00  0.00     0.075 C 
ATOM      8  O   UNL     1      38.309 186.930  29.833  1.00  0.00    -0.545 OA
ATOM      9  O   UNL     1      37.925 188.522  31.425  1.00  0.00    -0.545 OA
ENDBRANCH   1   7
BRANCH   2  10
ATOM     10  O   UNL     1      40.547 185.397  29.898  1.00  0.00    -0.507 OA
ATOM     11  H   UNL     1      39.658 185.080  29.538  1.00  0.00     0.293 HD
ENDBRANCH   2  10
TORSDOF 2
ENDMDL
MODEL 6
REMARK VINA RESULT:    -3.736      1.108      2.190
REMARK INTER + INTRA:          -4.244
REMARK INTER:                  -3.998
REMARK INTRA:                  -0.246
REMARK UNBOUND:                -0.180
REMARK SMILES O=C([O-])c1ccccc1O
REMARK SMILES IDX 4 1 9 2 5 3 8 4 6 5 7 6 2 7 1 8 3 9 10 10
REMARK H PARENT 10 11
REMARK Flexibility Score: inf
ROOT
ATOM      1  C   UNL     1      42.532 185.050  33.137  1.00  0.00     0.039 A 
ATOM      2  C   UNL     1      41.685 184.633  32.076  1.00  0.00     0.124 A 
ATOM      3  C   UNL     1      42.352 186.333  33.686  1.00  0.00     0.014 A 
ATOM      4  C   UNL     1      40.654 185.476  31.642  1.00  0.00     0.047 A 
ATOM      5  C   UNL     1      41.331 187.168  33.227  1.00  0.00     0.001 A 
ATOM      6  C   UNL     1      40.477 186.737  32.214  1.00  0.00     0.004 A 
ENDROOT
BRANCH   1   7
ATOM      7  C   UNL     1      43.579 184.180  33.716  1.00  0.00     0.075 C 
ATOM      8  O   UNL     1      43.700 184.055  34.963  1.00  0.00    -0.545 OA
ATOM      9  O   UNL     1      44.491 183.541  32.884  1.00  0.00    -0.545 OA
ENDBRANCH   1   7
BRANCH   2  10
ATOM     10  O   UNL     1      41.853 183.418  31.409  1.00  0.00    -0.507 OA
ATOM     11  H   UNL     1      42.702 183.158  30.927  1.00  0.00     0.293 HD
ENDBRANCH   2  10
TORSDOF 2
ENDMDL
MODEL 7
REMARK VINA RESULT:    -3.703      2.391      4.212
REMARK INTER + INTRA:          -4.208
REMARK INTER:                  -3.961
REMARK INTRA:                  -0.247
REMARK UNBOUND:                -0.180
REMARK SMILES O=C([O-])c1ccccc1O
REMARK SMILES IDX 4 1 9 2 5 3 8 4 6 5 7 6 2 7 1 8 3 9 10 10
REMARK H PARENT 10 11
REMARK Flexibility Score: inf
ROOT
ATOM      1  C   UNL     1      41.200 186.449  32.788  1.00  0.00     0.039 A 
ATOM      2  C   UNL     1      41.536 185.435  31.853  1.00  0.00     0.124 A 
ATOM      3  C   UNL     1      41.788 186.419  34.066  1.00  0.00     0.014 A 
ATOM      4  C   UNL     1      42.488 184.466  32.196  1.00  0.00     0.047 A 
ATOM      5  C   UNL     1      42.720 185.434  34.398  1.00  0.00     0.001 A 
ATOM      6  C   UNL     1      43.077 184.464  33.462  1.00  0.00     0.004 A 
ENDROOT
BRANCH   1   7
ATOM      7  C   UNL     1      40.278 187.562  32.467  1.00  0.00     0.075 C 
ATOM      8  O   UNL     1      40.430 188.698  32.987  1.00  0.00    -0.545 OA
ATOM      9  O   UNL     1      39.188 187.343  31.633  1.00  0.00    -0.545 OA
ENDBRANCH   1   7
BRANCH   2  10
ATOM     10  O   UNL     1      40.930 185.333  30.599  1.00  0.00    -0.507 OA
ATOM     11  H   UNL     1      40.062 185.790  30.360  1.00  0.00     0.293 HD
ENDBRANCH   2  10
TORSDOF 2
ENDMDL
MODEL 8
REMARK VINA RESULT:    -3.627      7.005      8.026
REMARK INTER + INTRA:          -4.126
REMARK INTER:                  -3.900
REMARK INTRA:                  -0.225
REMARK UNBOUND:                -0.180
REMARK SMILES O=C([O-])c1ccccc1O
REMARK SMILES IDX 4 1 9 2 5 3 8 4 6 5 7 6 2 7 1 8 3 9 10 10
REMARK H PARENT 10 11
REMARK Flexibility Score: inf
ROOT
ATOM      1  C   UNL     1      35.159 183.771  31.473  1.00  0.00     0.039 A 
ATOM      2  C   UNL     1      34.745 183.593  30.127  1.00  0.00     0.124 A 
ATOM      3  C   UNL     1      34.402 183.179  32.501  1.00  0.00     0.014 A 
ATOM      4  C   UNL     1      33.636 182.786  29.844  1.00  0.00     0.047 A 
ATOM      5  C   UNL     1      33.287 182.393  32.202  1.00  0.00     0.001 A 
ATOM      6  C   UNL     1      32.910 182.188  30.876  1.00  0.00     0.004 A 
ENDROOT
BRANCH   1   7
ATOM      7  C   UNL     1      36.375 184.528  31.845  1.00  0.00     0.075 C 
ATOM      8  O   UNL     1      36.879 185.370  31.057  1.00  0.00    -0.545 OA
ATOM      9  O   UNL     1      37.016 184.265  33.050  1.00  0.00    -0.545 OA
ENDBRANCH   1   7
BRANCH   2  10
ATOM     10  O   UNL     1      35.380 184.222  29.053  1.00  0.00    -0.507 OA
ATOM     11  H   UNL     1      36.061 183.766  28.462  1.00  0.00     0.293 HD
ENDBRANCH   2  10
TORSDOF 2
ENDMDL
MODEL 9
REMARK VINA RESULT:    -3.573      4.030      5.007
REMARK INTER + INTRA:          -4.066
REMARK INTER:                  -3.827
REMARK INTRA:                  -0.239
REMARK UNBOUND:                -0.180
REMARK SMILES O=C([O-])c1ccccc1O
REMARK SMILES IDX 4 1 9 2 5 3 8 4 6 5 7 6 2 7 1 8 3 9 10 10
REMARK H PARENT 10 11
REMARK Flexibility Score: inf
ROOT
ATOM      1  C   UNL     1      38.641 185.731  31.916  1.00  0.00     0.039 A 
ATOM      2  C   UNL     1      39.282 185.982  30.674  1.00  0.00     0.124 A 
ATOM      3  C   UNL     1      39.433 185.544  33.064  1.00  0.00     0.014 A 
ATOM      4  C   UNL     1      40.676 186.100  30.626  1.00  0.00     0.047 A 
ATOM      5  C   UNL     1      40.824 185.645  32.994  1.00  0.00     0.001 A 
ATOM      6  C   UNL     1      41.445 185.932  31.779  1.00  0.00     0.004 A 
ENDROOT
BRANCH   1   7
ATOM      7  C   UNL     1      37.169 185.690  32.066  1.00  0.00     0.075 C 
ATOM      8  O   UNL     1      36.592 186.353  32.966  1.00  0.00    -0.545 OA
ATOM      9  O   UNL     1      36.411 184.859  31.249  1.00  0.00    -0.545 OA
ENDBRANCH   1   7
BRANCH   2  10
ATOM     10  O   UNL     1      38.581 186.085  29.470  1.00  0.00    -0.507 OA
ATOM     11  H   UNL     1      37.613 186.369  29.410  1.00  0.00     0.293 HD
ENDBRANCH   2  10
TORSDOF 2
ENDMDL
