MODEL 1
REMARK VINA RESULT:    -2.384      0.000      0.000
REMARK INTER + INTRA:          -2.384
REMARK INTER:                  -2.384
REMARK INTRA:                   0.000
REMARK UNBOUND:                 0.000
REMARK SMILES CC(=O)[O-]
REMARK SMILES IDX 1 1 2 2 3 3 4 4
REMARK H PARENT
REMARK Flexibility Score: inf
ROOT
ATOM      1  C   UNL     1      22.397 -18.982  32.125  1.00  0.00     0.063 C 
ATOM      2  C   UNL     1      23.451 -18.269  31.349  1.00  0.00     0.038 C 
ATOM      3  O   UNL     1      24.233 -18.915  30.602  1.00  0.00    -0.550 OA
ATOM      4  O   UNL     1      23.541 -16.884  31.407  1.00  0.00    -0.550 OA
ENDROOT
TORSDOF 0
ENDMDL
MODEL 2
REMARK VINA RESULT:    -2.345     16.536     16.722
REMARK INTER + INTRA:          -2.345
REMARK INTER:                  -2.345
REMARK INTRA:                   0.000
REMARK UNBOUND:                 0.000
REMARK SMILES CC(=O)[O-]
REMARK SMILES IDX 1 1 2 2 3 3 4 4
REMARK H PARENT
REMARK Flexibility Score: inf
ROOT
ATOM      1  C   UNL     1      19.362 -17.087  15.403  1.00  0.00     0.063 C 
ATOM      2  C   UNL     1      19.388 -15.596  15.376  1.00  0.00     0.038 C 
ATOM      3  O   UNL     1      19.415 -14.984  14.276  1.00  0.00    -0.550 OA
ATOM      4  O   UNL     1      19.330 -14.877  16.563  1.00  0.00    -0.550 OA
ENDROOT
TORSDOF 0
ENDMDL
MODEL 3
REMARK VINA RESULT:    -2.303     15.216     15.328
REMARK INTER + INTRA:          -2.303
REMARK INTER:                  -2.303
REMARK INTRA:                   0.000
REMARK UNBOUND:                 0.000
REMARK SMILES CC(=O)[O-]
REMARK SMILES IDX 1 1 2 2 3 3 4 4
REMARK H PARENT
REMARK Flexibility Score: inf
ROOT
ATOM      1  C   UNL     1      13.331 -20.349  20.232  1.00  0.00     0.063 C 
ATOM      2  C   UNL     1      12.931 -21.659  20.821  1.00  0.00     0.038 C 
ATOM      3  O   UNL     1      13.350 -22.734  20.316  1.00  0.00    -0.550 OA
ATOM      4  O   UNL     1      12.137 -21.696  21.960  1.00  0.00    -0.550 OA
ENDROOT
TORSDOF 0
ENDMDL
MODEL 4
REMARK VINA RESULT:    -2.270     10.288     10.784
REMARK INTER + INTRA:          -2.270
REMARK INTER:                  -2.270
REMARK INTRA:                   0.000
REMARK UNBOUND:                 0.000
REMARK SMILES CC(=O)[O-]
REMARK SMILES IDX 1 1 2 2 3 3 4 4
REMARK H PARENT
REMARK Flexibility Score: inf
ROOT
ATOM      1  C   UNL     1      22.097 -26.000  26.384  1.00  0.00     0.063 C 
ATOM      2  C   UNL     1      21.313 -26.803  25.402  1.00  0.00     0.038 C 
ATOM      3  O   UNL     1      20.070 -26.942  25.548  1.00  0.00    -0.550 OA
ATOM      4  O   UNL     1      21.942 -27.355  24.294  1.00  0.00    -0.550 OA
ENDROOT
TORSDOF 0
ENDMDL
MODEL 5
REMARK VINA RESULT:    -2.204     15.035     15.217
REMARK INTER + INTRA:          -2.204
REMARK INTER:                  -2.204
REMARK INTRA:                   0.000
REMARK UNBOUND:                 0.000
REMARK SMILES CC(=O)[O-]
REMARK SMILES IDX 1 1 2 2 3 3 4 4
REMARK H PARENT
REMARK Flexibility Score: inf
ROOT
ATOM      1  C   UNL     1      12.543 -22.062  21.475  1.00  0.00     0.063 C 
ATOM      2  C   UNL     1      13.301 -21.237  20.490  1.00  0.00     0.038 C 
ATOM      3  O   UNL     1      14.497 -20.919  20.720  1.00  0.00    -0.550 OA
ATOM      4  O   UNL     1      12.706 -20.863  19.292  1.00  0.00    -0.550 OA
ENDROOT
TORSDOF 0
ENDMDL
MODEL 6
REMARK VINA RESULT:    -2.157      1.373      2.080
REMARK INTER + INTRA:          -2.157
REMARK INTER:                  -2.157
REMARK INTRA:                   0.000
REMARK UNBOUND:                 0.000
REMARK SMILES CC(=O)[O-]
REMARK SMILES IDX 1 1 2 2 3 3 4 4
REMARK H PARENT
REMARK Flexibility Score: inf
ROOT
ATOM      1  C   UNL     1      24.231 -19.020  30.313  1.00  0.00     0.063 C 
ATOM      2  C   UNL     1      23.405 -18.279  31.309  1.00  0.00     0.038 C 
ATOM      3  O   UNL     1      23.478 -17.024  31.382  1.00  0.00    -0.550 OA
ATOM      4  O   UNL     1      22.514 -18.966  32.124  1.00  0.00    -0.550 OA
ENDROOT
TORSDOF 0
ENDMDL
MODEL 7
REMARK VINA RESULT:    -2.118      9.392      9.785
REMARK INTER + INTRA:          -2.118
REMARK INTER:                  -2.118
REMARK INTRA:                   0.000
REMARK UNBOUND:                 0.000
REMARK SMILES CC(=O)[O-]
REMARK SMILES IDX 1 1 2 2 3 3 4 4
REMARK H PARENT
REMARK Flexibility Score: inf
ROOT
ATOM      1  C   UNL     1      21.233 -27.183  25.061  1.00  0.00     0.063 C 
ATOM      2  C   UNL     1      21.508 -26.039  25.977  1.00  0.00     0.038 C 
ATOM      3  O   UNL     1      22.385 -26.144  26.874  1.00  0.00    -0.550 OA
ATOM      4  O   UNL     1      20.836 -24.835  25.808  1.00  0.00    -0.550 OA
ENDROOT
TORSDOF 0
ENDMDL
MODEL 8
REMARK VINA RESULT:    -2.020     22.748     23.140
REMARK INTER + INTRA:          -2.020
REMARK INTER:                  -2.020
REMARK INTRA:                   0.000
REMARK UNBOUND:                 0.000
REMARK SMILES CC(=O)[O-]
REMARK SMILES IDX 1 1 2 2 3 3 4 4
REMARK H PARENT
REMARK Flexibility Score: inf
ROOT
ATOM      1  C   UNL     1       9.220 -28.816  18.931  1.00  0.00     0.063 C 
ATOM      2  C   UNL     1       8.352 -29.620  18.025  1.00  0.00     0.038 C 
ATOM      3  O   UNL     1       7.390 -30.284  18.495  1.00  0.00    -0.550 OA
ATOM      4  O   UNL     1       8.567 -29.597  16.653  1.00  0.00    -0.550 OA
ENDROOT
TORSDOF 0
ENDMDL
