MODEL 1
REMARK VINA RESULT:    -4.971      0.000      0.000
REMARK INTER + INTRA:          -6.296
REMARK INTER:                  -5.988
REMARK INTRA:                  -0.309
REMARK UNBOUND:                -0.309
REMARK SMILES O=c1c(O)c(-c2ccc(O)c(O)c2)oc2cc(O)cc(O)c12
REMARK SMILES IDX 5 1 3 2 2 3 1 4 22 5 20 6 19 7 17 8 16 9 15 10 14 11 6 12
REMARK SMILES IDX 7 13 8 14 9 15 13 16 11 17 10 18 12 20 4 22 21 24 18 26
REMARK H PARENT 10 19 12 21 4 23 21 25 18 27
REMARK Flexibility Score: inf
ROOT
ATOM      1  C   UNL     1      -0.930   0.741  -7.215  1.00  0.00     0.180 A 
ATOM      2  C   UNL     1      -2.331   0.726  -7.353  1.00  0.00     0.208 A 
ATOM      3  C   UNL     1      -3.026  -0.464  -7.092  1.00  0.00     0.238 A 
ATOM      4  O   UNL     1      -4.283  -0.487  -7.201  1.00  0.00    -0.285 OA
ATOM      5  C   UNL     1      -2.311  -1.621  -6.716  1.00  0.00     0.111 A 
ATOM      6  C   UNL     1      -2.936  -2.861  -6.439  1.00  0.00     0.134 A 
ATOM      7  C   UNL     1      -2.153  -3.969  -6.080  1.00  0.00     0.093 A 
ATOM      8  C   UNL     1      -0.761  -3.861  -5.996  1.00  0.00     0.123 A 
ATOM      9  C   UNL     1      -0.142  -2.640  -6.268  1.00  0.00     0.094 A 
ATOM     10  C   UNL     1      -0.903  -1.524  -6.625  1.00  0.00     0.146 A 
ATOM     11  O   UNL     1      -0.288  -0.373  -6.873  1.00  0.00    -0.452 OA
ENDROOT
BRANCH   1  12
ATOM     12  C   UNL     1      -0.128   1.962  -7.455  1.00  0.00     0.025 A 
ATOM     13  C   UNL     1       0.599   2.088  -8.649  1.00  0.00     0.016 A 
ATOM     14  C   UNL     1       1.378   3.222  -8.887  1.00  0.00     0.051 A 
ATOM     15  C   UNL     1       1.457   4.239  -7.931  1.00  0.00     0.157 A 
ATOM     16  C   UNL     1      -0.031   2.976  -6.485  1.00  0.00     0.062 A 
ATOM     17  C   UNL     1       0.753   4.115  -6.722  1.00  0.00     0.158 A 
BRANCH  15  18
ATOM     18  O   UNL     1       2.242   5.361  -8.199  1.00  0.00    -0.504 OA
ATOM     19  H   UNL     1       1.895   6.304  -8.066  1.00  0.00     0.293 HD
ENDBRANCH  15  18
BRANCH  17  20
ATOM     20  O   UNL     1       0.839   5.119  -5.758  1.00  0.00    -0.504 OA
ATOM     21  H   UNL     1       1.403   5.007  -4.924  1.00  0.00     0.293 HD
ENDBRANCH  17  20
ENDBRANCH   1  12
BRANCH   2  22
ATOM     22  O   UNL     1      -3.011   1.872  -7.774  1.00  0.00    -0.502 OA
ATOM     23  H   UNL     1      -3.996   1.864  -8.006  1.00  0.00     0.293 HD
ENDBRANCH   2  22
BRANCH   6  24
ATOM     24  O   UNL     1      -4.322  -3.001  -6.516  1.00  0.00    -0.507 OA
ATOM     25  H   UNL     1      -4.880  -3.237  -5.704  1.00  0.00     0.293 HD
ENDBRANCH   6  24
BRANCH   8  26
ATOM     26  O   UNL     1       0.017  -4.961  -5.641  1.00  0.00    -0.508 OA
ATOM     27  H   UNL     1       0.585  -4.960  -4.802  1.00  0.00     0.293 HD
ENDBRANCH   8  26
TORSDOF 6
ENDMDL
MODEL 2
REMARK VINA RESULT:    -4.959      2.394      7.423
REMARK INTER + INTRA:          -6.282
REMARK INTER:                  -6.016
REMARK INTRA:                  -0.267
REMARK UNBOUND:                -0.309
REMARK SMILES O=c1c(O)c(-c2ccc(O)c(O)c2)oc2cc(O)cc(O)c12
REMARK SMILES IDX 5 1 3 2 2 3 1 4 22 5 20 6 19 7 17 8 16 9 15 10 14 11 6 12
REMARK SMILES IDX 7 13 8 14 9 15 13 16 11 17 10 18 12 20 4 22 21 24 18 26
REMARK H PARENT 10 19 12 21 4 23 21 25 18 27
REMARK Flexibility Score: inf
ROOT
ATOM      1  C   UNL     1       1.030  -0.717  -7.113  1.00  0.00     0.180 A 
ATOM      2  C   UNL     1       2.405  -0.706  -7.413  1.00  0.00     0.208 A 
ATOM      3  C   UNL     1       3.133   0.477  -7.219  1.00  0.00     0.238 A 
ATOM      4  O   UNL     1       4.369   0.496  -7.474  1.00  0.00    -0.285 OA
ATOM      5  C   UNL     1       2.474   1.632  -6.748  1.00  0.00     0.111 A 
ATOM      6  C   UNL     1       3.134   2.865  -6.528  1.00  0.00     0.134 A 
ATOM      7  C   UNL     1       2.405   3.971  -6.066  1.00  0.00     0.093 A 
ATOM      8  C   UNL     1       1.031   3.868  -5.822  1.00  0.00     0.123 A 
ATOM      9  C   UNL     1       0.377   2.654  -6.037  1.00  0.00     0.094 A 
ATOM     10  C   UNL     1       1.085   1.539  -6.495  1.00  0.00     0.146 A 
ATOM     11  O   UNL     1       0.439   0.395  -6.685  1.00  0.00    -0.452 OA
ENDROOT
BRANCH   1  12
ATOM     12  C   UNL     1       0.198  -1.931  -7.275  1.00  0.00     0.025 A 
ATOM     13  C   UNL     1      -0.759  -1.982  -8.300  1.00  0.00     0.016 A 
ATOM     14  C   UNL     1      -1.568  -3.109  -8.459  1.00  0.00     0.051 A 
ATOM     15  C   UNL     1      -1.446  -4.195  -7.586  1.00  0.00     0.157 A 
ATOM     16  C   UNL     1       0.305  -3.015  -6.385  1.00  0.00     0.062 A 
ATOM     17  C   UNL     1      -0.508  -4.147  -6.541  1.00  0.00     0.158 A 
BRANCH  15  18
ATOM     18  O   UNL     1      -2.267  -5.308  -7.770  1.00  0.00    -0.504 OA
ATOM     19  H   UNL     1      -1.939  -6.252  -7.601  1.00  0.00     0.293 HD
ENDBRANCH  15  18
BRANCH  17  20
ATOM     20  O   UNL     1      -0.392  -5.220  -5.658  1.00  0.00    -0.504 OA
ATOM     21  H   UNL     1      -0.548  -5.109  -4.663  1.00  0.00     0.293 HD
ENDBRANCH  17  20
ENDBRANCH   1  12
BRANCH   2  22
ATOM     22  O   UNL     1       3.025  -1.849  -7.926  1.00  0.00    -0.502 OA
ATOM     23  H   UNL     1       3.258  -1.947  -8.906  1.00  0.00     0.293 HD
ENDBRANCH   2  22
BRANCH   6  24
ATOM     24  O   UNL     1       4.502   3.000  -6.764  1.00  0.00    -0.507 OA
ATOM     25  H   UNL     1       5.107   2.193  -6.867  1.00  0.00     0.293 HD
ENDBRANCH   6  24
BRANCH   8  26
ATOM     26  O   UNL     1       0.306   4.967  -5.364  1.00  0.00    -0.508 OA
ATOM     27  H   UNL     1      -0.679   4.895  -5.140  1.00  0.00     0.293 HD
ENDBRANCH   8  26
TORSDOF 6
ENDMDL
MODEL 3
REMARK VINA RESULT:    -4.855      0.596      1.432
REMARK INTER + INTRA:          -6.157
REMARK INTER:                  -5.840
REMARK INTRA:                  -0.317
REMARK UNBOUND:                -0.309
REMARK SMILES O=c1c(O)c(-c2ccc(O)c(O)c2)oc2cc(O)cc(O)c12
REMARK SMILES IDX 5 1 3 2 2 3 1 4 22 5 20 6 19 7 17 8 16 9 15 10 14 11 6 12
REMARK SMILES IDX 7 13 8 14 9 15 13 16 11 17 10 18 12 20 4 22 21 24 18 26
REMARK H PARENT 10 19 12 21 4 23 21 25 18 27
REMARK Flexibility Score: inf
ROOT
ATOM      1  C   UNL     1      -0.964   0.793  -7.211  1.00  0.00     0.180 A 
ATOM      2  C   UNL     1      -2.365   0.774  -7.340  1.00  0.00     0.208 A 
ATOM      3  C   UNL     1      -3.054  -0.421  -7.082  1.00  0.00     0.238 A 
ATOM      4  O   UNL     1      -4.311  -0.448  -7.183  1.00  0.00    -0.285 OA
ATOM      5  C   UNL     1      -2.332  -1.577  -6.719  1.00  0.00     0.111 A 
ATOM      6  C   UNL     1      -2.950  -2.822  -6.445  1.00  0.00     0.134 A 
ATOM      7  C   UNL     1      -2.160  -3.929  -6.099  1.00  0.00     0.093 A 
ATOM      8  C   UNL     1      -0.768  -3.815  -6.023  1.00  0.00     0.123 A 
ATOM      9  C   UNL     1      -0.155  -2.590  -6.292  1.00  0.00     0.094 A 
ATOM     10  C   UNL     1      -0.924  -1.474  -6.637  1.00  0.00     0.146 A 
ATOM     11  O   UNL     1      -0.315  -0.320  -6.881  1.00  0.00    -0.452 OA
ENDROOT
BRANCH   1  12
ATOM     12  C   UNL     1      -0.168   2.019  -7.449  1.00  0.00     0.025 A 
ATOM     13  C   UNL     1       0.138   2.864  -6.371  1.00  0.00     0.016 A 
ATOM     14  C   UNL     1       0.870   4.036  -6.575  1.00  0.00     0.051 A 
ATOM     15  C   UNL     1       1.293   4.390  -7.860  1.00  0.00     0.157 A 
ATOM     16  C   UNL     1       0.239   2.388  -8.743  1.00  0.00     0.062 A 
ATOM     17  C   UNL     1       0.972   3.566  -8.951  1.00  0.00     0.158 A 
BRANCH  15  18
ATOM     18  O   UNL     1       2.024   5.566  -8.033  1.00  0.00    -0.504 OA
ATOM     19  H   UNL     1       3.006   5.628  -7.794  1.00  0.00     0.293 HD
ENDBRANCH  15  18
BRANCH  17  20
ATOM     20  O   UNL     1       1.377   3.921 -10.238  1.00  0.00    -0.504 OA
ATOM     21  H   UNL     1       0.764   4.427 -10.866  1.00  0.00     0.293 HD
ENDBRANCH  17  20
ENDBRANCH   1  12
BRANCH   2  22
ATOM     22  O   UNL     1      -3.054   1.919  -7.749  1.00  0.00    -0.502 OA
ATOM     23  H   UNL     1      -3.998   1.886  -8.111  1.00  0.00     0.293 HD
ENDBRANCH   2  22
BRANCH   6  24
ATOM     24  O   UNL     1      -4.336  -2.966  -6.514  1.00  0.00    -0.507 OA
ATOM     25  H   UNL     1      -4.951  -2.168  -6.616  1.00  0.00     0.293 HD
ENDBRANCH   6  24
BRANCH   8  26
ATOM     26  O   UNL     1       0.017  -4.914  -5.680  1.00  0.00    -0.508 OA
ATOM     27  H   UNL     1      -0.357  -5.683  -5.136  1.00  0.00     0.293 HD
ENDBRANCH   8  26
TORSDOF 6
ENDMDL
MODEL 4
REMARK VINA RESULT:    -4.812      3.096      4.238
REMARK INTER + INTRA:          -6.105
REMARK INTER:                  -5.821
REMARK INTRA:                  -0.284
REMARK UNBOUND:                -0.309
REMARK SMILES O=c1c(O)c(-c2ccc(O)c(O)c2)oc2cc(O)cc(O)c12
REMARK SMILES IDX 5 1 3 2 2 3 1 4 22 5 20 6 19 7 17 8 16 9 15 10 14 11 6 12
REMARK SMILES IDX 7 13 8 14 9 15 13 16 11 17 10 18 12 20 4 22 21 24 18 26
REMARK H PARENT 10 19 12 21 4 23 21 25 18 27
REMARK Flexibility Score: inf
ROOT
ATOM      1  C   UNL     1       1.722  -0.054  -6.658  1.00  0.00     0.180 A 
ATOM      2  C   UNL     1       1.793  -1.242  -7.409  1.00  0.00     0.208 A 
ATOM      3  C   UNL     1       0.606  -1.931  -7.703  1.00  0.00     0.238 A 
ATOM      4  O   UNL     1       0.655  -2.991  -8.384  1.00  0.00    -0.285 OA
ATOM      5  C   UNL     1      -0.625  -1.432  -7.228  1.00  0.00     0.111 A 
ATOM      6  C   UNL     1      -1.866  -2.068  -7.476  1.00  0.00     0.134 A 
ATOM      7  C   UNL     1      -3.047  -1.514  -6.960  1.00  0.00     0.093 A 
ATOM      8  C   UNL     1      -3.011  -0.339  -6.200  1.00  0.00     0.123 A 
ATOM      9  C   UNL     1      -1.790   0.290  -5.953  1.00  0.00     0.094 A 
ATOM     10  C   UNL     1      -0.602  -0.244  -6.459  1.00  0.00     0.146 A 
ATOM     11  O   UNL     1       0.545   0.378  -6.214  1.00  0.00    -0.452 OA
ENDROOT
BRANCH   1  12
ATOM     12  C   UNL     1       2.927   0.739  -6.323  1.00  0.00     0.025 A 
ATOM     13  C   UNL     1       3.749   0.331  -5.261  1.00  0.00     0.016 A 
ATOM     14  C   UNL     1       4.879   1.074  -4.915  1.00  0.00     0.051 A 
ATOM     15  C   UNL     1       5.197   2.244  -5.612  1.00  0.00     0.157 A 
ATOM     16  C   UNL     1       3.236   1.927  -7.010  1.00  0.00     0.062 A 
ATOM     17  C   UNL     1       4.370   2.676  -6.662  1.00  0.00     0.158 A 
BRANCH  15  18
ATOM     18  O   UNL     1       6.334   2.964  -5.245  1.00  0.00    -0.504 OA
ATOM     19  H   UNL     1       6.317   3.654  -4.502  1.00  0.00     0.293 HD
ENDBRANCH  15  18
BRANCH  17  20
ATOM     20  O   UNL     1       4.672   3.850  -7.352  1.00  0.00    -0.504 OA
ATOM     21  H   UNL     1       3.982   4.579  -7.487  1.00  0.00     0.293 HD
ENDBRANCH  17  20
ENDBRANCH   1  12
BRANCH   2  22
ATOM     22  O   UNL     1       3.029  -1.742  -7.826  1.00  0.00    -0.502 OA
ATOM     23  H   UNL     1       3.215  -1.998  -8.788  1.00  0.00     0.293 HD
ENDBRANCH   2  22
BRANCH   6  24
ATOM     24  O   UNL     1      -1.934  -3.241  -8.229  1.00  0.00    -0.507 OA
ATOM     25  H   UNL     1      -1.293  -4.010  -8.076  1.00  0.00     0.293 HD
ENDBRANCH   6  24
BRANCH   8  26
ATOM     26  O   UNL     1      -4.183   0.211  -5.686  1.00  0.00    -0.508 OA
ATOM     27  H   UNL     1      -5.079   0.059  -6.135  1.00  0.00     0.293 HD
ENDBRANCH   8  26
TORSDOF 6
ENDMDL
MODEL 5
REMARK VINA RESULT:    -4.743      2.597      6.476
REMARK INTER + INTRA:          -6.022
REMARK INTER:                  -5.707
REMARK INTRA:                  -0.315
REMARK UNBOUND:                -0.309
REMARK SMILES O=c1c(O)c(-c2ccc(O)c(O)c2)oc2cc(O)cc(O)c12
REMARK SMILES IDX 5 1 3 2 2 3 1 4 22 5 20 6 19 7 17 8 16 9 15 10 14 11 6 12
REMARK SMILES IDX 7 13 8 14 9 15 13 16 11 17 10 18 12 20 4 22 21 24 18 26
REMARK H PARENT 10 19 12 21 4 23 21 25 18 27
REMARK Flexibility Score: inf
ROOT
ATOM      1  C   UNL     1      -0.714  -0.408  -6.384  1.00  0.00     0.180 A 
ATOM      2  C   UNL     1       0.015  -1.344  -7.142  1.00  0.00     0.208 A 
ATOM      3  C   UNL     1       1.399  -1.165  -7.291  1.00  0.00     0.238 A 
ATOM      4  O   UNL     1       2.066  -2.003  -7.959  1.00  0.00    -0.285 OA
ATOM      5  C   UNL     1       2.026  -0.049  -6.699  1.00  0.00     0.111 A 
ATOM      6  C   UNL     1       3.415   0.206  -6.804  1.00  0.00     0.134 A 
ATOM      7  C   UNL     1       3.961   1.345  -6.193  1.00  0.00     0.093 A 
ATOM      8  C   UNL     1       3.146   2.232  -5.482  1.00  0.00     0.123 A 
ATOM      9  C   UNL     1       1.777   1.984  -5.375  1.00  0.00     0.094 A 
ATOM     10  C   UNL     1       1.212   0.855  -5.975  1.00  0.00     0.146 A 
ATOM     11  O   UNL     1      -0.092   0.640  -5.853  1.00  0.00    -0.452 OA
ENDROOT
BRANCH   1  12
ATOM     12  C   UNL     1      -2.173  -0.538  -6.166  1.00  0.00     0.025 A 
ATOM     13  C   UNL     1      -2.647  -1.372  -5.142  1.00  0.00     0.016 A 
ATOM     14  C   UNL     1      -4.019  -1.525  -4.931  1.00  0.00     0.051 A 
ATOM     15  C   UNL     1      -4.938  -0.860  -5.749  1.00  0.00     0.157 A 
ATOM     16  C   UNL     1      -3.099   0.113  -7.001  1.00  0.00     0.062 A 
ATOM     17  C   UNL     1      -4.477  -0.041  -6.793  1.00  0.00     0.158 A 
BRANCH  15  18
ATOM     18  O   UNL     1      -6.303  -1.031  -5.514  1.00  0.00    -0.504 OA
ATOM     19  H   UNL     1      -6.956  -0.257  -5.553  1.00  0.00     0.293 HD
ENDBRANCH  15  18
BRANCH  17  20
ATOM     20  O   UNL     1      -5.388   0.613  -7.622  1.00  0.00    -0.504 OA
ATOM     21  H   UNL     1      -5.999   0.101  -8.248  1.00  0.00     0.293 HD
ENDBRANCH  17  20
ENDBRANCH   1  12
BRANCH   2  22
ATOM     22  O   UNL     1      -0.636  -2.414  -7.760  1.00  0.00    -0.502 OA
ATOM     23  H   UNL     1      -0.134  -3.170  -8.209  1.00  0.00     0.293 HD
ENDBRANCH   2  22
BRANCH   6  24
ATOM     24  O   UNL     1       4.252  -0.659  -7.508  1.00  0.00    -0.507 OA
ATOM     25  H   UNL     1       4.094  -1.660  -7.522  1.00  0.00     0.293 HD
ENDBRANCH   6  24
BRANCH   8  26
ATOM     26  O   UNL     1       3.688   3.364  -4.876  1.00  0.00    -0.508 OA
ATOM     27  H   UNL     1       4.092   4.115  -5.423  1.00  0.00     0.293 HD
ENDBRANCH   8  26
TORSDOF 6
ENDMDL
MODEL 6
REMARK VINA RESULT:    -4.715      3.182      3.781
REMARK INTER + INTRA:          -5.988
REMARK INTER:                  -5.663
REMARK INTRA:                  -0.325
REMARK UNBOUND:                -0.309
REMARK SMILES O=c1c(O)c(-c2ccc(O)c(O)c2)oc2cc(O)cc(O)c12
REMARK SMILES IDX 5 1 3 2 2 3 1 4 22 5 20 6 19 7 17 8 16 9 15 10 14 11 6 12
REMARK SMILES IDX 7 13 8 14 9 15 13 16 11 17 10 18 12 20 4 22 21 24 18 26
REMARK H PARENT 10 19 12 21 4 23 21 25 18 27
REMARK Flexibility Score: inf
ROOT
ATOM      1  C   UNL     1       0.860  -0.210  -6.401  1.00  0.00     0.180 A 
ATOM      2  C   UNL     1       0.011   0.717  -7.036  1.00  0.00     0.208 A 
ATOM      3  C   UNL     1      -1.353   0.413  -7.162  1.00  0.00     0.238 A 
ATOM      4  O   UNL     1      -2.125   1.241  -7.719  1.00  0.00    -0.285 OA
ATOM      5  C   UNL     1      -1.841  -0.815  -6.670  1.00  0.00     0.111 A 
ATOM      6  C   UNL     1      -3.201  -1.200  -6.761  1.00  0.00     0.134 A 
ATOM      7  C   UNL     1      -3.607  -2.445  -6.256  1.00  0.00     0.093 A 
ATOM      8  C   UNL     1      -2.680  -3.311  -5.665  1.00  0.00     0.123 A 
ATOM      9  C   UNL     1      -1.339  -2.935  -5.573  1.00  0.00     0.094 A 
ATOM     10  C   UNL     1      -0.914  -1.699  -6.069  1.00  0.00     0.146 A 
ATOM     11  O   UNL     1       0.366  -1.365  -5.963  1.00  0.00    -0.452 OA
ENDROOT
BRANCH   1  12
ATOM     12  C   UNL     1       2.306   0.047  -6.213  1.00  0.00     0.025 A 
ATOM     13  C   UNL     1       2.744   0.730  -5.069  1.00  0.00     0.016 A 
ATOM     14  C   UNL     1       4.101   1.001  -4.881  1.00  0.00     0.051 A 
ATOM     15  C   UNL     1       5.039   0.607  -5.841  1.00  0.00     0.157 A 
ATOM     16  C   UNL     1       3.248  -0.329  -7.187  1.00  0.00     0.062 A 
ATOM     17  C   UNL     1       4.612  -0.057  -7.002  1.00  0.00     0.158 A 
BRANCH  15  18
ATOM     18  O   UNL     1       6.388   0.889  -5.625  1.00  0.00    -0.504 OA
ATOM     19  H   UNL     1       7.016   0.220  -5.194  1.00  0.00     0.293 HD
ENDBRANCH  15  18
BRANCH  17  20
ATOM     20  O   UNL     1       5.540  -0.439  -7.970  1.00  0.00    -0.504 OA
ATOM     21  H   UNL     1       6.343  -1.012  -7.740  1.00  0.00     0.293 HD
ENDBRANCH  17  20
ENDBRANCH   1  12
BRANCH   2  22
ATOM     22  O   UNL     1       0.528   1.906  -7.558  1.00  0.00    -0.502 OA
ATOM     23  H   UNL     1       1.335   1.925  -8.168  1.00  0.00     0.293 HD
ENDBRANCH   2  22
BRANCH   6  24
ATOM     24  O   UNL     1      -4.148  -0.359  -7.346  1.00  0.00    -0.507 OA
ATOM     25  H   UNL     1      -4.338   0.566  -6.980  1.00  0.00     0.293 HD
ENDBRANCH   6  24
BRANCH   8  26
ATOM     26  O   UNL     1      -3.083  -4.547  -5.164  1.00  0.00    -0.508 OA
ATOM     27  H   UNL     1      -3.578  -4.626  -4.284  1.00  0.00     0.293 HD
ENDBRANCH   8  26
TORSDOF 6
ENDMDL
MODEL 7
REMARK VINA RESULT:    -4.713      2.231      6.442
REMARK INTER + INTRA:          -5.986
REMARK INTER:                  -5.740
REMARK INTRA:                  -0.246
REMARK UNBOUND:                -0.309
REMARK SMILES O=c1c(O)c(-c2ccc(O)c(O)c2)oc2cc(O)cc(O)c12
REMARK SMILES IDX 5 1 3 2 2 3 1 4 22 5 20 6 19 7 17 8 16 9 15 10 14 11 6 12
REMARK SMILES IDX 7 13 8 14 9 15 13 16 11 17 10 18 12 20 4 22 21 24 18 26
REMARK H PARENT 10 19 12 21 4 23 21 25 18 27
REMARK Flexibility Score: inf
ROOT
ATOM      1  C   UNL     1      -1.428   0.121  -6.687  1.00  0.00     0.180 A 
ATOM      2  C   UNL     1      -1.499   1.325  -7.412  1.00  0.00     0.208 A 
ATOM      3  C   UNL     1      -0.308   1.984  -7.753  1.00  0.00     0.238 A 
ATOM      4  O   UNL     1      -0.358   3.058  -8.413  1.00  0.00    -0.285 OA
ATOM      5  C   UNL     1       0.929   1.441  -7.348  1.00  0.00     0.111 A 
ATOM      6  C   UNL     1       2.175   2.044  -7.647  1.00  0.00     0.134 A 
ATOM      7  C   UNL     1       3.363   1.446  -7.200  1.00  0.00     0.093 A 
ATOM      8  C   UNL     1       3.328   0.259  -6.459  1.00  0.00     0.123 A 
ATOM      9  C   UNL     1       2.103  -0.339  -6.163  1.00  0.00     0.094 A 
ATOM     10  C   UNL     1       0.908   0.240  -6.600  1.00  0.00     0.146 A 
ATOM     11  O   UNL     1      -0.244  -0.353  -6.309  1.00  0.00    -0.452 OA
ENDROOT
BRANCH   1  12
ATOM     12  C   UNL     1      -2.638  -0.642  -6.306  1.00  0.00     0.025 A 
ATOM     13  C   UNL     1      -3.453  -0.170  -5.266  1.00  0.00     0.016 A 
ATOM     14  C   UNL     1      -4.589  -0.884  -4.876  1.00  0.00     0.051 A 
ATOM     15  C   UNL     1      -4.919  -2.087  -5.509  1.00  0.00     0.157 A 
ATOM     16  C   UNL     1      -2.960  -1.862  -6.927  1.00  0.00     0.062 A 
ATOM     17  C   UNL     1      -4.099  -2.582  -6.536  1.00  0.00     0.158 A 
BRANCH  15  18
ATOM     18  O   UNL     1      -6.060  -2.777  -5.100  1.00  0.00    -0.504 OA
ATOM     19  H   UNL     1      -6.314  -2.866  -4.123  1.00  0.00     0.293 HD
ENDBRANCH  15  18
BRANCH  17  20
ATOM     20  O   UNL     1      -4.414  -3.788  -7.161  1.00  0.00    -0.504 OA
ATOM     21  H   UNL     1      -3.904  -4.114  -7.974  1.00  0.00     0.293 HD
ENDBRANCH  17  20
ENDBRANCH   1  12
BRANCH   2  22
ATOM     22  O   UNL     1      -2.739   1.869  -7.759  1.00  0.00    -0.502 OA
ATOM     23  H   UNL     1      -3.360   1.425  -8.424  1.00  0.00     0.293 HD
ENDBRANCH   2  22
BRANCH   6  24
ATOM     24  O   UNL     1       2.242   3.228  -8.382  1.00  0.00    -0.507 OA
ATOM     25  H   UNL     1       1.588   3.987  -8.229  1.00  0.00     0.293 HD
ENDBRANCH   6  24
BRANCH   8  26
ATOM     26  O   UNL     1       4.507  -0.335  -6.014  1.00  0.00    -0.508 OA
ATOM     27  H   UNL     1       4.496  -1.112  -5.364  1.00  0.00     0.293 HD
ENDBRANCH   8  26
TORSDOF 6
ENDMDL
MODEL 8
REMARK VINA RESULT:    -4.684      3.016      6.580
REMARK INTER + INTRA:          -5.951
REMARK INTER:                  -5.943
REMARK INTRA:                  -0.009
REMARK UNBOUND:                -0.309
REMARK SMILES O=c1c(O)c(-c2ccc(O)c(O)c2)oc2cc(O)cc(O)c12
REMARK SMILES IDX 5 1 3 2 2 3 1 4 22 5 20 6 19 7 17 8 16 9 15 10 14 11 6 12
REMARK SMILES IDX 7 13 8 14 9 15 13 16 11 17 10 18 12 20 4 22 21 24 18 26
REMARK H PARENT 10 19 12 21 4 23 21 25 18 27
REMARK Flexibility Score: inf
ROOT
ATOM      1  C   UNL     1       0.557   1.859  -6.365  1.00  0.00     0.180 A 
ATOM      2  C   UNL     1       0.767   3.250  -6.407  1.00  0.00     0.208 A 
ATOM      3  C   UNL     1       2.052   3.750  -6.145  1.00  0.00     0.238 A 
ATOM      4  O   UNL     1       2.256   4.994  -6.190  1.00  0.00    -0.285 OA
ATOM      5  C   UNL     1       3.097   2.857  -5.828  1.00  0.00     0.111 A 
ATOM      6  C   UNL     1       4.419   3.279  -5.548  1.00  0.00     0.134 A 
ATOM      7  C   UNL     1       5.401   2.328  -5.232  1.00  0.00     0.093 A 
ATOM      8  C   UNL     1       5.086   0.965  -5.190  1.00  0.00     0.123 A 
ATOM      9  C   UNL     1       3.784   0.545  -5.466  1.00  0.00     0.094 A 
ATOM     10  C   UNL     1       2.791   1.476  -5.784  1.00  0.00     0.146 A 
ATOM     11  O   UNL     1       1.562   1.048  -6.048  1.00  0.00    -0.452 OA
ENDROOT
BRANCH   1  12
ATOM     12  C   UNL     1      -0.765   1.254  -6.647  1.00  0.00     0.025 A 
ATOM     13  C   UNL     1      -1.446   1.600  -7.824  1.00  0.00     0.016 A 
ATOM     14  C   UNL     1      -2.703   1.057  -8.101  1.00  0.00     0.051 A 
ATOM     15  C   UNL     1      -3.305   0.173  -7.200  1.00  0.00     0.157 A 
ATOM     16  C   UNL     1      -1.381   0.381  -5.733  1.00  0.00     0.062 A 
ATOM     17  C   UNL     1      -2.644  -0.164  -6.008  1.00  0.00     0.158 A 
BRANCH  15  18
ATOM     18  O   UNL     1      -4.560  -0.355  -7.505  1.00  0.00    -0.504 OA
ATOM     19  H   UNL     1      -4.756  -0.795  -8.396  1.00  0.00     0.293 HD
ENDBRANCH  15  18
BRANCH  17  20
ATOM     20  O   UNL     1      -3.245  -1.032  -5.098  1.00  0.00    -0.504 OA
ATOM     21  H   UNL     1      -3.787  -0.689  -4.313  1.00  0.00     0.293 HD
ENDBRANCH  17  20
ENDBRANCH   1  12
BRANCH   2  22
ATOM     22  O   UNL     1      -0.295   4.118  -6.674  1.00  0.00    -0.502 OA
ATOM     23  H   UNL     1      -0.635   4.287  -7.612  1.00  0.00     0.293 HD
ENDBRANCH   2  22
BRANCH   6  24
ATOM     24  O   UNL     1       4.763   4.631  -5.580  1.00  0.00    -0.507 OA
ATOM     25  H   UNL     1       4.075   5.360  -5.435  1.00  0.00     0.293 HD
ENDBRANCH   6  24
BRANCH   8  26
ATOM     26  O   UNL     1       6.060   0.020  -4.875  1.00  0.00    -0.508 OA
ATOM     27  H   UNL     1       5.828  -0.837  -4.387  1.00  0.00     0.293 HD
ENDBRANCH   8  26
TORSDOF 6
ENDMDL
MODEL 9
REMARK VINA RESULT:    -4.582      1.886      2.700
REMARK INTER + INTRA:          -5.828
REMARK INTER:                  -5.623
REMARK INTRA:                  -0.205
REMARK UNBOUND:                -0.309
REMARK SMILES O=c1c(O)c(-c2ccc(O)c(O)c2)oc2cc(O)cc(O)c12
REMARK SMILES IDX 5 1 3 2 2 3 1 4 22 5 20 6 19 7 17 8 16 9 15 10 14 11 6 12
REMARK SMILES IDX 7 13 8 14 9 15 13 16 11 17 10 18 12 20 4 22 21 24 18 26
REMARK H PARENT 10 19 12 21 4 23 21 25 18 27
REMARK Flexibility Score: inf
ROOT
ATOM      1  C   UNL     1      -2.097  -0.992  -6.198  1.00  0.00     0.180 A 
ATOM      2  C   UNL     1      -3.476  -0.924  -5.921  1.00  0.00     0.208 A 
ATOM      3  C   UNL     1      -4.236  -2.102  -5.968  1.00  0.00     0.238 A 
ATOM      4  O   UNL     1      -5.470  -2.056  -5.710  1.00  0.00    -0.285 OA
ATOM      5  C   UNL     1      -3.612  -3.321  -6.306  1.00  0.00     0.111 A 
ATOM      6  C   UNL     1      -4.308  -4.553  -6.379  1.00  0.00     0.134 A 
ATOM      7  C   UNL     1      -3.616  -5.722  -6.733  1.00  0.00     0.093 A 
ATOM      8  C   UNL     1      -2.247  -5.682  -7.017  1.00  0.00     0.123 A 
ATOM      9  C   UNL     1      -1.559  -4.470  -6.947  1.00  0.00     0.094 A 
ATOM     10  C   UNL     1      -2.227  -3.294  -6.594  1.00  0.00     0.146 A 
ATOM     11  O   UNL     1      -1.547  -2.156  -6.529  1.00  0.00    -0.452 OA
ENDROOT
BRANCH   1  12
ATOM     12  C   UNL     1      -1.225   0.204  -6.152  1.00  0.00     0.025 A 
ATOM     13  C   UNL     1      -0.290   0.338  -5.115  1.00  0.00     0.016 A 
ATOM     14  C   UNL     1       0.529   1.467  -5.040  1.00  0.00     0.051 A 
ATOM     15  C   UNL     1       0.415   2.486  -5.991  1.00  0.00     0.157 A 
ATOM     16  C   UNL     1      -1.353   1.240  -7.095  1.00  0.00     0.062 A 
ATOM     17  C   UNL     1      -0.533   2.376  -7.021  1.00  0.00     0.158 A 
BRANCH  15  18
ATOM     18  O   UNL     1       1.248   3.601  -5.892  1.00  0.00    -0.504 OA
ATOM     19  H   UNL     1       2.258   3.519  -5.888  1.00  0.00     0.293 HD
ENDBRANCH  15  18
BRANCH  17  20
ATOM     20  O   UNL     1      -0.662   3.396  -7.963  1.00  0.00    -0.504 OA
ATOM     21  H   UNL     1      -0.232   3.331  -8.878  1.00  0.00     0.293 HD
ENDBRANCH  17  20
ENDBRANCH   1  12
BRANCH   2  22
ATOM     22  O   UNL     1      -4.080   0.304  -5.636  1.00  0.00    -0.502 OA
ATOM     23  H   UNL     1      -3.838   0.852  -4.821  1.00  0.00     0.293 HD
ENDBRANCH   2  22
BRANCH   6  24
ATOM     24  O   UNL     1      -5.673  -4.624  -6.103  1.00  0.00    -0.507 OA
ATOM     25  H   UNL     1      -6.020  -4.963  -5.213  1.00  0.00     0.293 HD
ENDBRANCH   6  24
BRANCH   8  26
ATOM     26  O   UNL     1      -1.561  -6.842  -7.370  1.00  0.00    -0.508 OA
ATOM     27  H   UNL     1      -0.575  -6.823  -7.603  1.00  0.00     0.293 HD
ENDBRANCH   8  26
TORSDOF 6
ENDMDL
