MODEL 1
REMARK VINA RESULT:    -5.277      0.000      0.000
REMARK INTER + INTRA:          -6.850
REMARK INTER:                  -6.510
REMARK INTRA:                  -0.340
REMARK UNBOUND:                -0.340
REMARK SMILES COc1cc(-c2oc3cc(O)cc(O)c3c(=O)c2O)ccc1O
REMARK SMILES IDX 6 1 18 2 16 3 17 4 15 5 13 6 12 7 10 8 9 9 8 10 7 11 5 12
REMARK SMILES IDX 3 13 22 14 4 15 21 16 20 17 2 18 1 19 23 20 19 22 14 24
REMARK SMILES IDX 11 26
REMARK H PARENT 23 21 19 23 14 25 11 27
REMARK Flexibility Score: inf
ROOT
ATOM      1  C   UNL     1      15.281  -6.986   9.376  1.00  0.00     0.180 A 
ATOM      2  C   UNL     1      14.129  -7.172   8.593  1.00  0.00     0.208 A 
ATOM      3  C   UNL     1      14.197  -6.924   7.212  1.00  0.00     0.238 A 
ATOM      4  O   UNL     1      13.178  -7.145   6.509  1.00  0.00    -0.285 OA
ATOM      5  C   UNL     1      15.411  -6.476   6.636  1.00  0.00     0.111 A 
ATOM      6  C   UNL     1      15.581  -6.155   5.256  1.00  0.00     0.134 A 
ATOM      7  C   UNL     1      16.859  -5.847   4.772  1.00  0.00     0.093 A 
ATOM      8  C   UNL     1      17.957  -5.785   5.627  1.00  0.00     0.123 A 
ATOM      9  C   UNL     1      17.790  -6.038   6.990  1.00  0.00     0.094 A 
ATOM     10  C   UNL     1      16.535  -6.384   7.496  1.00  0.00     0.146 A 
ATOM     11  O   UNL     1      16.421  -6.628   8.796  1.00  0.00    -0.452 OA
ENDROOT
BRANCH   1  12
ATOM     12  C   UNL     1      15.280  -7.203  10.841  1.00  0.00     0.025 A 
ATOM     13  C   UNL     1      15.303  -6.347  13.132  1.00  0.00     0.161 A 
ATOM     14  C   UNL     1      15.335  -7.663  13.616  1.00  0.00     0.157 A 
ATOM     15  C   UNL     1      15.283  -6.123  11.742  1.00  0.00     0.062 A 
ATOM     16  C   UNL     1      15.356  -8.740  12.721  1.00  0.00     0.051 A 
ATOM     17  C   UNL     1      15.335  -8.512  11.344  1.00  0.00     0.016 A 
BRANCH  13  18
ATOM     18  O   UNL     1      15.297  -5.294  14.061  1.00  0.00    -0.493 OA
ATOM     19  C   UNL     1      16.232  -4.221  14.071  1.00  0.00     0.278 C 
ENDBRANCH  13  18
BRANCH  14  20
ATOM     20  O   UNL     1      15.353  -7.892  14.991  1.00  0.00    -0.504 OA
ATOM     21  H   UNL     1      14.745  -7.382  15.621  1.00  0.00     0.293 HD
ENDBRANCH  14  20
ENDBRANCH   1  12
BRANCH   2  22
ATOM     22  O   UNL     1      12.948  -7.636   9.179  1.00  0.00    -0.502 OA
ATOM     23  H   UNL     1      12.195  -7.016   9.449  1.00  0.00     0.293 HD
ENDBRANCH   2  22
BRANCH   6  24
ATOM     24  O   UNL     1      14.533  -6.097   4.332  1.00  0.00    -0.507 OA
ATOM     25  H   UNL     1      13.589  -6.399   4.515  1.00  0.00     0.293 HD
ENDBRANCH   6  24
BRANCH   8  26
ATOM     26  O   UNL     1      19.212  -5.460   5.115  1.00  0.00    -0.508 OA
ATOM     27  H   UNL     1      19.371  -4.594   4.614  1.00  0.00     0.293 HD
ENDBRANCH   8  26
TORSDOF 6
ENDMDL
MODEL 2
REMARK VINA RESULT:    -5.077     12.846     15.784
REMARK INTER + INTRA:          -6.604
REMARK INTER:                  -6.453
REMARK INTRA:                  -0.150
REMARK UNBOUND:                -0.340
REMARK SMILES COc1cc(-c2oc3cc(O)cc(O)c3c(=O)c2O)ccc1O
REMARK SMILES IDX 6 1 18 2 16 3 17 4 15 5 13 6 12 7 10 8 9 9 8 10 7 11 5 12
REMARK SMILES IDX 3 13 22 14 4 15 21 16 20 17 2 18 1 19 23 20 19 22 14 24
REMARK SMILES IDX 11 26
REMARK H PARENT 23 21 19 23 14 25 11 27
REMARK Flexibility Score: inf
ROOT
ATOM      1  C   UNL     1      13.960 -17.088  20.216  1.00  0.00     0.180 A 
ATOM      2  C   UNL     1      14.902 -17.791  20.985  1.00  0.00     0.208 A 
ATOM      3  C   UNL     1      16.131 -17.179  21.284  1.00  0.00     0.238 A 
ATOM      4  O   UNL     1      16.948 -17.792  22.018  1.00  0.00    -0.285 OA
ATOM      5  C   UNL     1      16.408 -15.880  20.793  1.00  0.00     0.111 A 
ATOM      6  C   UNL     1      17.635 -15.182  21.000  1.00  0.00     0.134 A 
ATOM      7  C   UNL     1      17.750 -13.850  20.581  1.00  0.00     0.093 A 
ATOM      8  C   UNL     1      16.709 -13.215  19.907  1.00  0.00     0.123 A 
ATOM      9  C   UNL     1      15.527 -13.908  19.647  1.00  0.00     0.094 A 
ATOM     10  C   UNL     1      15.368 -15.225  20.085  1.00  0.00     0.146 A 
ATOM     11  O   UNL     1      14.223 -15.846  19.826  1.00  0.00    -0.452 OA
ENDROOT
BRANCH   1  12
ATOM     12  C   UNL     1      12.653 -17.676  19.840  1.00  0.00     0.025 A 
ATOM     13  C   UNL     1      11.019 -18.360  18.154  1.00  0.00     0.161 A 
ATOM     14  C   UNL     1      10.139 -18.748  19.175  1.00  0.00     0.157 A 
ATOM     15  C   UNL     1      12.274 -17.817  18.493  1.00  0.00     0.062 A 
ATOM     16  C   UNL     1      10.506 -18.587  20.517  1.00  0.00     0.051 A 
ATOM     17  C   UNL     1      11.751 -18.049  20.848  1.00  0.00     0.016 A 
BRANCH  13  18
ATOM     18  O   UNL     1      10.610 -18.525  16.821  1.00  0.00    -0.493 OA
ATOM     19  C   UNL     1       9.967 -17.521  16.044  1.00  0.00     0.278 C 
ENDBRANCH  13  18
BRANCH  14  20
ATOM     20  O   UNL     1       8.897 -19.288  18.846  1.00  0.00    -0.504 OA
ATOM     21  H   UNL     1       8.816 -20.143  18.308  1.00  0.00     0.293 HD
ENDBRANCH  14  20
ENDBRANCH   1  12
BRANCH   2  22
ATOM     22  O   UNL     1      14.599 -19.064  21.477  1.00  0.00    -0.502 OA
ATOM     23  H   UNL     1      14.215 -19.213  22.402  1.00  0.00     0.293 HD
ENDBRANCH   2  22
BRANCH   6  24
ATOM     24  O   UNL     1      18.771 -15.754  21.581  1.00  0.00    -0.507 OA
ATOM     25  H   UNL     1      19.654 -15.281  21.701  1.00  0.00     0.293 HD
ENDBRANCH   6  24
BRANCH   8  26
ATOM     26  O   UNL     1      16.864 -11.894  19.490  1.00  0.00    -0.508 OA
ATOM     27  H   UNL     1      17.413 -11.231  20.024  1.00  0.00     0.293 HD
ENDBRANCH   8  26
TORSDOF 6
ENDMDL
MODEL 3
REMARK VINA RESULT:    -4.977     12.787     15.871
REMARK INTER + INTRA:          -6.481
REMARK INTER:                  -6.347
REMARK INTRA:                  -0.134
REMARK UNBOUND:                -0.340
REMARK SMILES COc1cc(-c2oc3cc(O)cc(O)c3c(=O)c2O)ccc1O
REMARK SMILES IDX 6 1 18 2 16 3 17 4 15 5 13 6 12 7 10 8 9 9 8 10 7 11 5 12
REMARK SMILES IDX 3 13 22 14 4 15 21 16 20 17 2 18 1 19 23 20 19 22 14 24
REMARK SMILES IDX 11 26
REMARK H PARENT 23 21 19 23 14 25 11 27
REMARK Flexibility Score: inf
ROOT
ATOM      1  C   UNL     1      14.172 -17.019  20.124  1.00  0.00     0.180 A 
ATOM      2  C   UNL     1      14.935 -17.674  21.105  1.00  0.00     0.208 A 
ATOM      3  C   UNL     1      16.181 -17.137  21.470  1.00  0.00     0.238 A 
ATOM      4  O   UNL     1      16.835 -17.698  22.387  1.00  0.00    -0.285 OA
ATOM      5  C   UNL     1      16.654 -15.963  20.835  1.00  0.00     0.111 A 
ATOM      6  C   UNL     1      17.919 -15.356  21.097  1.00  0.00     0.134 A 
ATOM      7  C   UNL     1      18.227 -14.123  20.507  1.00  0.00     0.093 A 
ATOM      8  C   UNL     1      17.348 -13.510  19.617  1.00  0.00     0.123 A 
ATOM      9  C   UNL     1      16.134 -14.126  19.307  1.00  0.00     0.094 A 
ATOM     10  C   UNL     1      15.782 -15.337  19.908  1.00  0.00     0.146 A 
ATOM     11  O   UNL     1      14.613 -15.884  19.595  1.00  0.00    -0.452 OA
ENDROOT
BRANCH   1  12
ATOM     12  C   UNL     1      12.861 -17.538  19.670  1.00  0.00     0.025 A 
ATOM     13  C   UNL     1      10.580 -18.289  20.133  1.00  0.00     0.161 A 
ATOM     14  C   UNL     1      10.406 -18.577  18.771  1.00  0.00     0.157 A 
ATOM     15  C   UNL     1      11.814 -17.776  20.579  1.00  0.00     0.062 A 
ATOM     16  C   UNL     1      11.456 -18.363  17.869  1.00  0.00     0.051 A 
ATOM     17  C   UNL     1      12.676 -17.854  18.316  1.00  0.00     0.016 A 
BRANCH  13  18
ATOM     18  O   UNL     1       9.509 -18.529  21.008  1.00  0.00    -0.493 OA
ATOM     19  C   UNL     1       8.875 -17.531  21.800  1.00  0.00     0.278 C 
ENDBRANCH  13  18
BRANCH  14  20
ATOM     20  O   UNL     1       9.187 -19.083  18.324  1.00  0.00    -0.504 OA
ATOM     21  H   UNL     1       8.308 -18.783  18.728  1.00  0.00     0.293 HD
ENDBRANCH  14  20
ENDBRANCH   1  12
BRANCH   2  22
ATOM     22  O   UNL     1      14.439 -18.820  21.734  1.00  0.00    -0.502 OA
ATOM     23  H   UNL     1      14.552 -19.747  21.343  1.00  0.00     0.293 HD
ENDBRANCH   2  22
BRANCH   6  24
ATOM     24  O   UNL     1      18.910 -15.929  21.900  1.00  0.00    -0.507 OA
ATOM     25  H   UNL     1      19.606 -15.408  22.412  1.00  0.00     0.293 HD
ENDBRANCH   6  24
BRANCH   8  26
ATOM     26  O   UNL     1      17.695 -12.292  19.036  1.00  0.00    -0.508 OA
ATOM     27  H   UNL     1      17.002 -11.700  18.593  1.00  0.00     0.293 HD
ENDBRANCH   8  26
TORSDOF 6
ENDMDL
MODEL 4
REMARK VINA RESULT:    -4.898      2.383      4.856
REMARK INTER + INTRA:          -6.383
REMARK INTER:                  -5.999
REMARK INTRA:                  -0.384
REMARK UNBOUND:                -0.340
REMARK SMILES COc1cc(-c2oc3cc(O)cc(O)c3c(=O)c2O)ccc1O
REMARK SMILES IDX 6 1 18 2 16 3 17 4 15 5 13 6 12 7 10 8 9 9 8 10 7 11 5 12
REMARK SMILES IDX 3 13 22 14 4 15 21 16 20 17 2 18 1 19 23 20 19 22 14 24
REMARK SMILES IDX 11 26
REMARK H PARENT 23 21 19 23 14 25 11 27
REMARK Flexibility Score: inf
ROOT
ATOM      1  C   UNL     1      15.214  -6.220  12.715  1.00  0.00     0.180 A 
ATOM      2  C   UNL     1      15.235  -7.564  13.121  1.00  0.00     0.208 A 
ATOM      3  C   UNL     1      15.088  -8.571  12.153  1.00  0.00     0.238 A 
ATOM      4  O   UNL     1      15.163  -9.773  12.515  1.00  0.00    -0.285 OA
ATOM      5  C   UNL     1      14.904  -8.219  10.794  1.00  0.00     0.111 A 
ATOM      6  C   UNL     1      14.704  -9.155   9.736  1.00  0.00     0.134 A 
ATOM      7  C   UNL     1      14.664  -8.700   8.411  1.00  0.00     0.093 A 
ATOM      8  C   UNL     1      14.750  -7.342   8.112  1.00  0.00     0.123 A 
ATOM      9  C   UNL     1      14.885  -6.413   9.145  1.00  0.00     0.094 A 
ATOM     10  C   UNL     1      14.966  -6.838  10.473  1.00  0.00     0.146 A 
ATOM     11  O   UNL     1      15.106  -5.923  11.425  1.00  0.00    -0.452 OA
ENDROOT
BRANCH   1  12
ATOM     12  C   UNL     1      15.338  -5.103  13.681  1.00  0.00     0.025 A 
ATOM     13  C   UNL     1      14.369  -3.594  15.344  1.00  0.00     0.161 A 
ATOM     14  C   UNL     1      15.606  -2.943  15.462  1.00  0.00     0.157 A 
ATOM     15  C   UNL     1      14.239  -4.671  14.445  1.00  0.00     0.062 A 
ATOM     16  C   UNL     1      16.695  -3.358  14.686  1.00  0.00     0.051 A 
ATOM     17  C   UNL     1      16.561  -4.425  13.797  1.00  0.00     0.016 A 
BRANCH  13  18
ATOM     18  O   UNL     1      13.298  -3.141  16.130  1.00  0.00    -0.493 OA
ATOM     19  C   UNL     1      12.241  -2.315  15.654  1.00  0.00     0.278 C 
ENDBRANCH  13  18
BRANCH  14  20
ATOM     20  O   UNL     1      15.742  -1.879  16.352  1.00  0.00    -0.504 OA
ATOM     21  H   UNL     1      16.333  -1.945  17.173  1.00  0.00     0.293 HD
ENDBRANCH  14  20
ENDBRANCH   1  12
BRANCH   2  22
ATOM     22  O   UNL     1      15.440  -7.890  14.465  1.00  0.00    -0.502 OA
ATOM     23  H   UNL     1      14.754  -8.392  15.014  1.00  0.00     0.293 HD
ENDBRANCH   2  22
BRANCH   6  24
ATOM     24  O   UNL     1      14.513 -10.526   9.930  1.00  0.00    -0.507 OA
ATOM     25  H   UNL     1      13.696 -11.039   9.637  1.00  0.00     0.293 HD
ENDBRANCH   6  24
BRANCH   8  26
ATOM     26  O   UNL     1      14.690  -6.924   6.784  1.00  0.00    -0.508 OA
ATOM     27  H   UNL     1      15.524  -6.852   6.213  1.00  0.00     0.293 HD
ENDBRANCH   8  26
TORSDOF 6
ENDMDL
MODEL 5
REMARK VINA RESULT:    -4.872     10.616     14.283
REMARK INTER + INTRA:          -6.351
REMARK INTER:                  -6.054
REMARK INTRA:                  -0.297
REMARK UNBOUND:                -0.340
REMARK SMILES COc1cc(-c2oc3cc(O)cc(O)c3c(=O)c2O)ccc1O
REMARK SMILES IDX 6 1 18 2 16 3 17 4 15 5 13 6 12 7 10 8 9 9 8 10 7 11 5 12
REMARK SMILES IDX 3 13 22 14 4 15 21 16 20 17 2 18 1 19 23 20 19 22 14 24
REMARK SMILES IDX 11 26
REMARK H PARENT 23 21 19 23 14 25 11 27
REMARK Flexibility Score: inf
ROOT
ATOM      1  C   UNL     1      15.918 -14.188  19.921  1.00  0.00     0.180 A 
ATOM      2  C   UNL     1      15.948 -14.629  21.255  1.00  0.00     0.208 A 
ATOM      3  C   UNL     1      15.159 -15.731  21.625  1.00  0.00     0.238 A 
ATOM      4  O   UNL     1      15.232 -16.155  22.807  1.00  0.00    -0.285 OA
ATOM      5  C   UNL     1      14.337 -16.364  20.662  1.00  0.00     0.111 A 
ATOM      6  C   UNL     1      13.467 -17.461  20.936  1.00  0.00     0.134 A 
ATOM      7  C   UNL     1      12.799 -18.093  19.879  1.00  0.00     0.093 A 
ATOM      8  C   UNL     1      12.918 -17.627  18.571  1.00  0.00     0.123 A 
ATOM      9  C   UNL     1      13.719 -16.517  18.300  1.00  0.00     0.094 A 
ATOM     10  C   UNL     1      14.427 -15.889  19.328  1.00  0.00     0.146 A 
ATOM     11  O   UNL     1      15.188 -14.843  19.027  1.00  0.00    -0.452 OA
ENDROOT
BRANCH   1  12
ATOM     12  C   UNL     1      16.703 -13.019  19.462  1.00  0.00     0.025 A 
ATOM     13  C   UNL     1      16.838 -10.714  18.653  1.00  0.00     0.161 A 
ATOM     14  C   UNL     1      18.230 -10.843  18.540  1.00  0.00     0.157 A 
ATOM     15  C   UNL     1      16.077 -11.809  19.108  1.00  0.00     0.062 A 
ATOM     16  C   UNL     1      18.852 -12.053  18.870  1.00  0.00     0.051 A 
ATOM     17  C   UNL     1      18.094 -13.136  19.320  1.00  0.00     0.016 A 
BRANCH  13  18
ATOM     18  O   UNL     1      16.249  -9.489  18.302  1.00  0.00    -0.493 OA
ATOM     19  C   UNL     1      15.880  -8.476  19.231  1.00  0.00     0.278 C 
ENDBRANCH  13  18
BRANCH  14  20
ATOM     20  O   UNL     1      18.988  -9.762  18.093  1.00  0.00    -0.504 OA
ATOM     21  H   UNL     1      19.995  -9.822  18.003  1.00  0.00     0.293 HD
ENDBRANCH  14  20
ENDBRANCH   1  12
BRANCH   2  22
ATOM     22  O   UNL     1      16.783 -14.004  22.185  1.00  0.00    -0.502 OA
ATOM     23  H   UNL     1      17.120 -13.057  22.063  1.00  0.00     0.293 HD
ENDBRANCH   2  22
BRANCH   6  24
ATOM     24  O   UNL     1      13.204 -17.948  22.220  1.00  0.00    -0.507 OA
ATOM     25  H   UNL     1      13.237 -17.394  23.062  1.00  0.00     0.293 HD
ENDBRANCH   6  24
BRANCH   8  26
ATOM     26  O   UNL     1      12.226 -18.270  17.546  1.00  0.00    -0.508 OA
ATOM     27  H   UNL     1      12.292 -17.957  16.585  1.00  0.00     0.293 HD
ENDBRANCH   8  26
TORSDOF 6
ENDMDL
MODEL 6
REMARK VINA RESULT:    -4.861      1.434      7.101
REMARK INTER + INTRA:          -6.338
REMARK INTER:                  -5.936
REMARK INTRA:                  -0.402
REMARK UNBOUND:                -0.340
REMARK SMILES COc1cc(-c2oc3cc(O)cc(O)c3c(=O)c2O)ccc1O
REMARK SMILES IDX 6 1 18 2 16 3 17 4 15 5 13 6 12 7 10 8 9 9 8 10 7 11 5 12
REMARK SMILES IDX 3 13 22 14 4 15 21 16 20 17 2 18 1 19 23 20 19 22 14 24
REMARK SMILES IDX 11 26
REMARK H PARENT 23 21 19 23 14 25 11 27
REMARK Flexibility Score: inf
ROOT
ATOM      1  C   UNL     1      15.239  -6.921   9.893  1.00  0.00     0.180 A 
ATOM      2  C   UNL     1      15.208  -8.238  10.380  1.00  0.00     0.208 A 
ATOM      3  C   UNL     1      15.212  -8.451  11.768  1.00  0.00     0.238 A 
ATOM      4  O   UNL     1      15.130  -9.630  12.198  1.00  0.00    -0.285 OA
ATOM      5  C   UNL     1      15.264  -7.344  12.650  1.00  0.00     0.111 A 
ATOM      6  C   UNL     1      15.314  -7.445  14.072  1.00  0.00     0.134 A 
ATOM      7  C   UNL     1      15.231  -6.282  14.850  1.00  0.00     0.093 A 
ATOM      8  C   UNL     1      15.166  -5.023  14.257  1.00  0.00     0.123 A 
ATOM      9  C   UNL     1      15.178  -4.910  12.866  1.00  0.00     0.094 A 
ATOM     10  C   UNL     1      15.222  -6.053  12.064  1.00  0.00     0.146 A 
ATOM     11  O   UNL     1      15.221  -5.902  10.745  1.00  0.00    -0.452 OA
ENDROOT
BRANCH   1  12
ATOM     12  C   UNL     1      15.261  -6.618   8.443  1.00  0.00     0.025 A 
ATOM     13  C   UNL     1      16.474  -6.096   6.384  1.00  0.00     0.161 A 
ATOM     14  C   UNL     1      15.254  -5.991   5.700  1.00  0.00     0.157 A 
ATOM     15  C   UNL     1      16.472  -6.403   7.759  1.00  0.00     0.062 A 
ATOM     16  C   UNL     1      14.047  -6.182   6.385  1.00  0.00     0.051 A 
ATOM     17  C   UNL     1      14.050  -6.486   7.747  1.00  0.00     0.016 A 
BRANCH  13  18
ATOM     18  O   UNL     1      17.662  -5.886   5.666  1.00  0.00    -0.493 OA
ATOM     19  C   UNL     1      18.541  -4.784   5.866  1.00  0.00     0.278 C 
ENDBRANCH  13  18
BRANCH  14  20
ATOM     20  O   UNL     1      15.250  -5.690   4.339  1.00  0.00    -0.504 OA
ATOM     21  H   UNL     1      15.146  -6.412   3.636  1.00  0.00     0.293 HD
ENDBRANCH  14  20
ENDBRANCH   1  12
BRANCH   2  22
ATOM     22  O   UNL     1      15.135  -9.315   9.492  1.00  0.00    -0.502 OA
ATOM     23  H   UNL     1      14.321  -9.914   9.429  1.00  0.00     0.293 HD
ENDBRANCH   2  22
BRANCH   6  24
ATOM     24  O   UNL     1      15.471  -8.649  14.766  1.00  0.00    -0.507 OA
ATOM     25  H   UNL     1      14.711  -9.233  15.081  1.00  0.00     0.293 HD
ENDBRANCH   6  24
BRANCH   8  26
ATOM     26  O   UNL     1      15.101  -3.886  15.061  1.00  0.00    -0.508 OA
ATOM     27  H   UNL     1      14.898  -3.949  16.051  1.00  0.00     0.293 HD
ENDBRANCH   8  26
TORSDOF 6
ENDMDL
MODEL 7
REMARK VINA RESULT:    -4.794      4.443      7.010
REMARK INTER + INTRA:          -6.255
REMARK INTER:                  -5.889
REMARK INTRA:                  -0.366
REMARK UNBOUND:                -0.340
REMARK SMILES COc1cc(-c2oc3cc(O)cc(O)c3c(=O)c2O)ccc1O
REMARK SMILES IDX 6 1 18 2 16 3 17 4 15 5 13 6 12 7 10 8 9 9 8 10 7 11 5 12
REMARK SMILES IDX 3 13 22 14 4 15 21 16 20 17 2 18 1 19 23 20 19 22 14 24
REMARK SMILES IDX 11 26
REMARK H PARENT 23 21 19 23 14 25 11 27
REMARK Flexibility Score: inf
ROOT
ATOM      1  C   UNL     1      14.450 -10.926  11.300  1.00  0.00     0.180 A 
ATOM      2  C   UNL     1      14.500 -10.373  10.009  1.00  0.00     0.208 A 
ATOM      3  C   UNL     1      14.725  -8.994   9.868  1.00  0.00     0.238 A 
ATOM      4  O   UNL     1      14.822  -8.513   8.709  1.00  0.00    -0.285 OA
ATOM      5  C   UNL     1      14.880  -8.184  11.019  1.00  0.00     0.111 A 
ATOM      6  C   UNL     1      15.071  -6.770  10.994  1.00  0.00     0.134 A 
ATOM      7  C   UNL     1      15.344  -6.089  12.188  1.00  0.00     0.093 A 
ATOM      8  C   UNL     1      15.366  -6.758  13.409  1.00  0.00     0.123 A 
ATOM      9  C   UNL     1      15.121  -8.132  13.452  1.00  0.00     0.094 A 
ATOM     10  C   UNL     1      14.883  -8.844  12.274  1.00  0.00     0.146 A 
ATOM     11  O   UNL     1      14.665 -10.152  12.358  1.00  0.00    -0.452 OA
ENDROOT
BRANCH   1  12
ATOM     12  C   UNL     1      14.193 -12.367  11.530  1.00  0.00     0.025 A 
ATOM     13  C   UNL     1      14.944 -14.694  11.579  1.00  0.00     0.161 A 
ATOM     14  C   UNL     1      13.645 -15.098  11.921  1.00  0.00     0.157 A 
ATOM     15  C   UNL     1      15.211 -13.326  11.377  1.00  0.00     0.062 A 
ATOM     16  C   UNL     1      12.625 -14.147  12.051  1.00  0.00     0.051 A 
ATOM     17  C   UNL     1      12.895 -12.792  11.850  1.00  0.00     0.016 A 
BRANCH  13  18
ATOM     18  O   UNL     1      15.936 -15.678  11.446  1.00  0.00    -0.493 OA
ATOM     19  C   UNL     1      16.392 -16.201  10.203  1.00  0.00     0.278 C 
ENDBRANCH  13  18
BRANCH  14  20
ATOM     20  O   UNL     1      13.375 -16.450  12.125  1.00  0.00    -0.504 OA
ATOM     21  H   UNL     1      13.780 -17.167  11.535  1.00  0.00     0.293 HD
ENDBRANCH  14  20
ENDBRANCH   1  12
BRANCH   2  22
ATOM     22  O   UNL     1      14.366 -11.194   8.886  1.00  0.00    -0.502 OA
ATOM     23  H   UNL     1      13.494 -11.647   8.644  1.00  0.00     0.293 HD
ENDBRANCH   2  22
BRANCH   6  24
ATOM     24  O   UNL     1      14.977  -5.989   9.838  1.00  0.00    -0.507 OA
ATOM     25  H   UNL     1      14.112  -5.691   9.415  1.00  0.00     0.293 HD
ENDBRANCH   6  24
BRANCH   8  26
ATOM     26  O   UNL     1      15.625  -6.047  14.579  1.00  0.00    -0.508 OA
ATOM     27  H   UNL     1      16.268  -6.395  15.280  1.00  0.00     0.293 HD
ENDBRANCH   8  26
TORSDOF 6
ENDMDL
MODEL 8
REMARK VINA RESULT:    -4.774     10.063     13.557
REMARK INTER + INTRA:          -6.230
REMARK INTER:                  -5.946
REMARK INTRA:                  -0.284
REMARK UNBOUND:                -0.340
REMARK SMILES COc1cc(-c2oc3cc(O)cc(O)c3c(=O)c2O)ccc1O
REMARK SMILES IDX 6 1 18 2 16 3 17 4 15 5 13 6 12 7 10 8 9 9 8 10 7 11 5 12
REMARK SMILES IDX 3 13 22 14 4 15 21 16 20 17 2 18 1 19 23 20 19 22 14 24
REMARK SMILES IDX 11 26
REMARK H PARENT 23 21 19 23 14 25 11 27
REMARK Flexibility Score: inf
ROOT
ATOM      1  C   UNL     1      17.412 -13.768  19.704  1.00  0.00     0.180 A 
ATOM      2  C   UNL     1      18.765 -13.573  20.025  1.00  0.00     0.208 A 
ATOM      3  C   UNL     1      19.341 -12.310  19.811  1.00  0.00     0.238 A 
ATOM      4  O   UNL     1      20.539 -12.127  20.150  1.00  0.00    -0.285 OA
ATOM      5  C   UNL     1      18.560 -11.264  19.262  1.00  0.00     0.111 A 
ATOM      6  C   UNL     1      19.051  -9.958  18.965  1.00  0.00     0.134 A 
ATOM      7  C   UNL     1      18.157  -8.963  18.547  1.00  0.00     0.093 A 
ATOM      8  C   UNL     1      16.807  -9.244  18.352  1.00  0.00     0.123 A 
ATOM      9  C   UNL     1      16.327 -10.535  18.582  1.00  0.00     0.094 A 
ATOM     10  C   UNL     1      17.187 -11.538  19.035  1.00  0.00     0.146 A 
ATOM     11  O   UNL     1      16.688 -12.750  19.253  1.00  0.00    -0.452 OA
ENDROOT
BRANCH   1  12
ATOM     12  C   UNL     1      16.742 -15.078  19.879  1.00  0.00     0.025 A 
ATOM     13  C   UNL     1      15.849 -16.851  21.307  1.00  0.00     0.161 A 
ATOM     14  C   UNL     1      15.518 -17.595  20.164  1.00  0.00     0.157 A 
ATOM     15  C   UNL     1      16.468 -15.595  21.158  1.00  0.00     0.062 A 
ATOM     16  C   UNL     1      15.811 -17.091  18.891  1.00  0.00     0.051 A 
ATOM     17  C   UNL     1      16.424 -15.846  18.749  1.00  0.00     0.016 A 
BRANCH  13  18
ATOM     18  O   UNL     1      15.551 -17.395  22.567  1.00  0.00    -0.493 OA
ATOM     19  C   UNL     1      14.392 -17.074  23.330  1.00  0.00     0.278 C 
ENDBRANCH  13  18
BRANCH  14  20
ATOM     20  O   UNL     1      14.903 -18.837  20.305  1.00  0.00    -0.504 OA
ATOM     21  H   UNL     1      13.894 -18.935  20.294  1.00  0.00     0.293 HD
ENDBRANCH  14  20
ENDBRANCH   1  12
BRANCH   2  22
ATOM     22  O   UNL     1      19.512 -14.613  20.586  1.00  0.00    -0.502 OA
ATOM     23  H   UNL     1      20.211 -14.457  21.301  1.00  0.00     0.293 HD
ENDBRANCH   2  22
BRANCH   6  24
ATOM     24  O   UNL     1      20.400  -9.595  19.037  1.00  0.00    -0.507 OA
ATOM     25  H   UNL     1      20.836  -9.163  19.837  1.00  0.00     0.293 HD
ENDBRANCH   6  24
BRANCH   8  26
ATOM     26  O   UNL     1      15.949  -8.235  17.920  1.00  0.00    -0.508 OA
ATOM     27  H   UNL     1      15.158  -8.432  17.319  1.00  0.00     0.293 HD
ENDBRANCH   8  26
TORSDOF 6
ENDMDL
MODEL 9
REMARK VINA RESULT:    -4.757     12.361     14.836
REMARK INTER + INTRA:          -6.209
REMARK INTER:                  -5.973
REMARK INTRA:                  -0.236
REMARK UNBOUND:                -0.340
REMARK SMILES COc1cc(-c2oc3cc(O)cc(O)c3c(=O)c2O)ccc1O
REMARK SMILES IDX 6 1 18 2 16 3 17 4 15 5 13 6 12 7 10 8 9 9 8 10 7 11 5 12
REMARK SMILES IDX 3 13 22 14 4 15 21 16 20 17 2 18 1 19 23 20 19 22 14 24
REMARK SMILES IDX 11 26
REMARK H PARENT 23 21 19 23 14 25 11 27
REMARK Flexibility Score: inf
ROOT
ATOM      1  C   UNL     1      25.120 -12.666  17.934  1.00  0.00     0.180 A 
ATOM      2  C   UNL     1      25.491 -11.759  18.941  1.00  0.00     0.208 A 
ATOM      3  C   UNL     1      25.951 -10.484  18.572  1.00  0.00     0.238 A 
ATOM      4  O   UNL     1      26.230  -9.658  19.479  1.00  0.00    -0.285 OA
ATOM      5  C   UNL     1      26.051 -10.141  17.202  1.00  0.00     0.111 A 
ATOM      6  C   UNL     1      26.543  -8.893  16.715  1.00  0.00     0.134 A 
ATOM      7  C   UNL     1      26.474  -8.612  15.344  1.00  0.00     0.093 A 
ATOM      8  C   UNL     1      25.994  -9.557  14.438  1.00  0.00     0.123 A 
ATOM      9  C   UNL     1      25.567 -10.803  14.898  1.00  0.00     0.094 A 
ATOM     10  C   UNL     1      25.588 -11.098  16.264  1.00  0.00     0.146 A 
ATOM     11  O   UNL     1      25.162 -12.292  16.661  1.00  0.00    -0.452 OA
ENDROOT
BRANCH   1  12
ATOM     12  C   UNL     1      24.648 -14.036  18.244  1.00  0.00     0.025 A 
ATOM     13  C   UNL     1      24.918 -16.465  18.149  1.00  0.00     0.161 A 
ATOM     14  C   UNL     1      23.688 -16.620  18.805  1.00  0.00     0.157 A 
ATOM     15  C   UNL     1      25.391 -15.169  17.865  1.00  0.00     0.062 A 
ATOM     16  C   UNL     1      22.937 -15.494  19.163  1.00  0.00     0.051 A 
ATOM     17  C   UNL     1      23.409 -14.212  18.879  1.00  0.00     0.016 A 
BRANCH  13  18
ATOM     18  O   UNL     1      25.636 -17.619  17.796  1.00  0.00    -0.493 OA
ATOM     19  C   UNL     1      26.837 -17.618  17.031  1.00  0.00     0.278 C 
ENDBRANCH  13  18
BRANCH  14  20
ATOM     20  O   UNL     1      23.216 -17.900  19.091  1.00  0.00    -0.504 OA
ATOM     21  H   UNL     1      23.809 -18.600  19.521  1.00  0.00     0.293 HD
ENDBRANCH  14  20
ENDBRANCH   1  12
BRANCH   2  22
ATOM     22  O   UNL     1      25.363 -12.111  20.287  1.00  0.00    -0.502 OA
ATOM     23  H   UNL     1      26.060 -11.869  20.981  1.00  0.00     0.293 HD
ENDBRANCH   2  22
BRANCH   6  24
ATOM     24  O   UNL     1      27.129  -7.914  17.523  1.00  0.00    -0.507 OA
ATOM     25  H   UNL     1      26.698  -7.513  18.342  1.00  0.00     0.293 HD
ENDBRANCH   6  24
BRANCH   8  26
ATOM     26  O   UNL     1      25.955  -9.250  13.080  1.00  0.00    -0.508 OA
ATOM     27  H   UNL     1      26.514  -8.500  12.689  1.00  0.00     0.293 HD
ENDBRANCH   8  26
TORSDOF 6
ENDMDL
