MODEL 1
REMARK VINA RESULT:    -5.207      0.000      0.000
REMARK INTER + INTRA:         -10.167
REMARK INTER:                  -9.165
REMARK INTRA:                  -1.002
REMARK UNBOUND:                -1.002
REMARK SMILES CCCCCCC=CCCCCCCCC(=O)[O-]
REMARK SMILES IDX 10 1 11 2 12 3 13 4 14 5 15 6 16 7 17 8 18 9 9 10 8 11 7 12
REMARK SMILES IDX 6 13 5 14 4 15 3 16 2 17 1 18
REMARK H PARENT
REMARK Flexibility Score: inf
ROOT
ATOM      1  C   UNL     1      20.287  41.245   1.084  1.00  0.00     0.004 C 
ENDROOT
BRANCH   1   2
ATOM      2  C   UNL     1      18.962  42.031   1.101  1.00  0.00     0.000 C 
BRANCH   2   3
ATOM      3  C   UNL     1      18.024  41.636   2.261  1.00  0.00     0.000 C 
BRANCH   3   4
ATOM      4  C   UNL     1      18.383  42.360   3.570  1.00  0.00     0.000 C 
BRANCH   4   5
ATOM      5  C   UNL     1      18.510  41.400   4.767  1.00  0.00     0.006 C 
BRANCH   5   6
ATOM      6  C   UNL     1      19.292  40.112   4.464  1.00  0.00     0.053 C 
BRANCH   6   7
ATOM      7  C   UNL     1      18.946  39.010   5.420  1.00  0.00     0.041 C 
ATOM      8  O   UNL     1      18.823  39.254   6.650  1.00  0.00    -0.550 OA
ATOM      9  O   UNL     1      18.789  37.710   4.956  1.00  0.00    -0.550 OA
ENDBRANCH   6   7
ENDBRANCH   5   6
ENDBRANCH   4   5
ENDBRANCH   3   4
ENDBRANCH   2   3
ENDBRANCH   1   2
BRANCH   1  10
ATOM     10  C   UNL     1      21.545  42.130   1.090  1.00  0.00     0.027 C 
BRANCH  10  11
ATOM     11  C   UNL     1      22.814  41.331   0.949  1.00  0.00    -0.031 C 
ATOM     12  C   UNL     1      22.795  39.998   0.795  1.00  0.00    -0.031 C 
BRANCH  12  13
ATOM     13  C   UNL     1      24.066  39.208   0.644  1.00  0.00     0.027 C 
BRANCH  13  14
ATOM     14  C   UNL     1      24.250  38.234   1.818  1.00  0.00     0.004 C 
BRANCH  14  15
ATOM     15  C   UNL     1      23.677  36.840   1.523  1.00  0.00     0.000 C 
BRANCH  15  16
ATOM     16  C   UNL     1      24.766  35.817   1.153  1.00  0.00    -0.000 C 
BRANCH  16  17
ATOM     17  C   UNL     1      24.494  35.129  -0.194  1.00  0.00    -0.003 C 
ATOM     18  C   UNL     1      23.015  35.150  -0.580  1.00  0.00     0.004 C 
ENDBRANCH  16  17
ENDBRANCH  15  16
ENDBRANCH  14  15
ENDBRANCH  13  14
ENDBRANCH  12  13
ENDBRANCH  10  11
ENDBRANCH   1  10
TORSDOF 13
ENDMDL
MODEL 2
REMARK VINA RESULT:    -5.170      1.414      2.010
REMARK INTER + INTRA:         -10.102
REMARK INTER:                  -8.505
REMARK INTRA:                  -1.597
REMARK UNBOUND:                -1.002
REMARK SMILES CCCCCCC=CCCCCCCCC(=O)[O-]
REMARK SMILES IDX 10 1 11 2 12 3 13 4 14 5 15 6 16 7 17 8 18 9 9 10 8 11 7 12
REMARK SMILES IDX 6 13 5 14 4 15 3 16 2 17 1 18
REMARK H PARENT
REMARK Flexibility Score: inf
ROOT
ATOM      1  C   UNL     1      21.499  41.532   0.326  1.00  0.00     0.004 C 
ENDROOT
BRANCH   1   2
ATOM      2  C   UNL     1      20.607  42.316   1.309  1.00  0.00     0.000 C 
BRANCH   2   3
ATOM      3  C   UNL     1      19.096  42.098   1.081  1.00  0.00     0.000 C 
BRANCH   3   4
ATOM      4  C   UNL     1      18.350  41.791   2.391  1.00  0.00     0.000 C 
BRANCH   4   5
ATOM      5  C   UNL     1      18.810  40.475   3.045  1.00  0.00     0.006 C 
BRANCH   5   6
ATOM      6  C   UNL     1      19.471  40.650   4.421  1.00  0.00     0.053 C 
BRANCH   6   7
ATOM      7  C   UNL     1      18.473  40.562   5.536  1.00  0.00     0.041 C 
ATOM      8  O   UNL     1      18.405  39.524   6.245  1.00  0.00    -0.550 OA
ATOM      9  O   UNL     1      17.598  41.615   5.771  1.00  0.00    -0.550 OA
ENDBRANCH   6   7
ENDBRANCH   5   6
ENDBRANCH   4   5
ENDBRANCH   3   4
ENDBRANCH   2   3
ENDBRANCH   1   2
BRANCH   1  10
ATOM     10  C   UNL     1      22.601  40.699   1.002  1.00  0.00     0.027 C 
BRANCH  10  11
ATOM     11  C   UNL     1      22.049  39.532   1.776  1.00  0.00    -0.031 C 
ATOM     12  C   UNL     1      22.702  39.008   2.825  1.00  0.00    -0.031 C 
BRANCH  12  13
ATOM     13  C   UNL     1      22.140  37.849   3.600  1.00  0.00     0.027 C 
BRANCH  13  14
ATOM     14  C   UNL     1      22.978  36.581   3.377  1.00  0.00     0.004 C 
BRANCH  14  15
ATOM     15  C   UNL     1      24.324  36.876   2.697  1.00  0.00     0.000 C 
BRANCH  15  16
ATOM     16  C   UNL     1      24.536  36.047   1.418  1.00  0.00    -0.000 C 
BRANCH  16  17
ATOM     17  C   UNL     1      23.382  36.204   0.416  1.00  0.00    -0.003 C 
ATOM     18  C   UNL     1      23.292  35.038  -0.568  1.00  0.00     0.004 C 
ENDBRANCH  16  17
ENDBRANCH  15  16
ENDBRANCH  14  15
ENDBRANCH  13  14
ENDBRANCH  12  13
ENDBRANCH  10  11
ENDBRANCH   1  10
TORSDOF 13
ENDMDL
MODEL 3
REMARK VINA RESULT:    -5.042      2.472      3.650
REMARK INTER + INTRA:          -9.876
REMARK INTER:                  -8.968
REMARK INTRA:                  -0.908
REMARK UNBOUND:                -1.002
REMARK SMILES CCCCCCC=CCCCCCCCC(=O)[O-]
REMARK SMILES IDX 10 1 11 2 12 3 13 4 14 5 15 6 16 7 17 8 18 9 9 10 8 11 7 12
REMARK SMILES IDX 6 13 5 14 4 15 3 16 2 17 1 18
REMARK H PARENT
REMARK Flexibility Score: inf
ROOT
ATOM      1  C   UNL     1      19.844  40.719   4.514  1.00  0.00     0.004 C 
ENDROOT
BRANCH   1   2
ATOM      2  C   UNL     1      20.020  39.193   4.644  1.00  0.00     0.000 C 
BRANCH   2   3
ATOM      3  C   UNL     1      18.983  38.530   5.576  1.00  0.00     0.000 C 
BRANCH   3   4
ATOM      4  C   UNL     1      18.582  37.126   5.091  1.00  0.00     0.000 C 
BRANCH   4   5
ATOM      5  C   UNL     1      19.761  36.135   5.091  1.00  0.00     0.006 C 
BRANCH   5   6
ATOM      6  C   UNL     1      19.521  34.866   5.923  1.00  0.00     0.053 C 
BRANCH   6   7
ATOM      7  C   UNL     1      18.353  34.076   5.415  1.00  0.00     0.041 C 
ATOM      8  O   UNL     1      17.365  33.853   6.163  1.00  0.00    -0.550 OA
ATOM      9  O   UNL     1      18.371  33.560   4.125  1.00  0.00    -0.550 OA
ENDBRANCH   6   7
ENDBRANCH   5   6
ENDBRANCH   4   5
ENDBRANCH   3   4
ENDBRANCH   2   3
ENDBRANCH   1   2
BRANCH   1  10
ATOM     10  C   UNL     1      20.884  41.397   3.606  1.00  0.00     0.027 C 
BRANCH  10  11
ATOM     11  C   UNL     1      21.642  40.411   2.758  1.00  0.00    -0.031 C 
ATOM     12  C   UNL     1      21.426  40.302   1.439  1.00  0.00    -0.031 C 
BRANCH  12  13
ATOM     13  C   UNL     1      22.195  39.322   0.595  1.00  0.00     0.027 C 
BRANCH  13  14
ATOM     14  C   UNL     1      23.199  38.532   1.449  1.00  0.00     0.004 C 
BRANCH  14  15
ATOM     15  C   UNL     1      23.074  37.014   1.251  1.00  0.00     0.000 C 
BRANCH  15  16
ATOM     16  C   UNL     1      24.433  36.294   1.312  1.00  0.00    -0.000 C 
BRANCH  16  17
ATOM     17  C   UNL     1      24.614  35.282   0.170  1.00  0.00    -0.003 C 
ATOM     18  C   UNL     1      23.321  35.025  -0.602  1.00  0.00     0.004 C 
ENDBRANCH  16  17
ENDBRANCH  15  16
ENDBRANCH  14  15
ENDBRANCH  13  14
ENDBRANCH  12  13
ENDBRANCH  10  11
ENDBRANCH   1  10
TORSDOF 13
ENDMDL
MODEL 4
REMARK VINA RESULT:    -5.039      3.563      7.430
REMARK INTER + INTRA:          -9.870
REMARK INTER:                  -8.453
REMARK INTRA:                  -1.417
REMARK UNBOUND:                -1.002
REMARK SMILES CCCCCCC=CCCCCCCCC(=O)[O-]
REMARK SMILES IDX 10 1 11 2 12 3 13 4 14 5 15 6 16 7 17 8 18 9 9 10 8 11 7 12
REMARK SMILES IDX 6 13 5 14 4 15 3 16 2 17 1 18
REMARK H PARENT
REMARK Flexibility Score: inf
ROOT
ATOM      1  C   UNL     1      23.068  40.222   1.318  1.00  0.00     0.004 C 
ENDROOT
BRANCH   1   2
ATOM      2  C   UNL     1      24.080  39.185   0.794  1.00  0.00     0.000 C 
BRANCH   2   3
ATOM      3  C   UNL     1      24.341  38.024   1.777  1.00  0.00     0.000 C 
BRANCH   3   4
ATOM      4  C   UNL     1      23.269  36.924   1.674  1.00  0.00     0.000 C 
BRANCH   4   5
ATOM      5  C   UNL     1      22.923  36.563   0.218  1.00  0.00     0.006 C 
BRANCH   5   6
ATOM      6  C   UNL     1      23.373  35.157  -0.209  1.00  0.00     0.053 C 
BRANCH   6   7
ATOM      7  C   UNL     1      24.830  35.117  -0.556  1.00  0.00     0.041 C 
ATOM      8  O   UNL     1      25.662  34.630   0.255  1.00  0.00    -0.550 OA
ATOM      9  O   UNL     1      25.272  35.646  -1.762  1.00  0.00    -0.550 OA
ENDBRANCH   6   7
ENDBRANCH   5   6
ENDBRANCH   4   5
ENDBRANCH   3   4
ENDBRANCH   2   3
ENDBRANCH   1   2
BRANCH   1  10
ATOM     10  C   UNL     1      21.940  40.557   0.328  1.00  0.00     0.027 C 
BRANCH  10  11
ATOM     11  C   UNL     1      21.278  41.875   0.631  1.00  0.00    -0.031 C 
ATOM     12  C   UNL     1      21.330  42.426   1.853  1.00  0.00    -0.031 C 
BRANCH  12  13
ATOM     13  C   UNL     1      20.676  43.748   2.147  1.00  0.00     0.027 C 
BRANCH  13  14
ATOM     14  C   UNL     1      19.824  43.668   3.423  1.00  0.00     0.004 C 
BRANCH  14  15
ATOM     15  C   UNL     1      18.730  42.593   3.335  1.00  0.00     0.000 C 
BRANCH  15  16
ATOM     16  C   UNL     1      17.576  42.997   2.400  1.00  0.00    -0.000 C 
BRANCH  16  17
ATOM     17  C   UNL     1      17.412  42.032   1.216  1.00  0.00    -0.003 C 
ATOM     18  C   UNL     1      17.842  40.605   1.553  1.00  0.00     0.004 C 
ENDBRANCH  16  17
ENDBRANCH  15  16
ENDBRANCH  14  15
ENDBRANCH  13  14
ENDBRANCH  12  13
ENDBRANCH  10  11
ENDBRANCH   1  10
TORSDOF 13
ENDMDL
MODEL 5
REMARK VINA RESULT:    -5.017      3.176      6.713
REMARK INTER + INTRA:          -9.832
REMARK INTER:                  -8.053
REMARK INTRA:                  -1.779
REMARK UNBOUND:                -1.002
REMARK SMILES CCCCCCC=CCCCCCCCC(=O)[O-]
REMARK SMILES IDX 10 1 11 2 12 3 13 4 14 5 15 6 16 7 17 8 18 9 9 10 8 11 7 12
REMARK SMILES IDX 6 13 5 14 4 15 3 16 2 17 1 18
REMARK H PARENT
REMARK Flexibility Score: inf
ROOT
ATOM      1  C   UNL     1      21.874  40.150   0.669  1.00  0.00     0.004 C 
ENDROOT
BRANCH   1   2
ATOM      2  C   UNL     1      23.269  40.131   1.325  1.00  0.00     0.000 C 
BRANCH   2   3
ATOM      3  C   UNL     1      24.120  38.904   0.935  1.00  0.00     0.000 C 
BRANCH   3   4
ATOM      4  C   UNL     1      24.546  38.079   2.161  1.00  0.00     0.000 C 
BRANCH   4   5
ATOM      5  C   UNL     1      24.233  36.579   2.009  1.00  0.00     0.006 C 
BRANCH   5   6
ATOM      6  C   UNL     1      23.300  36.243   0.835  1.00  0.00     0.053 C 
BRANCH   6   7
ATOM      7  C   UNL     1      23.920  35.257  -0.108  1.00  0.00     0.041 C 
ATOM      8  O   UNL     1      25.092  34.840   0.091  1.00  0.00    -0.550 OA
ATOM      9  O   UNL     1      23.215  34.823  -1.223  1.00  0.00    -0.550 OA
ENDBRANCH   6   7
ENDBRANCH   5   6
ENDBRANCH   4   5
ENDBRANCH   3   4
ENDBRANCH   2   3
ENDBRANCH   1   2
BRANCH   1  10
ATOM     10  C   UNL     1      21.349  41.558   0.345  1.00  0.00     0.027 C 
BRANCH  10  11
ATOM     11  C   UNL     1      20.253  41.995   1.280  1.00  0.00    -0.031 C 
ATOM     12  C   UNL     1      20.506  42.753   2.358  1.00  0.00    -0.031 C 
BRANCH  12  13
ATOM     13  C   UNL     1      19.405  43.195   3.282  1.00  0.00     0.027 C 
BRANCH  13  14
ATOM     14  C   UNL     1      18.406  42.055   3.532  1.00  0.00     0.004 C 
BRANCH  14  15
ATOM     15  C   UNL     1      18.886  41.078   4.616  1.00  0.00     0.000 C 
BRANCH  15  16
ATOM     16  C   UNL     1      19.195  39.678   4.056  1.00  0.00    -0.000 C 
BRANCH  16  17
ATOM     17  C   UNL     1      20.687  39.325   4.144  1.00  0.00    -0.003 C 
ATOM     18  C   UNL     1      21.491  40.351   4.942  1.00  0.00     0.004 C 
ENDBRANCH  16  17
ENDBRANCH  15  16
ENDBRANCH  14  15
ENDBRANCH  13  14
ENDBRANCH  12  13
ENDBRANCH  10  11
ENDBRANCH   1  10
TORSDOF 13
ENDMDL
MODEL 6
REMARK VINA RESULT:    -5.005      1.925      2.902
REMARK INTER + INTRA:          -9.810
REMARK INTER:                  -7.827
REMARK INTRA:                  -1.983
REMARK UNBOUND:                -1.002
REMARK SMILES CCCCCCC=CCCCCCCCC(=O)[O-]
REMARK SMILES IDX 10 1 11 2 12 3 13 4 14 5 15 6 16 7 17 8 18 9 9 10 8 11 7 12
REMARK SMILES IDX 6 13 5 14 4 15 3 16 2 17 1 18
REMARK H PARENT
REMARK Flexibility Score: inf
ROOT
ATOM      1  C   UNL     1      23.234  41.498   1.200  1.00  0.00     0.004 C 
ENDROOT
BRANCH   1   2
ATOM      2  C   UNL     1      22.919  42.982   0.925  1.00  0.00     0.000 C 
BRANCH   2   3
ATOM      3  C   UNL     1      21.598  43.462   1.564  1.00  0.00     0.000 C 
BRANCH   3   4
ATOM      4  C   UNL     1      21.471  43.023   3.033  1.00  0.00     0.000 C 
BRANCH   4   5
ATOM      5  C   UNL     1      20.049  42.557   3.395  1.00  0.00     0.006 C 
BRANCH   5   6
ATOM      6  C   UNL     1      19.184  42.168   2.186  1.00  0.00     0.053 C 
BRANCH   6   7
ATOM      7  C   UNL     1      18.558  40.817   2.359  1.00  0.00     0.041 C 
ATOM      8  O   UNL     1      18.887  40.085   3.330  1.00  0.00    -0.550 OA
ATOM      9  O   UNL     1      17.634  40.355   1.430  1.00  0.00    -0.550 OA
ENDBRANCH   6   7
ENDBRANCH   5   6
ENDBRANCH   4   5
ENDBRANCH   3   4
ENDBRANCH   2   3
ENDBRANCH   1   2
BRANCH   1  10
ATOM     10  C   UNL     1      22.209  40.517   0.609  1.00  0.00     0.027 C 
BRANCH  10  11
ATOM     11  C   UNL     1      21.927  39.355   1.524  1.00  0.00    -0.031 C 
ATOM     12  C   UNL     1      22.406  39.311   2.777  1.00  0.00    -0.031 C 
BRANCH  12  13
ATOM     13  C   UNL     1      22.112  38.152   3.689  1.00  0.00     0.027 C 
BRANCH  13  14
ATOM     14  C   UNL     1      22.695  36.847   3.125  1.00  0.00     0.004 C 
BRANCH  14  15
ATOM     15  C   UNL     1      24.224  36.895   2.989  1.00  0.00     0.000 C 
BRANCH  15  16
ATOM     16  C   UNL     1      24.729  36.191   1.717  1.00  0.00    -0.000 C 
BRANCH  16  17
ATOM     17  C   UNL     1      23.783  36.386   0.522  1.00  0.00    -0.003 C 
ATOM     18  C   UNL     1      23.601  35.112  -0.302  1.00  0.00     0.004 C 
ENDBRANCH  16  17
ENDBRANCH  15  16
ENDBRANCH  14  15
ENDBRANCH  13  14
ENDBRANCH  12  13
ENDBRANCH  10  11
ENDBRANCH   1  10
TORSDOF 13
ENDMDL
MODEL 7
REMARK VINA RESULT:    -4.959      2.157      2.474
REMARK INTER + INTRA:          -9.730
REMARK INTER:                  -7.805
REMARK INTRA:                  -1.925
REMARK UNBOUND:                -1.002
REMARK SMILES CCCCCCC=CCCCCCCCC(=O)[O-]
REMARK SMILES IDX 10 1 11 2 12 3 13 4 14 5 15 6 16 7 17 8 18 9 9 10 8 11 7 12
REMARK SMILES IDX 6 13 5 14 4 15 3 16 2 17 1 18
REMARK H PARENT
REMARK Flexibility Score: inf
ROOT
ATOM      1  C   UNL     1      19.605  42.008   1.761  1.00  0.00     0.004 C 
ENDROOT
BRANCH   1   2
ATOM      2  C   UNL     1      18.922  42.795   2.897  1.00  0.00     0.000 C 
BRANCH   2   3
ATOM      3  C   UNL     1      18.545  41.922   4.113  1.00  0.00     0.000 C 
BRANCH   3   4
ATOM      4  C   UNL     1      19.255  40.557   4.090  1.00  0.00     0.000 C 
BRANCH   4   5
ATOM      5  C   UNL     1      20.600  40.572   4.840  1.00  0.00     0.006 C 
BRANCH   5   6
ATOM      6  C   UNL     1      21.525  39.391   4.505  1.00  0.00     0.053 C 
BRANCH   6   7
ATOM      7  C   UNL     1      22.972  39.761   4.629  1.00  0.00     0.041 C 
ATOM      8  O   UNL     1      23.359  40.917   4.312  1.00  0.00    -0.550 OA
ATOM      9  O   UNL     1      23.896  38.820   5.064  1.00  0.00    -0.550 OA
ENDBRANCH   6   7
ENDBRANCH   5   6
ENDBRANCH   4   5
ENDBRANCH   3   4
ENDBRANCH   2   3
ENDBRANCH   1   2
BRANCH   1  10
ATOM     10  C   UNL     1      21.046  42.455   1.463  1.00  0.00     0.027 C 
BRANCH  10  11
ATOM     11  C   UNL     1      21.940  41.305   1.083  1.00  0.00    -0.031 C 
ATOM     12  C   UNL     1      21.482  40.046   1.018  1.00  0.00    -0.031 C 
BRANCH  12  13
ATOM     13  C   UNL     1      22.378  38.903   0.627  1.00  0.00     0.027 C 
BRANCH  13  14
ATOM     14  C   UNL     1      23.834  39.185   1.027  1.00  0.00     0.004 C 
BRANCH  14  15
ATOM     15  C   UNL     1      24.494  37.989   1.730  1.00  0.00     0.000 C 
BRANCH  15  16
ATOM     16  C   UNL     1      23.715  36.678   1.525  1.00  0.00    -0.000 C 
BRANCH  16  17
ATOM     17  C   UNL     1      24.380  35.754   0.494  1.00  0.00    -0.003 C 
ATOM     18  C   UNL     1      23.368  35.072  -0.427  1.00  0.00     0.004 C 
ENDBRANCH  16  17
ENDBRANCH  15  16
ENDBRANCH  14  15
ENDBRANCH  13  14
ENDBRANCH  12  13
ENDBRANCH  10  11
ENDBRANCH   1  10
TORSDOF 13
ENDMDL
MODEL 8
REMARK VINA RESULT:    -4.958      7.458      8.909
REMARK INTER + INTRA:          -9.728
REMARK INTER:                  -8.933
REMARK INTRA:                  -0.795
REMARK UNBOUND:                -1.002
REMARK SMILES CCCCCCC=CCCCCCCCC(=O)[O-]
REMARK SMILES IDX 10 1 11 2 12 3 13 4 14 5 15 6 16 7 17 8 18 9 9 10 8 11 7 12
REMARK SMILES IDX 6 13 5 14 4 15 3 16 2 17 1 18
REMARK H PARENT
REMARK Flexibility Score: inf
ROOT
ATOM      1  C   UNL     1      26.725  37.210   8.122  1.00  0.00     0.004 C 
ENDROOT
BRANCH   1   2
ATOM      2  C   UNL     1      26.129  36.899   9.509  1.00  0.00     0.000 C 
BRANCH   2   3
ATOM      3  C   UNL     1      26.039  38.131  10.434  1.00  0.00     0.000 C 
BRANCH   3   4
ATOM      4  C   UNL     1      27.417  38.552  10.975  1.00  0.00     0.000 C 
BRANCH   4   5
ATOM      5  C   UNL     1      27.853  39.943  10.481  1.00  0.00     0.006 C 
BRANCH   5   6
ATOM      6  C   UNL     1      27.453  41.099  11.412  1.00  0.00     0.053 C 
BRANCH   6   7
ATOM      7  C   UNL     1      28.312  41.152  12.639  1.00  0.00     0.041 C 
ATOM      8  O   UNL     1      27.885  41.702  13.688  1.00  0.00    -0.550 OA
ATOM      9  O   UNL     1      29.596  40.622  12.612  1.00  0.00    -0.550 OA
ENDBRANCH   6   7
ENDBRANCH   5   6
ENDBRANCH   4   5
ENDBRANCH   3   4
ENDBRANCH   2   3
ENDBRANCH   1   2
BRANCH   1  10
ATOM     10  C   UNL     1      26.052  38.386   7.396  1.00  0.00     0.027 C 
BRANCH  10  11
ATOM     11  C   UNL     1      25.227  37.942   6.218  1.00  0.00    -0.031 C 
ATOM     12  C   UNL     1      24.677  38.824   5.369  1.00  0.00    -0.031 C 
BRANCH  12  13
ATOM     13  C   UNL     1      23.863  38.373   4.187  1.00  0.00     0.027 C 
BRANCH  13  14
ATOM     14  C   UNL     1      23.863  36.840   4.072  1.00  0.00     0.004 C 
BRANCH  14  15
ATOM     15  C   UNL     1      24.584  36.344   2.810  1.00  0.00     0.000 C 
BRANCH  15  16
ATOM     16  C   UNL     1      24.017  36.965   1.521  1.00  0.00    -0.000 C 
BRANCH  16  17
ATOM     17  C   UNL     1      23.397  35.915   0.585  1.00  0.00    -0.003 C 
ATOM     18  C   UNL     1      24.449  35.091  -0.156  1.00  0.00     0.004 C 
ENDBRANCH  16  17
ENDBRANCH  15  16
ENDBRANCH  14  15
ENDBRANCH  13  14
ENDBRANCH  12  13
ENDBRANCH  10  11
ENDBRANCH   1  10
TORSDOF 13
ENDMDL
MODEL 9
REMARK VINA RESULT:    -4.927      1.136      2.273
REMARK INTER + INTRA:          -9.673
REMARK INTER:                  -8.233
REMARK INTRA:                  -1.440
REMARK UNBOUND:                -1.002
REMARK SMILES CCCCCCC=CCCCCCCCC(=O)[O-]
REMARK SMILES IDX 10 1 11 2 12 3 13 4 14 5 15 6 16 7 17 8 18 9 9 10 8 11 7 12
REMARK SMILES IDX 6 13 5 14 4 15 3 16 2 17 1 18
REMARK H PARENT
REMARK Flexibility Score: inf
ROOT
ATOM      1  C   UNL     1      18.105  42.625   1.508  1.00  0.00     0.004 C 
ENDROOT
BRANCH   1   2
ATOM      2  C   UNL     1      17.478  43.367   2.705  1.00  0.00     0.000 C 
BRANCH   2   3
ATOM      3  C   UNL     1      18.451  43.567   3.886  1.00  0.00     0.000 C 
BRANCH   3   4
ATOM      4  C   UNL     1      18.117  42.649   5.075  1.00  0.00     0.000 C 
BRANCH   4   5
ATOM      5  C   UNL     1      19.122  41.495   5.238  1.00  0.00     0.006 C 
BRANCH   5   6
ATOM      6  C   UNL     1      18.479  40.138   5.569  1.00  0.00     0.053 C 
BRANCH   6   7
ATOM      7  C   UNL     1      19.317  38.991   5.089  1.00  0.00     0.041 C 
ATOM      8  O   UNL     1      18.831  37.830   5.035  1.00  0.00    -0.550 OA
ATOM      9  O   UNL     1      20.643  39.200   4.732  1.00  0.00    -0.550 OA
ENDBRANCH   6   7
ENDBRANCH   5   6
ENDBRANCH   4   5
ENDBRANCH   3   4
ENDBRANCH   2   3
ENDBRANCH   1   2
BRANCH   1  10
ATOM     10  C   UNL     1      18.107  41.093   1.647  1.00  0.00     0.027 C 
BRANCH  10  11
ATOM     11  C   UNL     1      19.498  40.517   1.668  1.00  0.00    -0.031 C 
ATOM     12  C   UNL     1      20.580  41.275   1.433  1.00  0.00    -0.031 C 
BRANCH  12  13
ATOM     13  C   UNL     1      21.967  40.695   1.467  1.00  0.00     0.027 C 
BRANCH  13  14
ATOM     14  C   UNL     1      22.047  39.411   0.626  1.00  0.00     0.004 C 
BRANCH  14  15
ATOM     15  C   UNL     1      23.305  38.585   0.931  1.00  0.00     0.000 C 
BRANCH  15  16
ATOM     16  C   UNL     1      23.013  37.078   1.041  1.00  0.00    -0.000 C 
BRANCH  16  17
ATOM     17  C   UNL     1      24.131  36.215   0.436  1.00  0.00    -0.003 C 
ATOM     18  C   UNL     1      23.594  35.079  -0.434  1.00  0.00     0.004 C 
ENDBRANCH  16  17
ENDBRANCH  15  16
ENDBRANCH  14  15
ENDBRANCH  13  14
ENDBRANCH  12  13
ENDBRANCH  10  11
ENDBRANCH   1  10
TORSDOF 13
ENDMDL
