MODEL 1
REMARK VINA RESULT:    -4.986      0.000      0.000
REMARK INTER + INTRA:          -9.082
REMARK INTER:                  -7.755
REMARK INTRA:                  -1.327
REMARK UNBOUND:                -1.327
REMARK SMILES COc1cc(CNC(=O)CCCCC=CC(C)C)ccc1O
REMARK SMILES IDX 11 1 12 2 13 3 14 4 15 5 16 6 17 7 18 8 10 9 8 10 9 11 7 12
REMARK SMILES IDX 6 14 5 15 4 16 19 17 3 18 20 19 21 20 2 21 1 22 22 23
REMARK H PARENT 7 13 22 24
REMARK Flexibility Score: inf
ROOT
ATOM      1  C   UNL     1     132.988 139.247 129.820  1.00  0.00     0.010 C 
ENDROOT
BRANCH   1   2
ATOM      2  C   UNL     1     131.475 139.058 129.624  1.00  0.00     0.005 C 
BRANCH   2   3
ATOM      3  C   UNL     1     131.093 137.590 129.385  1.00  0.00     0.027 C 
BRANCH   3   4
ATOM      4  C   UNL     1     131.966 136.682 130.210  1.00  0.00    -0.031 C 
ATOM      5  C   UNL     1     131.746 136.281 131.480  1.00  0.00    -0.028 C 
BRANCH   5   6
ATOM      6  C   UNL     1     130.633 136.710 132.423  1.00  0.00     0.005 C 
ATOM      7  C   UNL     1     130.977 137.946 133.263  1.00  0.00     0.012 C 
ATOM      8  C   UNL     1     130.102 135.548 133.275  1.00  0.00     0.012 C 
ENDBRANCH   5   6
ENDBRANCH   3   4
ENDBRANCH   2   3
ENDBRANCH   1   2
BRANCH   1   9
ATOM      9  C   UNL     1     133.318 140.106 131.047  1.00  0.00     0.100 C 
BRANCH   9  10
ATOM     10  C   UNL     1     134.513 139.550 131.760  1.00  0.00     0.220 C 
ATOM     11  O   UNL     1     134.389 138.505 132.457  1.00  0.00    -0.275 OA
ATOM     12  N   UNL     1     135.772 140.232 131.691  1.00  0.00    -0.352 N 
ATOM     13  H   UNL     1     135.867 141.063 131.064  1.00  0.00     0.163 HD
BRANCH  12  14
ATOM     14  C   UNL     1     136.913 139.852 132.520  1.00  0.00     0.151 C 
BRANCH  14  15
ATOM     15  C   UNL     1     137.891 139.040 131.713  1.00  0.00    -0.025 A 
ATOM     16  C   UNL     1     138.763 138.150 132.358  1.00  0.00     0.056 A 
ATOM     17  C   UNL     1     137.915 139.139 130.315  1.00  0.00     0.009 A 
ATOM     18  C   UNL     1     139.664 137.362 131.613  1.00  0.00     0.160 A 
ATOM     19  C   UNL     1     138.807 138.364 129.572  1.00  0.00     0.050 A 
ATOM     20  C   UNL     1     139.680 137.478 130.211  1.00  0.00     0.157 A 
BRANCH  18  21
ATOM     21  O   UNL     1     140.547 136.461 132.230  1.00  0.00    -0.493 OA
ATOM     22  C   UNL     1     140.189 135.159 132.682  1.00  0.00     0.278 C 
ENDBRANCH  18  21
BRANCH  20  23
ATOM     23  O   UNL     1     140.556 136.718 129.436  1.00  0.00    -0.504 OA
ATOM     24  H   UNL     1     141.560 136.846 129.473  1.00  0.00     0.293 HD
ENDBRANCH  20  23
ENDBRANCH  14  15
ENDBRANCH  12  14
ENDBRANCH   9  10
ENDBRANCH   1   9
TORSDOF 10
ENDMDL
MODEL 2
REMARK VINA RESULT:    -4.938      4.197      6.848
REMARK INTER + INTRA:          -9.007
REMARK INTER:                  -8.009
REMARK INTRA:                  -0.998
REMARK UNBOUND:                -1.327
REMARK SMILES COc1cc(CNC(=O)CCCCC=CC(C)C)ccc1O
REMARK SMILES IDX 11 1 12 2 13 3 14 4 15 5 16 6 17 7 18 8 10 9 8 10 9 11 7 12
REMARK SMILES IDX 6 14 5 15 4 16 19 17 3 18 20 19 21 20 2 21 1 22 22 23
REMARK H PARENT 7 13 22 24
REMARK Flexibility Score: inf
ROOT
ATOM      1  C   UNL     1     138.976 137.677 130.372  1.00  0.00     0.010 C 
ENDROOT
BRANCH   1   2
ATOM      2  C   UNL     1     139.094 139.066 129.723  1.00  0.00     0.005 C 
BRANCH   2   3
ATOM      3  C   UNL     1     137.746 139.796 129.649  1.00  0.00     0.027 C 
BRANCH   3   4
ATOM      4  C   UNL     1     136.716 139.077 130.481  1.00  0.00    -0.031 C 
ATOM      5  C   UNL     1     136.437 139.287 131.785  1.00  0.00    -0.028 C 
BRANCH   5   6
ATOM      6  C   UNL     1     137.140 140.218 132.760  1.00  0.00     0.005 C 
ATOM      7  C   UNL     1     138.041 139.493 133.766  1.00  0.00     0.012 C 
ATOM      8  C   UNL     1     136.175 141.203 133.435  1.00  0.00     0.012 C 
ENDBRANCH   5   6
ENDBRANCH   3   4
ENDBRANCH   2   3
ENDBRANCH   1   2
BRANCH   1   9
ATOM      9  C   UNL     1     140.055 137.432 131.434  1.00  0.00     0.100 C 
BRANCH   9  10
ATOM     10  C   UNL     1     139.805 136.130 132.133  1.00  0.00     0.220 C 
ATOM     11  O   UNL     1     139.362 136.136 133.315  1.00  0.00    -0.275 OA
ATOM     12  N   UNL     1     140.118 134.893 131.480  1.00  0.00    -0.352 N 
ATOM     13  H   UNL     1     140.431 134.908 130.483  1.00  0.00     0.163 HD
BRANCH  12  14
ATOM     14  C   UNL     1     140.085 133.610 132.179  1.00  0.00     0.151 C 
BRANCH  14  15
ATOM     15  C   UNL     1     139.196 132.644 131.442  1.00  0.00    -0.025 A 
ATOM     16  C   UNL     1     138.342 131.791 132.160  1.00  0.00     0.056 A 
ATOM     17  C   UNL     1     139.185 132.612 130.041  1.00  0.00     0.009 A 
ATOM     18  C   UNL     1     137.483 130.902 131.484  1.00  0.00     0.160 A 
ATOM     19  C   UNL     1     138.339 131.731 129.366  1.00  0.00     0.050 A 
ATOM     20  C   UNL     1     137.490 130.877 130.077  1.00  0.00     0.157 A 
BRANCH  18  21
ATOM     21  O   UNL     1     136.617 130.038 132.174  1.00  0.00    -0.493 OA
ATOM     22  C   UNL     1     135.327 130.400 132.655  1.00  0.00     0.278 C 
ENDBRANCH  18  21
BRANCH  20  23
ATOM     23  O   UNL     1     136.656 130.011 129.369  1.00  0.00    -0.504 OA
ATOM     24  H   UNL     1     137.019 129.242 128.817  1.00  0.00     0.293 HD
ENDBRANCH  20  23
ENDBRANCH  14  15
ENDBRANCH  12  14
ENDBRANCH   9  10
ENDBRANCH   1   9
TORSDOF 10
ENDMDL
MODEL 3
REMARK VINA RESULT:    -4.834      3.993      6.478
REMARK INTER + INTRA:          -8.845
REMARK INTER:                  -7.499
REMARK INTRA:                  -1.345
REMARK UNBOUND:                -1.327
REMARK SMILES COc1cc(CNC(=O)CCCCC=CC(C)C)ccc1O
REMARK SMILES IDX 11 1 12 2 13 3 14 4 15 5 16 6 17 7 18 8 10 9 8 10 9 11 7 12
REMARK SMILES IDX 6 14 5 15 4 16 19 17 3 18 20 19 21 20 2 21 1 22 22 23
REMARK H PARENT 7 13 22 24
REMARK Flexibility Score: inf
ROOT
ATOM      1  C   UNL     1     130.738 133.398 130.008  1.00  0.00     0.010 C 
ENDROOT
BRANCH   1   2
ATOM      2  C   UNL     1     131.320 132.097 129.432  1.00  0.00     0.005 C 
BRANCH   2   3
ATOM      3  C   UNL     1     132.787 132.249 129.007  1.00  0.00     0.027 C 
BRANCH   3   4
ATOM      4  C   UNL     1     133.632 131.181 129.653  1.00  0.00    -0.031 C 
ATOM      5  C   UNL     1     134.111 131.181 130.915  1.00  0.00    -0.028 C 
BRANCH   5   6
ATOM      6  C   UNL     1     134.006 132.279 131.962  1.00  0.00     0.005 C 
ATOM      7  C   UNL     1     135.247 133.176 132.042  1.00  0.00     0.012 C 
ATOM      8  C   UNL     1     133.576 131.744 133.335  1.00  0.00     0.012 C 
ENDBRANCH   5   6
ENDBRANCH   3   4
ENDBRANCH   2   3
ENDBRANCH   1   2
BRANCH   1   9
ATOM      9  C   UNL     1     130.496 133.314 131.521  1.00  0.00     0.100 C 
BRANCH   9  10
ATOM     10  C   UNL     1     130.874 134.607 132.177  1.00  0.00     0.220 C 
ATOM     11  O   UNL     1     131.600 134.590 133.208  1.00  0.00    -0.275 OA
ATOM     12  N   UNL     1     130.368 135.847 131.664  1.00  0.00    -0.352 N 
ATOM     13  H   UNL     1     129.814 135.844 130.778  1.00  0.00     0.163 HD
BRANCH  12  14
ATOM     14  C   UNL     1     130.537 137.113 132.374  1.00  0.00     0.151 C 
BRANCH  14  15
ATOM     15  C   UNL     1     131.447 138.024 131.595  1.00  0.00    -0.025 A 
ATOM     16  C   UNL     1     132.384 138.823 132.270  1.00  0.00     0.056 A 
ATOM     17  C   UNL     1     131.394 138.057 130.195  1.00  0.00     0.009 A 
ATOM     18  C   UNL     1     133.262 139.660 131.553  1.00  0.00     0.160 A 
ATOM     19  C   UNL     1     132.259 138.886 129.478  1.00  0.00     0.050 A 
ATOM     20  C   UNL     1     133.191 139.686 130.148  1.00  0.00     0.157 A 
BRANCH  18  21
ATOM     21  O   UNL     1     134.210 140.469 132.199  1.00  0.00    -0.493 OA
ATOM     22  C   UNL     1     135.139 140.006 133.174  1.00  0.00     0.278 C 
ENDBRANCH  18  21
BRANCH  20  23
ATOM     23  O   UNL     1     134.041 140.501 129.399  1.00  0.00    -0.504 OA
ATOM     24  H   UNL     1     134.366 141.398 129.738  1.00  0.00     0.293 HD
ENDBRANCH  20  23
ENDBRANCH  14  15
ENDBRANCH  12  14
ENDBRANCH   9  10
ENDBRANCH   1   9
TORSDOF 10
ENDMDL
MODEL 4
REMARK VINA RESULT:    -4.715      4.602      9.275
REMARK INTER + INTRA:          -8.659
REMARK INTER:                  -7.872
REMARK INTRA:                  -0.788
REMARK UNBOUND:                -1.327
REMARK SMILES COc1cc(CNC(=O)CCCCC=CC(C)C)ccc1O
REMARK SMILES IDX 11 1 12 2 13 3 14 4 15 5 16 6 17 7 18 8 10 9 8 10 9 11 7 12
REMARK SMILES IDX 6 14 5 15 4 16 19 17 3 18 20 19 21 20 2 21 1 22 22 23
REMARK H PARENT 7 13 22 24
REMARK Flexibility Score: inf
ROOT
ATOM      1  C   UNL     1     138.551 131.937 131.422  1.00  0.00     0.010 C 
ENDROOT
BRANCH   1   2
ATOM      2  C   UNL     1     139.297 132.836 130.423  1.00  0.00     0.005 C 
BRANCH   2   3
ATOM      3  C   UNL     1     138.563 134.158 130.161  1.00  0.00     0.027 C 
BRANCH   3   4
ATOM      4  C   UNL     1     139.347 135.009 129.196  1.00  0.00    -0.031 C 
ATOM      5  C   UNL     1     139.708 136.299 129.361  1.00  0.00    -0.028 C 
BRANCH   5   6
ATOM      6  C   UNL     1     139.343 137.240 130.499  1.00  0.00     0.005 C 
ATOM      7  C   UNL     1     139.141 138.694 130.057  1.00  0.00     0.012 C 
ATOM      8  C   UNL     1     140.296 137.115 131.696  1.00  0.00     0.012 C 
ENDBRANCH   5   6
ENDBRANCH   3   4
ENDBRANCH   2   3
ENDBRANCH   1   2
BRANCH   1   9
ATOM      9  C   UNL     1     137.393 131.170 130.771  1.00  0.00     0.100 C 
BRANCH   9  10
ATOM     10  C   UNL     1     136.105 131.492 131.465  1.00  0.00     0.220 C 
ATOM     11  O   UNL     1     136.019 132.545 132.155  1.00  0.00    -0.275 OA
ATOM     12  N   UNL     1     135.000 130.582 131.387  1.00  0.00    -0.352 N 
ATOM     13  H   UNL     1     135.073 129.744 130.766  1.00  0.00     0.163 HD
BRANCH  12  14
ATOM     14  C   UNL     1     133.796 130.742 132.200  1.00  0.00     0.151 C 
BRANCH  14  15
ATOM     15  C   UNL     1     132.774 131.558 131.455  1.00  0.00    -0.025 A 
ATOM     16  C   UNL     1     131.882 132.379 132.162  1.00  0.00     0.056 A 
ATOM     17  C   UNL     1     132.728 131.535 130.054  1.00  0.00     0.009 A 
ATOM     18  C   UNL     1     130.939 133.171 131.477  1.00  0.00     0.160 A 
ATOM     19  C   UNL     1     131.794 132.314 129.369  1.00  0.00     0.050 A 
ATOM     20  C   UNL     1     130.901 133.131 130.071  1.00  0.00     0.157 A 
BRANCH  18  21
ATOM     21  O   UNL     1     130.034 134.003 132.157  1.00  0.00    -0.493 OA
ATOM     22  C   UNL     1     130.389 135.212 132.820  1.00  0.00     0.278 C 
ENDBRANCH  18  21
BRANCH  20  23
ATOM     23  O   UNL     1     129.982 133.898 129.354  1.00  0.00    -0.504 OA
ATOM     24  H   UNL     1     129.987 134.910 129.379  1.00  0.00     0.293 HD
ENDBRANCH  20  23
ENDBRANCH  14  15
ENDBRANCH  12  14
ENDBRANCH   9  10
ENDBRANCH   1   9
TORSDOF 10
ENDMDL
MODEL 5
REMARK VINA RESULT:    -4.633      4.237      6.456
REMARK INTER + INTRA:          -8.532
REMARK INTER:                  -6.666
REMARK INTRA:                  -1.866
REMARK UNBOUND:                -1.327
REMARK SMILES COc1cc(CNC(=O)CCCCC=CC(C)C)ccc1O
REMARK SMILES IDX 11 1 12 2 13 3 14 4 15 5 16 6 17 7 18 8 10 9 8 10 9 11 7 12
REMARK SMILES IDX 6 14 5 15 4 16 19 17 3 18 20 19 21 20 2 21 1 22 22 23
REMARK H PARENT 7 13 22 24
REMARK Flexibility Score: inf
ROOT
ATOM      1  C   UNL     1     138.703 138.372 131.302  1.00  0.00     0.010 C 
ENDROOT
BRANCH   1   2
ATOM      2  C   UNL     1     138.468 138.880 129.871  1.00  0.00     0.005 C 
BRANCH   2   3
ATOM      3  C   UNL     1     137.268 138.201 129.196  1.00  0.00     0.027 C 
BRANCH   3   4
ATOM      4  C   UNL     1     137.593 136.765 128.875  1.00  0.00    -0.031 C 
ATOM      5  C   UNL     1     136.919 135.671 129.289  1.00  0.00    -0.028 C 
BRANCH   5   6
ATOM      6  C   UNL     1     135.739 135.597 130.245  1.00  0.00     0.005 C 
ATOM      7  C   UNL     1     135.832 134.446 131.253  1.00  0.00     0.012 C 
ATOM      8  C   UNL     1     134.388 135.636 129.517  1.00  0.00     0.012 C 
ENDBRANCH   5   6
ENDBRANCH   3   4
ENDBRANCH   2   3
ENDBRANCH   1   2
BRANCH   1   9
ATOM      9  C   UNL     1     139.898 137.414 131.396  1.00  0.00     0.100 C 
BRANCH   9  10
ATOM     10  C   UNL     1     139.479 136.128 132.041  1.00  0.00     0.220 C 
ATOM     11  O   UNL     1     138.517 136.128 132.858  1.00  0.00    -0.275 OA
ATOM     12  N   UNL     1     140.201 134.920 131.770  1.00  0.00    -0.352 N 
ATOM     13  H   UNL     1     140.958 134.930 131.049  1.00  0.00     0.163 HD
BRANCH  12  14
ATOM     14  C   UNL     1     139.968 133.685 132.516  1.00  0.00     0.151 C 
BRANCH  14  15
ATOM     15  C   UNL     1     139.151 132.729 131.689  1.00  0.00    -0.025 A 
ATOM     16  C   UNL     1     138.250 131.854 132.316  1.00  0.00     0.056 A 
ATOM     17  C   UNL     1     139.256 132.727 130.292  1.00  0.00     0.009 A 
ATOM     18  C   UNL     1     137.457 130.973 131.553  1.00  0.00     0.160 A 
ATOM     19  C   UNL     1     138.477 131.854 129.530  1.00  0.00     0.050 A 
ATOM     20  C   UNL     1     137.580 130.979 130.152  1.00  0.00     0.157 A 
BRANCH  18  21
ATOM     21  O   UNL     1     136.546 130.088 132.151  1.00  0.00    -0.493 OA
ATOM     22  C   UNL     1     135.320 130.479 132.761  1.00  0.00     0.278 C 
ENDBRANCH  18  21
BRANCH  20  23
ATOM     23  O   UNL     1     136.815 130.122 129.359  1.00  0.00    -0.504 OA
ATOM     24  H   UNL     1     135.893 130.374 129.025  1.00  0.00     0.293 HD
ENDBRANCH  20  23
ENDBRANCH  14  15
ENDBRANCH  12  14
ENDBRANCH   9  10
ENDBRANCH   1   9
TORSDOF 10
ENDMDL
MODEL 6
REMARK VINA RESULT:    -4.628      4.294      6.810
REMARK INTER + INTRA:          -8.524
REMARK INTER:                  -7.313
REMARK INTRA:                  -1.211
REMARK UNBOUND:                -1.327
REMARK SMILES COc1cc(CNC(=O)CCCCC=CC(C)C)ccc1O
REMARK SMILES IDX 11 1 12 2 13 3 14 4 15 5 16 6 17 7 18 8 10 9 8 10 9 11 7 12
REMARK SMILES IDX 6 14 5 15 4 16 19 17 3 18 20 19 21 20 2 21 1 22 22 23
REMARK H PARENT 7 13 22 24
REMARK Flexibility Score: inf
ROOT
ATOM      1  C   UNL     1     131.326 137.153 130.100  1.00  0.00     0.010 C 
ENDROOT
BRANCH   1   2
ATOM      2  C   UNL     1     131.259 138.542 129.445  1.00  0.00     0.005 C 
BRANCH   2   3
ATOM      3  C   UNL     1     132.271 139.525 130.049  1.00  0.00     0.027 C 
BRANCH   3   4
ATOM      4  C   UNL     1     133.427 139.731 129.105  1.00  0.00    -0.031 C 
ATOM      5  C   UNL     1     134.714 139.378 129.311  1.00  0.00    -0.028 C 
BRANCH   5   6
ATOM      6  C   UNL     1     135.337 138.779 130.562  1.00  0.00     0.005 C 
ATOM      7  C   UNL     1     136.818 139.132 130.744  1.00  0.00     0.012 C 
ATOM      8  C   UNL     1     135.070 137.272 130.689  1.00  0.00     0.012 C 
ENDBRANCH   5   6
ENDBRANCH   3   4
ENDBRANCH   2   3
ENDBRANCH   1   2
BRANCH   1   9
ATOM      9  C   UNL     1     131.187 137.216 131.626  1.00  0.00     0.100 C 
BRANCH   9  10
ATOM     10  C   UNL     1     130.962 135.843 132.182  1.00  0.00     0.220 C 
ATOM     11  O   UNL     1     131.334 135.581 133.358  1.00  0.00    -0.275 OA
ATOM     12  N   UNL     1     130.375 134.824 131.361  1.00  0.00    -0.352 N 
ATOM     13  H   UNL     1     130.023 135.075 130.410  1.00  0.00     0.163 HD
BRANCH  12  14
ATOM     14  C   UNL     1     130.314 133.424 131.777  1.00  0.00     0.151 C 
BRANCH  14  15
ATOM     15  C   UNL     1     131.421 132.643 131.121  1.00  0.00    -0.025 A 
ATOM     16  C   UNL     1     132.673 132.540 131.749  1.00  0.00     0.056 A 
ATOM     17  C   UNL     1     131.204 131.984 129.904  1.00  0.00     0.009 A 
ATOM     18  C   UNL     1     133.710 131.788 131.161  1.00  0.00     0.160 A 
ATOM     19  C   UNL     1     132.228 131.240 129.315  1.00  0.00     0.050 A 
ATOM     20  C   UNL     1     133.477 131.138 129.935  1.00  0.00     0.157 A 
BRANCH  18  21
ATOM     21  O   UNL     1     134.972 131.666 131.765  1.00  0.00    -0.493 OA
ATOM     22  C   UNL     1     135.289 130.735 132.795  1.00  0.00     0.278 C 
ENDBRANCH  18  21
BRANCH  20  23
ATOM     23  O   UNL     1     134.477 130.385 129.319  1.00  0.00    -0.504 OA
ATOM     24  H   UNL     1     135.391 130.767 129.111  1.00  0.00     0.293 HD
ENDBRANCH  20  23
ENDBRANCH  14  15
ENDBRANCH  12  14
ENDBRANCH   9  10
ENDBRANCH   1   9
TORSDOF 10
ENDMDL
MODEL 7
REMARK VINA RESULT:    -4.592      4.332      8.760
REMARK INTER + INTRA:          -8.468
REMARK INTER:                  -7.561
REMARK INTRA:                  -0.908
REMARK UNBOUND:                -1.327
REMARK SMILES COc1cc(CNC(=O)CCCCC=CC(C)C)ccc1O
REMARK SMILES IDX 11 1 12 2 13 3 14 4 15 5 16 6 17 7 18 8 10 9 8 10 9 11 7 12
REMARK SMILES IDX 6 14 5 15 4 16 19 17 3 18 20 19 21 20 2 21 1 22 22 23
REMARK H PARENT 7 13 22 24
REMARK Flexibility Score: inf
ROOT
ATOM      1  C   UNL     1     139.121 133.272 130.438  1.00  0.00     0.010 C 
ENDROOT
BRANCH   1   2
ATOM      2  C   UNL     1     138.660 134.736 130.521  1.00  0.00     0.005 C 
BRANCH   2   3
ATOM      3  C   UNL     1     138.865 135.493 129.202  1.00  0.00     0.027 C 
BRANCH   3   4
ATOM      4  C   UNL     1     139.882 136.590 129.381  1.00  0.00    -0.031 C 
ATOM      5  C   UNL     1     139.642 137.861 129.767  1.00  0.00    -0.028 C 
BRANCH   5   6
ATOM      6  C   UNL     1     138.300 138.530 130.024  1.00  0.00     0.005 C 
ATOM      7  C   UNL     1     138.146 139.891 129.335  1.00  0.00     0.012 C 
ATOM      8  C   UNL     1     137.944 138.581 131.516  1.00  0.00     0.012 C 
ENDBRANCH   5   6
ENDBRANCH   3   4
ENDBRANCH   2   3
ENDBRANCH   1   2
BRANCH   1   9
ATOM      9  C   UNL     1     138.461 132.514 129.280  1.00  0.00     0.100 C 
BRANCH   9  10
ATOM     10  C   UNL     1     137.293 131.720 129.782  1.00  0.00     0.220 C 
ATOM     11  O   UNL     1     137.489 130.772 130.590  1.00  0.00    -0.275 OA
ATOM     12  N   UNL     1     135.972 132.007 129.304  1.00  0.00    -0.352 N 
ATOM     13  H   UNL     1     135.824 132.831 128.678  1.00  0.00     0.163 HD
BRANCH  12  14
ATOM     14  C   UNL     1     134.830 131.145 129.600  1.00  0.00     0.151 C 
BRANCH  14  15
ATOM     15  C   UNL     1     133.561 131.955 129.609  1.00  0.00    -0.025 A 
ATOM     16  C   UNL     1     133.603 133.327 129.317  1.00  0.00     0.056 A 
ATOM     17  C   UNL     1     132.327 131.344 129.872  1.00  0.00     0.009 A 
ATOM     18  C   UNL     1     132.420 134.093 129.294  1.00  0.00     0.160 A 
ATOM     19  C   UNL     1     131.152 132.097 129.853  1.00  0.00     0.050 A 
ATOM     20  C   UNL     1     131.191 133.465 129.566  1.00  0.00     0.157 A 
BRANCH  18  21
ATOM     21  O   UNL     1     132.431 135.467 129.004  1.00  0.00    -0.493 OA
ATOM     22  C   UNL     1     132.719 136.491 129.951  1.00  0.00     0.278 C 
ENDBRANCH  18  21
BRANCH  20  23
ATOM     23  O   UNL     1     129.997 134.186 129.555  1.00  0.00    -0.504 OA
ATOM     24  H   UNL     1     129.095 133.736 129.455  1.00  0.00     0.293 HD
ENDBRANCH  20  23
ENDBRANCH  14  15
ENDBRANCH  12  14
ENDBRANCH   9  10
ENDBRANCH   1   9
TORSDOF 10
ENDMDL
MODEL 8
REMARK VINA RESULT:    -4.584      4.510      6.121
REMARK INTER + INTRA:          -8.456
REMARK INTER:                  -7.273
REMARK INTRA:                  -1.183
REMARK UNBOUND:                -1.327
REMARK SMILES COc1cc(CNC(=O)CCCCC=CC(C)C)ccc1O
REMARK SMILES IDX 11 1 12 2 13 3 14 4 15 5 16 6 17 7 18 8 10 9 8 10 9 11 7 12
REMARK SMILES IDX 6 14 5 15 4 16 19 17 3 18 20 19 21 20 2 21 1 22 22 23
REMARK H PARENT 7 13 22 24
REMARK Flexibility Score: inf
ROOT
ATOM      1  C   UNL     1     133.039 131.226 130.130  1.00  0.00     0.010 C 
ENDROOT
BRANCH   1   2
ATOM      2  C   UNL     1     131.715 131.488 129.395  1.00  0.00     0.005 C 
BRANCH   2   3
ATOM      3  C   UNL     1     130.917 132.643 130.014  1.00  0.00     0.027 C 
BRANCH   3   4
ATOM      4  C   UNL     1     130.841 133.800 129.052  1.00  0.00    -0.031 C 
ATOM      5  C   UNL     1     131.207 135.077 129.289  1.00  0.00    -0.028 C 
BRANCH   5   6
ATOM      6  C   UNL     1     131.694 135.690 130.593  1.00  0.00     0.005 C 
ATOM      7  C   UNL     1     131.268 137.150 130.786  1.00  0.00     0.012 C 
ATOM      8  C   UNL     1     133.198 135.479 130.817  1.00  0.00     0.012 C 
ENDBRANCH   5   6
ENDBRANCH   3   4
ENDBRANCH   2   3
ENDBRANCH   1   2
BRANCH   1   9
ATOM      9  C   UNL     1     133.008 131.709 131.586  1.00  0.00     0.100 C 
BRANCH   9  10
ATOM     10  C   UNL     1     134.307 131.394 132.263  1.00  0.00     0.220 C 
ATOM     11  O   UNL     1     134.603 131.980 133.340  1.00  0.00    -0.275 OA
ATOM     12  N   UNL     1     135.226 130.473 131.661  1.00  0.00    -0.352 N 
ATOM     13  H   UNL     1     134.938 129.957 130.798  1.00  0.00     0.163 HD
BRANCH  12  14
ATOM     14  C   UNL     1     136.583 130.280 132.166  1.00  0.00     0.151 C 
BRANCH  14  15
ATOM     15  C   UNL     1     137.538 131.193 131.444  1.00  0.00    -0.025 A 
ATOM     16  C   UNL     1     137.963 132.384 132.053  1.00  0.00     0.056 A 
ATOM     17  C   UNL     1     138.036 130.847 130.181  1.00  0.00     0.009 A 
ATOM     18  C   UNL     1     138.879 133.235 131.402  1.00  0.00     0.160 A 
ATOM     19  C   UNL     1     138.941 131.686 129.529  1.00  0.00     0.050 A 
ATOM     20  C   UNL     1     139.365 132.876 130.131  1.00  0.00     0.157 A 
BRANCH  18  21
ATOM     21  O   UNL     1     139.323 134.432 131.985  1.00  0.00    -0.493 OA
ATOM     22  C   UNL     1     140.421 134.534 132.886  1.00  0.00     0.278 C 
ENDBRANCH  18  21
BRANCH  20  23
ATOM     23  O   UNL     1     140.271 133.690 129.451  1.00  0.00    -0.504 OA
ATOM     24  H   UNL     1     141.171 133.349 129.134  1.00  0.00     0.293 HD
ENDBRANCH  20  23
ENDBRANCH  14  15
ENDBRANCH  12  14
ENDBRANCH   9  10
ENDBRANCH   1   9
TORSDOF 10
ENDMDL
MODEL 9
REMARK VINA RESULT:    -4.574      2.332      6.876
REMARK INTER + INTRA:          -8.441
REMARK INTER:                  -7.139
REMARK INTRA:                  -1.302
REMARK UNBOUND:                -1.327
REMARK SMILES COc1cc(CNC(=O)CCCCC=CC(C)C)ccc1O
REMARK SMILES IDX 11 1 12 2 13 3 14 4 15 5 16 6 17 7 18 8 10 9 8 10 9 11 7 12
REMARK SMILES IDX 6 14 5 15 4 16 19 17 3 18 20 19 21 20 2 21 1 22 22 23
REMARK H PARENT 7 13 22 24
REMARK Flexibility Score: inf
ROOT
ATOM      1  C   UNL     1     137.153 139.392 130.038  1.00  0.00     0.010 C 
ENDROOT
BRANCH   1   2
ATOM      2  C   UNL     1     138.532 139.414 129.359  1.00  0.00     0.005 C 
BRANCH   2   3
ATOM      3  C   UNL     1     139.541 138.484 130.047  1.00  0.00     0.027 C 
BRANCH   3   4
ATOM      4  C   UNL     1     139.627 137.171 129.312  1.00  0.00    -0.031 C 
ATOM      5  C   UNL     1     139.298 135.952 129.789  1.00  0.00    -0.028 C 
BRANCH   5   6
ATOM      6  C   UNL     1     138.854 135.581 131.195  1.00  0.00     0.005 C 
ATOM      7  C   UNL     1     139.347 134.203 131.654  1.00  0.00     0.012 C 
ATOM      8  C   UNL     1     137.345 135.767 131.405  1.00  0.00     0.012 C 
ENDBRANCH   5   6
ENDBRANCH   3   4
ENDBRANCH   2   3
ENDBRANCH   1   2
BRANCH   1   9
ATOM      9  C   UNL     1     137.251 139.441 131.568  1.00  0.00     0.100 C 
BRANCH   9  10
ATOM     10  C   UNL     1     135.889 139.615 132.167  1.00  0.00     0.220 C 
ATOM     11  O   UNL     1     135.655 139.158 133.320  1.00  0.00    -0.275 OA
ATOM     12  N   UNL     1     134.848 140.251 131.413  1.00  0.00    -0.352 N 
ATOM     13  H   UNL     1     135.077 140.672 130.483  1.00  0.00     0.163 HD
BRANCH  12  14
ATOM     14  C   UNL     1     133.458 140.271 131.862  1.00  0.00     0.151 C 
BRANCH  14  15
ATOM     15  C   UNL     1     132.679 139.181 131.175  1.00  0.00    -0.025 A 
ATOM     16  C   UNL     1     132.605 137.903 131.751  1.00  0.00     0.056 A 
ATOM     17  C   UNL     1     131.993 139.440 129.980  1.00  0.00     0.009 A 
ATOM     18  C   UNL     1     131.856 136.880 131.135  1.00  0.00     0.160 A 
ATOM     19  C   UNL     1     131.252 138.431 129.363  1.00  0.00     0.050 A 
ATOM     20  C   UNL     1     131.179 137.155 129.933  1.00  0.00     0.157 A 
BRANCH  18  21
ATOM     21  O   UNL     1     131.762 135.593 131.688  1.00  0.00    -0.493 OA
ATOM     22  C   UNL     1     132.604 134.499 131.337  1.00  0.00     0.278 C 
ENDBRANCH  18  21
BRANCH  20  23
ATOM     23  O   UNL     1     130.427 136.172 129.289  1.00  0.00    -0.504 OA
ATOM     24  H   UNL     1     130.835 135.301 128.971  1.00  0.00     0.293 HD
ENDBRANCH  20  23
ENDBRANCH  14  15
ENDBRANCH  12  14
ENDBRANCH   9  10
ENDBRANCH   1   9
TORSDOF 10
ENDMDL
