MODEL 1
REMARK VINA RESULT:    -5.980      0.000      0.000
REMARK INTER + INTRA:         -12.154
REMARK INTER:                  -9.126
REMARK INTRA:                  -3.028
REMARK UNBOUND:                -3.028
REMARK SMILES CC(=O)CCC=C(C)CCC=C(C)CCC=C(C)C
REMARK SMILES IDX 10 1 11 2 12 3 13 4 14 5 15 6 16 7 18 8 17 9 19 10 9 11 7 12
REMARK SMILES IDX 6 13 8 14 5 15 4 16 2 17 3 18 1 19
REMARK H PARENT
REMARK Flexibility Score: inf
ROOT
ATOM      1  C   UNL     1     119.555 178.042 124.344  1.00  0.00     0.032 C 
ENDROOT
BRANCH   1   2
ATOM      2  C   UNL     1     118.720 178.831 125.323  1.00  0.00    -0.028 C 
ATOM      3  C   UNL     1     117.407 178.622 125.576  1.00  0.00    -0.077 C 
ATOM      4  C   UNL     1     116.749 179.452 126.647  1.00  0.00     0.039 C 
BRANCH   3   5
ATOM      5  C   UNL     1     116.556 177.620 124.815  1.00  0.00     0.034 C 
BRANCH   5   6
ATOM      6  C   UNL     1     115.779 176.693 125.761  1.00  0.00     0.032 C 
BRANCH   6   7
ATOM      7  C   UNL     1     116.671 175.616 126.333  1.00  0.00    -0.028 C 
ATOM      8  C   UNL     1     117.686 174.184 128.050  1.00  0.00     0.039 C 
ATOM      9  C   UNL     1     116.805 175.339 127.649  1.00  0.00    -0.080 C 
ATOM     10  C   UNL     1     116.103 176.144 128.715  1.00  0.00     0.039 C 
ENDBRANCH   6   7
ENDBRANCH   5   6
ENDBRANCH   3   5
ENDBRANCH   1   2
BRANCH   1  11
ATOM     11  C   UNL     1     120.814 177.462 125.004  1.00  0.00     0.034 C 
BRANCH  11  12
ATOM     12  C   UNL     1     120.497 176.244 125.854  1.00  0.00    -0.077 C 
ATOM     13  C   UNL     1     120.387 176.301 127.200  1.00  0.00    -0.028 C 
ATOM     14  C   UNL     1     120.272 174.919 125.173  1.00  0.00     0.039 C 
BRANCH  13  15
ATOM     15  C   UNL     1     120.618 177.556 128.011  1.00  0.00     0.035 C 
BRANCH  15  16
ATOM     16  C   UNL     1     119.453 177.853 128.965  1.00  0.00     0.079 C 
BRANCH  16  17
ATOM     17  C   UNL     1     119.752 177.418 130.377  1.00  0.00     0.130 C 
ATOM     18  O   UNL     1     120.495 178.091 131.076  1.00  0.00    -0.300 OA
ATOM     19  C   UNL     1     119.115 176.185 130.944  1.00  0.00     0.087 C 
ENDBRANCH  16  17
ENDBRANCH  15  16
ENDBRANCH  13  15
ENDBRANCH  11  12
ENDBRANCH   1  11
TORSDOF 9
ENDMDL
MODEL 2
REMARK VINA RESULT:    -5.842      2.131      4.924
REMARK INTER + INTRA:         -11.944
REMARK INTER:                  -9.434
REMARK INTRA:                  -2.510
REMARK UNBOUND:                -3.028
REMARK SMILES CC(=O)CCC=C(C)CCC=C(C)CCC=C(C)C
REMARK SMILES IDX 10 1 11 2 12 3 13 4 14 5 15 6 16 7 18 8 17 9 19 10 9 11 7 12
REMARK SMILES IDX 6 13 8 14 5 15 4 16 2 17 3 18 1 19
REMARK H PARENT
REMARK Flexibility Score: inf
ROOT
ATOM      1  C   UNL     1     119.190 177.479 129.019  1.00  0.00     0.032 C 
ENDROOT
BRANCH   1   2
ATOM      2  C   UNL     1     120.569 177.787 128.488  1.00  0.00    -0.028 C 
ATOM      3  C   UNL     1     120.840 178.289 127.261  1.00  0.00    -0.077 C 
ATOM      4  C   UNL     1     122.273 178.613 126.926  1.00  0.00     0.039 C 
BRANCH   3   5
ATOM      5  C   UNL     1     119.782 178.510 126.194  1.00  0.00     0.034 C 
BRANCH   5   6
ATOM      6  C   UNL     1     119.925 177.518 125.031  1.00  0.00     0.032 C 
BRANCH   6   7
ATOM      7  C   UNL     1     119.390 176.154 125.401  1.00  0.00    -0.028 C 
ATOM      8  C   UNL     1     119.461 173.788 126.053  1.00  0.00     0.039 C 
ATOM      9  C   UNL     1     120.149 175.058 125.625  1.00  0.00    -0.080 C 
ATOM     10  C   UNL     1     121.649 175.073 125.463  1.00  0.00     0.039 C 
ENDBRANCH   6   7
ENDBRANCH   5   6
ENDBRANCH   3   5
ENDBRANCH   1   2
BRANCH   1  11
ATOM     11  C   UNL     1     118.907 175.969 129.032  1.00  0.00     0.034 C 
BRANCH  11  12
ATOM     12  C   UNL     1     117.564 175.652 129.667  1.00  0.00    -0.077 C 
ATOM     13  C   UNL     1     116.401 175.701 128.979  1.00  0.00    -0.028 C 
ATOM     14  C   UNL     1     117.522 175.242 131.116  1.00  0.00     0.039 C 
BRANCH  13  15
ATOM     15  C   UNL     1     116.296 176.126 127.532  1.00  0.00     0.035 C 
BRANCH  15  16
ATOM     16  C   UNL     1     115.549 177.457 127.371  1.00  0.00     0.079 C 
BRANCH  16  17
ATOM     17  C   UNL     1     116.083 178.270 126.219  1.00  0.00     0.130 C 
ATOM     18  O   UNL     1     116.285 177.735 125.140  1.00  0.00    -0.300 OA
ATOM     19  C   UNL     1     116.333 179.740 126.378  1.00  0.00     0.087 C 
ENDBRANCH  16  17
ENDBRANCH  15  16
ENDBRANCH  13  15
ENDBRANCH  11  12
ENDBRANCH   1  11
TORSDOF 9
ENDMDL
MODEL 3
REMARK VINA RESULT:    -5.800      2.445      5.307
REMARK INTER + INTRA:         -11.879
REMARK INTER:                  -8.783
REMARK INTRA:                  -3.096
REMARK UNBOUND:                -3.028
REMARK SMILES CC(=O)CCC=C(C)CCC=C(C)CCC=C(C)C
REMARK SMILES IDX 10 1 11 2 12 3 13 4 14 5 15 6 16 7 18 8 17 9 19 10 9 11 7 12
REMARK SMILES IDX 6 13 8 14 5 15 4 16 2 17 3 18 1 19
REMARK H PARENT
REMARK Flexibility Score: inf
ROOT
ATOM      1  C   UNL     1     118.916 176.762 129.074  1.00  0.00     0.032 C 
ENDROOT
BRANCH   1   2
ATOM      2  C   UNL     1     118.046 175.845 128.249  1.00  0.00    -0.028 C 
ATOM      3  C   UNL     1     118.498 174.853 127.447  1.00  0.00    -0.077 C 
ATOM      4  C   UNL     1     117.482 173.979 126.758  1.00  0.00     0.039 C 
BRANCH   3   5
ATOM      5  C   UNL     1     119.970 174.597 127.179  1.00  0.00     0.034 C 
BRANCH   5   6
ATOM      6  C   UNL     1     120.213 174.097 125.747  1.00  0.00     0.032 C 
BRANCH   6   7
ATOM      7  C   UNL     1     120.419 175.246 124.789  1.00  0.00    -0.028 C 
ATOM      8  C   UNL     1     121.654 176.879 123.434  1.00  0.00     0.039 C 
ATOM      9  C   UNL     1     121.617 175.778 124.461  1.00  0.00    -0.080 C 
ATOM     10  C   UNL     1     122.905 175.301 125.087  1.00  0.00     0.039 C 
ENDBRANCH   6   7
ENDBRANCH   5   6
ENDBRANCH   3   5
ENDBRANCH   1   2
BRANCH   1  11
ATOM     11  C   UNL     1     118.988 178.174 128.474  1.00  0.00     0.034 C 
BRANCH  11  12
ATOM     12  C   UNL     1     119.990 178.255 127.336  1.00  0.00    -0.077 C 
ATOM     13  C   UNL     1     119.634 178.561 126.068  1.00  0.00    -0.028 C 
ATOM     14  C   UNL     1     121.448 178.008 127.630  1.00  0.00     0.039 C 
BRANCH  13  15
ATOM     15  C   UNL     1     118.207 178.801 125.629  1.00  0.00     0.035 C 
BRANCH  15  16
ATOM     16  C   UNL     1     117.594 177.569 124.950  1.00  0.00     0.079 C 
BRANCH  16  17
ATOM     17  C   UNL     1     116.087 177.607 124.959  1.00  0.00     0.130 C 
ATOM     18  O   UNL     1     115.480 177.883 123.936  1.00  0.00    -0.300 OA
ATOM     19  C   UNL     1     115.326 177.275 126.207  1.00  0.00     0.087 C 
ENDBRANCH  16  17
ENDBRANCH  15  16
ENDBRANCH  13  15
ENDBRANCH  11  12
ENDBRANCH   1  11
TORSDOF 9
ENDMDL
MODEL 4
REMARK VINA RESULT:    -5.778      1.699      4.579
REMARK INTER + INTRA:         -11.845
REMARK INTER:                  -9.147
REMARK INTRA:                  -2.698
REMARK UNBOUND:                -3.028
REMARK SMILES CC(=O)CCC=C(C)CCC=C(C)CCC=C(C)C
REMARK SMILES IDX 10 1 11 2 12 3 13 4 14 5 15 6 16 7 18 8 17 9 19 10 9 11 7 12
REMARK SMILES IDX 6 13 8 14 5 15 4 16 2 17 3 18 1 19
REMARK H PARENT
REMARK Flexibility Score: inf
ROOT
ATOM      1  C   UNL     1     116.379 179.526 126.608  1.00  0.00     0.032 C 
ENDROOT
BRANCH   1   2
ATOM      2  C   UNL     1     117.640 178.938 127.193  1.00  0.00    -0.028 C 
ATOM      3  C   UNL     1     118.791 178.729 126.515  1.00  0.00    -0.077 C 
ATOM      4  C   UNL     1     119.981 178.208 127.279  1.00  0.00     0.039 C 
BRANCH   3   5
ATOM      5  C   UNL     1     118.938 178.957 125.021  1.00  0.00     0.034 C 
BRANCH   5   6
ATOM      6  C   UNL     1     119.001 177.635 124.243  1.00  0.00     0.032 C 
BRANCH   6   7
ATOM      7  C   UNL     1     120.372 177.410 123.648  1.00  0.00    -0.028 C 
ATOM      8  C   UNL     1     122.500 176.264 123.218  1.00  0.00     0.039 C 
ATOM      9  C   UNL     1     121.191 176.380 123.954  1.00  0.00    -0.080 C 
ATOM     10  C   UNL     1     120.832 175.353 125.000  1.00  0.00     0.039 C 
ENDBRANCH   6   7
ENDBRANCH   5   6
ENDBRANCH   3   5
ENDBRANCH   1   2
BRANCH   1  11
ATOM     11  C   UNL     1     115.233 178.503 126.576  1.00  0.00     0.034 C 
BRANCH  11  12
ATOM     12  C   UNL     1     115.406 177.495 125.454  1.00  0.00    -0.077 C 
ATOM     13  C   UNL     1     115.850 176.236 125.665  1.00  0.00    -0.028 C 
ATOM     14  C   UNL     1     115.047 177.901 124.048  1.00  0.00     0.039 C 
BRANCH  13  15
ATOM     15  C   UNL     1     116.274 175.708 127.017  1.00  0.00     0.035 C 
BRANCH  15  16
ATOM     16  C   UNL     1     117.686 175.107 126.989  1.00  0.00     0.079 C 
BRANCH  16  17
ATOM     17  C   UNL     1     118.373 175.210 128.327  1.00  0.00     0.130 C 
ATOM     18  O   UNL     1     119.541 174.871 128.437  1.00  0.00    -0.300 OA
ATOM     19  C   UNL     1     117.643 175.758 129.516  1.00  0.00     0.087 C 
ENDBRANCH  16  17
ENDBRANCH  15  16
ENDBRANCH  13  15
ENDBRANCH  11  12
ENDBRANCH   1  11
TORSDOF 9
ENDMDL
MODEL 5
REMARK VINA RESULT:    -5.755      2.467      5.344
REMARK INTER + INTRA:         -11.811
REMARK INTER:                  -9.100
REMARK INTRA:                  -2.710
REMARK UNBOUND:                -3.028
REMARK SMILES CC(=O)CCC=C(C)CCC=C(C)CCC=C(C)C
REMARK SMILES IDX 10 1 11 2 12 3 13 4 14 5 15 6 16 7 18 8 17 9 19 10 9 11 7 12
REMARK SMILES IDX 6 13 8 14 5 15 4 16 2 17 3 18 1 19
REMARK H PARENT
REMARK Flexibility Score: inf
ROOT
ATOM      1  C   UNL     1     119.890 177.913 127.715  1.00  0.00     0.032 C 
ENDROOT
BRANCH   1   2
ATOM      2  C   UNL     1     119.600 178.260 126.274  1.00  0.00    -0.028 C 
ATOM      3  C   UNL     1     119.321 177.368 125.297  1.00  0.00    -0.077 C 
ATOM      4  C   UNL     1     118.975 177.897 123.929  1.00  0.00     0.039 C 
BRANCH   3   5
ATOM      5  C   UNL     1     119.372 175.863 125.497  1.00  0.00     0.034 C 
BRANCH   5   6
ATOM      6  C   UNL     1     120.549 175.225 124.745  1.00  0.00     0.032 C 
BRANCH   6   7
ATOM      7  C   UNL     1     121.869 175.817 125.183  1.00  0.00    -0.028 C 
ATOM      8  C   UNL     1     123.953 177.101 125.000  1.00  0.00     0.039 C 
ATOM      9  C   UNL     1     122.705 176.519 124.388  1.00  0.00    -0.080 C 
ATOM     10  C   UNL     1     122.426 176.736 122.921  1.00  0.00     0.039 C 
ENDBRANCH   6   7
ENDBRANCH   5   6
ENDBRANCH   3   5
ENDBRANCH   1   2
BRANCH   1  11
ATOM     11  C   UNL     1     118.608 177.865 128.560  1.00  0.00     0.034 C 
BRANCH  11  12
ATOM     12  C   UNL     1     118.155 176.439 128.819  1.00  0.00    -0.077 C 
ATOM     13  C   UNL     1     116.933 175.985 128.462  1.00  0.00    -0.028 C 
ATOM     14  C   UNL     1     119.111 175.480 129.481  1.00  0.00     0.039 C 
BRANCH  13  15
ATOM     15  C   UNL     1     115.869 176.846 127.820  1.00  0.00     0.035 C 
BRANCH  15  16
ATOM     16  C   UNL     1     115.769 176.614 126.307  1.00  0.00     0.079 C 
BRANCH  16  17
ATOM     17  C   UNL     1     115.649 177.907 125.541  1.00  0.00     0.130 C 
ATOM     18  O   UNL     1     115.243 177.895 124.390  1.00  0.00    -0.300 OA
ATOM     19  C   UNL     1     115.990 179.212 126.196  1.00  0.00     0.087 C 
ENDBRANCH  16  17
ENDBRANCH  15  16
ENDBRANCH  13  15
ENDBRANCH  11  12
ENDBRANCH   1  11
TORSDOF 9
ENDMDL
MODEL 6
REMARK VINA RESULT:    -5.723      1.530      4.288
REMARK INTER + INTRA:         -11.762
REMARK INTER:                  -9.319
REMARK INTRA:                  -2.443
REMARK UNBOUND:                -3.028
REMARK SMILES CC(=O)CCC=C(C)CCC=C(C)CCC=C(C)C
REMARK SMILES IDX 10 1 11 2 12 3 13 4 14 5 15 6 16 7 18 8 17 9 19 10 9 11 7 12
REMARK SMILES IDX 6 13 8 14 5 15 4 16 2 17 3 18 1 19
REMARK H PARENT
REMARK Flexibility Score: inf
ROOT
ATOM      1  C   UNL     1     118.072 178.892 126.557  1.00  0.00     0.032 C 
ENDROOT
BRANCH   1   2
ATOM      2  C   UNL     1     118.525 179.134 125.137  1.00  0.00    -0.028 C 
ATOM      3  C   UNL     1     119.128 178.219 124.343  1.00  0.00    -0.077 C 
ATOM      4  C   UNL     1     119.440 178.608 122.921  1.00  0.00     0.039 C 
BRANCH   3   5
ATOM      5  C   UNL     1     119.537 176.836 124.819  1.00  0.00     0.034 C 
BRANCH   5   6
ATOM      6  C   UNL     1     120.963 176.825 125.389  1.00  0.00     0.032 C 
BRANCH   6   7
ATOM      7  C   UNL     1     120.953 176.755 126.899  1.00  0.00    -0.028 C 
ATOM      8  C   UNL     1     121.233 177.537 129.209  1.00  0.00     0.039 C 
ATOM      9  C   UNL     1     121.374 177.740 127.723  1.00  0.00    -0.080 C 
ATOM     10  C   UNL     1     121.971 179.024 127.201  1.00  0.00     0.039 C 
ENDBRANCH   6   7
ENDBRANCH   5   6
ENDBRANCH   3   5
ENDBRANCH   1   2
BRANCH   1  11
ATOM     11  C   UNL     1     116.541 178.860 126.670  1.00  0.00     0.034 C 
BRANCH  11  12
ATOM     12  C   UNL     1     115.946 177.653 125.965  1.00  0.00    -0.077 C 
ATOM     13  C   UNL     1     115.936 176.418 126.514  1.00  0.00    -0.028 C 
ATOM     14  C   UNL     1     115.320 177.839 124.607  1.00  0.00     0.039 C 
BRANCH  13  15
ATOM     15  C   UNL     1     116.556 176.086 127.852  1.00  0.00     0.035 C 
BRANCH  15  16
ATOM     16  C   UNL     1     117.778 175.168 127.714  1.00  0.00     0.079 C 
BRANCH  16  17
ATOM     17  C   UNL     1     118.465 174.936 129.036  1.00  0.00     0.130 C 
ATOM     18  O   UNL     1     119.426 174.184 129.097  1.00  0.00    -0.300 OA
ATOM     19  C   UNL     1     118.001 175.650 130.270  1.00  0.00     0.087 C 
ENDBRANCH  16  17
ENDBRANCH  15  16
ENDBRANCH  13  15
ENDBRANCH  11  12
ENDBRANCH   1  11
TORSDOF 9
ENDMDL
MODEL 7
REMARK VINA RESULT:    -5.697      2.204      3.450
REMARK INTER + INTRA:         -11.722
REMARK INTER:                  -8.558
REMARK INTRA:                  -3.164
REMARK UNBOUND:                -3.028
REMARK SMILES CC(=O)CCC=C(C)CCC=C(C)CCC=C(C)C
REMARK SMILES IDX 10 1 11 2 12 3 13 4 14 5 15 6 16 7 18 8 17 9 19 10 9 11 7 12
REMARK SMILES IDX 6 13 8 14 5 15 4 16 2 17 3 18 1 19
REMARK H PARENT
REMARK Flexibility Score: inf
ROOT
ATOM      1  C   UNL     1     119.767 177.965 123.852  1.00  0.00     0.032 C 
ENDROOT
BRANCH   1   2
ATOM      2  C   UNL     1     118.414 177.414 124.231  1.00  0.00    -0.028 C 
ATOM      3  C   UNL     1     117.674 177.819 125.288  1.00  0.00    -0.077 C 
ATOM      4  C   UNL     1     116.305 177.216 125.471  1.00  0.00     0.039 C 
BRANCH   3   5
ATOM      5  C   UNL     1     118.164 178.822 126.318  1.00  0.00     0.034 C 
BRANCH   5   6
ATOM      6  C   UNL     1     117.799 178.398 127.749  1.00  0.00     0.032 C 
BRANCH   6   7
ATOM      7  C   UNL     1     119.011 177.901 128.503  1.00  0.00    -0.028 C 
ATOM      8  C   UNL     1     120.341 176.417 129.937  1.00  0.00     0.039 C 
ATOM      9  C   UNL     1     119.030 176.819 129.312  1.00  0.00    -0.080 C 
ATOM     10  C   UNL     1     117.789 176.010 129.600  1.00  0.00     0.039 C 
ENDBRANCH   6   7
ENDBRANCH   5   6
ENDBRANCH   3   5
ENDBRANCH   1   2
BRANCH   1  11
ATOM     11  C   UNL     1     120.887 176.938 124.080  1.00  0.00     0.034 C 
BRANCH  11  12
ATOM     12  C   UNL     1     121.241 176.805 125.551  1.00  0.00    -0.077 C 
ATOM     13  C   UNL     1     120.928 175.713 126.282  1.00  0.00    -0.028 C 
ATOM     14  C   UNL     1     121.993 177.925 126.223  1.00  0.00     0.039 C 
BRANCH  13  15
ATOM     15  C   UNL     1     120.150 174.533 125.744  1.00  0.00     0.035 C 
BRANCH  15  16
ATOM     16  C   UNL     1     118.852 174.288 126.525  1.00  0.00     0.079 C 
BRANCH  16  17
ATOM     17  C   UNL     1     118.920 173.034 127.358  1.00  0.00     0.130 C 
ATOM     18  O   UNL     1     118.280 172.048 127.025  1.00  0.00    -0.300 OA
ATOM     19  C   UNL     1     119.797 172.974 128.572  1.00  0.00     0.087 C 
ENDBRANCH  16  17
ENDBRANCH  15  16
ENDBRANCH  13  15
ENDBRANCH  11  12
ENDBRANCH   1  11
TORSDOF 9
ENDMDL
MODEL 8
REMARK VINA RESULT:    -5.697      2.198      5.401
REMARK INTER + INTRA:         -11.722
REMARK INTER:                  -8.908
REMARK INTRA:                  -2.815
REMARK UNBOUND:                -3.028
REMARK SMILES CC(=O)CCC=C(C)CCC=C(C)CCC=C(C)C
REMARK SMILES IDX 10 1 11 2 12 3 13 4 14 5 15 6 16 7 18 8 17 9 19 10 9 11 7 12
REMARK SMILES IDX 6 13 8 14 5 15 4 16 2 17 3 18 1 19
REMARK H PARENT
REMARK Flexibility Score: inf
ROOT
ATOM      1  C   UNL     1     117.484 175.394 129.717  1.00  0.00     0.032 C 
ENDROOT
BRANCH   1   2
ATOM      2  C   UNL     1     118.873 175.576 130.279  1.00  0.00    -0.028 C 
ATOM      3  C   UNL     1     119.641 176.679 130.119  1.00  0.00    -0.077 C 
ATOM      4  C   UNL     1     120.975 176.723 130.820  1.00  0.00     0.039 C 
BRANCH   3   5
ATOM      5  C   UNL     1     119.246 177.857 129.246  1.00  0.00     0.034 C 
BRANCH   5   6
ATOM      6  C   UNL     1     120.258 178.097 128.117  1.00  0.00     0.032 C 
BRANCH   6   7
ATOM      7  C   UNL     1     119.564 178.416 126.813  1.00  0.00    -0.028 C 
ATOM      8  C   UNL     1     119.143 178.367 124.395  1.00  0.00     0.039 C 
ATOM      9  C   UNL     1     119.990 178.023 125.592  1.00  0.00    -0.080 C 
ATOM     10  C   UNL     1     121.275 177.255 125.398  1.00  0.00     0.039 C 
ENDBRANCH   6   7
ENDBRANCH   5   6
ENDBRANCH   3   5
ENDBRANCH   1   2
BRANCH   1  11
ATOM     11  C   UNL     1     117.449 174.323 128.616  1.00  0.00     0.034 C 
BRANCH  11  12
ATOM     12  C   UNL     1     118.106 174.807 127.336  1.00  0.00    -0.077 C 
ATOM     13  C   UNL     1     117.471 175.596 126.441  1.00  0.00    -0.028 C 
ATOM     14  C   UNL     1     119.534 174.413 127.057  1.00  0.00     0.039 C 
BRANCH  13  15
ATOM     15  C   UNL     1     116.032 176.038 126.581  1.00  0.00     0.035 C 
BRANCH  15  16
ATOM     16  C   UNL     1     115.915 177.458 127.151  1.00  0.00     0.079 C 
BRANCH  16  17
ATOM     17  C   UNL     1     115.799 178.497 126.065  1.00  0.00     0.130 C 
ATOM     18  O   UNL     1     115.397 178.176 124.957  1.00  0.00    -0.300 OA
ATOM     19  C   UNL     1     116.142 179.930 126.344  1.00  0.00     0.087 C 
ENDBRANCH  16  17
ENDBRANCH  15  16
ENDBRANCH  13  15
ENDBRANCH  11  12
ENDBRANCH   1  11
TORSDOF 9
ENDMDL
MODEL 9
REMARK VINA RESULT:    -5.663      2.359      4.457
REMARK INTER + INTRA:         -11.671
REMARK INTER:                  -8.585
REMARK INTRA:                  -3.086
REMARK UNBOUND:                -3.028
REMARK SMILES CC(=O)CCC=C(C)CCC=C(C)CCC=C(C)C
REMARK SMILES IDX 10 1 11 2 12 3 13 4 14 5 15 6 16 7 18 8 17 9 19 10 9 11 7 12
REMARK SMILES IDX 6 13 8 14 5 15 4 16 2 17 3 18 1 19
REMARK H PARENT
REMARK Flexibility Score: inf
ROOT
ATOM      1  C   UNL     1     119.938 178.019 127.666  1.00  0.00     0.032 C 
ENDROOT
BRANCH   1   2
ATOM      2  C   UNL     1     119.527 178.484 126.290  1.00  0.00    -0.028 C 
ATOM      3  C   UNL     1     119.747 177.808 125.140  1.00  0.00    -0.077 C 
ATOM      4  C   UNL     1     119.194 178.382 123.861  1.00  0.00     0.039 C 
BRANCH   3   5
ATOM      5  C   UNL     1     120.548 176.520 125.064  1.00  0.00     0.034 C 
BRANCH   5   6
ATOM      6  C   UNL     1     119.669 175.283 125.297  1.00  0.00     0.032 C 
BRANCH   6   7
ATOM      7  C   UNL     1     120.284 174.352 126.315  1.00  0.00    -0.028 C 
ATOM      8  C   UNL     1     120.443 172.419 127.820  1.00  0.00     0.039 C 
ATOM      9  C   UNL     1     119.662 173.288 126.869  1.00  0.00    -0.080 C 
ATOM     10  C   UNL     1     118.224 172.949 126.561  1.00  0.00     0.039 C 
ENDBRANCH   6   7
ENDBRANCH   5   6
ENDBRANCH   3   5
ENDBRANCH   1   2
BRANCH   1  11
ATOM     11  C   UNL     1     118.736 177.906 128.615  1.00  0.00     0.034 C 
BRANCH  11  12
ATOM     12  C   UNL     1     118.419 176.461 128.957  1.00  0.00    -0.077 C 
ATOM     13  C   UNL     1     117.265 175.860 128.593  1.00  0.00    -0.028 C 
ATOM     14  C   UNL     1     119.440 175.651 129.715  1.00  0.00     0.039 C 
BRANCH  13  15
ATOM     15  C   UNL     1     116.145 176.562 127.859  1.00  0.00     0.035 C 
BRANCH  15  16
ATOM     16  C   UNL     1     116.230 176.360 126.340  1.00  0.00     0.079 C 
BRANCH  16  17
ATOM     17  C   UNL     1     115.937 177.629 125.582  1.00  0.00     0.130 C 
ATOM     18  O   UNL     1     115.704 177.581 124.384  1.00  0.00    -0.300 OA
ATOM     19  C   UNL     1     115.892 178.948 126.294  1.00  0.00     0.087 C 
ENDBRANCH  16  17
ENDBRANCH  15  16
ENDBRANCH  13  15
ENDBRANCH  11  12
ENDBRANCH   1  11
TORSDOF 9
ENDMDL
