MODEL 1
REMARK VINA RESULT:    33.960      0.000      0.000
REMARK INTER + INTRA:          47.800
REMARK INTER:                  46.865
REMARK INTRA:                   0.935
REMARK UNBOUND:                 0.935
REMARK SMILES CC[C@H](CC[C@@H](C)[C@H]1CC[C@@H]2[C@@H]3CC=C4C[C@H](O)CC[C@@]4(C)[C@H]3CC[C@]21C)C(C)C
REMARK SMILES IDX 5 1 4 2 3 3 2 4 1 5 28 6 29 7 30 8 6 9 7 10 8 11 9 12 26 13
REMARK SMILES IDX 10 14 11 15 25 16 27 17 12 18 24 19 23 20 13 21 21 22 14 23
REMARK SMILES IDX 15 24 20 25 22 26 16 27 19 28 17 29 18 30
REMARK H PARENT 18 31
REMARK Flexibility Score: inf
ROOT
ATOM      1  C   UNL     1      15.498  14.031  39.054  1.00  0.00     0.004 C 
ENDROOT
BRANCH   1   2
ATOM      2  C   UNL     1      16.170  14.072  40.447  1.00  0.00     0.004 C 
BRANCH   2   3
ATOM      3  C   UNL     1      17.584  13.430  40.487  1.00  0.00    -0.009 C 
BRANCH   3   4
ATOM      4  C   UNL     1      18.457  14.117  41.583  1.00  0.00     0.000 C 
ATOM      5  C   UNL     1      19.825  13.455  41.752  1.00  0.00     0.004 C 
ENDBRANCH   3   4
BRANCH   3   6
ATOM      6  C   UNL     1      17.554  11.870  40.636  1.00  0.00    -0.014 C 
ATOM      7  C   UNL     1      18.837  11.324  41.289  1.00  0.00     0.007 C 
ATOM      8  C   UNL     1      16.345  11.401  41.464  1.00  0.00     0.007 C 
ENDBRANCH   3   6
ENDBRANCH   2   3
ENDBRANCH   1   2
BRANCH   1   9
ATOM      9  C   UNL     1      14.299  13.039  38.946  1.00  0.00    -0.011 C 
ATOM     10  C   UNL     1      13.001  13.839  38.683  1.00  0.00     0.008 C 
BRANCH   9  11
ATOM     11  C   UNL     1      14.514  11.915  37.873  1.00  0.00    -0.002 C 
ATOM     12  C   UNL     1      13.453  10.782  37.937  1.00  0.00     0.005 C 
ATOM     13  C   UNL     1      14.601  12.333  36.338  1.00  0.00    -0.026 C 
ATOM     14  C   UNL     1      13.192  10.339  36.504  1.00  0.00     0.005 C 
ATOM     15  C   UNL     1      13.361  11.635  35.747  1.00  0.00    -0.001 C 
ATOM     16  C   UNL     1      14.484  13.850  35.935  1.00  0.00     0.007 C 
ATOM     17  C   UNL     1      15.954  11.757  35.807  1.00  0.00     0.012 C 
ATOM     18  C   UNL     1      13.215  11.651  34.206  1.00  0.00     0.000 C 
ATOM     19  C   UNL     1      13.775  14.123  34.563  1.00  0.00     0.005 C 
ATOM     20  C   UNL     1      13.846  12.922  33.582  1.00  0.00     0.003 C 
ATOM     21  C   UNL     1      13.751  10.442  33.436  1.00  0.00     0.031 C 
ATOM     22  C   UNL     1      13.309  13.151  32.121  1.00  0.00    -0.008 C 
ATOM     23  C   UNL     1      13.392  10.595  31.976  1.00  0.00    -0.027 C 
ATOM     24  C   UNL     1      13.170  11.799  31.380  1.00  0.00    -0.065 C 
ATOM     25  C   UNL     1      11.915  13.852  32.122  1.00  0.00     0.014 C 
ATOM     26  C   UNL     1      14.334  14.034  31.355  1.00  0.00     0.016 C 
ATOM     27  C   UNL     1      12.545  11.823  30.002  1.00  0.00     0.063 C 
ATOM     28  C   UNL     1      11.249  13.894  30.730  1.00  0.00     0.033 C 
ATOM     29  C   UNL     1      11.162  12.493  30.090  1.00  0.00     0.118 C 
BRANCH  29  30
ATOM     30  O   UNL     1      10.564  12.567  28.821  1.00  0.00    -0.393 OA
ATOM     31  H   UNL     1      10.696  13.491  28.480  1.00  0.00     0.210 HD
ENDBRANCH  29  30
ENDBRANCH   9  11
ENDBRANCH   1   9
TORSDOF 7
ENDMDL
MODEL 2
REMARK VINA RESULT:    35.168      1.069      1.423
REMARK INTER + INTRA:          49.467
REMARK INTER:                  46.304
REMARK INTRA:                   3.163
REMARK UNBOUND:                 0.935
REMARK SMILES CC[C@H](CC[C@@H](C)[C@H]1CC[C@@H]2[C@@H]3CC=C4C[C@H](O)CC[C@@]4(C)[C@H]3CC[C@]21C)C(C)C
REMARK SMILES IDX 5 1 4 2 3 3 2 4 1 5 28 6 29 7 30 8 6 9 7 10 8 11 9 12 26 13
REMARK SMILES IDX 10 14 11 15 25 16 27 17 12 18 24 19 23 20 13 21 21 22 14 23
REMARK SMILES IDX 15 24 20 25 22 26 16 27 19 28 17 29 18 30
REMARK H PARENT 18 31
REMARK Flexibility Score: inf
ROOT
ATOM      1  C   UNL     1      14.861  13.465  40.995  1.00  0.00     0.004 C 
ENDROOT
BRANCH   1   2
ATOM      2  C   UNL     1      16.058  14.014  41.806  1.00  0.00     0.004 C 
BRANCH   2   3
ATOM      3  C   UNL     1      17.443  13.521  41.303  1.00  0.00    -0.009 C 
BRANCH   3   4
ATOM      4  C   UNL     1      18.579  14.079  42.217  1.00  0.00     0.000 C 
ATOM      5  C   UNL     1      19.344  12.975  42.950  1.00  0.00     0.004 C 
ENDBRANCH   3   4
BRANCH   3   6
ATOM      6  C   UNL     1      17.523  11.966  41.130  1.00  0.00    -0.014 C 
ATOM      7  C   UNL     1      16.135  11.302  41.174  1.00  0.00     0.007 C 
ATOM      8  C   UNL     1      18.210  11.575  39.809  1.00  0.00     0.007 C 
ENDBRANCH   3   6
ENDBRANCH   2   3
ENDBRANCH   1   2
BRANCH   1   9
ATOM      9  C   UNL     1      14.995  13.639  39.451  1.00  0.00    -0.011 C 
ATOM     10  C   UNL     1      16.427  14.124  39.119  1.00  0.00     0.008 C 
BRANCH   9  11
ATOM     11  C   UNL     1      14.619  12.349  38.642  1.00  0.00    -0.002 C 
ATOM     12  C   UNL     1      13.152  11.884  38.859  1.00  0.00     0.005 C 
ATOM     13  C   UNL     1      14.838  12.347  37.064  1.00  0.00    -0.026 C 
ATOM     14  C   UNL     1      12.664  11.326  37.530  1.00  0.00     0.005 C 
ATOM     15  C   UNL     1      13.395  12.202  36.542  1.00  0.00    -0.001 C 
ATOM     16  C   UNL     1      15.434  13.621  36.358  1.00  0.00     0.007 C 
ATOM     17  C   UNL     1      15.742  11.109  36.753  1.00  0.00     0.012 C 
ATOM     18  C   UNL     1      13.220  11.962  35.022  1.00  0.00     0.000 C 
ATOM     19  C   UNL     1      14.889  13.900  34.914  1.00  0.00     0.005 C 
ATOM     20  C   UNL     1      14.353  12.629  34.201  1.00  0.00     0.003 C 
ATOM     21  C   UNL     1      13.098  10.512  34.550  1.00  0.00     0.031 C 
ATOM     22  C   UNL     1      13.936  12.772  32.690  1.00  0.00    -0.008 C 
ATOM     23  C   UNL     1      12.802  10.505  33.068  1.00  0.00    -0.027 C 
ATOM     24  C   UNL     1      13.151  11.519  32.229  1.00  0.00    -0.065 C 
ATOM     25  C   UNL     1      13.036  14.024  32.456  1.00  0.00     0.014 C 
ATOM     26  C   UNL     1      15.228  12.892  31.834  1.00  0.00     0.016 C 
ATOM     27  C   UNL     1      12.563  11.544  30.834  1.00  0.00     0.063 C 
ATOM     28  C   UNL     1      12.420  14.080  31.042  1.00  0.00     0.033 C 
ATOM     29  C   UNL     1      11.662  12.783  30.691  1.00  0.00     0.118 C 
BRANCH  29  30
ATOM     30  O   UNL     1      11.125  12.861  29.396  1.00  0.00    -0.393 OA
ATOM     31  H   UNL     1      11.844  13.185  28.791  1.00  0.00     0.210 HD
ENDBRANCH  29  30
ENDBRANCH   9  11
ENDBRANCH   1   9
TORSDOF 7
ENDMDL
