MODEL 1
REMARK VINA RESULT:    -4.014      0.000      0.000
REMARK INTER + INTRA:          -5.115
REMARK INTER:                  -4.718
REMARK INTRA:                  -0.397
REMARK UNBOUND:                -0.397
REMARK SMILES [NH3+][C@H](CO)C(=O)[O-]
REMARK SMILES IDX 3 1 2 2 1 3 5 7 6 8 7 9 4 10
REMARK H PARENT 1 4 1 5 1 6 4 11
REMARK Flexibility Score: inf
ROOT
ATOM      1  C   UNL     1     -32.668  47.058 -15.619  1.00  0.00     0.227 C 
ENDROOT
BRANCH   1   2
ATOM      2  C   UNL     1     -32.622  48.494 -16.172  1.00  0.00     0.253 C 
BRANCH   2   3
ATOM      3  N   UNL     1     -33.671  48.705 -17.178  1.00  0.00    -0.348 N 
ATOM      4  H   UNL     1     -33.641  47.956 -17.908  1.00  0.00     0.345 HD
ATOM      5  H   UNL     1     -33.544  49.636 -17.638  1.00  0.00     0.345 HD
ATOM      6  H   UNL     1     -34.610  48.697 -16.716  1.00  0.00     0.345 HD
ENDBRANCH   2   3
BRANCH   2   7
ATOM      7  C   UNL     1     -32.772  49.482 -15.048  1.00  0.00     0.102 C 
ATOM      8  O   UNL     1     -31.771  49.815 -14.361  1.00  0.00    -0.544 OA
ATOM      9  O   UNL     1     -34.017  50.021 -14.749  1.00  0.00    -0.544 OA
ENDBRANCH   2   7
ENDBRANCH   1   2
BRANCH   1  10
ATOM     10  O   UNL     1     -33.011  47.058 -14.259  1.00  0.00    -0.390 OA
ATOM     11  H   UNL     1     -34.003  47.064 -14.216  1.00  0.00     0.210 HD
ENDBRANCH   1  10
TORSDOF 4
ENDMDL
MODEL 2
REMARK VINA RESULT:    -3.929      1.847      2.495
REMARK INTER + INTRA:          -5.015
REMARK INTER:                  -4.682
REMARK INTRA:                  -0.333
REMARK UNBOUND:                -0.397
REMARK SMILES [NH3+][C@H](CO)C(=O)[O-]
REMARK SMILES IDX 3 1 2 2 1 3 5 7 6 8 7 9 4 10
REMARK H PARENT 1 4 1 5 1 6 4 11
REMARK Flexibility Score: inf
ROOT
ATOM      1  C   UNL     1     -31.709  47.936 -17.239  1.00  0.00     0.227 C 
ENDROOT
BRANCH   1   2
ATOM      2  C   UNL     1     -32.846  47.781 -16.212  1.00  0.00     0.253 C 
BRANCH   2   3
ATOM      3  N   UNL     1     -32.560  46.692 -15.269  1.00  0.00    -0.348 N 
ATOM      4  H   UNL     1     -33.358  46.017 -15.229  1.00  0.00     0.345 HD
ATOM      5  H   UNL     1     -32.392  47.082 -14.313  1.00  0.00     0.345 HD
ATOM      6  H   UNL     1     -31.695  46.184 -15.568  1.00  0.00     0.345 HD
ENDBRANCH   2   3
BRANCH   2   7
ATOM      7  C   UNL     1     -33.046  49.074 -15.470  1.00  0.00     0.102 C 
ATOM      8  O   UNL     1     -34.125  49.713 -15.591  1.00  0.00    -0.544 OA
ATOM      9  O   UNL     1     -32.038  49.581 -14.660  1.00  0.00    -0.544 OA
ENDBRANCH   2   7
ENDBRANCH   1   2
BRANCH   1  10
ATOM     10  O   UNL     1     -31.518  49.285 -17.571  1.00  0.00    -0.390 OA
ATOM     11  H   UNL     1     -31.872  49.818 -16.813  1.00  0.00     0.210 HD
ENDBRANCH   1  10
TORSDOF 4
ENDMDL
MODEL 3
REMARK VINA RESULT:    -3.780      1.933      2.323
REMARK INTER + INTRA:          -4.840
REMARK INTER:                  -4.801
REMARK INTRA:                  -0.038
REMARK UNBOUND:                -0.397
REMARK SMILES [NH3+][C@H](CO)C(=O)[O-]
REMARK SMILES IDX 3 1 2 2 1 3 5 7 6 8 7 9 4 10
REMARK H PARENT 1 4 1 5 1 6 4 11
REMARK Flexibility Score: inf
ROOT
ATOM      1  C   UNL     1     -33.285  48.327 -14.965  1.00  0.00     0.227 C 
ENDROOT
BRANCH   1   2
ATOM      2  C   UNL     1     -33.202  48.178 -16.495  1.00  0.00     0.253 C 
BRANCH   2   3
ATOM      3  N   UNL     1     -34.122  49.105 -17.166  1.00  0.00    -0.348 N 
ATOM      4  H   UNL     1     -34.192  50.005 -16.638  1.00  0.00     0.345 HD
ATOM      5  H   UNL     1     -35.073  48.675 -17.238  1.00  0.00     0.345 HD
ATOM      6  H   UNL     1     -33.781  49.301 -18.136  1.00  0.00     0.345 HD
ENDBRANCH   2   3
BRANCH   2   7
ATOM      7  C   UNL     1     -31.791  48.418 -16.958  1.00  0.00     0.102 C 
ATOM      8  O   UNL     1     -31.095  49.321 -16.424  1.00  0.00    -0.544 OA
ATOM      9  O   UNL     1     -31.251  47.657 -17.988  1.00  0.00    -0.544 OA
ENDBRANCH   2   7
ENDBRANCH   1   2
BRANCH   1  10
ATOM     10  O   UNL     1     -32.993  47.112 -14.329  1.00  0.00    -0.390 OA
ATOM     11  H   UNL     1     -33.160  47.250 -13.361  1.00  0.00     0.210 HD
ENDBRANCH   1  10
TORSDOF 4
ENDMDL
MODEL 4
REMARK VINA RESULT:    -3.760      1.366      2.568
REMARK INTER + INTRA:          -4.816
REMARK INTER:                  -4.413
REMARK INTRA:                  -0.403
REMARK UNBOUND:                -0.397
REMARK SMILES [NH3+][C@H](CO)C(=O)[O-]
REMARK SMILES IDX 3 1 2 2 1 3 5 7 6 8 7 9 4 10
REMARK H PARENT 1 4 1 5 1 6 4 11
REMARK Flexibility Score: inf
ROOT
ATOM      1  C   UNL     1     -33.633  49.940 -14.855  1.00  0.00     0.227 C 
ENDROOT
BRANCH   1   2
ATOM      2  C   UNL     1     -33.864  48.723 -15.771  1.00  0.00     0.253 C 
BRANCH   2   3
ATOM      3  N   UNL     1     -34.125  49.146 -17.153  1.00  0.00    -0.348 N 
ATOM      4  H   UNL     1     -33.249  49.105 -17.724  1.00  0.00     0.345 HD
ATOM      5  H   UNL     1     -34.495  50.124 -17.164  1.00  0.00     0.345 HD
ATOM      6  H   UNL     1     -34.846  48.522 -17.584  1.00  0.00     0.345 HD
ENDBRANCH   2   3
BRANCH   2   7
ATOM      7  C   UNL     1     -32.671  47.810 -15.722  1.00  0.00     0.102 C 
ATOM      8  O   UNL     1     -32.624  46.875 -14.879  1.00  0.00    -0.544 OA
ATOM      9  O   UNL     1     -31.605  48.000 -16.593  1.00  0.00    -0.544 OA
ENDBRANCH   2   7
ENDBRANCH   1   2
BRANCH   1  10
ATOM     10  O   UNL     1     -32.420  49.818 -14.162  1.00  0.00    -0.390 OA
ATOM     11  H   UNL     1     -31.750  49.488 -14.816  1.00  0.00     0.210 HD
ENDBRANCH   1  10
TORSDOF 4
ENDMDL
MODEL 5
REMARK VINA RESULT:    -3.737      2.148      2.601
REMARK INTER + INTRA:          -4.790
REMARK INTER:                  -4.601
REMARK INTRA:                  -0.188
REMARK UNBOUND:                -0.397
REMARK SMILES [NH3+][C@H](CO)C(=O)[O-]
REMARK SMILES IDX 3 1 2 2 1 3 5 7 6 8 7 9 4 10
REMARK H PARENT 1 4 1 5 1 6 4 11
REMARK Flexibility Score: inf
ROOT
ATOM      1  C   UNL     1     -34.125  48.453 -14.862  1.00  0.00     0.227 C 
ENDROOT
BRANCH   1   2
ATOM      2  C   UNL     1     -32.903  49.300 -15.261  1.00  0.00     0.253 C 
BRANCH   2   3
ATOM      3  N   UNL     1     -32.138  49.714 -14.077  1.00  0.00    -0.348 N 
ATOM      4  H   UNL     1     -31.114  49.746 -14.290  1.00  0.00     0.345 HD
ATOM      5  H   UNL     1     -32.305  49.043 -13.292  1.00  0.00     0.345 HD
ATOM      6  H   UNL     1     -32.454  50.662 -13.766  1.00  0.00     0.345 HD
ENDBRANCH   2   3
BRANCH   2   7
ATOM      7  C   UNL     1     -32.025  48.522 -16.203  1.00  0.00     0.102 C 
ATOM      8  O   UNL     1     -32.152  47.273 -16.300  1.00  0.00    -0.544 OA
ATOM      9  O   UNL     1     -31.057  49.172 -16.959  1.00  0.00    -0.544 OA
ENDBRANCH   2   7
ENDBRANCH   1   2
BRANCH   1  10
ATOM     10  O   UNL     1     -33.735  47.346 -14.095  1.00  0.00    -0.390 OA
ATOM     11  H   UNL     1     -33.850  47.604 -13.144  1.00  0.00     0.210 HD
ENDBRANCH   1  10
TORSDOF 4
ENDMDL
MODEL 6
REMARK VINA RESULT:    -3.701      1.903      2.483
REMARK INTER + INTRA:          -4.748
REMARK INTER:                  -4.551
REMARK INTRA:                  -0.196
REMARK UNBOUND:                -0.397
REMARK SMILES [NH3+][C@H](CO)C(=O)[O-]
REMARK SMILES IDX 3 1 2 2 1 3 5 7 6 8 7 9 4 10
REMARK H PARENT 1 4 1 5 1 6 4 11
REMARK Flexibility Score: inf
ROOT
ATOM      1  C   UNL     1     -31.473  48.842 -17.036  1.00  0.00     0.227 C 
ENDROOT
BRANCH   1   2
ATOM      2  C   UNL     1     -32.879  48.966 -16.419  1.00  0.00     0.253 C 
BRANCH   2   3
ATOM      3  N   UNL     1     -33.917  48.915 -17.457  1.00  0.00    -0.348 N 
ATOM      4  H   UNL     1     -34.132  49.875 -17.813  1.00  0.00     0.345 HD
ATOM      5  H   UNL     1     -34.790  48.490 -17.069  1.00  0.00     0.345 HD
ATOM      6  H   UNL     1     -33.592  48.318 -18.253  1.00  0.00     0.345 HD
ENDBRANCH   2   3
BRANCH   2   7
ATOM      7  C   UNL     1     -33.095  47.869 -15.412  1.00  0.00     0.102 C 
ATOM      8  O   UNL     1     -32.353  46.852 -15.415  1.00  0.00    -0.544 OA
ATOM      9  O   UNL     1     -34.125  47.962 -14.484  1.00  0.00    -0.544 OA
ENDBRANCH   2   7
ENDBRANCH   1   2
BRANCH   1  10
ATOM     10  O   UNL     1     -31.500  48.031 -18.179  1.00  0.00    -0.390 OA
ATOM     11  H   UNL     1     -30.652  48.199 -18.667  1.00  0.00     0.210 HD
ENDBRANCH   1  10
TORSDOF 4
ENDMDL
MODEL 7
REMARK VINA RESULT:    -3.519     16.404     16.838
REMARK INTER + INTRA:          -4.533
REMARK INTER:                  -4.192
REMARK INTRA:                  -0.341
REMARK UNBOUND:                -0.397
REMARK SMILES [NH3+][C@H](CO)C(=O)[O-]
REMARK SMILES IDX 3 1 2 2 1 3 5 7 6 8 7 9 4 10
REMARK H PARENT 1 4 1 5 1 6 4 11
REMARK Flexibility Score: inf
ROOT
ATOM      1  C   UNL     1     -30.322  36.910  -2.834  1.00  0.00     0.227 C 
ENDROOT
BRANCH   1   2
ATOM      2  C   UNL     1     -31.633  37.248  -2.101  1.00  0.00     0.253 C 
BRANCH   2   3
ATOM      3  N   UNL     1     -31.385  38.139  -0.961  1.00  0.00    -0.348 N 
ATOM      4  H   UNL     1     -31.746  37.716  -0.074  1.00  0.00     0.345 HD
ATOM      5  H   UNL     1     -31.856  39.059  -1.117  1.00  0.00     0.345 HD
ATOM      6  H   UNL     1     -30.358  38.313  -0.865  1.00  0.00     0.345 HD
ENDBRANCH   2   3
BRANCH   2   7
ATOM      7  C   UNL     1     -32.606  37.883  -3.057  1.00  0.00     0.102 C 
ATOM      8  O   UNL     1     -32.916  39.097  -2.930  1.00  0.00    -0.544 OA
ATOM      9  O   UNL     1     -33.182  37.132  -4.074  1.00  0.00    -0.544 OA
ENDBRANCH   2   7
ENDBRANCH   1   2
BRANCH   1  10
ATOM     10  O   UNL     1     -30.139  37.750  -3.942  1.00  0.00    -0.390 OA
ATOM     11  H   UNL     1     -30.710  37.390  -4.670  1.00  0.00     0.210 HD
ENDBRANCH   1  10
TORSDOF 4
ENDMDL
MODEL 8
REMARK VINA RESULT:    -3.513     16.128     16.718
REMARK INTER + INTRA:          -4.527
REMARK INTER:                  -4.521
REMARK INTRA:                  -0.005
REMARK UNBOUND:                -0.397
REMARK SMILES [NH3+][C@H](CO)C(=O)[O-]
REMARK SMILES IDX 3 1 2 2 1 3 5 7 6 8 7 9 4 10
REMARK H PARENT 1 4 1 5 1 6 4 11
REMARK Flexibility Score: inf
ROOT
ATOM      1  C   UNL     1     -19.854  54.053  -5.520  1.00  0.00     0.227 C 
ENDROOT
BRANCH   1   2
ATOM      2  C   UNL     1     -21.124  54.843  -5.154  1.00  0.00     0.253 C 
BRANCH   2   3
ATOM      3  N   UNL     1     -21.945  55.102  -6.343  1.00  0.00    -0.348 N 
ATOM      4  H   UNL     1     -21.454  54.782  -7.210  1.00  0.00     0.345 HD
ATOM      5  H   UNL     1     -22.147  56.125  -6.422  1.00  0.00     0.345 HD
ATOM      6  H   UNL     1     -22.858  54.597  -6.259  1.00  0.00     0.345 HD
ENDBRANCH   2   3
BRANCH   2   7
ATOM      7  C   UNL     1     -21.920  54.086  -4.126  1.00  0.00     0.102 C 
ATOM      8  O   UNL     1     -23.158  53.917  -4.283  1.00  0.00    -0.544 OA
ATOM      9  O   UNL     1     -21.299  53.583  -2.989  1.00  0.00    -0.544 OA
ENDBRANCH   2   7
ENDBRANCH   1   2
BRANCH   1  10
ATOM     10  O   UNL     1     -19.526  54.235  -6.871  1.00  0.00    -0.390 OA
ATOM     11  H   UNL     1     -18.536  54.191  -6.932  1.00  0.00     0.210 HD
ENDBRANCH   1  10
TORSDOF 4
ENDMDL
MODEL 9
REMARK VINA RESULT:    -3.428      2.071      2.420
REMARK INTER + INTRA:          -4.427
REMARK INTER:                  -4.259
REMARK INTRA:                  -0.168
REMARK UNBOUND:                -0.397
REMARK SMILES [NH3+][C@H](CO)C(=O)[O-]
REMARK SMILES IDX 3 1 2 2 1 3 5 7 6 8 7 9 4 10
REMARK H PARENT 1 4 1 5 1 6 4 11
REMARK Flexibility Score: inf
ROOT
ATOM      1  C   UNL     1     -33.364  48.002 -16.735  1.00  0.00     0.227 C 
ENDROOT
BRANCH   1   2
ATOM      2  C   UNL     1     -33.161  48.414 -15.265  1.00  0.00     0.253 C 
BRANCH   2   3
ATOM      3  N   UNL     1     -33.016  47.234 -14.402  1.00  0.00    -0.348 N 
ATOM      4  H   UNL     1     -32.451  46.493 -14.878  1.00  0.00     0.345 HD
ATOM      5  H   UNL     1     -33.959  46.847 -14.166  1.00  0.00     0.345 HD
ATOM      6  H   UNL     1     -32.544  47.505 -13.509  1.00  0.00     0.345 HD
ENDBRANCH   2   3
BRANCH   2   7
ATOM      7  C   UNL     1     -31.951  49.300 -15.143  1.00  0.00     0.102 C 
ATOM      8  O   UNL     1     -31.728  49.922 -14.071  1.00  0.00    -0.544 OA
ATOM      9  O   UNL     1     -31.082  49.452 -16.216  1.00  0.00    -0.544 OA
ENDBRANCH   2   7
ENDBRANCH   1   2
BRANCH   1  10
ATOM     10  O   UNL     1     -34.009  49.020 -17.453  1.00  0.00    -0.390 OA
ATOM     11  H   UNL     1     -33.941  49.843 -16.902  1.00  0.00     0.210 HD
ENDBRANCH   1  10
TORSDOF 4
ENDMDL
