MODEL 1
REMARK VINA RESULT:    -3.926      0.000      0.000
REMARK INTER + INTRA:          -4.331
REMARK INTER:                  -4.155
REMARK INTRA:                  -0.176
REMARK UNBOUND:                -0.176
REMARK SMILES CC(C)[C@H]1CC[C@@H](C)CC1=O
REMARK SMILES IDX 8 1 7 2 6 3 5 4 4 5 10 6 11 7 9 8 2 9 1 10 3 11
REMARK H PARENT
REMARK Flexibility Score: inf
ROOT
ATOM      1  C   UNL     1      23.945   7.492 101.105  1.00  0.00     0.008 C 
ATOM      2  C   UNL     1      23.890   6.040 100.604  1.00  0.00    -0.007 C 
ATOM      3  C   UNL     1      22.437   5.519 100.509  1.00  0.00     0.004 C 
ATOM      4  C   UNL     1      21.795   5.259 101.888  1.00  0.00     0.012 C 
ATOM      5  C   UNL     1      22.648   4.298 102.751  1.00  0.00     0.058 C 
ATOM      6  C   UNL     1      24.064   4.848 102.786  1.00  0.00     0.136 C 
ATOM      7  O   UNL     1      24.611   5.161 103.833  1.00  0.00    -0.299 OA
ATOM      8  C   UNL     1      24.752   5.108 101.476  1.00  0.00     0.079 C 
ENDROOT
BRANCH   5   9
ATOM      9  C   UNL     1      22.053   4.058 104.178  1.00  0.00    -0.007 C 
ATOM     10  C   UNL     1      20.979   5.094 104.557  1.00  0.00     0.008 C 
ATOM     11  C   UNL     1      21.435   2.651 104.285  1.00  0.00     0.008 C 
ENDBRANCH   5   9
TORSDOF 1
ENDMDL
MODEL 2
REMARK VINA RESULT:    -3.907      2.666      3.975
REMARK INTER + INTRA:          -4.311
REMARK INTER:                  -4.158
REMARK INTRA:                  -0.154
REMARK UNBOUND:                -0.176
REMARK SMILES CC(C)[C@H]1CC[C@@H](C)CC1=O
REMARK SMILES IDX 8 1 7 2 6 3 5 4 4 5 10 6 11 7 9 8 2 9 1 10 3 11
REMARK H PARENT
REMARK Flexibility Score: inf
ROOT
ATOM      1  C   UNL     1      20.996   1.536 101.610  1.00  0.00     0.008 C 
ATOM      2  C   UNL     1      22.182   1.557 102.588  1.00  0.00    -0.007 C 
ATOM      3  C   UNL     1      21.757   1.151 104.018  1.00  0.00     0.004 C 
ATOM      4  C   UNL     1      20.916   2.231 104.730  1.00  0.00     0.012 C 
ATOM      5  C   UNL     1      21.639   3.599 104.761  1.00  0.00     0.058 C 
ATOM      6  C   UNL     1      22.052   3.931 103.338  1.00  0.00     0.136 C 
ATOM      7  O   UNL     1      21.655   4.935 102.765  1.00  0.00    -0.299 OA
ATOM      8  C   UNL     1      22.886   2.927 102.593  1.00  0.00     0.079 C 
ENDROOT
BRANCH   5   9
ATOM      9  C   UNL     1      20.788   4.731 105.427  1.00  0.00    -0.007 C 
ATOM     10  C   UNL     1      19.675   4.182 106.337  1.00  0.00     0.008 C 
ATOM     11  C   UNL     1      21.682   5.671 106.259  1.00  0.00     0.008 C 
ENDBRANCH   5   9
TORSDOF 1
ENDMDL
MODEL 3
REMARK VINA RESULT:    -3.884      9.597     10.854
REMARK INTER + INTRA:          -4.287
REMARK INTER:                  -4.124
REMARK INTRA:                  -0.163
REMARK UNBOUND:                -0.176
REMARK SMILES CC(C)[C@H]1CC[C@@H](C)CC1=O
REMARK SMILES IDX 8 1 7 2 6 3 5 4 4 5 10 6 11 7 9 8 2 9 1 10 3 11
REMARK H PARENT
REMARK Flexibility Score: inf
ROOT
ATOM      1  C   UNL     1      21.144  -4.149 101.504  1.00  0.00     0.008 C 
ATOM      2  C   UNL     1      21.982  -5.428 101.350  1.00  0.00    -0.007 C 
ATOM      3  C   UNL     1      21.461  -6.569 102.255  1.00  0.00     0.004 C 
ATOM      4  C   UNL     1      21.755  -6.338 103.752  1.00  0.00     0.012 C 
ATOM      5  C   UNL     1      23.262  -6.099 104.015  1.00  0.00     0.058 C 
ATOM      6  C   UNL     1      23.719  -4.990 103.083  1.00  0.00     0.136 C 
ATOM      7  O   UNL     1      24.190  -3.943 103.504  1.00  0.00    -0.299 OA
ATOM      8  C   UNL     1      23.476  -5.160 101.611  1.00  0.00     0.079 C 
ENDROOT
BRANCH   5   9
ATOM      9  C   UNL     1      23.587  -5.805 105.517  1.00  0.00    -0.007 C 
ATOM     10  C   UNL     1      22.367  -5.989 106.437  1.00  0.00     0.008 C 
ATOM     11  C   UNL     1      24.722  -6.717 106.021  1.00  0.00     0.008 C 
ENDBRANCH   5   9
TORSDOF 1
ENDMDL
MODEL 4
REMARK VINA RESULT:    -3.855      8.301      9.886
REMARK INTER + INTRA:          -4.256
REMARK INTER:                  -4.092
REMARK INTRA:                  -0.164
REMARK UNBOUND:                -0.176
REMARK SMILES CC(C)[C@H]1CC[C@@H](C)CC1=O
REMARK SMILES IDX 8 1 7 2 6 3 5 4 4 5 10 6 11 7 9 8 2 9 1 10 3 11
REMARK H PARENT
REMARK Flexibility Score: inf
ROOT
ATOM      1  C   UNL     1      30.741   5.236 104.206  1.00  0.00     0.008 C 
ATOM      2  C   UNL     1      32.030   4.400 104.213  1.00  0.00    -0.007 C 
ATOM      3  C   UNL     1      33.083   4.958 103.228  1.00  0.00     0.004 C 
ATOM      4  C   UNL     1      32.718   4.716 101.749  1.00  0.00     0.012 C 
ATOM      5  C   UNL     1      32.459   3.219 101.454  1.00  0.00     0.058 C 
ATOM      6  C   UNL     1      31.439   2.724 102.465  1.00  0.00     0.136 C 
ATOM      7  O   UNL     1      30.359   2.264 102.124  1.00  0.00    -0.299 OA
ATOM      8  C   UNL     1      31.741   2.914 103.924  1.00  0.00     0.079 C 
ENDROOT
BRANCH   5   9
ATOM      9  C   UNL     1      32.030   2.947  99.974  1.00  0.00    -0.007 C 
ATOM     10  C   UNL     1      32.073   4.213  99.099  1.00  0.00     0.008 C 
ATOM     11  C   UNL     1      32.932   1.876  99.330  1.00  0.00     0.008 C 
ENDBRANCH   5   9
TORSDOF 1
ENDMDL
MODEL 5
REMARK VINA RESULT:    -3.811      8.719      9.884
REMARK INTER + INTRA:          -4.210
REMARK INTER:                  -4.046
REMARK INTRA:                  -0.164
REMARK UNBOUND:                -0.176
REMARK SMILES CC(C)[C@H]1CC[C@@H](C)CC1=O
REMARK SMILES IDX 8 1 7 2 6 3 5 4 4 5 10 6 11 7 9 8 2 9 1 10 3 11
REMARK H PARENT
REMARK Flexibility Score: inf
ROOT
ATOM      1  C   UNL     1      33.759   1.896  99.982  1.00  0.00     0.008 C 
ATOM      2  C   UNL     1      32.484   2.734  99.799  1.00  0.00    -0.007 C 
ATOM      3  C   UNL     1      32.763   4.247  99.947  1.00  0.00     0.004 C 
ATOM      4  C   UNL     1      33.051   4.671 101.402  1.00  0.00     0.012 C 
ATOM      5  C   UNL     1      31.915   4.246 102.365  1.00  0.00     0.058 C 
ATOM      6  C   UNL     1      31.671   2.761 102.156  1.00  0.00     0.136 C 
ATOM      7  O   UNL     1      31.800   1.950 103.061  1.00  0.00    -0.299 OA
ATOM      8  C   UNL     1      31.369   2.284 100.764  1.00  0.00     0.079 C 
ENDROOT
BRANCH   5   9
ATOM      9  C   UNL     1      32.204   4.611 103.859  1.00  0.00    -0.007 C 
ATOM     10  C   UNL     1      33.510   5.406 104.036  1.00  0.00     0.008 C 
ATOM     11  C   UNL     1      31.045   5.434 104.455  1.00  0.00     0.008 C 
ENDBRANCH   5   9
TORSDOF 1
ENDMDL
MODEL 6
REMARK VINA RESULT:    -3.760      8.747     11.242
REMARK INTER + INTRA:          -4.155
REMARK INTER:                  -4.001
REMARK INTRA:                  -0.154
REMARK UNBOUND:                -0.176
REMARK SMILES CC(C)[C@H]1CC[C@@H](C)CC1=O
REMARK SMILES IDX 8 1 7 2 6 3 5 4 4 5 10 6 11 7 9 8 2 9 1 10 3 11
REMARK H PARENT
REMARK Flexibility Score: inf
ROOT
ATOM      1  C   UNL     1      21.201  -6.390 105.741  1.00  0.00     0.008 C 
ATOM      2  C   UNL     1      22.346  -7.114 105.015  1.00  0.00    -0.007 C 
ATOM      3  C   UNL     1      23.731  -6.604 105.473  1.00  0.00     0.004 C 
ATOM      4  C   UNL     1      24.057  -5.186 104.956  1.00  0.00     0.012 C 
ATOM      5  C   UNL     1      23.939  -5.091 103.416  1.00  0.00     0.058 C 
ATOM      6  C   UNL     1      22.573  -5.627 103.027  1.00  0.00     0.136 C 
ATOM      7  O   UNL     1      21.751  -4.941 102.438  1.00  0.00    -0.299 OA
ATOM      8  C   UNL     1      22.200  -7.009 103.485  1.00  0.00     0.079 C 
ENDROOT
BRANCH   5   9
ATOM      9  C   UNL     1      24.207  -3.651 102.865  1.00  0.00    -0.007 C 
ATOM     10  C   UNL     1      24.995  -2.773 103.853  1.00  0.00     0.008 C 
ATOM     11  C   UNL     1      24.984  -3.709 101.535  1.00  0.00     0.008 C 
ENDBRANCH   5   9
TORSDOF 1
ENDMDL
MODEL 7
REMARK VINA RESULT:    -3.745     14.080     15.331
REMARK INTER + INTRA:          -4.139
REMARK INTER:                  -3.981
REMARK INTRA:                  -0.159
REMARK UNBOUND:                -0.176
REMARK SMILES CC(C)[C@H]1CC[C@@H](C)CC1=O
REMARK SMILES IDX 8 1 7 2 6 3 5 4 4 5 10 6 11 7 9 8 2 9 1 10 3 11
REMARK H PARENT
REMARK Flexibility Score: inf
ROOT
ATOM      1  C   UNL     1      30.612  -0.940 112.961  1.00  0.00     0.008 C 
ATOM      2  C   UNL     1      30.785  -1.065 111.439  1.00  0.00    -0.007 C 
ATOM      3  C   UNL     1      30.131  -2.354 110.890  1.00  0.00     0.004 C 
ATOM      4  C   UNL     1      30.906  -3.634 111.266  1.00  0.00     0.012 C 
ATOM      5  C   UNL     1      32.389  -3.563 110.827  1.00  0.00     0.058 C 
ATOM      6  C   UNL     1      32.966  -2.268 111.373  1.00  0.00     0.136 C 
ATOM      7  O   UNL     1      33.915  -2.257 112.144  1.00  0.00    -0.299 OA
ATOM      8  C   UNL     1      32.268  -0.984 111.031  1.00  0.00     0.079 C 
ENDROOT
BRANCH   5   9
ATOM      9  C   UNL     1      33.217  -4.823 111.245  1.00  0.00    -0.007 C 
ATOM     10  C   UNL     1      32.328  -6.003 111.676  1.00  0.00     0.008 C 
ATOM     11  C   UNL     1      34.124  -5.290 110.090  1.00  0.00     0.008 C 
ENDBRANCH   5   9
TORSDOF 1
ENDMDL
MODEL 8
REMARK VINA RESULT:    -3.708      7.485      9.019
REMARK INTER + INTRA:          -4.100
REMARK INTER:                  -3.943
REMARK INTRA:                  -0.157
REMARK UNBOUND:                -0.176
REMARK SMILES CC(C)[C@H]1CC[C@@H](C)CC1=O
REMARK SMILES IDX 8 1 7 2 6 3 5 4 4 5 10 6 11 7 9 8 2 9 1 10 3 11
REMARK H PARENT
REMARK Flexibility Score: inf
ROOT
ATOM      1  C   UNL     1      32.623   5.433  99.955  1.00  0.00     0.008 C 
ATOM      2  C   UNL     1      33.376   4.207 100.493  1.00  0.00    -0.007 C 
ATOM      3  C   UNL     1      32.806   2.886  99.927  1.00  0.00     0.004 C 
ATOM      4  C   UNL     1      31.425   2.522 100.512  1.00  0.00     0.012 C 
ATOM      5  C   UNL     1      31.448   2.469 102.059  1.00  0.00     0.058 C 
ATOM      6  C   UNL     1      32.039   3.777 102.553  1.00  0.00     0.136 C 
ATOM      7  O   UNL     1      31.415   4.537 103.279  1.00  0.00    -0.299 OA
ATOM      8  C   UNL     1      33.389   4.183 102.034  1.00  0.00     0.079 C 
ENDROOT
BRANCH   5   9
ATOM      9  C   UNL     1      30.048   2.158 102.686  1.00  0.00    -0.007 C 
ATOM     10  C   UNL     1      29.061   1.557 101.669  1.00  0.00     0.008 C 
ATOM     11  C   UNL     1      30.183   1.183 103.871  1.00  0.00     0.008 C 
ENDBRANCH   5   9
TORSDOF 1
ENDMDL
MODEL 9
REMARK VINA RESULT:    -3.702      8.135      9.542
REMARK INTER + INTRA:          -4.095
REMARK INTER:                  -3.919
REMARK INTRA:                  -0.176
REMARK UNBOUND:                -0.176
REMARK SMILES CC(C)[C@H]1CC[C@@H](C)CC1=O
REMARK SMILES IDX 8 1 7 2 6 3 5 4 4 5 10 6 11 7 9 8 2 9 1 10 3 11
REMARK H PARENT
REMARK Flexibility Score: inf
ROOT
ATOM      1  C   UNL     1      32.944   4.564 100.395  1.00  0.00     0.008 C 
ATOM      2  C   UNL     1      33.186   3.350 101.306  1.00  0.00    -0.007 C 
ATOM      3  C   UNL     1      31.861   2.745 101.823  1.00  0.00     0.004 C 
ATOM      4  C   UNL     1      31.163   3.628 102.879  1.00  0.00     0.012 C 
ATOM      5  C   UNL     1      32.096   3.954 104.070  1.00  0.00     0.058 C 
ATOM      6  C   UNL     1      33.385   4.519 103.499  1.00  0.00     0.136 C 
ATOM      7  O   UNL     1      33.781   5.641 103.779  1.00  0.00    -0.299 OA
ATOM      8  C   UNL     1      34.123   3.702 102.477  1.00  0.00     0.079 C 
ENDROOT
BRANCH   5   9
ATOM      9  C   UNL     1      31.436   4.895 105.131  1.00  0.00    -0.007 C 
ATOM     10  C   UNL     1      30.162   5.581 104.607  1.00  0.00     0.008 C 
ATOM     11  C   UNL     1      31.080   4.114 106.410  1.00  0.00     0.008 C 
ENDBRANCH   5   9
TORSDOF 1
ENDMDL
