MODEL 1
REMARK VINA RESULT:    -3.211      0.000      0.000
REMARK INTER + INTRA:          -8.893
REMARK INTER:                  -6.215
REMARK INTRA:                  -2.679
REMARK UNBOUND:                -2.679
REMARK SMILES CCCCCCCCCCCCCCCCCC(=O)[O-]
REMARK SMILES IDX 10 1 11 2 12 3 13 4 14 5 15 6 16 7 17 8 18 9 19 10 20 11
REMARK SMILES IDX 9 12 8 13 7 14 6 15 5 16 4 17 3 18 2 19 1 20
REMARK H PARENT
REMARK Flexibility Score: inf
ROOT
ATOM      1  C   UNL     1      11.086  21.161  19.990  1.00  0.00     0.000 C 
ENDROOT
BRANCH   1   2
ATOM      2  C   UNL     1       9.874  21.310  20.930  1.00  0.00     0.000 C 
BRANCH   2   3
ATOM      3  C   UNL     1       8.813  22.326  20.463  1.00  0.00     0.000 C 
BRANCH   3   4
ATOM      4  C   UNL     1       8.715  22.505  18.935  1.00  0.00     0.000 C 
BRANCH   4   5
ATOM      5  C   UNL     1       7.309  22.293  18.340  1.00  0.00     0.000 C 
BRANCH   5   6
ATOM      6  C   UNL     1       6.381  21.383  19.166  1.00  0.00     0.000 C 
BRANCH   6   7
ATOM      7  C   UNL     1       6.351  19.934  18.649  1.00  0.00     0.006 C 
BRANCH   7   8
ATOM      8  C   UNL     1       6.077  19.864  17.141  1.00  0.00     0.053 C 
BRANCH   8   9
ATOM      9  C   UNL     1       4.707  19.333  16.849  1.00  0.00     0.041 C 
ATOM     10  O   UNL     1       4.547  18.428  15.987  1.00  0.00    -0.550 OA
ATOM     11  O   UNL     1       3.603  19.857  17.509  1.00  0.00    -0.550 OA
ENDBRANCH   8   9
ENDBRANCH   7   8
ENDBRANCH   6   7
ENDBRANCH   5   6
ENDBRANCH   4   5
ENDBRANCH   3   4
ENDBRANCH   2   3
ENDBRANCH   1   2
BRANCH   1  12
ATOM     12  C   UNL     1      12.270  22.101  20.294  1.00  0.00     0.000 C 
BRANCH  12  13
ATOM     13  C   UNL     1      12.835  22.859  19.079  1.00  0.00    -0.000 C 
BRANCH  13  14
ATOM     14  C   UNL     1      12.026  22.615  17.794  1.00  0.00    -0.000 C 
BRANCH  14  15
ATOM     15  C   UNL     1      12.838  21.879  16.716  1.00  0.00    -0.000 C 
BRANCH  15  16
ATOM     16  C   UNL     1      12.027  20.779  16.010  1.00  0.00    -0.000 C 
BRANCH  16  17
ATOM     17  C   UNL     1      10.531  21.121  15.905  1.00  0.00    -0.000 C 
BRANCH  17  18
ATOM     18  C   UNL     1       9.629  19.995  16.440  1.00  0.00    -0.000 C 
BRANCH  18  19
ATOM     19  C   UNL     1      10.353  19.091  17.449  1.00  0.00    -0.003 C 
ATOM     20  C   UNL     1       9.401  18.163  18.205  1.00  0.00     0.004 C 
ENDBRANCH  18  19
ENDBRANCH  17  18
ENDBRANCH  16  17
ENDBRANCH  15  16
ENDBRANCH  14  15
ENDBRANCH  13  14
ENDBRANCH  12  13
ENDBRANCH   1  12
TORSDOF 16
ENDMDL
MODEL 2
REMARK VINA RESULT:    -3.151      2.142      4.223
REMARK INTER + INTRA:          -8.776
REMARK INTER:                  -6.563
REMARK INTRA:                  -2.213
REMARK UNBOUND:                -2.679
REMARK SMILES CCCCCCCCCCCCCCCCCC(=O)[O-]
REMARK SMILES IDX 10 1 11 2 12 3 13 4 14 5 15 6 16 7 17 8 18 9 19 10 20 11
REMARK SMILES IDX 9 12 8 13 7 14 6 15 5 16 4 17 3 18 2 19 1 20
REMARK H PARENT
REMARK Flexibility Score: inf
ROOT
ATOM      1  C   UNL     1       9.058  18.325  17.465  1.00  0.00     0.000 C 
ENDROOT
BRANCH   1   2
ATOM      2  C   UNL     1       8.313  18.704  16.170  1.00  0.00     0.000 C 
BRANCH   2   3
ATOM      3  C   UNL     1       6.900  19.283  16.382  1.00  0.00     0.000 C 
BRANCH   3   4
ATOM      4  C   UNL     1       6.780  20.802  16.143  1.00  0.00     0.000 C 
BRANCH   4   5
ATOM      5  C   UNL     1       6.497  21.642  17.404  1.00  0.00     0.000 C 
BRANCH   5   6
ATOM      6  C   UNL     1       7.230  21.178  18.676  1.00  0.00     0.000 C 
BRANCH   6   7
ATOM      7  C   UNL     1       6.274  20.634  19.751  1.00  0.00     0.006 C 
BRANCH   7   8
ATOM      8  C   UNL     1       6.668  21.092  21.162  1.00  0.00     0.053 C 
BRANCH   8   9
ATOM      9  C   UNL     1       5.643  20.699  22.181  1.00  0.00     0.041 C 
ATOM     10  O   UNL     1       4.448  20.504  21.837  1.00  0.00    -0.550 OA
ATOM     11  O   UNL     1       6.004  20.574  23.517  1.00  0.00    -0.550 OA
ENDBRANCH   8   9
ENDBRANCH   7   8
ENDBRANCH   6   7
ENDBRANCH   5   6
ENDBRANCH   4   5
ENDBRANCH   3   4
ENDBRANCH   2   3
ENDBRANCH   1   2
BRANCH   1  12
ATOM     12  C   UNL     1      10.353  19.119  17.731  1.00  0.00     0.000 C 
BRANCH  12  13
ATOM     13  C   UNL     1      10.483  20.441  16.952  1.00  0.00    -0.000 C 
BRANCH  13  14
ATOM     14  C   UNL     1      11.754  20.502  16.088  1.00  0.00    -0.000 C 
BRANCH  14  15
ATOM     15  C   UNL     1      12.677  21.668  16.478  1.00  0.00    -0.000 C 
BRANCH  15  16
ATOM     16  C   UNL     1      12.047  22.595  17.534  1.00  0.00    -0.000 C 
BRANCH  16  17
ATOM     17  C   UNL     1      13.018  22.936  18.677  1.00  0.00    -0.000 C 
BRANCH  17  18
ATOM     18  C   UNL     1      12.369  22.791  20.065  1.00  0.00    -0.000 C 
BRANCH  18  19
ATOM     19  C   UNL     1      11.802  21.384  20.305  1.00  0.00    -0.003 C 
ATOM     20  C   UNL     1      10.350  21.403  20.785  1.00  0.00     0.004 C 
ENDBRANCH  18  19
ENDBRANCH  17  18
ENDBRANCH  16  17
ENDBRANCH  15  16
ENDBRANCH  14  15
ENDBRANCH  13  14
ENDBRANCH  12  13
ENDBRANCH   1  12
TORSDOF 16
ENDMDL
MODEL 3
REMARK VINA RESULT:    -3.126     21.312     22.822
REMARK INTER + INTRA:          -8.728
REMARK INTER:                  -6.070
REMARK INTRA:                  -2.658
REMARK UNBOUND:                -2.679
REMARK SMILES CCCCCCCCCCCCCCCCCC(=O)[O-]
REMARK SMILES IDX 10 1 11 2 12 3 13 4 14 5 15 6 16 7 17 8 18 9 19 10 20 11
REMARK SMILES IDX 9 12 8 13 7 14 6 15 5 16 4 17 3 18 2 19 1 20
REMARK H PARENT
REMARK Flexibility Score: inf
ROOT
ATOM      1  C   UNL     1      10.184   4.356  31.455  1.00  0.00     0.000 C 
ENDROOT
BRANCH   1   2
ATOM      2  C   UNL     1       9.381   3.066  31.712  1.00  0.00     0.000 C 
BRANCH   2   3
ATOM      3  C   UNL     1       8.424   3.128  32.919  1.00  0.00     0.000 C 
BRANCH   3   4
ATOM      4  C   UNL     1       6.948   3.396  32.563  1.00  0.00     0.000 C 
BRANCH   4   5
ATOM      5  C   UNL     1       6.670   4.767  31.914  1.00  0.00     0.000 C 
BRANCH   5   6
ATOM      6  C   UNL     1       5.892   5.761  32.795  1.00  0.00     0.000 C 
BRANCH   6   7
ATOM      7  C   UNL     1       5.422   5.141  34.123  1.00  0.00     0.006 C 
BRANCH   7   8
ATOM      8  C   UNL     1       5.191   6.201  35.207  1.00  0.00     0.053 C 
BRANCH   8   9
ATOM      9  C   UNL     1       3.876   6.897  35.033  1.00  0.00     0.041 C 
ATOM     10  O   UNL     1       3.730   8.086  35.421  1.00  0.00    -0.550 OA
ATOM     11  O   UNL     1       2.802   6.221  34.468  1.00  0.00    -0.550 OA
ENDBRANCH   8   9
ENDBRANCH   7   8
ENDBRANCH   6   7
ENDBRANCH   5   6
ENDBRANCH   4   5
ENDBRANCH   3   4
ENDBRANCH   2   3
ENDBRANCH   1   2
BRANCH   1  12
ATOM     12  C   UNL     1      11.554   4.424  32.158  1.00  0.00     0.000 C 
BRANCH  12  13
ATOM     13  C   UNL     1      12.233   3.064  32.407  1.00  0.00    -0.000 C 
BRANCH  13  14
ATOM     14  C   UNL     1      12.888   2.969  33.796  1.00  0.00    -0.000 C 
BRANCH  14  15
ATOM     15  C   UNL     1      11.864   3.057  34.938  1.00  0.00    -0.000 C 
BRANCH  15  16
ATOM     16  C   UNL     1      12.189   4.179  35.941  1.00  0.00    -0.000 C 
BRANCH  16  17
ATOM     17  C   UNL     1      11.234   5.379  35.815  1.00  0.00    -0.000 C 
BRANCH  17  18
ATOM     18  C   UNL     1       9.757   4.953  35.745  1.00  0.00    -0.000 C 
BRANCH  18  19
ATOM     19  C   UNL     1       8.859   6.041  35.137  1.00  0.00    -0.003 C 
ATOM     20  C   UNL     1       9.566   6.858  34.055  1.00  0.00     0.004 C 
ENDBRANCH  18  19
ENDBRANCH  17  18
ENDBRANCH  16  17
ENDBRANCH  15  16
ENDBRANCH  14  15
ENDBRANCH  13  14
ENDBRANCH  12  13
ENDBRANCH   1  12
TORSDOF 16
ENDMDL
MODEL 4
REMARK VINA RESULT:    -3.120      2.393      2.980
REMARK INTER + INTRA:          -8.717
REMARK INTER:                  -6.160
REMARK INTRA:                  -2.557
REMARK UNBOUND:                -2.679
REMARK SMILES CCCCCCCCCCCCCCCCCC(=O)[O-]
REMARK SMILES IDX 10 1 11 2 12 3 13 4 14 5 15 6 16 7 17 8 18 9 19 10 20 11
REMARK SMILES IDX 9 12 8 13 7 14 6 15 5 16 4 17 3 18 2 19 1 20
REMARK H PARENT
REMARK Flexibility Score: inf
ROOT
ATOM      1  C   UNL     1      10.929  21.254  20.156  1.00  0.00     0.000 C 
ENDROOT
BRANCH   1   2
ATOM      2  C   UNL     1       9.809  21.750  21.091  1.00  0.00     0.000 C 
BRANCH   2   3
ATOM      3  C   UNL     1       8.783  22.691  20.431  1.00  0.00     0.000 C 
BRANCH   3   4
ATOM      4  C   UNL     1       8.347  22.280  19.010  1.00  0.00     0.000 C 
BRANCH   4   5
ATOM      5  C   UNL     1       6.859  21.906  18.865  1.00  0.00     0.000 C 
BRANCH   5   6
ATOM      6  C   UNL     1       6.399  20.713  19.723  1.00  0.00     0.000 C 
BRANCH   6   7
ATOM      7  C   UNL     1       5.524  21.139  20.915  1.00  0.00     0.006 C 
BRANCH   7   8
ATOM      8  C   UNL     1       6.175  20.797  22.262  1.00  0.00     0.053 C 
BRANCH   8   9
ATOM      9  C   UNL     1       5.203  20.152  23.202  1.00  0.00     0.041 C 
ATOM     10  O   UNL     1       5.616  19.406  24.129  1.00  0.00    -0.550 OA
ATOM     11  O   UNL     1       3.839  20.353  23.036  1.00  0.00    -0.550 OA
ENDBRANCH   8   9
ENDBRANCH   7   8
ENDBRANCH   6   7
ENDBRANCH   5   6
ENDBRANCH   4   5
ENDBRANCH   3   4
ENDBRANCH   2   3
ENDBRANCH   1   2
BRANCH   1  12
ATOM     12  C   UNL     1      12.268  22.007  20.281  1.00  0.00     0.000 C 
BRANCH  12  13
ATOM     13  C   UNL     1      12.707  22.778  19.023  1.00  0.00    -0.000 C 
BRANCH  13  14
ATOM     14  C   UNL     1      11.863  22.432  17.785  1.00  0.00    -0.000 C 
BRANCH  14  15
ATOM     15  C   UNL     1      12.670  21.691  16.708  1.00  0.00    -0.000 C 
BRANCH  15  16
ATOM     16  C   UNL     1      11.810  20.709  15.892  1.00  0.00    -0.000 C 
BRANCH  16  17
ATOM     17  C   UNL     1      10.322  21.099  15.875  1.00  0.00    -0.000 C 
BRANCH  17  18
ATOM     18  C   UNL     1       9.406  19.948  16.328  1.00  0.00    -0.000 C 
BRANCH  18  19
ATOM     19  C   UNL     1      10.067  19.052  17.388  1.00  0.00    -0.003 C 
ATOM     20  C   UNL     1       9.064  18.482  18.391  1.00  0.00     0.004 C 
ENDBRANCH  18  19
ENDBRANCH  17  18
ENDBRANCH  16  17
ENDBRANCH  15  16
ENDBRANCH  14  15
ENDBRANCH  13  14
ENDBRANCH  12  13
ENDBRANCH   1  12
TORSDOF 16
ENDMDL
MODEL 5
REMARK VINA RESULT:    -3.087      3.279      6.683
REMARK INTER + INTRA:          -8.653
REMARK INTER:                  -6.420
REMARK INTRA:                  -2.233
REMARK UNBOUND:                -2.679
REMARK SMILES CCCCCCCCCCCCCCCCCC(=O)[O-]
REMARK SMILES IDX 10 1 11 2 12 3 13 4 14 5 15 6 16 7 17 8 18 9 19 10 20 11
REMARK SMILES IDX 9 12 8 13 7 14 6 15 5 16 4 17 3 18 2 19 1 20
REMARK H PARENT
REMARK Flexibility Score: inf
ROOT
ATOM      1  C   UNL     1       9.040  18.639  17.488  1.00  0.00     0.000 C 
ENDROOT
BRANCH   1   2
ATOM      2  C   UNL     1      10.278  19.553  17.573  1.00  0.00     0.000 C 
BRANCH   2   3
ATOM      3  C   UNL     1      10.563  20.377  16.302  1.00  0.00     0.000 C 
BRANCH   3   4
ATOM      4  C   UNL     1      12.007  20.905  16.183  1.00  0.00     0.000 C 
BRANCH   4   5
ATOM      5  C   UNL     1      12.184  22.404  16.499  1.00  0.00     0.000 C 
BRANCH   5   6
ATOM      6  C   UNL     1      12.927  22.711  17.812  1.00  0.00     0.000 C 
BRANCH   6   7
ATOM      7  C   UNL     1      12.114  22.329  19.061  1.00  0.00     0.006 C 
BRANCH   7   8
ATOM      8  C   UNL     1      12.846  22.690  20.361  1.00  0.00     0.053 C 
BRANCH   8   9
ATOM      9  C   UNL     1      12.261  21.981  21.544  1.00  0.00     0.041 C 
ATOM     10  O   UNL     1      11.283  21.201  21.397  1.00  0.00    -0.550 OA
ATOM     11  O   UNL     1      12.778  22.205  22.813  1.00  0.00    -0.550 OA
ENDBRANCH   8   9
ENDBRANCH   7   8
ENDBRANCH   6   7
ENDBRANCH   5   6
ENDBRANCH   4   5
ENDBRANCH   3   4
ENDBRANCH   2   3
ENDBRANCH   1   2
BRANCH   1  12
ATOM     12  C   UNL     1       8.440  18.479  16.077  1.00  0.00     0.000 C 
BRANCH  12  13
ATOM     13  C   UNL     1       6.928  18.749  15.972  1.00  0.00    -0.000 C 
BRANCH  13  14
ATOM     14  C   UNL     1       6.499  20.037  16.697  1.00  0.00    -0.000 C 
BRANCH  14  15
ATOM     15  C   UNL     1       5.375  19.794  17.716  1.00  0.00    -0.000 C 
BRANCH  15  16
ATOM     16  C   UNL     1       5.549  20.625  19.000  1.00  0.00    -0.000 C 
BRANCH  16  17
ATOM     17  C   UNL     1       6.956  20.493  19.605  1.00  0.00    -0.000 C 
BRANCH  17  18
ATOM     18  C   UNL     1       7.557  21.853  20.004  1.00  0.00    -0.000 C 
BRANCH  18  19
ATOM     19  C   UNL     1       7.424  22.904  18.891  1.00  0.00    -0.003 C 
ATOM     20  C   UNL     1       8.645  22.954  17.973  1.00  0.00     0.004 C 
ENDBRANCH  18  19
ENDBRANCH  17  18
ENDBRANCH  16  17
ENDBRANCH  15  16
ENDBRANCH  14  15
ENDBRANCH  13  14
ENDBRANCH  12  13
ENDBRANCH   1  12
TORSDOF 16
ENDMDL
MODEL 6
REMARK VINA RESULT:    -3.058     19.491     21.463
REMARK INTER + INTRA:          -8.596
REMARK INTER:                  -6.502
REMARK INTRA:                  -2.094
REMARK UNBOUND:                -2.679
REMARK SMILES CCCCCCCCCCCCCCCCCC(=O)[O-]
REMARK SMILES IDX 10 1 11 2 12 3 13 4 14 5 15 6 16 7 17 8 18 9 19 10 20 11
REMARK SMILES IDX 9 12 8 13 7 14 6 15 5 16 4 17 3 18 2 19 1 20
REMARK H PARENT
REMARK Flexibility Score: inf
ROOT
ATOM      1  C   UNL     1      10.623   3.663  31.984  1.00  0.00     0.000 C 
ENDROOT
BRANCH   1   2
ATOM      2  C   UNL     1      10.144   4.528  30.802  1.00  0.00     0.000 C 
BRANCH   2   3
ATOM      3  C   UNL     1       8.833   4.058  30.142  1.00  0.00     0.000 C 
BRANCH   3   4
ATOM      4  C   UNL     1       7.984   3.098  31.001  1.00  0.00     0.000 C 
BRANCH   4   5
ATOM      5  C   UNL     1       6.499   3.486  31.142  1.00  0.00     0.000 C 
BRANCH   5   6
ATOM      6  C   UNL     1       6.075   4.741  30.357  1.00  0.00     0.000 C 
BRANCH   6   7
ATOM      7  C   UNL     1       5.073   4.431  29.231  1.00  0.00     0.006 C 
BRANCH   7   8
ATOM      8  C   UNL     1       5.592   4.876  27.857  1.00  0.00     0.053 C 
BRANCH   8   9
ATOM      9  C   UNL     1       5.014   6.196  27.446  1.00  0.00     0.041 C 
ATOM     10  O   UNL     1       3.766   6.356  27.400  1.00  0.00    -0.550 OA
ATOM     11  O   UNL     1       5.855   7.242  27.087  1.00  0.00    -0.550 OA
ENDBRANCH   8   9
ENDBRANCH   7   8
ENDBRANCH   6   7
ENDBRANCH   5   6
ENDBRANCH   4   5
ENDBRANCH   3   4
ENDBRANCH   2   3
ENDBRANCH   1   2
BRANCH   1  12
ATOM     12  C   UNL     1      12.149   3.639  32.202  1.00  0.00     0.000 C 
BRANCH  12  13
ATOM     13  C   UNL     1      12.606   3.134  33.582  1.00  0.00    -0.000 C 
BRANCH  13  14
ATOM     14  C   UNL     1      11.475   3.135  34.624  1.00  0.00    -0.000 C 
BRANCH  14  15
ATOM     15  C   UNL     1      11.898   3.778  35.954  1.00  0.00    -0.000 C 
BRANCH  15  16
ATOM     16  C   UNL     1      11.419   5.236  36.086  1.00  0.00    -0.000 C 
BRANCH  16  17
ATOM     17  C   UNL     1      10.114   5.502  35.317  1.00  0.00    -0.000 C 
BRANCH  17  18
ATOM     18  C   UNL     1      10.294   6.535  34.191  1.00  0.00    -0.000 C 
BRANCH  18  19
ATOM     19  C   UNL     1       8.953   7.076  33.669  1.00  0.00    -0.003 C 
ATOM     20  C   UNL     1       7.878   5.995  33.564  1.00  0.00     0.004 C 
ENDBRANCH  18  19
ENDBRANCH  17  18
ENDBRANCH  16  17
ENDBRANCH  15  16
ENDBRANCH  14  15
ENDBRANCH  13  14
ENDBRANCH  12  13
ENDBRANCH   1  12
TORSDOF 16
ENDMDL
MODEL 7
REMARK VINA RESULT:    -2.956      2.222      5.441
REMARK INTER + INTRA:          -8.400
REMARK INTER:                  -6.022
REMARK INTRA:                  -2.378
REMARK UNBOUND:                -2.679
REMARK SMILES CCCCCCCCCCCCCCCCCC(=O)[O-]
REMARK SMILES IDX 10 1 11 2 12 3 13 4 14 5 15 6 16 7 17 8 18 9 19 10 20 11
REMARK SMILES IDX 9 12 8 13 7 14 6 15 5 16 4 17 3 18 2 19 1 20
REMARK H PARENT
REMARK Flexibility Score: inf
ROOT
ATOM      1  C   UNL     1      10.395  21.112  21.153  1.00  0.00     0.000 C 
ENDROOT
BRANCH   1   2
ATOM      2  C   UNL     1      11.491  21.179  20.071  1.00  0.00     0.000 C 
BRANCH   2   3
ATOM      3  C   UNL     1      12.284  22.500  20.032  1.00  0.00     0.000 C 
BRANCH   3   4
ATOM      4  C   UNL     1      13.000  22.787  18.696  1.00  0.00     0.000 C 
BRANCH   4   5
ATOM      5  C   UNL     1      12.117  22.654  17.439  1.00  0.00     0.000 C 
BRANCH   5   6
ATOM      6  C   UNL     1      12.682  21.739  16.338  1.00  0.00     0.000 C 
BRANCH   6   7
ATOM      7  C   UNL     1      11.835  20.473  16.122  1.00  0.00     0.006 C 
BRANCH   7   8
ATOM      8  C   UNL     1      10.399  20.643  16.636  1.00  0.00     0.053 C 
BRANCH   8   9
ATOM      9  C   UNL     1       9.809  19.340  17.080  1.00  0.00     0.041 C 
ATOM     10  O   UNL     1       8.691  18.964  16.637  1.00  0.00    -0.550 OA
ATOM     11  O   UNL     1      10.481  18.552  18.006  1.00  0.00    -0.550 OA
ENDBRANCH   8   9
ENDBRANCH   7   8
ENDBRANCH   6   7
ENDBRANCH   5   6
ENDBRANCH   4   5
ENDBRANCH   3   4
ENDBRANCH   2   3
ENDBRANCH   1   2
BRANCH   1  12
ATOM     12  C   UNL     1       9.712  22.455  21.476  1.00  0.00     0.000 C 
BRANCH  12  13
ATOM     13  C   UNL     1       8.966  22.504  22.822  1.00  0.00    -0.000 C 
BRANCH  13  14
ATOM     14  C   UNL     1       7.445  22.660  22.657  1.00  0.00    -0.000 C 
BRANCH  14  15
ATOM     15  C   UNL     1       6.673  21.402  23.086  1.00  0.00    -0.000 C 
BRANCH  15  16
ATOM     16  C   UNL     1       5.897  20.757  21.923  1.00  0.00    -0.000 C 
BRANCH  16  17
ATOM     17  C   UNL     1       6.032  21.548  20.611  1.00  0.00    -0.000 C 
BRANCH  17  18
ATOM     18  C   UNL     1       6.918  20.830  19.578  1.00  0.00    -0.000 C 
BRANCH  18  19
ATOM     19  C   UNL     1       7.077  21.635  18.279  1.00  0.00    -0.003 C 
ATOM     20  C   UNL     1       8.067  22.792  18.414  1.00  0.00     0.004 C 
ENDBRANCH  18  19
ENDBRANCH  17  18
ENDBRANCH  16  17
ENDBRANCH  15  16
ENDBRANCH  14  15
ENDBRANCH  13  14
ENDBRANCH  12  13
ENDBRANCH   1  12
TORSDOF 16
ENDMDL
MODEL 8
REMARK VINA RESULT:    -2.879      2.098      4.708
REMARK INTER + INTRA:          -8.251
REMARK INTER:                  -5.524
REMARK INTRA:                  -2.728
REMARK UNBOUND:                -2.679
REMARK SMILES CCCCCCCCCCCCCCCCCC(=O)[O-]
REMARK SMILES IDX 10 1 11 2 12 3 13 4 14 5 15 6 16 7 17 8 18 9 19 10 20 11
REMARK SMILES IDX 9 12 8 13 7 14 6 15 5 16 4 17 3 18 2 19 1 20
REMARK H PARENT
REMARK Flexibility Score: inf
ROOT
ATOM      1  C   UNL     1      11.529  21.301  20.038  1.00  0.00     0.000 C 
ENDROOT
BRANCH   1   2
ATOM      2  C   UNL     1      11.524  22.797  19.667  1.00  0.00     0.000 C 
BRANCH   2   3
ATOM      3  C   UNL     1      11.581  23.090  18.155  1.00  0.00     0.000 C 
BRANCH   3   4
ATOM      4  C   UNL     1      12.616  22.258  17.372  1.00  0.00     0.000 C 
BRANCH   4   5
ATOM      5  C   UNL     1      12.029  21.351  16.272  1.00  0.00     0.000 C 
BRANCH   5   6
ATOM      6  C   UNL     1      10.531  21.557  15.986  1.00  0.00     0.000 C 
BRANCH   6   7
ATOM      7  C   UNL     1       9.720  20.253  16.083  1.00  0.00     0.006 C 
BRANCH   7   8
ATOM      8  C   UNL     1       9.350  19.909  17.532  1.00  0.00     0.053 C 
BRANCH   8   9
ATOM      9  C   UNL     1       9.711  18.496  17.876  1.00  0.00     0.041 C 
ATOM     10  O   UNL     1       9.078  17.536  17.363  1.00  0.00    -0.550 OA
ATOM     11  O   UNL     1      10.729  18.241  18.786  1.00  0.00    -0.550 OA
ENDBRANCH   8   9
ENDBRANCH   7   8
ENDBRANCH   6   7
ENDBRANCH   5   6
ENDBRANCH   4   5
ENDBRANCH   3   4
ENDBRANCH   2   3
ENDBRANCH   1   2
BRANCH   1  12
ATOM     12  C   UNL     1      10.453  20.876  21.057  1.00  0.00     0.000 C 
BRANCH  12  13
ATOM     13  C   UNL     1       9.806  22.029  21.847  1.00  0.00    -0.000 C 
BRANCH  13  14
ATOM     14  C   UNL     1       8.284  21.869  21.999  1.00  0.00    -0.000 C 
BRANCH  14  15
ATOM     15  C   UNL     1       7.553  21.870  20.647  1.00  0.00    -0.000 C 
BRANCH  15  16
ATOM     16  C   UNL     1       7.859  23.125  19.809  1.00  0.00    -0.000 C 
BRANCH  16  17
ATOM     17  C   UNL     1       7.636  22.900  18.304  1.00  0.00    -0.000 C 
BRANCH  17  18
ATOM     18  C   UNL     1       6.184  22.513  17.974  1.00  0.00    -0.000 C 
BRANCH  18  19
ATOM     19  C   UNL     1       6.089  21.540  16.789  1.00  0.00    -0.003 C 
ATOM     20  C   UNL     1       5.735  20.115  17.218  1.00  0.00     0.004 C 
ENDBRANCH  18  19
ENDBRANCH  17  18
ENDBRANCH  16  17
ENDBRANCH  15  16
ENDBRANCH  14  15
ENDBRANCH  13  14
ENDBRANCH  12  13
ENDBRANCH   1  12
TORSDOF 16
ENDMDL
