MODEL 1
REMARK VINA RESULT:    20.959      0.000      0.000
REMARK INTER + INTRA:          28.825
REMARK INTER:                  27.698
REMARK INTRA:                   1.127
REMARK UNBOUND:                 1.127
REMARK SMILES CC[C@@H](C=C[C@@H](C)[C@@H]1CC[C@@H]2[C@H]3CC=C4C[C@H](O)CC[C@@]4(C)[C@@H]3CC[C@@]21C)C(C)C
REMARK SMILES IDX 6 1 7 2 5 3 4 4 3 5 2 6 1 7 28 8 29 9 30 10 8 11 9 12 26 13
REMARK SMILES IDX 10 14 11 15 25 16 27 17 12 18 24 19 23 20 13 21 21 22 14 23
REMARK SMILES IDX 15 24 20 25 22 26 16 27 19 28 17 29 18 30
REMARK H PARENT 18 31
REMARK Flexibility Score: inf
ROOT
ATOM      1  C   UNL     1     -10.628 -10.022  16.673  1.00  0.00     0.012 C 
ATOM      2  C   UNL     1      -9.281 -10.695  16.336  1.00  0.00     0.012 C 
ENDROOT
BRANCH   1   3
ATOM      3  C   UNL     1     -10.427  -9.102  17.862  1.00  0.00    -0.028 C 
ATOM      4  C   UNL     1     -10.056  -7.817  17.717  1.00  0.00    -0.027 C 
BRANCH   4   5
ATOM      5  C   UNL     1      -9.976  -6.856  18.889  1.00  0.00     0.014 C 
BRANCH   5   6
ATOM      6  C   UNL     1     -10.191  -5.390  18.393  1.00  0.00     0.004 C 
ATOM      7  C   UNL     1     -10.206  -4.370  19.534  1.00  0.00     0.004 C 
ENDBRANCH   5   6
BRANCH   5   8
ATOM      8  C   UNL     1      -8.630  -7.057  19.658  1.00  0.00    -0.011 C 
ATOM      9  C   UNL     1      -7.516  -7.610  18.756  1.00  0.00     0.008 C 
ATOM     10  C   UNL     1      -8.147  -5.746  20.311  1.00  0.00     0.008 C 
ENDBRANCH   5   8
ENDBRANCH   4   5
ENDBRANCH   1   3
BRANCH   1  11
ATOM     11  C   UNL     1     -11.828 -11.009  16.936  1.00  0.00     0.002 C 
ATOM     12  C   UNL     1     -13.175 -10.354  17.214  1.00  0.00     0.005 C 
ATOM     13  C   UNL     1     -11.665 -12.101  18.041  1.00  0.00    -0.026 C 
ATOM     14  C   UNL     1     -14.062 -11.500  17.669  1.00  0.00     0.005 C 
ATOM     15  C   UNL     1     -13.141 -12.543  18.338  1.00  0.00    -0.001 C 
ATOM     16  C   UNL     1     -10.998 -11.554  19.325  1.00  0.00     0.007 C 
ATOM     17  C   UNL     1     -10.818 -13.275  17.477  1.00  0.00     0.012 C 
ATOM     18  C   UNL     1     -13.480 -12.711  19.856  1.00  0.00     0.000 C 
ATOM     19  C   UNL     1     -11.043 -12.526  20.526  1.00  0.00     0.005 C 
ATOM     20  C   UNL     1     -12.320 -13.428  20.596  1.00  0.00     0.003 C 
ATOM     21  C   UNL     1     -14.766 -13.520  20.016  1.00  0.00     0.031 C 
ATOM     22  C   UNL     1     -12.698 -14.024  22.048  1.00  0.00    -0.008 C 
ATOM     23  C   UNL     1     -15.120 -13.618  21.457  1.00  0.00    -0.027 C 
ATOM     24  C   UNL     1     -14.185 -13.848  22.399  1.00  0.00    -0.065 C 
ATOM     25  C   UNL     1     -12.476 -15.570  22.061  1.00  0.00     0.014 C 
ATOM     26  C   UNL     1     -11.842 -13.374  23.177  1.00  0.00     0.016 C 
ATOM     27  C   UNL     1     -14.653 -14.392  23.728  1.00  0.00     0.063 C 
ATOM     28  C   UNL     1     -12.958 -16.272  23.360  1.00  0.00     0.033 C 
ATOM     29  C   UNL     1     -14.414 -15.912  23.748  1.00  0.00     0.118 C 
BRANCH  29  30
ATOM     30  O   UNL     1     -14.685 -16.397  25.039  1.00  0.00    -0.393 OA
ATOM     31  H   UNL     1     -13.989 -17.078  25.255  1.00  0.00     0.210 HD
ENDBRANCH  29  30
ENDBRANCH   1  11
TORSDOF 6
ENDMDL
MODEL 2
REMARK VINA RESULT:    23.474      1.214      1.509
REMARK INTER + INTRA:          32.149
REMARK INTER:                  30.762
REMARK INTRA:                   1.387
REMARK UNBOUND:                 1.127
REMARK SMILES CC[C@@H](C=C[C@@H](C)[C@@H]1CC[C@@H]2[C@H]3CC=C4C[C@H](O)CC[C@@]4(C)[C@@H]3CC[C@@]21C)C(C)C
REMARK SMILES IDX 6 1 7 2 5 3 4 4 3 5 2 6 1 7 28 8 29 9 30 10 8 11 9 12 26 13
REMARK SMILES IDX 10 14 11 15 25 16 27 17 12 18 24 19 23 20 13 21 21 22 14 23
REMARK SMILES IDX 15 24 20 25 22 26 16 27 19 28 17 29 18 30
REMARK H PARENT 18 31
REMARK Flexibility Score: inf
ROOT
ATOM      1  C   UNL     1     -10.057  -9.404  16.823  1.00  0.00     0.012 C 
ATOM      2  C   UNL     1      -8.803 -10.242  16.498  1.00  0.00     0.012 C 
ENDROOT
BRANCH   1   3
ATOM      3  C   UNL     1      -9.833  -8.687  18.141  1.00  0.00    -0.028 C 
ATOM      4  C   UNL     1      -9.356  -7.431  18.199  1.00  0.00    -0.027 C 
BRANCH   4   5
ATOM      5  C   UNL     1      -9.248  -6.661  19.502  1.00  0.00     0.014 C 
BRANCH   5   6
ATOM      6  C   UNL     1     -10.561  -6.831  20.333  1.00  0.00     0.004 C 
ATOM      7  C   UNL     1     -10.636  -5.882  21.531  1.00  0.00     0.004 C 
ENDBRANCH   5   6
BRANCH   5   8
ATOM      8  C   UNL     1      -8.888  -5.166  19.215  1.00  0.00    -0.011 C 
ATOM      9  C   UNL     1      -9.436  -4.680  17.864  1.00  0.00     0.008 C 
ATOM     10  C   UNL     1      -9.399  -4.233  20.331  1.00  0.00     0.008 C 
ENDBRANCH   5   8
ENDBRANCH   4   5
ENDBRANCH   1   3
BRANCH   1  11
ATOM     11  C   UNL     1     -11.415 -10.205  16.855  1.00  0.00     0.002 C 
ATOM     12  C   UNL     1     -12.617  -9.448  17.403  1.00  0.00     0.005 C 
ATOM     13  C   UNL     1     -11.441 -11.595  17.568  1.00  0.00    -0.026 C 
ATOM     14  C   UNL     1     -13.693 -10.511  17.549  1.00  0.00     0.005 C 
ATOM     15  C   UNL     1     -12.970 -11.848  17.814  1.00  0.00    -0.001 C 
ATOM     16  C   UNL     1     -10.674 -11.590  18.912  1.00  0.00     0.007 C 
ATOM     17  C   UNL     1     -10.827 -12.665  16.625  1.00  0.00     0.012 C 
ATOM     18  C   UNL     1     -13.320 -12.415  19.230  1.00  0.00     0.000 C 
ATOM     19  C   UNL     1     -10.884 -12.861  19.766  1.00  0.00     0.005 C 
ATOM     20  C   UNL     1     -12.303 -13.510  19.644  1.00  0.00     0.003 C 
ATOM     21  C   UNL     1     -14.730 -13.002  19.222  1.00  0.00     0.031 C 
ATOM     22  C   UNL     1     -12.769 -14.449  20.872  1.00  0.00    -0.008 C 
ATOM     23  C   UNL     1     -15.082 -13.476  20.587  1.00  0.00    -0.027 C 
ATOM     24  C   UNL     1     -14.196 -14.139  21.354  1.00  0.00    -0.065 C 
ATOM     25  C   UNL     1     -12.831 -15.938  20.406  1.00  0.00     0.014 C 
ATOM     26  C   UNL     1     -11.799 -14.332  22.087  1.00  0.00     0.016 C 
ATOM     27  C   UNL     1     -14.742 -14.977  22.486  1.00  0.00     0.063 C 
ATOM     28  C   UNL     1     -13.421 -16.913  21.463  1.00  0.00     0.033 C 
ATOM     29  C   UNL     1     -14.783 -16.448  22.034  1.00  0.00     0.118 C 
BRANCH  29  30
ATOM     30  O   UNL     1     -15.125 -17.251  23.135  1.00  0.00    -0.393 OA
ATOM     31  H   UNL     1     -15.481 -18.112  22.778  1.00  0.00     0.210 HD
ENDBRANCH  29  30
ENDBRANCH   1  11
TORSDOF 6
ENDMDL
