MODEL 1
REMARK VINA RESULT:    -4.361      0.000      0.000
REMARK INTER + INTRA:          -9.728
REMARK INTER:                  -8.186
REMARK INTRA:                  -1.542
REMARK UNBOUND:                -1.542
REMARK SMILES O=C([O-])CCCCCCCCCCCCCCC(=O)[O-]
REMARK SMILES IDX 10 1 9 2 8 3 7 4 6 5 5 6 4 7 2 8 1 9 3 10 11 11 12 12 13 13
REMARK SMILES IDX 14 14 15 15 16 16 17 17 18 18 19 19 20 20
REMARK H PARENT
REMARK Flexibility Score: inf
ROOT
ATOM      1  C   UNL     1     122.933 119.197 132.071  1.00  0.00     0.000 C 
ENDROOT
BRANCH   1   2
ATOM      2  C   UNL     1     122.826 119.393 133.592  1.00  0.00     0.000 C 
BRANCH   2   3
ATOM      3  C   UNL     1     122.973 120.863 134.012  1.00  0.00     0.000 C 
BRANCH   3   4
ATOM      4  C   UNL     1     123.257 121.755 132.796  1.00  0.00     0.000 C 
BRANCH   4   5
ATOM      5  C   UNL     1     124.460 122.674 133.056  1.00  0.00     0.000 C 
BRANCH   5   6
ATOM      6  C   UNL     1     124.643 123.009 134.548  1.00  0.00     0.006 C 
BRANCH   6   7
ATOM      7  C   UNL     1     126.027 123.578 134.903  1.00  0.00     0.053 C 
BRANCH   7   8
ATOM      8  C   UNL     1     126.051 125.074 134.844  1.00  0.00     0.041 C 
ATOM      9  O   UNL     1     126.018 125.665 133.731  1.00  0.00    -0.550 OA
ATOM     10  O   UNL     1     126.075 125.817 136.016  1.00  0.00    -0.550 OA
ENDBRANCH   7   8
ENDBRANCH   6   7
ENDBRANCH   5   6
ENDBRANCH   4   5
ENDBRANCH   3   4
ENDBRANCH   2   3
ENDBRANCH   1   2
BRANCH   1  11
ATOM     11  C   UNL     1     123.779 117.969 131.692  1.00  0.00     0.000 C 
BRANCH  11  12
ATOM     12  C   UNL     1     125.247 118.320 131.389  1.00  0.00     0.000 C 
BRANCH  12  13
ATOM     13  C   UNL     1     125.491 119.041 130.051  1.00  0.00     0.000 C 
BRANCH  13  14
ATOM     14  C   UNL     1     125.758 120.547 130.219  1.00  0.00     0.000 C 
BRANCH  14  15
ATOM     15  C   UNL     1     124.653 121.425 129.606  1.00  0.00     0.000 C 
BRANCH  15  16
ATOM     16  C   UNL     1     125.043 122.894 129.357  1.00  0.00     0.006 C 
BRANCH  16  17
ATOM     17  C   UNL     1     125.541 123.149 127.929  1.00  0.00     0.053 C 
BRANCH  17  18
ATOM     18  C   UNL     1     126.673 124.128 127.938  1.00  0.00     0.041 C 
ATOM     19  O   UNL     1     126.560 125.223 128.549  1.00  0.00    -0.550 OA
ATOM     20  O   UNL     1     127.835 123.853 127.228  1.00  0.00    -0.550 OA
ENDBRANCH  17  18
ENDBRANCH  16  17
ENDBRANCH  15  16
ENDBRANCH  14  15
ENDBRANCH  13  14
ENDBRANCH  12  13
ENDBRANCH  11  12
ENDBRANCH   1  11
TORSDOF 15
ENDMDL
MODEL 2
REMARK VINA RESULT:    -4.230      8.333     12.349
REMARK INTER + INTRA:          -9.482
REMARK INTER:                  -8.318
REMARK INTRA:                  -1.164
REMARK UNBOUND:                -1.542
REMARK SMILES O=C([O-])CCCCCCCCCCCCCCC(=O)[O-]
REMARK SMILES IDX 10 1 9 2 8 3 7 4 6 5 5 6 4 7 2 8 1 9 3 10 11 11 12 12 13 13
REMARK SMILES IDX 14 14 15 15 16 16 17 17 18 18 19 19 20 20
REMARK H PARENT
REMARK Flexibility Score: inf
ROOT
ATOM      1  C   UNL     1     131.034 132.943 134.139  1.00  0.00     0.000 C 
ENDROOT
BRANCH   1   2
ATOM      2  C   UNL     1     131.456 132.930 132.661  1.00  0.00     0.000 C 
BRANCH   2   3
ATOM      3  C   UNL     1     131.642 134.342 132.086  1.00  0.00     0.000 C 
BRANCH   3   4
ATOM      4  C   UNL     1     131.312 134.373 130.588  1.00  0.00     0.000 C 
BRANCH   4   5
ATOM      5  C   UNL     1     131.338 132.959 129.990  1.00  0.00     0.000 C 
BRANCH   5   6
ATOM      6  C   UNL     1     130.965 132.935 128.495  1.00  0.00     0.006 C 
BRANCH   6   7
ATOM      7  C   UNL     1     129.454 132.845 128.222  1.00  0.00     0.053 C 
BRANCH   7   8
ATOM      8  C   UNL     1     129.065 131.519 127.646  1.00  0.00     0.041 C 
ATOM      9  O   UNL     1     129.365 130.454 128.249  1.00  0.00    -0.550 OA
ATOM     10  O   UNL     1     128.343 131.459 126.462  1.00  0.00    -0.550 OA
ENDBRANCH   7   8
ENDBRANCH   6   7
ENDBRANCH   5   6
ENDBRANCH   4   5
ENDBRANCH   3   4
ENDBRANCH   2   3
ENDBRANCH   1   2
BRANCH   1  11
ATOM     11  C   UNL     1     130.425 131.604 134.591  1.00  0.00     0.000 C 
BRANCH  11  12
ATOM     12  C   UNL     1     128.982 131.745 135.111  1.00  0.00     0.000 C 
BRANCH  12  13
ATOM     13  C   UNL     1     128.805 131.556 136.628  1.00  0.00     0.000 C 
BRANCH  13  14
ATOM     14  C   UNL     1     128.074 130.252 136.991  1.00  0.00     0.000 C 
BRANCH  14  15
ATOM     15  C   UNL     1     127.392 129.589 135.780  1.00  0.00     0.000 C 
BRANCH  15  16
ATOM     16  C   UNL     1     127.864 128.158 135.463  1.00  0.00     0.006 C 
BRANCH  16  17
ATOM     17  C   UNL     1     129.383 127.983 135.592  1.00  0.00     0.053 C 
BRANCH  17  18
ATOM     18  C   UNL     1     130.029 128.017 134.243  1.00  0.00     0.041 C 
ATOM     19  O   UNL     1     131.244 127.718 134.114  1.00  0.00    -0.550 OA
ATOM     20  O   UNL     1     129.300 128.428 133.134  1.00  0.00    -0.550 OA
ENDBRANCH  17  18
ENDBRANCH  16  17
ENDBRANCH  15  16
ENDBRANCH  14  15
ENDBRANCH  13  14
ENDBRANCH  12  13
ENDBRANCH  11  12
ENDBRANCH   1  11
TORSDOF 15
ENDMDL
MODEL 3
REMARK VINA RESULT:    -4.137     10.884     14.915
REMARK INTER + INTRA:          -9.306
REMARK INTER:                  -7.874
REMARK INTRA:                  -1.432
REMARK UNBOUND:                -1.542
REMARK SMILES O=C([O-])CCCCCCCCCCCCCCC(=O)[O-]
REMARK SMILES IDX 10 1 9 2 8 3 7 4 6 5 5 6 4 7 2 8 1 9 3 10 11 11 12 12 13 13
REMARK SMILES IDX 14 14 15 15 16 16 17 17 18 18 19 19 20 20
REMARK H PARENT
REMARK Flexibility Score: inf
ROOT
ATOM      1  C   UNL     1     131.215 137.855 131.610  1.00  0.00     0.000 C 
ENDROOT
BRANCH   1   2
ATOM      2  C   UNL     1     131.120 136.898 130.411  1.00  0.00     0.000 C 
BRANCH   2   3
ATOM      3  C   UNL     1     129.738 136.238 130.288  1.00  0.00     0.000 C 
BRANCH   3   4
ATOM      4  C   UNL     1     129.868 134.715 130.144  1.00  0.00     0.000 C 
BRANCH   4   5
ATOM      5  C   UNL     1     131.161 134.341 129.405  1.00  0.00     0.000 C 
BRANCH   5   6
ATOM      6  C   UNL     1     130.932 133.308 128.287  1.00  0.00     0.006 C 
BRANCH   6   7
ATOM      7  C   UNL     1     129.848 132.263 128.604  1.00  0.00     0.053 C 
BRANCH   7   8
ATOM      8  C   UNL     1     128.707 132.326 127.636  1.00  0.00     0.041 C 
ATOM      9  O   UNL     1     127.790 133.177 127.791  1.00  0.00    -0.550 OA
ATOM     10  O   UNL     1     128.671 131.469 126.545  1.00  0.00    -0.550 OA
ENDBRANCH   7   8
ENDBRANCH   6   7
ENDBRANCH   5   6
ENDBRANCH   4   5
ENDBRANCH   3   4
ENDBRANCH   2   3
ENDBRANCH   1   2
BRANCH   1  11
ATOM     11  C   UNL     1     132.471 137.608 132.464  1.00  0.00     0.000 C 
BRANCH  11  12
ATOM     12  C   UNL     1     133.280 136.382 132.002  1.00  0.00     0.000 C 
BRANCH  12  13
ATOM     13  C   UNL     1     133.343 135.215 133.004  1.00  0.00     0.000 C 
BRANCH  13  14
ATOM     14  C   UNL     1     132.085 134.330 132.976  1.00  0.00     0.000 C 
BRANCH  14  15
ATOM     15  C   UNL     1     132.102 133.226 134.048  1.00  0.00     0.000 C 
BRANCH  15  16
ATOM     16  C   UNL     1     130.804 132.406 134.169  1.00  0.00     0.006 C 
BRANCH  16  17
ATOM     17  C   UNL     1     130.149 132.520 135.552  1.00  0.00     0.053 C 
BRANCH  17  18
ATOM     18  C   UNL     1     129.192 131.391 135.771  1.00  0.00     0.041 C 
ATOM     19  O   UNL     1     127.996 131.492 135.396  1.00  0.00    -0.550 OA
ATOM     20  O   UNL     1     129.611 130.245 136.435  1.00  0.00    -0.550 OA
ENDBRANCH  17  18
ENDBRANCH  16  17
ENDBRANCH  15  16
ENDBRANCH  14  15
ENDBRANCH  13  14
ENDBRANCH  12  13
ENDBRANCH  11  12
ENDBRANCH   1  11
TORSDOF 15
ENDMDL
MODEL 4
REMARK VINA RESULT:    -4.136     10.268     13.814
REMARK INTER + INTRA:          -9.305
REMARK INTER:                  -7.781
REMARK INTRA:                  -1.524
REMARK UNBOUND:                -1.542
REMARK SMILES O=C([O-])CCCCCCCCCCCCCCC(=O)[O-]
REMARK SMILES IDX 10 1 9 2 8 3 7 4 6 5 5 6 4 7 2 8 1 9 3 10 11 11 12 12 13 13
REMARK SMILES IDX 14 14 15 15 16 16 17 17 18 18 19 19 20 20
REMARK H PARENT
REMARK Flexibility Score: inf
ROOT
ATOM      1  C   UNL     1     132.648 137.050 133.384  1.00  0.00     0.000 C 
ENDROOT
BRANCH   1   2
ATOM      2  C   UNL     1     132.979 135.627 133.863  1.00  0.00     0.000 C 
BRANCH   2   3
ATOM      3  C   UNL     1     133.244 134.658 132.701  1.00  0.00     0.000 C 
BRANCH   3   4
ATOM      4  C   UNL     1     132.767 133.241 133.047  1.00  0.00     0.000 C 
BRANCH   4   5
ATOM      5  C   UNL     1     131.309 133.255 133.529  1.00  0.00     0.000 C 
BRANCH   5   6
ATOM      6  C   UNL     1     131.076 132.348 134.752  1.00  0.00     0.006 C 
BRANCH   6   7
ATOM      7  C   UNL     1     130.489 130.967 134.413  1.00  0.00     0.053 C 
BRANCH   7   8
ATOM      8  C   UNL     1     129.149 130.756 135.046  1.00  0.00     0.041 C 
ATOM      9  O   UNL     1     128.366 131.728 135.213  1.00  0.00    -0.550 OA
ATOM     10  O   UNL     1     128.750 129.480 135.421  1.00  0.00    -0.550 OA
ENDBRANCH   7   8
ENDBRANCH   6   7
ENDBRANCH   5   6
ENDBRANCH   4   5
ENDBRANCH   3   4
ENDBRANCH   2   3
ENDBRANCH   1   2
BRANCH   1  11
ATOM     11  C   UNL     1     132.533 137.145 131.852  1.00  0.00     0.000 C 
BRANCH  11  12
ATOM     12  C   UNL     1     131.165 137.676 131.384  1.00  0.00     0.000 C 
BRANCH  12  13
ATOM     13  C   UNL     1     130.459 136.828 130.311  1.00  0.00     0.000 C 
BRANCH  13  14
ATOM     14  C   UNL     1     130.294 135.355 130.722  1.00  0.00     0.000 C 
BRANCH  14  15
ATOM     15  C   UNL     1     130.872 134.374 129.687  1.00  0.00     0.000 C 
BRANCH  15  16
ATOM     16  C   UNL     1     129.830 133.638 128.824  1.00  0.00     0.006 C 
BRANCH  16  17
ATOM     17  C   UNL     1     130.380 132.359 128.180  1.00  0.00     0.053 C 
BRANCH  17  18
ATOM     18  C   UNL     1     129.260 131.442 127.801  1.00  0.00     0.041 C 
ATOM     19  O   UNL     1     129.178 130.295 128.312  1.00  0.00    -0.550 OA
ATOM     20  O   UNL     1     128.333 131.836 126.844  1.00  0.00    -0.550 OA
ENDBRANCH  17  18
ENDBRANCH  16  17
ENDBRANCH  15  16
ENDBRANCH  14  15
ENDBRANCH  13  14
ENDBRANCH  12  13
ENDBRANCH  11  12
ENDBRANCH   1  11
TORSDOF 15
ENDMDL
MODEL 5
REMARK VINA RESULT:    -4.104      1.285      5.637
REMARK INTER + INTRA:          -9.244
REMARK INTER:                  -7.796
REMARK INTRA:                  -1.448
REMARK UNBOUND:                -1.542
REMARK SMILES O=C([O-])CCCCCCCCCCCCCCC(=O)[O-]
REMARK SMILES IDX 10 1 9 2 8 3 7 4 6 5 5 6 4 7 2 8 1 9 3 10 11 11 12 12 13 13
REMARK SMILES IDX 14 14 15 15 16 16 17 17 18 18 19 19 20 20
REMARK H PARENT
REMARK Flexibility Score: inf
ROOT
ATOM      1  C   UNL     1     123.316 120.018 132.817  1.00  0.00     0.000 C 
ENDROOT
BRANCH   1   2
ATOM      2  C   UNL     1     123.526 120.090 131.295  1.00  0.00     0.000 C 
BRANCH   2   3
ATOM      3  C   UNL     1     124.962 119.740 130.878  1.00  0.00     0.000 C 
BRANCH   3   4
ATOM      4  C   UNL     1     125.603 120.893 130.094  1.00  0.00     0.000 C 
BRANCH   4   5
ATOM      5  C   UNL     1     124.549 121.932 129.686  1.00  0.00     0.000 C 
BRANCH   5   6
ATOM      6  C   UNL     1     125.167 123.295 129.320  1.00  0.00     0.006 C 
BRANCH   6   7
ATOM      7  C   UNL     1     125.625 123.409 127.856  1.00  0.00     0.053 C 
BRANCH   7   8
ATOM      8  C   UNL     1     126.644 124.491 127.669  1.00  0.00     0.041 C 
ATOM      9  O   UNL     1     127.421 124.464 126.678  1.00  0.00    -0.550 OA
ATOM     10  O   UNL     1     126.713 125.545 128.569  1.00  0.00    -0.550 OA
ENDBRANCH   7   8
ENDBRANCH   6   7
ENDBRANCH   5   6
ENDBRANCH   4   5
ENDBRANCH   3   4
ENDBRANCH   2   3
ENDBRANCH   1   2
BRANCH   1  11
ATOM     11  C   UNL     1     122.518 121.216 133.360  1.00  0.00     0.000 C 
BRANCH  11  12
ATOM     12  C   UNL     1     123.183 122.570 133.054  1.00  0.00     0.000 C 
BRANCH  12  13
ATOM     13  C   UNL     1     124.693 122.645 133.345  1.00  0.00     0.000 C 
BRANCH  13  14
ATOM     14  C   UNL     1     125.007 123.108 134.778  1.00  0.00     0.000 C 
BRANCH  14  15
ATOM     15  C   UNL     1     124.234 124.376 135.183  1.00  0.00     0.000 C 
BRANCH  15  16
ATOM     16  C   UNL     1     125.085 125.653 135.311  1.00  0.00     0.006 C 
BRANCH  16  17
ATOM     17  C   UNL     1     126.145 125.781 134.210  1.00  0.00     0.053 C 
BRANCH  17  18
ATOM     18  C   UNL     1     126.164 127.173 133.662  1.00  0.00     0.041 C 
ATOM     19  O   UNL     1     125.163 127.923 133.803  1.00  0.00    -0.550 OA
ATOM     20  O   UNL     1     127.269 127.625 132.952  1.00  0.00    -0.550 OA
ENDBRANCH  17  18
ENDBRANCH  16  17
ENDBRANCH  15  16
ENDBRANCH  14  15
ENDBRANCH  13  14
ENDBRANCH  12  13
ENDBRANCH  11  12
ENDBRANCH   1  11
TORSDOF 15
ENDMDL
MODEL 6
REMARK VINA RESULT:    -4.048      1.636      6.364
REMARK INTER + INTRA:          -9.141
REMARK INTER:                  -7.971
REMARK INTRA:                  -1.169
REMARK UNBOUND:                -1.542
REMARK SMILES O=C([O-])CCCCCCCCCCCCCCC(=O)[O-]
REMARK SMILES IDX 10 1 9 2 8 3 7 4 6 5 5 6 4 7 2 8 1 9 3 10 11 11 12 12 13 13
REMARK SMILES IDX 14 14 15 15 16 16 17 17 18 18 19 19 20 20
REMARK H PARENT
REMARK Flexibility Score: inf
ROOT
ATOM      1  C   UNL     1     122.947 120.618 133.513  1.00  0.00     0.000 C 
ENDROOT
BRANCH   1   2
ATOM      2  C   UNL     1     123.626 120.850 132.154  1.00  0.00     0.000 C 
BRANCH   2   3
ATOM      3  C   UNL     1     124.323 122.216 132.064  1.00  0.00     0.000 C 
BRANCH   3   4
ATOM      4  C   UNL     1     124.118 122.848 130.681  1.00  0.00     0.000 C 
BRANCH   4   5
ATOM      5  C   UNL     1     124.851 122.046 129.596  1.00  0.00     0.000 C 
BRANCH   5   6
ATOM      6  C   UNL     1     125.054 122.848 128.297  1.00  0.00     0.006 C 
BRANCH   6   7
ATOM      7  C   UNL     1     126.525 123.154 127.966  1.00  0.00     0.053 C 
BRANCH   7   8
ATOM      8  C   UNL     1     126.707 124.550 127.456  1.00  0.00     0.041 C 
ATOM      9  O   UNL     1     126.644 125.528 128.249  1.00  0.00    -0.550 OA
ATOM     10  O   UNL     1     126.981 124.771 126.113  1.00  0.00    -0.550 OA
ENDBRANCH   7   8
ENDBRANCH   6   7
ENDBRANCH   5   6
ENDBRANCH   4   5
ENDBRANCH   3   4
ENDBRANCH   2   3
ENDBRANCH   1   2
BRANCH   1  11
ATOM     11  C   UNL     1     123.067 121.836 134.447  1.00  0.00     0.000 C 
BRANCH  11  12
ATOM     12  C   UNL     1     123.855 121.531 135.735  1.00  0.00     0.000 C 
BRANCH  12  13
ATOM     13  C   UNL     1     124.569 122.736 136.374  1.00  0.00     0.000 C 
BRANCH  13  14
ATOM     14  C   UNL     1     124.898 123.846 135.361  1.00  0.00     0.000 C 
BRANCH  14  15
ATOM     15  C   UNL     1     126.387 123.883 134.974  1.00  0.00     0.000 C 
BRANCH  15  16
ATOM     16  C   UNL     1     127.352 124.270 136.109  1.00  0.00     0.006 C 
BRANCH  16  17
ATOM     17  C   UNL     1     128.186 125.517 135.790  1.00  0.00     0.053 C 
BRANCH  17  18
ATOM     18  C   UNL     1     127.294 126.679 135.488  1.00  0.00     0.041 C 
ATOM     19  O   UNL     1     126.520 127.131 136.371  1.00  0.00    -0.550 OA
ATOM     20  O   UNL     1     127.281 127.233 134.214  1.00  0.00    -0.550 OA
ENDBRANCH  17  18
ENDBRANCH  16  17
ENDBRANCH  15  16
ENDBRANCH  14  15
ENDBRANCH  13  14
ENDBRANCH  12  13
ENDBRANCH  11  12
ENDBRANCH   1  11
TORSDOF 15
ENDMDL
MODEL 7
REMARK VINA RESULT:    -4.031      9.020     12.502
REMARK INTER + INTRA:          -9.108
REMARK INTER:                  -7.874
REMARK INTRA:                  -1.235
REMARK UNBOUND:                -1.542
REMARK SMILES O=C([O-])CCCCCCCCCCCCCCC(=O)[O-]
REMARK SMILES IDX 10 1 9 2 8 3 7 4 6 5 5 6 4 7 2 8 1 9 3 10 11 11 12 12 13 13
REMARK SMILES IDX 14 14 15 15 16 16 17 17 18 18 19 19 20 20
REMARK H PARENT
REMARK Flexibility Score: inf
ROOT
ATOM      1  C   UNL     1     132.045 133.307 132.950  1.00  0.00     0.000 C 
ENDROOT
BRANCH   1   2
ATOM      2  C   UNL     1     130.747 133.115 133.750  1.00  0.00     0.000 C 
BRANCH   2   3
ATOM      3  C   UNL     1     130.742 131.815 134.568  1.00  0.00     0.000 C 
BRANCH   3   4
ATOM      4  C   UNL     1     129.768 131.913 135.750  1.00  0.00     0.000 C 
BRANCH   4   5
ATOM      5  C   UNL     1     128.362 131.449 135.343  1.00  0.00     0.000 C 
BRANCH   5   6
ATOM      6  C   UNL     1     127.984 130.086 135.952  1.00  0.00     0.006 C 
BRANCH   6   7
ATOM      7  C   UNL     1     128.891 128.924 135.513  1.00  0.00     0.053 C 
BRANCH   7   8
ATOM      8  C   UNL     1     128.497 128.379 134.175  1.00  0.00     0.041 C 
ATOM      9  O   UNL     1     127.492 127.627 134.067  1.00  0.00    -0.550 OA
ATOM     10  O   UNL     1     129.220 128.729 133.042  1.00  0.00    -0.550 OA
ENDBRANCH   7   8
ENDBRANCH   6   7
ENDBRANCH   5   6
ENDBRANCH   4   5
ENDBRANCH   3   4
ENDBRANCH   2   3
ENDBRANCH   1   2
BRANCH   1  11
ATOM     11  C   UNL     1     132.646 134.713 133.130  1.00  0.00     0.000 C 
BRANCH  11  12
ATOM     12  C   UNL     1     132.723 135.508 131.814  1.00  0.00     0.000 C 
BRANCH  12  13
ATOM     13  C   UNL     1     131.609 136.550 131.606  1.00  0.00     0.000 C 
BRANCH  13  14
ATOM     14  C   UNL     1     130.780 136.299 130.334  1.00  0.00     0.000 C 
BRANCH  14  15
ATOM     15  C   UNL     1     130.337 134.832 130.186  1.00  0.00     0.000 C 
BRANCH  15  16
ATOM     16  C   UNL     1     131.065 134.033 129.090  1.00  0.00     0.006 C 
BRANCH  16  17
ATOM     17  C   UNL     1     130.961 132.515 129.284  1.00  0.00     0.053 C 
BRANCH  17  18
ATOM     18  C   UNL     1     129.921 131.942 128.373  1.00  0.00     0.041 C 
ATOM     19  O   UNL     1     129.106 132.699 127.785  1.00  0.00    -0.550 OA
ATOM     20  O   UNL     1     129.822 130.566 128.210  1.00  0.00    -0.550 OA
ENDBRANCH  17  18
ENDBRANCH  16  17
ENDBRANCH  15  16
ENDBRANCH  14  15
ENDBRANCH  13  14
ENDBRANCH  12  13
ENDBRANCH  11  12
ENDBRANCH   1  11
TORSDOF 15
ENDMDL
MODEL 8
REMARK VINA RESULT:    -4.011      1.581      2.818
REMARK INTER + INTRA:          -9.071
REMARK INTER:                  -7.510
REMARK INTRA:                  -1.561
REMARK UNBOUND:                -1.542
REMARK SMILES O=C([O-])CCCCCCCCCCCCCCC(=O)[O-]
REMARK SMILES IDX 10 1 9 2 8 3 7 4 6 5 5 6 4 7 2 8 1 9 3 10 11 11 12 12 13 13
REMARK SMILES IDX 14 14 15 15 16 16 17 17 18 18 19 19 20 20
REMARK H PARENT
REMARK Flexibility Score: inf
ROOT
ATOM      1  C   UNL     1     122.329 121.090 134.144  1.00  0.00     0.000 C 
ENDROOT
BRANCH   1   2
ATOM      2  C   UNL     1     122.737 122.538 133.828  1.00  0.00     0.000 C 
BRANCH   2   3
ATOM      3  C   UNL     1     124.173 122.646 133.293  1.00  0.00     0.000 C 
BRANCH   3   4
ATOM      4  C   UNL     1     125.142 123.071 134.403  1.00  0.00     0.000 C 
BRANCH   4   5
ATOM      5  C   UNL     1     124.511 124.142 135.304  1.00  0.00     0.000 C 
BRANCH   5   6
ATOM      6  C   UNL     1     125.300 125.465 135.301  1.00  0.00     0.006 C 
BRANCH   6   7
ATOM      7  C   UNL     1     126.079 125.733 134.002  1.00  0.00     0.053 C 
BRANCH   7   8
ATOM      8  C   UNL     1     126.257 127.197 133.745  1.00  0.00     0.041 C 
ATOM      9  O   UNL     1     125.255 127.960 133.700  1.00  0.00    -0.550 OA
ATOM     10  O   UNL     1     127.531 127.727 133.589  1.00  0.00    -0.550 OA
ENDBRANCH   7   8
ENDBRANCH   6   7
ENDBRANCH   5   6
ENDBRANCH   4   5
ENDBRANCH   3   4
ENDBRANCH   2   3
ENDBRANCH   1   2
BRANCH   1  11
ATOM     11  C   UNL     1     123.165 120.059 133.366  1.00  0.00     0.000 C 
BRANCH  11  12
ATOM     12  C   UNL     1     122.329 119.237 132.367  1.00  0.00     0.000 C 
BRANCH  12  13
ATOM     13  C   UNL     1     123.063 118.059 131.702  1.00  0.00     0.000 C 
BRANCH  13  14
ATOM     14  C   UNL     1     124.594 118.213 131.729  1.00  0.00     0.000 C 
BRANCH  14  15
ATOM     15  C   UNL     1     125.161 118.796 130.422  1.00  0.00     0.000 C 
BRANCH  15  16
ATOM     16  C   UNL     1     125.568 120.279 130.486  1.00  0.00     0.006 C 
BRANCH  16  17
ATOM     17  C   UNL     1     124.453 121.229 130.030  1.00  0.00     0.053 C 
BRANCH  17  18
ATOM     18  C   UNL     1     125.033 122.433 129.359  1.00  0.00     0.041 C 
ATOM     19  O   UNL     1     124.434 123.538 129.411  1.00  0.00    -0.550 OA
ATOM     20  O   UNL     1     126.213 122.323 128.634  1.00  0.00    -0.550 OA
ENDBRANCH  17  18
ENDBRANCH  16  17
ENDBRANCH  15  16
ENDBRANCH  14  15
ENDBRANCH  13  14
ENDBRANCH  12  13
ENDBRANCH  11  12
ENDBRANCH   1  11
TORSDOF 15
ENDMDL
MODEL 9
REMARK VINA RESULT:    -3.987      1.680      3.319
REMARK INTER + INTRA:          -9.025
REMARK INTER:                  -7.736
REMARK INTRA:                  -1.289
REMARK UNBOUND:                -1.542
REMARK SMILES O=C([O-])CCCCCCCCCCCCCCC(=O)[O-]
REMARK SMILES IDX 10 1 9 2 8 3 7 4 6 5 5 6 4 7 2 8 1 9 3 10 11 11 12 12 13 13
REMARK SMILES IDX 14 14 15 15 16 16 17 17 18 18 19 19 20 20
REMARK H PARENT
REMARK Flexibility Score: inf
ROOT
ATOM      1  C   UNL     1     124.029 122.547 134.940  1.00  0.00     0.000 C 
ENDROOT
BRANCH   1   2
ATOM      2  C   UNL     1     125.286 123.097 134.246  1.00  0.00     0.000 C 
BRANCH   2   3
ATOM      3  C   UNL     1     126.263 123.761 135.228  1.00  0.00     0.000 C 
BRANCH   3   4
ATOM      4  C   UNL     1     125.505 124.523 136.324  1.00  0.00     0.000 C 
BRANCH   4   5
ATOM      5  C   UNL     1     126.111 125.916 136.545  1.00  0.00     0.000 C 
BRANCH   5   6
ATOM      6  C   UNL     1     127.393 126.147 135.724  1.00  0.00     0.006 C 
BRANCH   6   7
ATOM      7  C   UNL     1     127.331 127.363 134.784  1.00  0.00     0.053 C 
BRANCH   7   8
ATOM      8  C   UNL     1     126.210 127.254 133.798  1.00  0.00     0.041 C 
ATOM      9  O   UNL     1     126.258 126.398 132.874  1.00  0.00    -0.550 OA
ATOM     10  O   UNL     1     125.095 128.073 133.918  1.00  0.00    -0.550 OA
ENDBRANCH   7   8
ENDBRANCH   6   7
ENDBRANCH   5   6
ENDBRANCH   4   5
ENDBRANCH   3   4
ENDBRANCH   2   3
ENDBRANCH   1   2
BRANCH   1  11
ATOM     11  C   UNL     1     123.165 121.688 134.001  1.00  0.00     0.000 C 
BRANCH  11  12
ATOM     12  C   UNL     1     123.297 122.095 132.521  1.00  0.00     0.000 C 
BRANCH  12  13
ATOM     13  C   UNL     1     123.457 120.931 131.527  1.00  0.00     0.000 C 
BRANCH  13  14
ATOM     14  C   UNL     1     124.522 121.201 130.451  1.00  0.00     0.000 C 
BRANCH  14  15
ATOM     15  C   UNL     1     124.593 122.681 130.035  1.00  0.00     0.000 C 
BRANCH  15  16
ATOM     16  C   UNL     1     124.793 122.932 128.528  1.00  0.00     0.006 C 
BRANCH  16  17
ATOM     17  C   UNL     1     126.271 123.000 128.122  1.00  0.00     0.053 C 
BRANCH  17  18
ATOM     18  C   UNL     1     126.612 124.368 127.623  1.00  0.00     0.041 C 
ATOM     19  O   UNL     1     126.272 125.386 128.279  1.00  0.00    -0.550 OA
ATOM     20  O   UNL     1     127.264 124.521 126.405  1.00  0.00    -0.550 OA
ENDBRANCH  17  18
ENDBRANCH  16  17
ENDBRANCH  15  16
ENDBRANCH  14  15
ENDBRANCH  13  14
ENDBRANCH  12  13
ENDBRANCH  11  12
ENDBRANCH   1  11
TORSDOF 15
ENDMDL
