MODEL 1
REMARK VINA RESULT:    -3.547      0.000      0.000
REMARK INTER + INTRA:          -4.824
REMARK INTER:                  -4.584
REMARK INTRA:                  -0.240
REMARK UNBOUND:                -0.240
REMARK SMILES CCCCCCC(=O)[O-]
REMARK SMILES IDX 5 1 6 2 7 3 8 4 9 5 4 6 3 7 2 8 1 9
REMARK H PARENT
REMARK Flexibility Score: inf
ROOT
ATOM      1  C   UNL     1      -6.761  21.184 -10.415  1.00  0.00     0.006 C 
ENDROOT
BRANCH   1   2
ATOM      2  C   UNL     1      -5.610  20.891 -11.382  1.00  0.00     0.053 C 
BRANCH   2   3
ATOM      3  C   UNL     1      -6.118  20.206 -12.611  1.00  0.00     0.041 C 
ATOM      4  O   UNL     1      -5.524  19.193 -13.064  1.00  0.00    -0.550 OA
ATOM      5  O   UNL     1      -7.277  20.657 -13.230  1.00  0.00    -0.550 OA
ENDBRANCH   2   3
ENDBRANCH   1   2
BRANCH   1   6
ATOM      6  C   UNL     1      -7.269  19.890  -9.760  1.00  0.00     0.000 C 
BRANCH   6   7
ATOM      7  C   UNL     1      -6.192  19.192  -8.916  1.00  0.00    -0.000 C 
BRANCH   7   8
ATOM      8  C   UNL     1      -6.780  18.423  -7.724  1.00  0.00    -0.003 C 
ATOM      9  C   UNL     1      -7.847  19.248  -7.011  1.00  0.00     0.004 C 
ENDBRANCH   7   8
ENDBRANCH   6   7
ENDBRANCH   1   6
TORSDOF 5
ENDMDL
MODEL 2
REMARK VINA RESULT:    -3.538      1.059      1.279
REMARK INTER + INTRA:          -4.812
REMARK INTER:                  -4.613
REMARK INTRA:                  -0.198
REMARK UNBOUND:                -0.240
REMARK SMILES CCCCCCC(=O)[O-]
REMARK SMILES IDX 5 1 6 2 7 3 8 4 9 5 4 6 3 7 2 8 1 9
REMARK H PARENT
REMARK Flexibility Score: inf
ROOT
ATOM      1  C   UNL     1      -7.237  20.536 -10.416  1.00  0.00     0.006 C 
ENDROOT
BRANCH   1   2
ATOM      2  C   UNL     1      -6.543  21.575 -11.302  1.00  0.00     0.053 C 
BRANCH   2   3
ATOM      3  C   UNL     1      -5.728  20.902 -12.361  1.00  0.00     0.041 C 
ATOM      4  O   UNL     1      -5.070  21.588 -13.187  1.00  0.00    -0.550 OA
ATOM      5  O   UNL     1      -5.656  19.515 -12.407  1.00  0.00    -0.550 OA
ENDBRANCH   2   3
ENDBRANCH   1   2
BRANCH   1   6
ATOM      6  C   UNL     1      -6.481  20.351  -9.092  1.00  0.00     0.000 C 
BRANCH   6   7
ATOM      7  C   UNL     1      -6.166  18.878  -8.791  1.00  0.00    -0.000 C 
BRANCH   7   8
ATOM      8  C   UNL     1      -6.875  18.367  -7.529  1.00  0.00    -0.003 C 
ATOM      9  C   UNL     1      -7.860  19.403  -6.995  1.00  0.00     0.004 C 
ENDBRANCH   7   8
ENDBRANCH   6   7
ENDBRANCH   1   6
TORSDOF 5
ENDMDL
MODEL 3
REMARK VINA RESULT:    -3.486      1.778      1.872
REMARK INTER + INTRA:          -4.745
REMARK INTER:                  -4.596
REMARK INTRA:                  -0.149
REMARK UNBOUND:                -0.240
REMARK SMILES CCCCCCC(=O)[O-]
REMARK SMILES IDX 5 1 6 2 7 3 8 4 9 5 4 6 3 7 2 8 1 9
REMARK H PARENT
REMARK Flexibility Score: inf
ROOT
ATOM      1  C   UNL     1      -6.451  21.179  -9.872  1.00  0.00     0.006 C 
ENDROOT
BRANCH   1   2
ATOM      2  C   UNL     1      -5.621  21.022 -11.150  1.00  0.00     0.053 C 
BRANCH   2   3
ATOM      3  C   UNL     1      -5.282  22.362 -11.722  1.00  0.00     0.041 C 
ATOM      4  O   UNL     1      -4.084  22.748 -11.765  1.00  0.00    -0.550 OA
ATOM      5  O   UNL     1      -6.282  23.166 -12.254  1.00  0.00    -0.550 OA
ENDBRANCH   2   3
ENDBRANCH   1   2
BRANCH   1   6
ATOM      6  C   UNL     1      -7.270  19.910  -9.591  1.00  0.00     0.000 C 
BRANCH   6   7
ATOM      7  C   UNL     1      -6.418  18.771  -9.012  1.00  0.00    -0.000 C 
BRANCH   7   8
ATOM      8  C   UNL     1      -6.855  18.365  -7.597  1.00  0.00    -0.003 C 
ATOM      9  C   UNL     1      -7.944  19.297  -7.071  1.00  0.00     0.004 C 
ENDBRANCH   7   8
ENDBRANCH   6   7
ENDBRANCH   1   6
TORSDOF 5
ENDMDL
MODEL 4
REMARK VINA RESULT:    -3.463      1.403      1.782
REMARK INTER + INTRA:          -4.714
REMARK INTER:                  -4.519
REMARK INTRA:                  -0.195
REMARK UNBOUND:                -0.240
REMARK SMILES CCCCCCC(=O)[O-]
REMARK SMILES IDX 5 1 6 2 7 3 8 4 9 5 4 6 3 7 2 8 1 9
REMARK H PARENT
REMARK Flexibility Score: inf
ROOT
ATOM      1  C   UNL     1      -6.563  20.280 -10.879  1.00  0.00     0.006 C 
ENDROOT
BRANCH   1   2
ATOM      2  C   UNL     1      -7.660  21.316 -11.142  1.00  0.00     0.053 C 
BRANCH   2   3
ATOM      3  C   UNL     1      -8.407  20.983 -12.395  1.00  0.00     0.041 C 
ATOM      4  O   UNL     1      -7.789  20.839 -13.482  1.00  0.00    -0.550 OA
ATOM      5  O   UNL     1      -9.781  20.782 -12.353  1.00  0.00    -0.550 OA
ENDBRANCH   2   3
ENDBRANCH   1   2
BRANCH   1   6
ATOM      6  C   UNL     1      -6.159  20.272  -9.397  1.00  0.00     0.000 C 
BRANCH   6   7
ATOM      7  C   UNL     1      -5.994  18.851  -8.837  1.00  0.00    -0.000 C 
BRANCH   7   8
ATOM      8  C   UNL     1      -7.258  18.346  -8.125  1.00  0.00    -0.003 C 
ATOM      9  C   UNL     1      -7.794  19.390  -7.150  1.00  0.00     0.004 C 
ENDBRANCH   7   8
ENDBRANCH   6   7
ENDBRANCH   1   6
TORSDOF 5
ENDMDL
MODEL 5
REMARK VINA RESULT:    -2.977      3.055      4.456
REMARK INTER + INTRA:          -4.087
REMARK INTER:                  -3.840
REMARK INTRA:                  -0.247
REMARK UNBOUND:                -0.240
REMARK SMILES CCCCCCC(=O)[O-]
REMARK SMILES IDX 5 1 6 2 7 3 8 4 9 5 4 6 3 7 2 8 1 9
REMARK H PARENT
REMARK Flexibility Score: inf
ROOT
ATOM      1  C   UNL     1      -6.124  19.834 -10.391  1.00  0.00     0.006 C 
ENDROOT
BRANCH   1   2
ATOM      2  C   UNL     1      -6.521  20.294  -8.985  1.00  0.00     0.053 C 
BRANCH   2   3
ATOM      3  C   UNL     1      -7.297  19.225  -8.283  1.00  0.00     0.041 C 
ATOM      4  O   UNL     1      -7.350  18.061  -8.761  1.00  0.00    -0.550 OA
ATOM      5  O   UNL     1      -7.924  19.500  -7.075  1.00  0.00    -0.550 OA
ENDBRANCH   2   3
ENDBRANCH   1   2
BRANCH   1   6
ATOM      6  C   UNL     1      -6.337  20.958 -11.416  1.00  0.00     0.000 C 
BRANCH   6   7
ATOM      7  C   UNL     1      -7.531  20.693 -12.345  1.00  0.00    -0.000 C 
BRANCH   7   8
ATOM      8  C   UNL     1      -8.819  21.374 -11.862  1.00  0.00    -0.003 C 
ATOM      9  C   UNL     1      -8.602  22.869 -11.645  1.00  0.00     0.004 C 
ENDBRANCH   7   8
ENDBRANCH   6   7
ENDBRANCH   1   6
TORSDOF 5
ENDMDL
MODEL 6
REMARK VINA RESULT:    -2.947      8.771      9.999
REMARK INTER + INTRA:          -4.048
REMARK INTER:                  -3.791
REMARK INTRA:                  -0.257
REMARK UNBOUND:                -0.240
REMARK SMILES CCCCCCC(=O)[O-]
REMARK SMILES IDX 5 1 6 2 7 3 8 4 9 5 4 6 3 7 2 8 1 9
REMARK H PARENT
REMARK Flexibility Score: inf
ROOT
ATOM      1  C   UNL     1     -12.646  27.292  -9.602  1.00  0.00     0.006 C 
ENDROOT
BRANCH   1   2
ATOM      2  C   UNL     1     -12.424  26.157 -10.605  1.00  0.00     0.053 C 
BRANCH   2   3
ATOM      3  C   UNL     1     -11.069  25.551 -10.420  1.00  0.00     0.041 C 
ATOM      4  O   UNL     1     -10.236  26.086  -9.641  1.00  0.00    -0.550 OA
ATOM      5  O   UNL     1     -10.741  24.368 -11.069  1.00  0.00    -0.550 OA
ENDBRANCH   2   3
ENDBRANCH   1   2
BRANCH   1   6
ATOM      6  C   UNL     1     -13.590  28.358 -10.179  1.00  0.00     0.000 C 
BRANCH   6   7
ATOM      7  C   UNL     1     -14.293  27.892 -11.464  1.00  0.00    -0.000 C 
BRANCH   7   8
ATOM      8  C   UNL     1     -15.802  27.686 -11.271  1.00  0.00    -0.003 C 
ATOM      9  C   UNL     1     -16.240  26.319 -11.790  1.00  0.00     0.004 C 
ENDBRANCH   7   8
ENDBRANCH   6   7
ENDBRANCH   1   6
TORSDOF 5
ENDMDL
MODEL 7
REMARK VINA RESULT:    -2.936     11.300     12.460
REMARK INTER + INTRA:          -4.033
REMARK INTER:                  -3.897
REMARK INTRA:                  -0.136
REMARK UNBOUND:                -0.240
REMARK SMILES CCCCCCC(=O)[O-]
REMARK SMILES IDX 5 1 6 2 7 3 8 4 9 5 4 6 3 7 2 8 1 9
REMARK H PARENT
REMARK Flexibility Score: inf
ROOT
ATOM      1  C   UNL     1      -4.642  30.933  -7.372  1.00  0.00     0.006 C 
ENDROOT
BRANCH   1   2
ATOM      2  C   UNL     1      -5.658  31.853  -6.688  1.00  0.00     0.053 C 
BRANCH   2   3
ATOM      3  C   UNL     1      -4.967  32.788  -5.746  1.00  0.00     0.041 C 
ATOM      4  O   UNL     1      -4.498  33.879  -6.165  1.00  0.00    -0.550 OA
ATOM      5  O   UNL     1      -4.883  32.478  -4.395  1.00  0.00    -0.550 OA
ENDBRANCH   2   3
ENDBRANCH   1   2
BRANCH   1   6
ATOM      6  C   UNL     1      -4.999  30.727  -8.852  1.00  0.00     0.000 C 
BRANCH   6   7
ATOM      7  C   UNL     1      -6.461  30.301  -9.054  1.00  0.00    -0.000 C 
BRANCH   7   8
ATOM      8  C   UNL     1      -6.607  28.796  -9.326  1.00  0.00    -0.003 C 
ATOM      9  C   UNL     1      -7.925  28.491 -10.031  1.00  0.00     0.004 C 
ENDBRANCH   7   8
ENDBRANCH   6   7
ENDBRANCH   1   6
TORSDOF 5
ENDMDL
MODEL 8
REMARK VINA RESULT:    -2.931     10.475     11.518
REMARK INTER + INTRA:          -4.027
REMARK INTER:                  -3.891
REMARK INTRA:                  -0.137
REMARK UNBOUND:                -0.240
REMARK SMILES CCCCCCC(=O)[O-]
REMARK SMILES IDX 5 1 6 2 7 3 8 4 9 5 4 6 3 7 2 8 1 9
REMARK H PARENT
REMARK Flexibility Score: inf
ROOT
ATOM      1  C   UNL     1     -13.957  27.135 -11.385  1.00  0.00     0.006 C 
ENDROOT
BRANCH   1   2
ATOM      2  C   UNL     1     -15.360  27.701 -11.147  1.00  0.00     0.053 C 
BRANCH   2   3
ATOM      3  C   UNL     1     -16.370  26.963 -11.968  1.00  0.00     0.041 C 
ATOM      4  O   UNL     1     -16.565  25.733 -11.778  1.00  0.00    -0.550 OA
ATOM      5  O   UNL     1     -17.131  27.642 -12.910  1.00  0.00    -0.550 OA
ENDBRANCH   2   3
ENDBRANCH   1   2
BRANCH   1   6
ATOM      6  C   UNL     1     -13.104  27.231 -10.111  1.00  0.00     0.000 C 
BRANCH   6   7
ATOM      7  C   UNL     1     -13.380  28.512  -9.309  1.00  0.00    -0.000 C 
BRANCH   7   8
ATOM      8  C   UNL     1     -12.655  28.530  -7.956  1.00  0.00    -0.003 C 
ATOM      9  C   UNL     1     -13.053  29.754  -7.136  1.00  0.00     0.004 C 
ENDBRANCH   7   8
ENDBRANCH   6   7
ENDBRANCH   1   6
TORSDOF 5
ENDMDL
MODEL 9
REMARK VINA RESULT:    -2.921      9.366     10.498
REMARK INTER + INTRA:          -4.015
REMARK INTER:                  -3.764
REMARK INTRA:                  -0.251
REMARK UNBOUND:                -0.240
REMARK SMILES CCCCCCC(=O)[O-]
REMARK SMILES IDX 5 1 6 2 7 3 8 4 9 5 4 6 3 7 2 8 1 9
REMARK H PARENT
REMARK Flexibility Score: inf
ROOT
ATOM      1  C   UNL     1      -6.969  30.264  -8.548  1.00  0.00     0.006 C 
ENDROOT
BRANCH   1   2
ATOM      2  C   UNL     1      -7.643  29.208  -9.429  1.00  0.00     0.053 C 
BRANCH   2   3
ATOM      3  C   UNL     1      -6.863  27.932  -9.409  1.00  0.00     0.041 C 
ATOM      4  O   UNL     1      -6.689  27.312  -8.327  1.00  0.00    -0.550 OA
ATOM      5  O   UNL     1      -6.368  27.400 -10.593  1.00  0.00    -0.550 OA
ENDBRANCH   2   3
ENDBRANCH   1   2
BRANCH   1   6
ATOM      6  C   UNL     1      -5.528  30.527  -9.012  1.00  0.00     0.000 C 
BRANCH   6   7
ATOM      7  C   UNL     1      -4.598  30.923  -7.856  1.00  0.00    -0.000 C 
BRANCH   7   8
ATOM      8  C   UNL     1      -5.364  31.263  -6.569  1.00  0.00    -0.003 C 
ATOM      9  C   UNL     1      -5.043  32.677  -6.095  1.00  0.00     0.004 C 
ENDBRANCH   7   8
ENDBRANCH   6   7
ENDBRANCH   1   6
TORSDOF 5
ENDMDL
