MODEL 1
REMARK VINA RESULT:    -3.593      0.000      0.000
REMARK INTER + INTRA:          -4.178
REMARK INTER:                  -4.118
REMARK INTRA:                  -0.060
REMARK UNBOUND:                -0.060
REMARK SMILES CC(C)[C@H]([NH3+])C(=O)[O-]
REMARK SMILES IDX 4 1 5 2 6 6 7 7 8 8 2 9 1 10 3 11
REMARK H PARENT 5 3 5 4 5 5
REMARK Flexibility Score: inf
ROOT
ATOM      1  C   UNL     1      35.535  -0.377  24.467  1.00  0.00     0.230 C 
ENDROOT
BRANCH   1   2
ATOM      2  N   UNL     1      36.455  -0.098  23.354  1.00  0.00    -0.350 N 
ATOM      3  H   UNL     1      35.915   0.194  22.506  1.00  0.00     0.345 HD
ATOM      4  H   UNL     1      36.986  -0.961  23.099  1.00  0.00     0.345 HD
ATOM      5  H   UNL     1      37.124   0.664  23.610  1.00  0.00     0.345 HD
ENDBRANCH   1   2
BRANCH   1   6
ATOM      6  C   UNL     1      36.126   0.158  25.748  1.00  0.00     0.099 C 
ATOM      7  O   UNL     1      36.600   1.324  25.789  1.00  0.00    -0.544 OA
ATOM      8  O   UNL     1      36.150  -0.632  26.892  1.00  0.00    -0.544 OA
ENDBRANCH   1   6
BRANCH   1   9
ATOM      9  C   UNL     1      35.227  -1.900  24.596  1.00  0.00     0.047 C 
ATOM     10  C   UNL     1      36.104  -2.745  23.658  1.00  0.00     0.014 C 
ATOM     11  C   UNL     1      33.745  -2.196  24.302  1.00  0.00     0.014 C 
ENDBRANCH   1   9
TORSDOF 3
ENDMDL
MODEL 2
REMARK VINA RESULT:    -3.579      0.296      1.140
REMARK INTER + INTRA:          -4.162
REMARK INTER:                  -4.097
REMARK INTRA:                  -0.065
REMARK UNBOUND:                -0.060
REMARK SMILES CC(C)[C@H]([NH3+])C(=O)[O-]
REMARK SMILES IDX 4 1 5 2 6 6 7 7 8 8 2 9 1 10 3 11
REMARK H PARENT 5 3 5 4 5 5
REMARK Flexibility Score: inf
ROOT
ATOM      1  C   UNL     1      35.438  -0.446  24.468  1.00  0.00     0.230 C 
ENDROOT
BRANCH   1   2
ATOM      2  N   UNL     1      36.390  -0.090  23.406  1.00  0.00    -0.350 N 
ATOM      3  H   UNL     1      35.979  -0.305  22.467  1.00  0.00     0.345 HD
ATOM      4  H   UNL     1      37.263  -0.659  23.497  1.00  0.00     0.345 HD
ATOM      5  H   UNL     1      36.627   0.927  23.448  1.00  0.00     0.345 HD
ENDBRANCH   1   2
BRANCH   1   6
ATOM      6  C   UNL     1      35.905   0.145  25.775  1.00  0.00     0.099 C 
ATOM      7  O   UNL     1      36.280  -0.606  26.713  1.00  0.00    -0.544 OA
ATOM      8  O   UNL     1      35.928   1.525  25.950  1.00  0.00    -0.544 OA
ENDBRANCH   1   6
BRANCH   1   9
ATOM      9  C   UNL     1      35.259  -1.990  24.594  1.00  0.00     0.047 C 
ATOM     10  C   UNL     1      36.173  -2.755  23.622  1.00  0.00     0.014 C 
ATOM     11  C   UNL     1      33.798  -2.405  24.342  1.00  0.00     0.014 C 
ENDBRANCH   1   9
TORSDOF 3
ENDMDL
MODEL 3
REMARK VINA RESULT:    -3.453      2.269      3.280
REMARK INTER + INTRA:          -4.018
REMARK INTER:                  -3.962
REMARK INTRA:                  -0.056
REMARK UNBOUND:                -0.060
REMARK SMILES CC(C)[C@H]([NH3+])C(=O)[O-]
REMARK SMILES IDX 4 1 5 2 6 6 7 7 8 8 2 9 1 10 3 11
REMARK H PARENT 5 3 5 4 5 5
REMARK Flexibility Score: inf
ROOT
ATOM      1  C   UNL     1      35.942  -1.074  24.539  1.00  0.00     0.230 C 
ENDROOT
BRANCH   1   2
ATOM      2  N   UNL     1      36.392  -0.411  23.306  1.00  0.00    -0.350 N 
ATOM      3  H   UNL     1      36.110  -0.975  22.471  1.00  0.00     0.345 HD
ATOM      4  H   UNL     1      37.435  -0.342  23.294  1.00  0.00     0.345 HD
ATOM      5  H   UNL     1      35.975   0.544  23.227  1.00  0.00     0.345 HD
ENDBRANCH   1   2
BRANCH   1   6
ATOM      6  C   UNL     1      34.853  -2.064  24.203  1.00  0.00     0.099 C 
ATOM      7  O   UNL     1      33.667  -1.673  24.044  1.00  0.00    -0.544 OA
ATOM      8  O   UNL     1      35.154  -3.414  24.062  1.00  0.00    -0.544 OA
ENDBRANCH   1   6
BRANCH   1   9
ATOM      9  C   UNL     1      35.445  -0.048  25.602  1.00  0.00     0.047 C 
ATOM     10  C   UNL     1      35.982   1.366  25.330  1.00  0.00     0.014 C 
ATOM     11  C   UNL     1      35.853  -0.476  27.024  1.00  0.00     0.014 C 
ENDBRANCH   1   9
TORSDOF 3
ENDMDL
MODEL 4
REMARK VINA RESULT:    -3.367     13.689     14.616
REMARK INTER + INTRA:          -3.920
REMARK INTER:                  -3.866
REMARK INTRA:                  -0.054
REMARK UNBOUND:                -0.060
REMARK SMILES CC(C)[C@H]([NH3+])C(=O)[O-]
REMARK SMILES IDX 4 1 5 2 6 6 7 7 8 8 2 9 1 10 3 11
REMARK H PARENT 5 3 5 4 5 5
REMARK Flexibility Score: inf
ROOT
ATOM      1  C   UNL     1      22.307  -1.257  30.973  1.00  0.00     0.230 C 
ENDROOT
BRANCH   1   2
ATOM      2  N   UNL     1      21.499  -1.309  29.745  1.00  0.00    -0.350 N 
ATOM      3  H   UNL     1      21.774  -2.138  29.168  1.00  0.00     0.345 HD
ATOM      4  H   UNL     1      21.670  -0.458  29.163  1.00  0.00     0.345 HD
ATOM      5  H   UNL     1      20.481  -1.379  29.975  1.00  0.00     0.345 HD
ENDBRANCH   1   2
BRANCH   1   6
ATOM      6  C   UNL     1      23.709  -0.822  30.627  1.00  0.00     0.099 C 
ATOM      7  O   UNL     1      24.550  -1.661  30.211  1.00  0.00    -0.544 OA
ATOM      8  O   UNL     1      24.082   0.511  30.763  1.00  0.00    -0.544 OA
ENDBRANCH   1   6
BRANCH   1   9
ATOM      9  C   UNL     1      22.322  -2.627  31.716  1.00  0.00     0.047 C 
ATOM     10  C   UNL     1      21.280  -3.603  31.145  1.00  0.00     0.014 C 
ATOM     11  C   UNL     1      22.069  -2.447  33.224  1.00  0.00     0.014 C 
ENDBRANCH   1   9
TORSDOF 3
ENDMDL
MODEL 5
REMARK VINA RESULT:    -3.255      2.498      3.294
REMARK INTER + INTRA:          -3.791
REMARK INTER:                  -3.762
REMARK INTRA:                  -0.030
REMARK UNBOUND:                -0.060
REMARK SMILES CC(C)[C@H]([NH3+])C(=O)[O-]
REMARK SMILES IDX 4 1 5 2 6 6 7 7 8 8 2 9 1 10 3 11
REMARK H PARENT 5 3 5 4 5 5
REMARK Flexibility Score: inf
ROOT
ATOM      1  C   UNL     1      35.330  -0.916  24.471  1.00  0.00     0.230 C 
ENDROOT
BRANCH   1   2
ATOM      2  N   UNL     1      36.132  -0.188  23.477  1.00  0.00    -0.350 N 
ATOM      3  H   UNL     1      36.894  -0.803  23.109  1.00  0.00     0.345 HD
ATOM      4  H   UNL     1      36.592   0.640  23.920  1.00  0.00     0.345 HD
ATOM      5  H   UNL     1      35.535   0.128  22.679  1.00  0.00     0.345 HD
ENDBRANCH   1   2
BRANCH   1   6
ATOM      6  C   UNL     1      35.206  -2.359  24.050  1.00  0.00     0.099 C 
ATOM      7  O   UNL     1      34.097  -2.950  24.127  1.00  0.00    -0.544 OA
ATOM      8  O   UNL     1      36.316  -3.046  23.570  1.00  0.00    -0.544 OA
ENDBRANCH   1   6
BRANCH   1   9
ATOM      9  C   UNL     1      33.923  -0.275  24.664  1.00  0.00     0.047 C 
ATOM     10  C   UNL     1      33.855   1.147  24.084  1.00  0.00     0.014 C 
ATOM     11  C   UNL     1      33.528  -0.230  26.152  1.00  0.00     0.014 C 
ENDBRANCH   1   9
TORSDOF 3
ENDMDL
MODEL 6
REMARK VINA RESULT:    -3.232      2.520      2.946
REMARK INTER + INTRA:          -3.764
REMARK INTER:                  -3.695
REMARK INTRA:                  -0.069
REMARK UNBOUND:                -0.060
REMARK SMILES CC(C)[C@H]([NH3+])C(=O)[O-]
REMARK SMILES IDX 4 1 5 2 6 6 7 7 8 8 2 9 1 10 3 11
REMARK H PARENT 5 3 5 4 5 5
REMARK Flexibility Score: inf
ROOT
ATOM      1  C   UNL     1      33.970  -1.496  24.704  1.00  0.00     0.230 C 
ENDROOT
BRANCH   1   2
ATOM      2  N   UNL     1      33.568  -2.010  23.386  1.00  0.00    -0.350 N 
ATOM      3  H   UNL     1      34.238  -1.681  22.652  1.00  0.00     0.345 HD
ATOM      4  H   UNL     1      32.624  -1.641  23.128  1.00  0.00     0.345 HD
ATOM      5  H   UNL     1      33.549  -3.055  23.386  1.00  0.00     0.345 HD
ENDBRANCH   1   2
BRANCH   1   6
ATOM      6  C   UNL     1      33.031  -0.390  25.115  1.00  0.00     0.099 C 
ATOM      7  O   UNL     1      32.802   0.572  24.335  1.00  0.00    -0.544 OA
ATOM      8  O   UNL     1      32.408  -0.426  26.358  1.00  0.00    -0.544 OA
ENDBRANCH   1   6
BRANCH   1   9
ATOM      9  C   UNL     1      35.446  -0.996  24.705  1.00  0.00     0.047 C 
ATOM     10  C   UNL     1      36.388  -1.981  23.993  1.00  0.00     0.014 C 
ATOM     11  C   UNL     1      35.955  -0.762  26.140  1.00  0.00     0.014 C 
ENDBRANCH   1   9
TORSDOF 3
ENDMDL
MODEL 7
REMARK VINA RESULT:    -3.196      5.659      6.611
REMARK INTER + INTRA:          -3.723
REMARK INTER:                  -3.667
REMARK INTRA:                  -0.057
REMARK UNBOUND:                -0.060
REMARK SMILES CC(C)[C@H]([NH3+])C(=O)[O-]
REMARK SMILES IDX 4 1 5 2 6 6 7 7 8 8 2 9 1 10 3 11
REMARK H PARENT 5 3 5 4 5 5
REMARK Flexibility Score: inf
ROOT
ATOM      1  C   UNL     1      36.672   4.700  21.330  1.00  0.00     0.230 C 
ENDROOT
BRANCH   1   2
ATOM      2  N   UNL     1      36.440   3.899  20.119  1.00  0.00    -0.350 N 
ATOM      3  H   UNL     1      37.354   3.586  19.715  1.00  0.00     0.345 HD
ATOM      4  H   UNL     1      35.964   4.477  19.389  1.00  0.00     0.345 HD
ATOM      5  H   UNL     1      35.859   3.058  20.336  1.00  0.00     0.345 HD
ENDBRANCH   1   2
BRANCH   1   6
ATOM      6  C   UNL     1      38.129   4.614  21.713  1.00  0.00     0.099 C 
ATOM      7  O   UNL     1      38.550   3.643  22.394  1.00  0.00    -0.544 OA
ATOM      8  O   UNL     1      39.017   5.607  21.313  1.00  0.00    -0.544 OA
ENDBRANCH   1   6
BRANCH   1   9
ATOM      9  C   UNL     1      35.764   4.240  22.511  1.00  0.00     0.047 C 
ATOM     10  C   UNL     1      34.551   3.432  22.023  1.00  0.00     0.014 C 
ATOM     11  C   UNL     1      35.268   5.443  23.334  1.00  0.00     0.014 C 
ENDBRANCH   1   9
TORSDOF 3
ENDMDL
MODEL 8
REMARK VINA RESULT:    -3.162      1.815      2.207
REMARK INTER + INTRA:          -3.685
REMARK INTER:                  -3.614
REMARK INTRA:                  -0.071
REMARK UNBOUND:                -0.060
REMARK SMILES CC(C)[C@H]([NH3+])C(=O)[O-]
REMARK SMILES IDX 4 1 5 2 6 6 7 7 8 8 2 9 1 10 3 11
REMARK H PARENT 5 3 5 4 5 5
REMARK Flexibility Score: inf
ROOT
ATOM      1  C   UNL     1      35.458   0.502  24.113  1.00  0.00     0.230 C 
ENDROOT
BRANCH   1   2
ATOM      2  N   UNL     1      36.465  -0.227  23.328  1.00  0.00    -0.350 N 
ATOM      3  H   UNL     1      36.911   0.414  22.631  1.00  0.00     0.345 HD
ATOM      4  H   UNL     1      36.011  -1.000  22.789  1.00  0.00     0.345 HD
ATOM      5  H   UNL     1      37.206  -0.621  23.951  1.00  0.00     0.345 HD
ENDBRANCH   1   2
BRANCH   1   6
ATOM      6  C   UNL     1      36.059   1.791  24.617  1.00  0.00     0.099 C 
ATOM      7  O   UNL     1      35.344   2.629  25.227  1.00  0.00    -0.544 OA
ATOM      8  O   UNL     1      37.408   2.062  24.413  1.00  0.00    -0.544 OA
ENDBRANCH   1   6
BRANCH   1   9
ATOM      9  C   UNL     1      34.915  -0.353  25.298  1.00  0.00     0.047 C 
ATOM     10  C   UNL     1      36.002  -0.636  26.348  1.00  0.00     0.014 C 
ATOM     11  C   UNL     1      34.336  -1.691  24.801  1.00  0.00     0.014 C 
ENDBRANCH   1   9
TORSDOF 3
ENDMDL
MODEL 9
REMARK VINA RESULT:    -3.135     14.247     14.919
REMARK INTER + INTRA:          -3.653
REMARK INTER:                  -3.609
REMARK INTRA:                  -0.044
REMARK UNBOUND:                -0.060
REMARK SMILES CC(C)[C@H]([NH3+])C(=O)[O-]
REMARK SMILES IDX 4 1 5 2 6 6 7 7 8 8 2 9 1 10 3 11
REMARK H PARENT 5 3 5 4 5 5
REMARK Flexibility Score: inf
ROOT
ATOM      1  C   UNL     1      22.741  -2.006  30.271  1.00  0.00     0.230 C 
ENDROOT
BRANCH   1   2
ATOM      2  N   UNL     1      21.531  -1.215  29.997  1.00  0.00    -0.350 N 
ATOM      3  H   UNL     1      21.280  -0.640  30.835  1.00  0.00     0.345 HD
ATOM      4  H   UNL     1      20.722  -1.849  29.805  1.00  0.00     0.345 HD
ATOM      5  H   UNL     1      21.681  -0.580  29.181  1.00  0.00     0.345 HD
ENDBRANCH   1   2
BRANCH   1   6
ATOM      6  C   UNL     1      22.538  -3.415  29.773  1.00  0.00     0.099 C 
ATOM      7  O   UNL     1      21.376  -3.852  29.559  1.00  0.00    -0.544 OA
ATOM      8  O   UNL     1      23.633  -4.241  29.543  1.00  0.00    -0.544 OA
ENDBRANCH   1   6
BRANCH   1   9
ATOM      9  C   UNL     1      23.105  -2.003  31.786  1.00  0.00     0.047 C 
ATOM     10  C   UNL     1      21.908  -2.398  32.666  1.00  0.00     0.014 C 
ATOM     11  C   UNL     1      23.623  -0.623  32.233  1.00  0.00     0.014 C 
ENDBRANCH   1   9
TORSDOF 3
ENDMDL
