MODEL 1
REMARK VINA RESULT:    -4.720      0.000      0.000
REMARK INTER + INTRA:          -8.055
REMARK INTER:                  -7.204
REMARK INTRA:                  -0.851
REMARK UNBOUND:                -0.851
REMARK SMILES O=C([O-])CCCCCCCCC(=O)[O-]
REMARK SMILES IDX 7 1 6 2 5 3 4 4 2 5 1 6 3 7 8 8 9 9 10 10 11 11 12 12 13 13
REMARK SMILES IDX 14 14
REMARK H PARENT
REMARK Flexibility Score: inf
ROOT
ATOM      1  C   UNL     1     138.345 133.534 130.693  1.00  0.00     0.000 C 
ENDROOT
BRANCH   1   2
ATOM      2  C   UNL     1     139.091 134.176 129.509  1.00  0.00     0.000 C 
BRANCH   2   3
ATOM      3  C   UNL     1     140.158 135.219 129.892  1.00  0.00     0.006 C 
BRANCH   3   4
ATOM      4  C   UNL     1     139.723 136.121 131.054  1.00  0.00     0.053 C 
BRANCH   4   5
ATOM      5  C   UNL     1     138.830 137.216 130.559  1.00  0.00     0.041 C 
ATOM      6  O   UNL     1     137.584 137.135 130.713  1.00  0.00    -0.550 OA
ATOM      7  O   UNL     1     139.380 138.348 129.972  1.00  0.00    -0.550 OA
ENDBRANCH   4   5
ENDBRANCH   3   4
ENDBRANCH   2   3
ENDBRANCH   1   2
BRANCH   1   8
ATOM      8  C   UNL     1     138.905 132.153 131.077  1.00  0.00     0.000 C 
BRANCH   8   9
ATOM      9  C   UNL     1     139.471 131.378 129.873  1.00  0.00     0.000 C 
BRANCH   9  10
ATOM     10  C   UNL     1     138.484 130.412 129.192  1.00  0.00     0.006 C 
BRANCH  10  11
ATOM     11  C   UNL     1     138.127 130.830 127.760  1.00  0.00     0.053 C 
BRANCH  11  12
ATOM     12  C   UNL     1     136.868 131.637 127.751  1.00  0.00     0.041 C 
ATOM     13  O   UNL     1     136.005 131.476 128.653  1.00  0.00    -0.550 OA
ATOM     14  O   UNL     1     136.668 132.602 126.772  1.00  0.00    -0.550 OA
ENDBRANCH  11  12
ENDBRANCH  10  11
ENDBRANCH   9  10
ENDBRANCH   8   9
ENDBRANCH   1   8
TORSDOF 9
ENDMDL
MODEL 2
REMARK VINA RESULT:    -4.707      2.220      3.429
REMARK INTER + INTRA:          -8.035
REMARK INTER:                  -7.141
REMARK INTRA:                  -0.893
REMARK UNBOUND:                -0.851
REMARK SMILES O=C([O-])CCCCCCCCC(=O)[O-]
REMARK SMILES IDX 7 1 6 2 5 3 4 4 2 5 1 6 3 7 8 8 9 9 10 10 11 11 12 12 13 13
REMARK SMILES IDX 14 14
REMARK H PARENT
REMARK Flexibility Score: inf
ROOT
ATOM      1  C   UNL     1     138.570 130.462 129.405  1.00  0.00     0.000 C 
ENDROOT
BRANCH   1   2
ATOM      2  C   UNL     1     139.751 131.347 129.846  1.00  0.00     0.000 C 
BRANCH   2   3
ATOM      3  C   UNL     1     139.367 132.591 130.670  1.00  0.00     0.006 C 
BRANCH   3   4
ATOM      4  C   UNL     1     139.413 133.888 129.853  1.00  0.00     0.053 C 
BRANCH   4   5
ATOM      5  C   UNL     1     140.159 134.949 130.600  1.00  0.00     0.041 C 
ATOM      6  O   UNL     1     140.886 134.641 131.581  1.00  0.00    -0.550 OA
ATOM      7  O   UNL     1     140.089 136.272 130.183  1.00  0.00    -0.550 OA
ENDBRANCH   4   5
ENDBRANCH   3   4
ENDBRANCH   2   3
ENDBRANCH   1   2
BRANCH   1   8
ATOM      8  C   UNL     1     138.146 130.709 127.948  1.00  0.00     0.000 C 
BRANCH   8   9
ATOM      9  C   UNL     1     137.022 131.753 127.818  1.00  0.00     0.000 C 
BRANCH   9  10
ATOM     10  C   UNL     1     135.897 131.639 128.865  1.00  0.00     0.006 C 
BRANCH  10  11
ATOM     11  C   UNL     1     135.757 132.896 129.733  1.00  0.00     0.053 C 
BRANCH  11  12
ATOM     12  C   UNL     1     135.207 132.541 131.078  1.00  0.00     0.041 C 
ATOM     13  O   UNL     1     135.887 132.749 132.117  1.00  0.00    -0.550 OA
ATOM     14  O   UNL     1     133.922 132.024 131.189  1.00  0.00    -0.550 OA
ENDBRANCH  11  12
ENDBRANCH  10  11
ENDBRANCH   9  10
ENDBRANCH   8   9
ENDBRANCH   1   8
TORSDOF 9
ENDMDL
MODEL 3
REMARK VINA RESULT:    -4.705      1.098      5.405
REMARK INTER + INTRA:          -8.032
REMARK INTER:                  -7.102
REMARK INTRA:                  -0.930
REMARK UNBOUND:                -0.851
REMARK SMILES O=C([O-])CCCCCCCCC(=O)[O-]
REMARK SMILES IDX 7 1 6 2 5 3 4 4 2 5 1 6 3 7 8 8 9 9 10 10 11 11 12 12 13 13
REMARK SMILES IDX 14 14
REMARK H PARENT
REMARK Flexibility Score: inf
ROOT
ATOM      1  C   UNL     1     139.322 132.606 130.442  1.00  0.00     0.000 C 
ENDROOT
BRANCH   1   2
ATOM      2  C   UNL     1     139.670 131.228 129.849  1.00  0.00     0.000 C 
BRANCH   2   3
ATOM      3  C   UNL     1     138.473 130.429 129.299  1.00  0.00     0.006 C 
BRANCH   3   4
ATOM      4  C   UNL     1     138.134 130.783 127.846  1.00  0.00     0.053 C 
BRANCH   4   5
ATOM      5  C   UNL     1     136.855 131.559 127.783  1.00  0.00     0.041 C 
ATOM      6  O   UNL     1     135.840 131.158 128.409  1.00  0.00    -0.550 OA
ATOM      7  O   UNL     1     136.801 132.751 127.072  1.00  0.00    -0.550 OA
ENDBRANCH   4   5
ENDBRANCH   3   4
ENDBRANCH   2   3
ENDBRANCH   1   2
BRANCH   1   8
ATOM      8  C   UNL     1     138.026 132.594 131.270  1.00  0.00     0.000 C 
BRANCH   8   9
ATOM      9  C   UNL     1     137.016 133.665 130.820  1.00  0.00     0.000 C 
BRANCH   9  10
ATOM     10  C   UNL     1     137.591 134.772 129.917  1.00  0.00     0.006 C 
BRANCH  10  11
ATOM     11  C   UNL     1     137.635 136.143 130.603  1.00  0.00     0.053 C 
BRANCH  11  12
ATOM     12  C   UNL     1     139.031 136.682 130.602  1.00  0.00     0.041 C 
ATOM     13  O   UNL     1     139.985 135.971 131.013  1.00  0.00    -0.550 OA
ATOM     14  O   UNL     1     139.284 137.953 130.102  1.00  0.00    -0.550 OA
ENDBRANCH  11  12
ENDBRANCH  10  11
ENDBRANCH   9  10
ENDBRANCH   8   9
ENDBRANCH   1   8
TORSDOF 9
ENDMDL
MODEL 4
REMARK VINA RESULT:    -4.695      1.471      4.655
REMARK INTER + INTRA:          -8.016
REMARK INTER:                  -6.998
REMARK INTRA:                  -1.018
REMARK UNBOUND:                -0.851
REMARK SMILES O=C([O-])CCCCCCCCC(=O)[O-]
REMARK SMILES IDX 7 1 6 2 5 3 4 4 2 5 1 6 3 7 8 8 9 9 10 10 11 11 12 12 13 13
REMARK SMILES IDX 14 14
REMARK H PARENT
REMARK Flexibility Score: inf
ROOT
ATOM      1  C   UNL     1     138.123 130.110 129.417  1.00  0.00     0.000 C 
ENDROOT
BRANCH   1   2
ATOM      2  C   UNL     1     138.116 130.870 128.078  1.00  0.00     0.000 C 
BRANCH   2   3
ATOM      3  C   UNL     1     136.777 131.537 127.709  1.00  0.00     0.006 C 
BRANCH   3   4
ATOM      4  C   UNL     1     136.751 133.039 128.021  1.00  0.00     0.053 C 
BRANCH   4   5
ATOM      5  C   UNL     1     135.768 133.327 129.114  1.00  0.00     0.041 C 
ATOM      6  O   UNL     1     135.834 132.701 130.205  1.00  0.00    -0.550 OA
ATOM      7  O   UNL     1     134.813 134.320 128.945  1.00  0.00    -0.550 OA
ENDBRANCH   4   5
ENDBRANCH   3   4
ENDBRANCH   2   3
ENDBRANCH   1   2
BRANCH   1   8
ATOM      8  C   UNL     1     138.897 130.848 130.522  1.00  0.00     0.000 C 
BRANCH   8   9
ATOM      9  C   UNL     1     139.695 132.055 129.994  1.00  0.00     0.000 C 
BRANCH   9  10
ATOM     10  C   UNL     1     139.433 133.386 130.724  1.00  0.00     0.006 C 
BRANCH  10  11
ATOM     11  C   UNL     1     139.919 134.608 129.935  1.00  0.00     0.053 C 
BRANCH  11  12
ATOM     12  C   UNL     1     139.080 135.804 130.257  1.00  0.00     0.041 C 
ATOM     13  O   UNL     1     137.866 135.663 130.559  1.00  0.00    -0.550 OA
ATOM     14  O   UNL     1     139.651 137.070 130.271  1.00  0.00    -0.550 OA
ENDBRANCH  11  12
ENDBRANCH  10  11
ENDBRANCH   9  10
ENDBRANCH   8   9
ENDBRANCH   1   8
TORSDOF 9
ENDMDL
MODEL 5
REMARK VINA RESULT:    -4.681      1.946      5.575
REMARK INTER + INTRA:          -7.996
REMARK INTER:                  -7.122
REMARK INTRA:                  -0.874
REMARK UNBOUND:                -0.851
REMARK SMILES O=C([O-])CCCCCCCCC(=O)[O-]
REMARK SMILES IDX 7 1 6 2 5 3 4 4 2 5 1 6 3 7 8 8 9 9 10 10 11 11 12 12 13 13
REMARK SMILES IDX 14 14
REMARK H PARENT
REMARK Flexibility Score: inf
ROOT
ATOM      1  C   UNL     1     138.592 130.466 129.076  1.00  0.00     0.000 C 
ENDROOT
BRANCH   1   2
ATOM      2  C   UNL     1     137.758 131.064 127.929  1.00  0.00     0.000 C 
BRANCH   2   3
ATOM      3  C   UNL     1     136.284 131.354 128.271  1.00  0.00     0.006 C 
BRANCH   3   4
ATOM      4  C   UNL     1     135.776 130.542 129.469  1.00  0.00     0.053 C 
BRANCH   4   5
ATOM      5  C   UNL     1     134.562 131.188 130.060  1.00  0.00     0.041 C 
ATOM      6  O   UNL     1     133.436 130.632 129.958  1.00  0.00    -0.550 OA
ATOM      7  O   UNL     1     134.681 132.378 130.765  1.00  0.00    -0.550 OA
ENDBRANCH   4   5
ENDBRANCH   3   4
ENDBRANCH   2   3
ENDBRANCH   1   2
BRANCH   1   8
ATOM      8  C   UNL     1     139.472 131.509 129.786  1.00  0.00     0.000 C 
BRANCH   8   9
ATOM      9  C   UNL     1     138.749 132.211 130.950  1.00  0.00     0.000 C 
BRANCH   9  10
ATOM     10  C   UNL     1     138.233 133.630 130.643  1.00  0.00     0.006 C 
BRANCH  10  11
ATOM     11  C   UNL     1     139.147 134.406 129.686  1.00  0.00     0.053 C 
BRANCH  11  12
ATOM     12  C   UNL     1     139.988 135.383 130.445  1.00  0.00     0.041 C 
ATOM     13  O   UNL     1     139.821 136.620 130.286  1.00  0.00    -0.550 OA
ATOM     14  O   UNL     1     140.924 134.926 131.364  1.00  0.00    -0.550 OA
ENDBRANCH  11  12
ENDBRANCH  10  11
ENDBRANCH   9  10
ENDBRANCH   8   9
ENDBRANCH   1   8
TORSDOF 9
ENDMDL
MODEL 6
REMARK VINA RESULT:    -4.677      1.428      2.460
REMARK INTER + INTRA:          -7.989
REMARK INTER:                  -7.129
REMARK INTRA:                  -0.860
REMARK UNBOUND:                -0.851
REMARK SMILES O=C([O-])CCCCCCCCC(=O)[O-]
REMARK SMILES IDX 7 1 6 2 5 3 4 4 2 5 1 6 3 7 8 8 9 9 10 10 11 11 12 12 13 13
REMARK SMILES IDX 14 14
REMARK H PARENT
REMARK Flexibility Score: inf
ROOT
ATOM      1  C   UNL     1     139.785 131.280 129.856  1.00  0.00     0.000 C 
ENDROOT
BRANCH   1   2
ATOM      2  C   UNL     1     139.375 132.550 130.623  1.00  0.00     0.000 C 
BRANCH   2   3
ATOM      3  C   UNL     1     139.484 133.864 129.825  1.00  0.00     0.006 C 
BRANCH   3   4
ATOM      4  C   UNL     1     140.062 135.020 130.651  1.00  0.00     0.053 C 
BRANCH   4   5
ATOM      5  C   UNL     1     139.155 136.210 130.588  1.00  0.00     0.041 C 
ATOM      6  O   UNL     1     139.624 137.350 130.331  1.00  0.00    -0.550 OA
ATOM      7  O   UNL     1     137.787 136.050 130.764  1.00  0.00    -0.550 OA
ENDBRANCH   4   5
ENDBRANCH   3   4
ENDBRANCH   2   3
ENDBRANCH   1   2
BRANCH   1   8
ATOM      8  C   UNL     1     138.580 130.465 129.357  1.00  0.00     0.000 C 
BRANCH   8   9
ATOM      9  C   UNL     1     138.102 130.896 127.958  1.00  0.00     0.000 C 
BRANCH   9  10
ATOM     10  C   UNL     1     136.631 131.346 127.877  1.00  0.00     0.006 C 
BRANCH  10  11
ATOM     11  C   UNL     1     135.993 131.562 129.255  1.00  0.00     0.053 C 
BRANCH  11  12
ATOM     12  C   UNL     1     135.856 133.024 129.543  1.00  0.00     0.041 C 
ATOM     13  O   UNL     1     135.818 133.855 128.598  1.00  0.00    -0.550 OA
ATOM     14  O   UNL     1     135.721 133.464 130.854  1.00  0.00    -0.550 OA
ENDBRANCH  11  12
ENDBRANCH  10  11
ENDBRANCH   9  10
ENDBRANCH   8   9
ENDBRANCH   1   8
TORSDOF 9
ENDMDL
MODEL 7
REMARK VINA RESULT:    -4.669      1.141      1.494
REMARK INTER + INTRA:          -7.976
REMARK INTER:                  -7.056
REMARK INTRA:                  -0.921
REMARK UNBOUND:                -0.851
REMARK SMILES O=C([O-])CCCCCCCCC(=O)[O-]
REMARK SMILES IDX 7 1 6 2 5 3 4 4 2 5 1 6 3 7 8 8 9 9 10 10 11 11 12 12 13 13
REMARK SMILES IDX 14 14
REMARK H PARENT
REMARK Flexibility Score: inf
ROOT
ATOM      1  C   UNL     1     137.648 132.171 131.259  1.00  0.00     0.000 C 
ENDROOT
BRANCH   1   2
ATOM      2  C   UNL     1     136.900 133.490 130.992  1.00  0.00     0.000 C 
BRANCH   2   3
ATOM      3  C   UNL     1     137.622 134.476 130.053  1.00  0.00     0.006 C 
BRANCH   3   4
ATOM      4  C   UNL     1     137.675 135.904 130.611  1.00  0.00     0.053 C 
BRANCH   4   5
ATOM      5  C   UNL     1     139.069 136.443 130.533  1.00  0.00     0.041 C 
ATOM      6  O   UNL     1     140.055 135.674 130.684  1.00  0.00    -0.550 OA
ATOM      7  O   UNL     1     139.280 137.785 130.246  1.00  0.00    -0.550 OA
ENDBRANCH   4   5
ENDBRANCH   3   4
ENDBRANCH   2   3
ENDBRANCH   1   2
BRANCH   1   8
ATOM      8  C   UNL     1     139.150 132.257 130.938  1.00  0.00     0.000 C 
BRANCH   8   9
ATOM      9  C   UNL     1     139.582 131.286 129.823  1.00  0.00     0.000 C 
BRANCH   9  10
ATOM     10  C   UNL     1     138.448 130.440 129.214  1.00  0.00     0.006 C 
BRANCH  10  11
ATOM     11  C   UNL     1     138.123 130.826 127.766  1.00  0.00     0.053 C 
BRANCH  11  12
ATOM     12  C   UNL     1     136.795 131.512 127.694  1.00  0.00     0.041 C 
ATOM     13  O   UNL     1     135.833 131.104 128.397  1.00  0.00    -0.550 OA
ATOM     14  O   UNL     1     136.634 132.631 126.888  1.00  0.00    -0.550 OA
ENDBRANCH  11  12
ENDBRANCH  10  11
ENDBRANCH   9  10
ENDBRANCH   8   9
ENDBRANCH   1   8
TORSDOF 9
ENDMDL
MODEL 8
REMARK VINA RESULT:    -4.611      2.842      3.477
REMARK INTER + INTRA:          -7.888
REMARK INTER:                  -6.866
REMARK INTRA:                  -1.022
REMARK UNBOUND:                -0.851
REMARK SMILES O=C([O-])CCCCCCCCC(=O)[O-]
REMARK SMILES IDX 7 1 6 2 5 3 4 4 2 5 1 6 3 7 8 8 9 9 10 10 11 11 12 12 13 13
REMARK SMILES IDX 14 14
REMARK H PARENT
REMARK Flexibility Score: inf
ROOT
ATOM      1  C   UNL     1     134.313 133.756 129.824  1.00  0.00     0.000 C 
ENDROOT
BRANCH   1   2
ATOM      2  C   UNL     1     135.589 134.249 129.117  1.00  0.00     0.000 C 
BRANCH   2   3
ATOM      3  C   UNL     1     136.859 134.265 129.989  1.00  0.00     0.006 C 
BRANCH   3   4
ATOM      4  C   UNL     1     138.144 134.444 129.172  1.00  0.00     0.053 C 
BRANCH   4   5
ATOM      5  C   UNL     1     139.347 134.209 130.032  1.00  0.00     0.041 C 
ATOM      6  O   UNL     1     139.373 133.237 130.832  1.00  0.00    -0.550 OA
ATOM      7  O   UNL     1     140.457 135.034 129.914  1.00  0.00    -0.550 OA
ENDBRANCH   4   5
ENDBRANCH   3   4
ENDBRANCH   2   3
ENDBRANCH   1   2
BRANCH   1   8
ATOM      8  C   UNL     1     134.568 132.559 130.756  1.00  0.00     0.000 C 
BRANCH   8   9
ATOM      9  C   UNL     1     134.007 131.236 130.203  1.00  0.00     0.000 C 
BRANCH   9  10
ATOM     10  C   UNL     1     134.998 130.399 129.372  1.00  0.00     0.006 C 
BRANCH  10  11
ATOM     11  C   UNL     1     136.456 130.584 129.812  1.00  0.00     0.053 C 
BRANCH  11  12
ATOM     12  C   UNL     1     137.319 130.904 128.633  1.00  0.00     0.041 C 
ATOM     13  O   UNL     1     138.567 130.758 128.703  1.00  0.00    -0.550 OA
ATOM     14  O   UNL     1     136.740 131.317 127.440  1.00  0.00    -0.550 OA
ENDBRANCH  11  12
ENDBRANCH  10  11
ENDBRANCH   9  10
ENDBRANCH   8   9
ENDBRANCH   1   8
TORSDOF 9
ENDMDL
MODEL 9
REMARK VINA RESULT:    -4.600      2.834      5.627
REMARK INTER + INTRA:          -7.871
REMARK INTER:                  -6.863
REMARK INTRA:                  -1.008
REMARK UNBOUND:                -0.851
REMARK SMILES O=C([O-])CCCCCCCCC(=O)[O-]
REMARK SMILES IDX 7 1 6 2 5 3 4 4 2 5 1 6 3 7 8 8 9 9 10 10 11 11 12 12 13 13
REMARK SMILES IDX 14 14
REMARK H PARENT
REMARK Flexibility Score: inf
ROOT
ATOM      1  C   UNL     1     134.558 132.605 130.800  1.00  0.00     0.000 C 
ENDROOT
BRANCH   1   2
ATOM      2  C   UNL     1     134.001 131.294 130.217  1.00  0.00     0.000 C 
BRANCH   2   3
ATOM      3  C   UNL     1     134.997 130.474 129.374  1.00  0.00     0.006 C 
BRANCH   3   4
ATOM      4  C   UNL     1     136.446 130.610 129.859  1.00  0.00     0.053 C 
BRANCH   4   5
ATOM      5  C   UNL     1     137.362 130.858 128.702  1.00  0.00     0.041 C 
ATOM      6  O   UNL     1     136.895 131.224 127.592  1.00  0.00    -0.550 OA
ATOM      7  O   UNL     1     138.736 130.733 128.865  1.00  0.00    -0.550 OA
ENDBRANCH   4   5
ENDBRANCH   3   4
ENDBRANCH   2   3
ENDBRANCH   1   2
BRANCH   1   8
ATOM      8  C   UNL     1     134.347 133.813 129.871  1.00  0.00     0.000 C 
BRANCH   8   9
ATOM      9  C   UNL     1     135.617 134.202 129.093  1.00  0.00     0.000 C 
BRANCH   9  10
ATOM     10  C   UNL     1     136.893 134.338 129.946  1.00  0.00     0.006 C 
BRANCH  10  11
ATOM     11  C   UNL     1     138.173 134.410 129.103  1.00  0.00     0.053 C 
BRANCH  11  12
ATOM     12  C   UNL     1     139.380 134.296 129.979  1.00  0.00     0.041 C 
ATOM     13  O   UNL     1     139.495 133.329 130.777  1.00  0.00    -0.550 OA
ATOM     14  O   UNL     1     140.402 135.232 129.879  1.00  0.00    -0.550 OA
ENDBRANCH  11  12
ENDBRANCH  10  11
ENDBRANCH   9  10
ENDBRANCH   8   9
ENDBRANCH   1   8
TORSDOF 9
ENDMDL
