MODEL 1
REMARK VINA RESULT:    -4.746      0.000      0.000
REMARK INTER + INTRA:          -7.271
REMARK INTER:                  -7.243
REMARK INTRA:                  -0.028
REMARK UNBOUND:                -0.028
REMARK SMILES CC1=CCC[C@@H](C)C(=O)C[C@@H](C(C)C)C(=O)C1
REMARK SMILES IDX 8 1 9 2 6 3 7 4 5 5 4 6 3 7 2 8 1 9 10 11 11 12 15 13 16 14
REMARK SMILES IDX 17 15 12 17 13 18 14 19
REMARK H PARENT
REMARK Flexibility Score: 70.00
ROOT
ATOM      1  C   UNL     1      -2.222 -11.910  31.343  1.00  0.00     0.136 C 
ATOM      2  O   UNL     1      -1.859 -10.764  31.123  1.00  0.00    -0.299 OA
ENDROOT
BRANCH   1   3
ATOM      3  C   UNL     1      -1.202 -13.031  31.340  1.00  0.00     0.053 C 
ATOM      4  C   UNL     1       0.149 -12.488  31.816  1.00  0.00     0.016 C 
BRANCH   3   5
ATOM      5  C   UNL     1      -1.050 -13.684  29.944  1.00  0.00     0.015 C 
BRANCH   5   6
ATOM      6  C   UNL     1      -1.440 -12.767  28.773  1.00  0.00     0.028 C 
BRANCH   6   7
ATOM      7  C   UNL     1      -2.301 -13.491  27.764  1.00  0.00    -0.028 C 
ATOM      8  C   UNL     1      -3.654 -13.517  27.771  1.00  0.00    -0.070 CG0
ATOM      9  C   UNL     1      -4.353 -14.303  26.692  1.00  0.00     0.039 C 
ATOM     10  G   UNL     1      -4.489 -12.802  28.820  1.00  0.00     0.000 G0
ENDBRANCH   6   7
ENDBRANCH   5   6
ENDBRANCH   3   5
ENDBRANCH   1   3
BRANCH   1  11
ATOM     11  C   UNL     1      -3.677 -12.172  31.661  1.00  0.00     0.087 C 
BRANCH  11  12
ATOM     12  C   UNL     1      -4.124 -13.617  31.320  1.00  0.00     0.066 C 
BRANCH  12  13
ATOM     13  C   UNL     1      -4.890 -13.669  30.004  1.00  0.00     0.140 C 
ATOM     14  O   UNL     1      -5.803 -14.472  29.874  1.00  0.00    -0.299 OA
BRANCH  13  15
ATOM     15  C   UNL     1      -4.522 -12.809  28.815  1.00  0.00     0.106 CG0
ATOM     16  G   UNL     1      -3.653 -13.517  27.790  1.00  0.00     0.000 G0
ENDBRANCH  13  15
ENDBRANCH  12  13
BRANCH  12  17
ATOM     17  C   UNL     1      -4.933 -14.315  32.457  1.00  0.00    -0.006 C 
ATOM     18  C   UNL     1      -4.240 -15.596  32.947  1.00  0.00     0.008 C 
ATOM     19  C   UNL     1      -5.255 -13.401  33.652  1.00  0.00     0.008 C 
ENDBRANCH  12  17
ENDBRANCH  11  12
ENDBRANCH   1  11
TORSDOF 1
ENDMDL
MODEL 2
REMARK VINA RESULT:    -4.588      1.882      3.902
REMARK INTER + INTRA:          -7.030
REMARK INTER:                  -7.515
REMARK INTRA:                   0.485
REMARK UNBOUND:                -0.028
REMARK SMILES CC1=CCC[C@@H](C)C(=O)C[C@@H](C(C)C)C(=O)C1
REMARK SMILES IDX 8 1 9 2 6 3 7 4 5 5 4 6 3 7 2 8 1 9 10 11 11 12 15 13 16 14
REMARK SMILES IDX 17 15 12 17 13 18 14 19
REMARK H PARENT
REMARK Flexibility Score: 70.00
ROOT
ATOM      1  C   UNL     1      -4.265 -12.339  31.224  1.00  0.00     0.136 C 
ATOM      2  O   UNL     1      -4.241 -11.467  32.080  1.00  0.00    -0.299 OA
ENDROOT
BRANCH   1   3
ATOM      3  C   UNL     1      -4.076 -13.788  31.628  1.00  0.00     0.053 C 
ATOM      4  C   UNL     1      -5.137 -14.166  32.667  1.00  0.00     0.016 C 
BRANCH   3   5
ATOM      5  C   UNL     1      -2.659 -14.062  32.191  1.00  0.00     0.015 C 
BRANCH   5   6
ATOM      6  C   UNL     1      -1.581 -13.090  31.685  1.00  0.00     0.028 C 
BRANCH   6   7
ATOM      7  C   UNL     1      -0.739 -13.713  30.596  1.00  0.00    -0.028 C 
ATOM      8  C   UNL     1      -0.632 -13.246  29.331  1.00  0.00    -0.070 CG0
ATOM      9  C   UNL     1       0.245 -14.004  28.367  1.00  0.00     0.039 C 
ATOM     10  G   UNL     1      -1.362 -12.005  28.843  1.00  0.00     0.000 G0
ENDBRANCH   6   7
ENDBRANCH   5   6
ENDBRANCH   3   5
ENDBRANCH   1   3
BRANCH   1  11
ATOM     11  C   UNL     1      -4.530 -11.952  29.787  1.00  0.00     0.087 C 
BRANCH  11  12
ATOM     12  C   UNL     1      -3.856 -12.904  28.766  1.00  0.00     0.066 C 
BRANCH  12  13
ATOM     13  C   UNL     1      -2.650 -12.250  28.104  1.00  0.00     0.140 C 
ATOM     14  O   UNL     1      -2.697 -11.972  26.914  1.00  0.00    -0.299 OA
BRANCH  13  15
ATOM     15  C   UNL     1      -1.357 -11.991  28.846  1.00  0.00     0.106 CG0
ATOM     16  G   UNL     1      -0.650 -13.252  29.309  1.00  0.00     0.000 G0
ENDBRANCH  13  15
ENDBRANCH  12  13
BRANCH  12  17
ATOM     17  C   UNL     1      -4.832 -13.474  27.690  1.00  0.00    -0.006 C 
ATOM     18  C   UNL     1      -4.089 -14.281  26.614  1.00  0.00     0.008 C 
ATOM     19  C   UNL     1      -5.987 -14.309  28.269  1.00  0.00     0.008 C 
ENDBRANCH  12  17
ENDBRANCH  11  12
ENDBRANCH   1  11
TORSDOF 1
ENDMDL
MODEL 3
REMARK VINA RESULT:    -4.498      1.973      4.212
REMARK INTER + INTRA:          -6.893
REMARK INTER:                  -6.940
REMARK INTRA:                   0.047
REMARK UNBOUND:                -0.028
REMARK SMILES CC1=CCC[C@@H](C)C(=O)C[C@@H](C(C)C)C(=O)C1
REMARK SMILES IDX 8 1 9 2 6 3 7 4 5 5 4 6 3 7 2 8 1 9 10 11 11 12 15 13 16 14
REMARK SMILES IDX 17 15 12 17 13 18 14 19
REMARK H PARENT
REMARK Flexibility Score: 70.00
ROOT
ATOM      1  C   UNL     1      -2.925 -11.318  28.527  1.00  0.00     0.136 C 
ATOM      2  O   UNL     1      -3.492 -10.247  28.367  1.00  0.00    -0.299 OA
ENDROOT
BRANCH   1   3
ATOM      3  C   UNL     1      -2.992 -12.368  27.437  1.00  0.00     0.053 C 
ATOM      4  C   UNL     1      -3.192 -11.681  26.082  1.00  0.00     0.016 C 
BRANCH   3   5
ATOM      5  C   UNL     1      -4.123 -13.399  27.681  1.00  0.00     0.015 C 
BRANCH   5   6
ATOM      6  C   UNL     1      -5.204 -12.925  28.667  1.00  0.00     0.028 C 
BRANCH   6   7
ATOM      7  C   UNL     1      -5.582 -14.016  29.642  1.00  0.00    -0.028 C 
ATOM      8  C   UNL     1      -5.152 -14.099  30.922  1.00  0.00    -0.070 CG0
ATOM      9  C   UNL     1      -5.620 -15.266  31.753  1.00  0.00     0.039 C 
ATOM     10  G   UNL     1      -4.216 -13.078  31.548  1.00  0.00     0.000 G0
ENDBRANCH   6   7
ENDBRANCH   5   6
ENDBRANCH   3   5
ENDBRANCH   1   3
BRANCH   1  11
ATOM     11  C   UNL     1      -2.130 -11.547  29.792  1.00  0.00     0.087 C 
BRANCH  11  12
ATOM     12  C   UNL     1      -1.959 -13.048  30.140  1.00  0.00     0.066 C 
BRANCH  12  13
ATOM     13  C   UNL     1      -2.742 -13.425  31.390  1.00  0.00     0.140 C 
ATOM     14  O   UNL     1      -2.191 -14.071  32.270  1.00  0.00    -0.299 OA
BRANCH  13  15
ATOM     15  C   UNL     1      -4.208 -13.091  31.563  1.00  0.00     0.106 CG0
ATOM     16  G   UNL     1      -5.148 -14.100  30.927  1.00  0.00     0.000 G0
ENDBRANCH  13  15
ENDBRANCH  12  13
BRANCH  12  17
ATOM     17  C   UNL     1      -0.472 -13.505  30.262  1.00  0.00    -0.006 C 
ATOM     18  C   UNL     1       0.121 -13.894  28.899  1.00  0.00     0.008 C 
ATOM     19  C   UNL     1       0.444 -12.486  30.962  1.00  0.00     0.008 C 
ENDBRANCH  12  17
ENDBRANCH  11  12
ENDBRANCH   1  11
TORSDOF 1
ENDMDL
MODEL 4
REMARK VINA RESULT:    -3.901      1.514      3.903
REMARK INTER + INTRA:          -5.982
REMARK INTER:                  -6.418
REMARK INTRA:                   0.437
REMARK UNBOUND:                -0.028
REMARK SMILES CC1=CCC[C@@H](C)C(=O)C[C@@H](C(C)C)C(=O)C1
REMARK SMILES IDX 8 1 9 2 6 3 7 4 5 5 4 6 3 7 2 8 1 9 10 11 11 12 15 13 16 14
REMARK SMILES IDX 17 15 12 17 13 18 14 19
REMARK H PARENT
REMARK Flexibility Score: 70.00
ROOT
ATOM      1  C   UNL     1      -4.196 -13.298  31.707  1.00  0.00     0.136 C 
ATOM      2  O   UNL     1      -4.353 -12.431  32.554  1.00  0.00    -0.299 OA
ENDROOT
BRANCH   1   3
ATOM      3  C   UNL     1      -5.334 -14.248  31.391  1.00  0.00     0.053 C 
ATOM      4  C   UNL     1      -5.313 -15.414  32.385  1.00  0.00     0.016 C 
BRANCH   3   5
ATOM      5  C   UNL     1      -5.265 -14.786  29.940  1.00  0.00     0.015 C 
BRANCH   5   6
ATOM      6  C   UNL     1      -5.841 -13.828  28.884  1.00  0.00     0.028 C 
BRANCH   6   7
ATOM      7  C   UNL     1      -4.777 -13.363  27.917  1.00  0.00    -0.028 C 
ATOM      8  C   UNL     1      -4.007 -12.262  28.076  1.00  0.00    -0.070 CG0
ATOM      9  C   UNL     1      -3.000 -11.941  27.001  1.00  0.00     0.039 C 
ATOM     10  G   UNL     1      -4.122 -11.339  29.277  1.00  0.00     0.000 G0
ENDBRANCH   6   7
ENDBRANCH   5   6
ENDBRANCH   3   5
ENDBRANCH   1   3
BRANCH   1  11
ATOM     11  C   UNL     1      -2.882 -13.370  30.963  1.00  0.00     0.087 C 
BRANCH  11  12
ATOM     12  C   UNL     1      -2.129 -12.016  30.926  1.00  0.00     0.066 C 
BRANCH  12  13
ATOM     13  C   UNL     1      -2.784 -11.038  29.960  1.00  0.00     0.140 C 
ATOM     14  O   UNL     1      -2.253  -9.956  29.751  1.00  0.00    -0.299 OA
BRANCH  13  15
ATOM     15  C   UNL     1      -4.113 -11.320  29.294  1.00  0.00     0.106 CG0
ATOM     16  G   UNL     1      -4.014 -12.243  28.091  1.00  0.00     0.000 G0
ENDBRANCH  13  15
ENDBRANCH  12  13
BRANCH  12  17
ATOM     17  C   UNL     1      -0.603 -12.148  30.627  1.00  0.00    -0.006 C 
ATOM     18  C   UNL     1       0.216 -12.354  31.911  1.00  0.00     0.008 C 
ATOM     19  C   UNL     1      -0.255 -13.239  29.601  1.00  0.00     0.008 C 
ENDBRANCH  12  17
ENDBRANCH  11  12
ENDBRANCH   1  11
TORSDOF 1
ENDMDL
MODEL 5
REMARK VINA RESULT:    -3.848      1.673      3.944
REMARK INTER + INTRA:          -5.901
REMARK INTER:                  -6.828
REMARK INTRA:                   0.928
REMARK UNBOUND:                -0.028
REMARK SMILES CC1=CCC[C@@H](C)C(=O)C[C@@H](C(C)C)C(=O)C1
REMARK SMILES IDX 8 1 9 2 6 3 7 4 5 5 4 6 3 7 2 8 1 9 10 11 11 12 15 13 16 14
REMARK SMILES IDX 17 15 12 17 13 18 14 19
REMARK H PARENT
REMARK Flexibility Score: 70.00
ROOT
ATOM      1  C   UNL     1      -4.646 -13.039  28.373  1.00  0.00     0.136 C 
ATOM      2  O   UNL     1      -5.525 -13.888  28.335  1.00  0.00    -0.299 OA
ENDROOT
BRANCH   1   3
ATOM      3  C   UNL     1      -3.419 -13.194  27.497  1.00  0.00     0.053 C 
ATOM      4  C   UNL     1      -3.815 -13.883  26.187  1.00  0.00     0.016 C 
BRANCH   3   5
ATOM      5  C   UNL     1      -2.294 -13.995  28.199  1.00  0.00     0.015 C 
BRANCH   5   6
ATOM      6  C   UNL     1      -0.931 -13.282  28.219  1.00  0.00     0.028 C 
BRANCH   6   7
ATOM      7  C   UNL     1      -0.419 -13.103  29.629  1.00  0.00    -0.028 C 
ATOM      8  C   UNL     1      -0.852 -12.163  30.502  1.00  0.00    -0.070 CG0
ATOM      9  C   UNL     1      -0.218 -12.121  31.869  1.00  0.00     0.039 C 
ATOM     10  G   UNL     1      -1.932 -11.152  30.159  1.00  0.00     0.000 G0
ENDBRANCH   6   7
ENDBRANCH   5   6
ENDBRANCH   3   5
ENDBRANCH   1   3
BRANCH   1  11
ATOM     11  C   UNL     1      -4.831 -11.828  29.260  1.00  0.00     0.087 C 
BRANCH  11  12
ATOM     12  C   UNL     1      -4.376 -12.070  30.722  1.00  0.00     0.066 C 
BRANCH  12  13
ATOM     13  C   UNL     1      -3.152 -11.235  31.072  1.00  0.00     0.140 C 
ATOM     14  O   UNL     1      -3.160 -10.559  32.092  1.00  0.00    -0.299 OA
BRANCH  13  15
ATOM     15  C   UNL     1      -1.941 -11.150  30.169  1.00  0.00     0.106 CG0
ATOM     16  G   UNL     1      -0.857 -12.162  30.498  1.00  0.00     0.000 G0
ENDBRANCH  13  15
ENDBRANCH  12  13
BRANCH  12  17
ATOM     17  C   UNL     1      -4.137 -13.572  31.070  1.00  0.00    -0.006 C 
ATOM     18  C   UNL     1      -3.138 -13.739  32.227  1.00  0.00     0.008 C 
ATOM     19  C   UNL     1      -5.423 -14.362  31.370  1.00  0.00     0.008 C 
ENDBRANCH  12  17
ENDBRANCH  11  12
ENDBRANCH   1  11
TORSDOF 1
ENDMDL
MODEL 6
REMARK VINA RESULT:    -3.777      1.850      3.587
REMARK INTER + INTRA:          -5.793
REMARK INTER:                  -5.782
REMARK INTRA:                  -0.011
REMARK UNBOUND:                -0.028
REMARK SMILES CC1=CCC[C@@H](C)C(=O)C[C@@H](C(C)C)C(=O)C1
REMARK SMILES IDX 8 1 9 2 6 3 7 4 5 5 4 6 3 7 2 8 1 9 10 11 11 12 15 13 16 14
REMARK SMILES IDX 17 15 12 17 13 18 14 19
REMARK H PARENT
REMARK Flexibility Score: 70.00
ROOT
ATOM      1  C   UNL     1      -3.735 -12.388  31.721  1.00  0.00     0.136 C 
ATOM      2  O   UNL     1      -4.491 -12.661  32.642  1.00  0.00    -0.299 OA
ENDROOT
BRANCH   1   3
ATOM      3  C   UNL     1      -3.602 -10.949  31.265  1.00  0.00     0.053 C 
ATOM      4  C   UNL     1      -3.626 -10.025  32.488  1.00  0.00     0.016 C 
BRANCH   3   5
ATOM      5  C   UNL     1      -4.718 -10.542  30.270  1.00  0.00     0.015 C 
BRANCH   5   6
ATOM      6  C   UNL     1      -4.321 -10.672  28.790  1.00  0.00     0.028 C 
BRANCH   6   7
ATOM      7  C   UNL     1      -4.829 -11.962  28.191  1.00  0.00    -0.028 C 
ATOM      8  C   UNL     1      -4.051 -12.936  27.665  1.00  0.00    -0.070 CG0
ATOM      9  C   UNL     1      -4.730 -14.155  27.095  1.00  0.00     0.039 C 
ATOM     10  G   UNL     1      -2.535 -12.847  27.614  1.00  0.00     0.000 G0
ENDBRANCH   6   7
ENDBRANCH   5   6
ENDBRANCH   3   5
ENDBRANCH   1   3
BRANCH   1  11
ATOM     11  C   UNL     1      -2.915 -13.491  31.092  1.00  0.00     0.087 C 
BRANCH  11  12
ATOM     12  C   UNL     1      -1.782 -12.961  30.177  1.00  0.00     0.066 C 
BRANCH  12  13
ATOM     13  C   UNL     1      -1.862 -13.563  28.781  1.00  0.00     0.140 C 
ATOM     14  O   UNL     1      -1.321 -14.638  28.560  1.00  0.00    -0.299 OA
BRANCH  13  15
ATOM     15  C   UNL     1      -2.531 -12.851  27.626  1.00  0.00     0.106 CG0
ATOM     16  G   UNL     1      -4.048 -12.921  27.655  1.00  0.00     0.000 G0
ENDBRANCH  13  15
ENDBRANCH  12  13
BRANCH  12  17
ATOM     17  C   UNL     1      -0.351 -13.139  30.773  1.00  0.00    -0.006 C 
ATOM     18  C   UNL     1       0.740 -12.960  29.704  1.00  0.00     0.008 C 
ATOM     19  C   UNL     1      -0.055 -12.235  31.982  1.00  0.00     0.008 C 
ENDBRANCH  12  17
ENDBRANCH  11  12
ENDBRANCH   1  11
TORSDOF 1
ENDMDL
MODEL 7
REMARK VINA RESULT:    -3.698      1.812      2.371
REMARK INTER + INTRA:          -5.672
REMARK INTER:                  -6.329
REMARK INTRA:                   0.657
REMARK UNBOUND:                -0.028
REMARK SMILES CC1=CCC[C@@H](C)C(=O)C[C@@H](C(C)C)C(=O)C1
REMARK SMILES IDX 8 1 9 2 6 3 7 4 5 5 4 6 3 7 2 8 1 9 10 11 11 12 15 13 16 14
REMARK SMILES IDX 17 15 12 17 13 18 14 19
REMARK H PARENT
REMARK Flexibility Score: 70.00
ROOT
ATOM      1  C   UNL     1      -1.360 -13.354  30.751  1.00  0.00     0.136 C 
ATOM      2  O   UNL     1      -1.223 -14.137  29.822  1.00  0.00    -0.299 OA
ENDROOT
BRANCH   1   3
ATOM      3  C   UNL     1      -0.447 -12.149  30.853  1.00  0.00     0.053 C 
ATOM      4  C   UNL     1       0.759 -12.500  31.730  1.00  0.00     0.016 C 
BRANCH   3   5
ATOM      5  C   UNL     1      -1.175 -10.906  31.424  1.00  0.00     0.015 C 
BRANCH   5   6
ATOM      6  C   UNL     1      -1.855 -10.030  30.360  1.00  0.00     0.028 C 
BRANCH   6   7
ATOM      7  C   UNL     1      -2.092 -10.796  29.079  1.00  0.00    -0.028 C 
ATOM      8  C   UNL     1      -3.260 -11.381  28.726  1.00  0.00    -0.070 CG0
ATOM      9  C   UNL     1      -3.313 -12.118  27.412  1.00  0.00     0.039 C 
ATOM     10  G   UNL     1      -4.504 -11.335  29.597  1.00  0.00     0.000 G0
ENDBRANCH   6   7
ENDBRANCH   5   6
ENDBRANCH   3   5
ENDBRANCH   1   3
BRANCH   1  11
ATOM     11  C   UNL     1      -2.472 -13.585  31.748  1.00  0.00     0.087 C 
BRANCH  11  12
ATOM     12  C   UNL     1      -3.886 -13.461  31.123  1.00  0.00     0.066 C 
BRANCH  12  13
ATOM     13  C   UNL     1      -4.301 -12.005  30.964  1.00  0.00     0.140 C 
ATOM     14  O   UNL     1      -4.532 -11.335  31.961  1.00  0.00    -0.299 OA
BRANCH  13  15
ATOM     15  C   UNL     1      -4.508 -11.363  29.610  1.00  0.00     0.106 CG0
ATOM     16  G   UNL     1      -3.281 -11.403  28.716  1.00  0.00     0.000 G0
ENDBRANCH  13  15
ENDBRANCH  12  13
BRANCH  12  17
ATOM     17  C   UNL     1      -4.986 -14.268  31.880  1.00  0.00    -0.006 C 
ATOM     18  C   UNL     1      -5.957 -14.960  30.910  1.00  0.00     0.008 C 
ATOM     19  C   UNL     1      -4.435 -15.291  32.889  1.00  0.00     0.008 C 
ENDBRANCH  12  17
ENDBRANCH  11  12
ENDBRANCH   1  11
TORSDOF 1
ENDMDL
MODEL 8
REMARK VINA RESULT:    -3.618      2.196      4.163
REMARK INTER + INTRA:          -5.549
REMARK INTER:                  -6.900
REMARK INTRA:                   1.350
REMARK UNBOUND:                -0.028
REMARK SMILES CC1=CCC[C@@H](C)C(=O)C[C@@H](C(C)C)C(=O)C1
REMARK SMILES IDX 8 1 9 2 6 3 7 4 5 5 4 6 3 7 2 8 1 9 10 11 11 12 15 13 16 14
REMARK SMILES IDX 17 15 12 17 13 18 14 19
REMARK H PARENT
REMARK Flexibility Score: 70.00
ROOT
ATOM      1  C   UNL     1      -1.420 -12.898  29.037  1.00  0.00     0.136 C 
ATOM      2  O   UNL     1      -1.368 -14.047  28.623  1.00  0.00    -0.299 OA
ENDROOT
BRANCH   1   3
ATOM      3  C   UNL     1      -0.934 -12.587  30.439  1.00  0.00     0.053 C 
ATOM      4  C   UNL     1       0.552 -12.944  30.551  1.00  0.00     0.016 C 
BRANCH   3   5
ATOM      5  C   UNL     1      -1.745 -13.341  31.523  1.00  0.00     0.015 C 
BRANCH   5   6
ATOM      6  C   UNL     1      -3.255 -13.420  31.240  1.00  0.00     0.028 C 
BRANCH   6   7
ATOM      7  C   UNL     1      -4.011 -12.325  31.956  1.00  0.00    -0.028 C 
ATOM      8  C   UNL     1      -4.089 -11.037  31.548  1.00  0.00    -0.070 CG0
ATOM      9  C   UNL     1      -4.879 -10.073  32.396  1.00  0.00     0.039 C 
ATOM     10  G   UNL     1      -3.410 -10.526  30.289  1.00  0.00     0.000 G0
ENDBRANCH   6   7
ENDBRANCH   5   6
ENDBRANCH   3   5
ENDBRANCH   1   3
BRANCH   1  11
ATOM     11  C   UNL     1      -1.924 -11.807  28.120  1.00  0.00     0.087 C 
BRANCH  11  12
ATOM     12  C   UNL     1      -3.466 -11.816  27.954  1.00  0.00     0.066 C 
BRANCH  12  13
ATOM     13  C   UNL     1      -4.147 -10.958  29.011  1.00  0.00     0.140 C 
ATOM     14  O   UNL     1      -5.283 -10.550  28.811  1.00  0.00    -0.299 OA
BRANCH  13  15
ATOM     15  C   UNL     1      -3.448 -10.524  30.280  1.00  0.00     0.106 CG0
ATOM     16  G   UNL     1      -4.105 -11.037  31.550  1.00  0.00     0.000 G0
ENDBRANCH  13  15
ENDBRANCH  12  13
BRANCH  12  17
ATOM     17  C   UNL     1      -4.090 -13.246  27.918  1.00  0.00    -0.006 C 
ATOM     18  C   UNL     1      -5.528 -13.255  28.462  1.00  0.00     0.008 C 
ATOM     19  C   UNL     1      -4.048 -13.917  26.535  1.00  0.00     0.008 C 
ENDBRANCH  12  17
ENDBRANCH  11  12
ENDBRANCH   1  11
TORSDOF 1
ENDMDL
MODEL 9
REMARK VINA RESULT:    -3.512      1.709      4.778
REMARK INTER + INTRA:          -5.387
REMARK INTER:                  -5.783
REMARK INTRA:                   0.395
REMARK UNBOUND:                -0.028
REMARK SMILES CC1=CCC[C@@H](C)C(=O)C[C@@H](C(C)C)C(=O)C1
REMARK SMILES IDX 8 1 9 2 6 3 7 4 5 5 4 6 3 7 2 8 1 9 10 11 11 12 15 13 16 14
REMARK SMILES IDX 17 15 12 17 13 18 14 19
REMARK H PARENT
REMARK Flexibility Score: 70.00
ROOT
ATOM      1  C   UNL     1      -4.918 -13.233  30.208  1.00  0.00     0.136 C 
ATOM      2  O   UNL     1      -5.557 -14.259  30.026  1.00  0.00    -0.299 OA
ENDROOT
BRANCH   1   3
ATOM      3  C   UNL     1      -4.589 -12.800  31.623  1.00  0.00     0.053 C 
ATOM      4  C   UNL     1      -3.974 -11.397  31.593  1.00  0.00     0.016 C 
BRANCH   3   5
ATOM      5  C   UNL     1      -3.628 -13.787  32.332  1.00  0.00     0.015 C 
BRANCH   5   6
ATOM      6  C   UNL     1      -2.455 -14.261  31.458  1.00  0.00     0.028 C 
BRANCH   6   7
ATOM      7  C   UNL     1      -1.191 -13.489  31.760  1.00  0.00    -0.028 C 
ATOM      8  C   UNL     1      -0.382 -12.927  30.832  1.00  0.00    -0.070 CG0
ATOM      9  C   UNL     1       0.850 -12.203  31.313  1.00  0.00     0.039 C 
ATOM     10  G   UNL     1      -0.655 -13.005  29.340  1.00  0.00     0.000 G0
ENDBRANCH   6   7
ENDBRANCH   5   6
ENDBRANCH   3   5
ENDBRANCH   1   3
BRANCH   1  11
ATOM     11  C   UNL     1      -4.432 -12.447  29.012  1.00  0.00     0.087 C 
BRANCH  11  12
ATOM     12  C   UNL     1      -3.135 -13.025  28.390  1.00  0.00     0.066 C 
BRANCH  12  13
ATOM     13  C   UNL     1      -1.900 -12.285  28.886  1.00  0.00     0.140 C 
ATOM     14  O   UNL     1      -1.891 -11.062  28.879  1.00  0.00    -0.299 OA
BRANCH  13  15
ATOM     15  C   UNL     1      -0.644 -13.004  29.326  1.00  0.00     0.106 CG0
ATOM     16  G   UNL     1      -0.383 -12.929  30.820  1.00  0.00     0.000 G0
ENDBRANCH  13  15
ENDBRANCH  12  13
BRANCH  12  17
ATOM     17  C   UNL     1      -3.152 -13.086  26.831  1.00  0.00    -0.006 C 
ATOM     18  C   UNL     1      -4.152 -14.132  26.311  1.00  0.00     0.008 C 
ATOM     19  C   UNL     1      -3.409 -11.731  26.151  1.00  0.00     0.008 C 
ENDBRANCH  12  17
ENDBRANCH  11  12
ENDBRANCH   1  11
TORSDOF 1
ENDMDL
