MODEL 1
REMARK VINA RESULT:    -5.841      0.000      0.000
REMARK INTER + INTRA:          -6.569
REMARK INTER:                  -6.524
REMARK INTRA:                  -0.044
REMARK UNBOUND:                -0.044
REMARK SMILES O=C([O-])c1ccc(O)c(O)c1
REMARK SMILES IDX 4 1 11 2 5 3 9 4 6 5 7 6 2 7 1 8 3 9 10 10 8 12
REMARK H PARENT 10 11 8 13
REMARK Flexibility Score: inf
ROOT
ATOM      1  C   UNL     1     -31.950  -3.478 -18.075  1.00  0.00     0.001 A 
ATOM      2  C   UNL     1     -32.740  -2.952 -19.113  1.00  0.00     0.060 A 
ATOM      3  C   UNL     1     -30.550  -3.386 -18.171  1.00  0.00     0.014 A 
ATOM      4  C   UNL     1     -32.142  -2.344 -20.227  1.00  0.00     0.158 A 
ATOM      5  C   UNL     1     -29.954  -2.781 -19.280  1.00  0.00     0.051 A 
ATOM      6  C   UNL     1     -30.742  -2.259 -20.310  1.00  0.00     0.157 A 
ENDROOT
BRANCH   1   7
ATOM      7  C   UNL     1     -32.585  -4.118 -16.902  1.00  0.00     0.072 C 
ATOM      8  O   UNL     1     -31.883  -4.665 -16.012  1.00  0.00    -0.545 OA
ATOM      9  O   UNL     1     -33.969  -4.124 -16.767  1.00  0.00    -0.545 OA
ENDBRANCH   1   7
BRANCH   4  10
ATOM     10  O   UNL     1     -32.934  -1.826 -21.252  1.00  0.00    -0.504 OA
ATOM     11  H   UNL     1     -33.369  -0.914 -21.176  1.00  0.00     0.293 HD
ENDBRANCH   4  10
BRANCH   6  12
ATOM     12  O   UNL     1     -30.119  -1.661 -21.405  1.00  0.00    -0.504 OA
ATOM     13  H   UNL     1     -30.617  -1.462 -22.265  1.00  0.00     0.293 HD
ENDBRANCH   6  12
TORSDOF 3
ENDMDL
MODEL 2
REMARK VINA RESULT:    -5.345      7.978     10.554
REMARK INTER + INTRA:          -6.014
REMARK INTER:                  -5.978
REMARK INTRA:                  -0.036
REMARK UNBOUND:                -0.044
REMARK SMILES O=C([O-])c1ccc(O)c(O)c1
REMARK SMILES IDX 4 1 11 2 5 3 9 4 6 5 7 6 2 7 1 8 3 9 10 10 8 12
REMARK H PARENT 10 11 8 13
REMARK Flexibility Score: inf
ROOT
ATOM      1  C   UNL     1     -37.806  -7.075 -13.395  1.00  0.00     0.001 A 
ATOM      2  C   UNL     1     -38.273  -8.402 -13.405  1.00  0.00     0.060 A 
ATOM      3  C   UNL     1     -38.739  -6.024 -13.401  1.00  0.00     0.014 A 
ATOM      4  C   UNL     1     -39.649  -8.674 -13.420  1.00  0.00     0.158 A 
ATOM      5  C   UNL     1     -40.110  -6.294 -13.417  1.00  0.00     0.051 A 
ATOM      6  C   UNL     1     -40.571  -7.614 -13.427  1.00  0.00     0.157 A 
ENDROOT
BRANCH   1   7
ATOM      7  C   UNL     1     -36.354  -6.794 -13.378  1.00  0.00     0.072 C 
ATOM      8  O   UNL     1     -35.707  -6.825 -12.298  1.00  0.00    -0.545 OA
ATOM      9  O   UNL     1     -35.682  -6.489 -14.557  1.00  0.00    -0.545 OA
ENDBRANCH   1   7
BRANCH   4  10
ATOM     10  O   UNL     1     -40.102  -9.992 -13.431  1.00  0.00    -0.504 OA
ATOM     11  H   UNL     1     -39.505 -10.761 -13.150  1.00  0.00     0.293 HD
ENDBRANCH   4  10
BRANCH   6  12
ATOM     12  O   UNL     1     -41.945  -7.852 -13.442  1.00  0.00    -0.504 OA
ATOM     13  H   UNL     1     -42.393  -8.461 -12.766  1.00  0.00     0.293 HD
ENDBRANCH   6  12
TORSDOF 3
ENDMDL
MODEL 3
REMARK VINA RESULT:    -5.324      1.237      4.176
REMARK INTER + INTRA:          -5.990
REMARK INTER:                  -5.946
REMARK INTRA:                  -0.044
REMARK UNBOUND:                -0.044
REMARK SMILES O=C([O-])c1ccc(O)c(O)c1
REMARK SMILES IDX 4 1 11 2 5 3 9 4 6 5 7 6 2 7 1 8 3 9 10 10 8 12
REMARK H PARENT 10 11 8 13
REMARK Flexibility Score: inf
ROOT
ATOM      1  C   UNL     1     -30.908  -2.507 -19.810  1.00  0.00     0.001 A 
ATOM      2  C   UNL     1     -32.286  -2.510 -20.091  1.00  0.00     0.060 A 
ATOM      3  C   UNL     1     -30.473  -2.896 -18.532  1.00  0.00     0.014 A 
ATOM      4  C   UNL     1     -33.213  -2.895 -19.112  1.00  0.00     0.158 A 
ATOM      5  C   UNL     1     -31.396  -3.279 -17.555  1.00  0.00     0.051 A 
ATOM      6  C   UNL     1     -32.765  -3.281 -17.838  1.00  0.00     0.157 A 
ENDROOT
BRANCH   1   7
ATOM      7  C   UNL     1     -29.934  -2.101 -20.847  1.00  0.00     0.072 C 
ATOM      8  O   UNL     1     -30.328  -1.636 -21.949  1.00  0.00    -0.545 OA
ATOM      9  O   UNL     1     -28.568  -2.226 -20.618  1.00  0.00    -0.545 OA
ENDBRANCH   1   7
BRANCH   4  10
ATOM     10  O   UNL     1     -34.578  -2.894 -19.400  1.00  0.00    -0.504 OA
ATOM     11  H   UNL     1     -35.023  -2.106 -19.857  1.00  0.00     0.293 HD
ENDBRANCH   4  10
BRANCH   6  12
ATOM     12  O   UNL     1     -33.663  -3.669 -16.844  1.00  0.00    -0.504 OA
ATOM     13  H   UNL     1     -33.711  -3.197 -15.948  1.00  0.00     0.293 HD
ENDBRANCH   6  12
TORSDOF 3
ENDMDL
MODEL 4
REMARK VINA RESULT:    -5.263      6.187      9.040
REMARK INTER + INTRA:          -5.923
REMARK INTER:                  -5.887
REMARK INTRA:                  -0.036
REMARK UNBOUND:                -0.044
REMARK SMILES O=C([O-])c1ccc(O)c(O)c1
REMARK SMILES IDX 4 1 11 2 5 3 9 4 6 5 7 6 2 7 1 8 3 9 10 10 8 12
REMARK H PARENT 10 11 8 13
REMARK Flexibility Score: inf
ROOT
ATOM      1  C   UNL     1     -36.776  -6.788 -15.289  1.00  0.00     0.001 A 
ATOM      2  C   UNL     1     -37.970  -7.396 -15.718  1.00  0.00     0.060 A 
ATOM      3  C   UNL     1     -36.199  -7.202 -14.076  1.00  0.00     0.014 A 
ATOM      4  C   UNL     1     -38.576  -8.399 -14.948  1.00  0.00     0.158 A 
ATOM      5  C   UNL     1     -36.803  -8.201 -13.308  1.00  0.00     0.051 A 
ATOM      6  C   UNL     1     -37.989  -8.803 -13.738  1.00  0.00     0.157 A 
ENDROOT
BRANCH   1   7
ATOM      7  C   UNL     1     -36.140  -5.731 -16.105  1.00  0.00     0.072 C 
ATOM      8  O   UNL     1     -35.238  -6.017 -16.936  1.00  0.00    -0.545 OA
ATOM      9  O   UNL     1     -36.530  -4.403 -15.964  1.00  0.00    -0.545 OA
ENDBRANCH   1   7
BRANCH   4  10
ATOM     10  O   UNL     1     -39.761  -8.995 -15.382  1.00  0.00    -0.504 OA
ATOM     11  H   UNL     1     -39.839  -9.413 -16.302  1.00  0.00     0.293 HD
ENDBRANCH   4  10
BRANCH   6  12
ATOM     12  O   UNL     1     -38.569  -9.798 -12.950  1.00  0.00    -0.504 OA
ATOM     13  H   UNL     1     -38.036 -10.317 -12.262  1.00  0.00     0.293 HD
ENDBRANCH   6  12
TORSDOF 3
ENDMDL
MODEL 5
REMARK VINA RESULT:    -5.254      7.541     10.140
REMARK INTER + INTRA:          -5.913
REMARK INTER:                  -5.876
REMARK INTRA:                  -0.037
REMARK UNBOUND:                -0.044
REMARK SMILES O=C([O-])c1ccc(O)c(O)c1
REMARK SMILES IDX 4 1 11 2 5 3 9 4 6 5 7 6 2 7 1 8 3 9 10 10 8 12
REMARK H PARENT 10 11 8 13
REMARK Flexibility Score: inf
ROOT
ATOM      1  C   UNL     1     -37.319  -6.979 -13.435  1.00  0.00     0.001 A 
ATOM      2  C   UNL     1     -38.642  -6.500 -13.454  1.00  0.00     0.060 A 
ATOM      3  C   UNL     1     -37.099  -8.367 -13.394  1.00  0.00     0.014 A 
ATOM      4  C   UNL     1     -39.724  -7.391 -13.433  1.00  0.00     0.158 A 
ATOM      5  C   UNL     1     -38.177  -9.255 -13.373  1.00  0.00     0.051 A 
ATOM      6  C   UNL     1     -39.489  -8.775 -13.392  1.00  0.00     0.157 A 
ENDROOT
BRANCH   1   7
ATOM      7  C   UNL     1     -36.181  -6.035 -13.457  1.00  0.00     0.072 C 
ATOM      8  O   UNL     1     -35.987  -5.241 -12.498  1.00  0.00    -0.545 OA
ATOM      9  O   UNL     1     -35.308  -6.009 -14.540  1.00  0.00    -0.545 OA
ENDBRANCH   1   7
BRANCH   4  10
ATOM     10  O   UNL     1     -41.032  -6.906 -13.452  1.00  0.00    -0.504 OA
ATOM     11  H   UNL     1     -41.801  -7.467 -13.799  1.00  0.00     0.293 HD
ENDBRANCH   4  10
BRANCH   6  12
ATOM     12  O   UNL     1     -40.545  -9.686 -13.371  1.00  0.00    -0.504 OA
ATOM     13  H   UNL     1     -40.873 -10.109 -12.510  1.00  0.00     0.293 HD
ENDBRANCH   6  12
TORSDOF 3
ENDMDL
MODEL 6
REMARK VINA RESULT:    -5.126      7.885     10.305
REMARK INTER + INTRA:          -5.769
REMARK INTER:                  -5.726
REMARK INTRA:                  -0.043
REMARK UNBOUND:                -0.044
REMARK SMILES O=C([O-])c1ccc(O)c(O)c1
REMARK SMILES IDX 4 1 11 2 5 3 9 4 6 5 7 6 2 7 1 8 3 9 10 10 8 12
REMARK H PARENT 10 11 8 13
REMARK Flexibility Score: inf
ROOT
ATOM      1  C   UNL     1     -37.730  -6.687 -13.376  1.00  0.00     0.001 A 
ATOM      2  C   UNL     1     -39.112  -6.425 -13.349  1.00  0.00     0.060 A 
ATOM      3  C   UNL     1     -37.291  -8.022 -13.406  1.00  0.00     0.014 A 
ATOM      4  C   UNL     1     -40.038  -7.478 -13.352  1.00  0.00     0.158 A 
ATOM      5  C   UNL     1     -38.213  -9.071 -13.408  1.00  0.00     0.051 A 
ATOM      6  C   UNL     1     -39.585  -8.807 -13.381  1.00  0.00     0.157 A 
ENDROOT
BRANCH   1   7
ATOM      7  C   UNL     1     -36.758  -5.573 -13.373  1.00  0.00     0.072 C 
ATOM      8  O   UNL     1     -35.577  -5.751 -13.773  1.00  0.00    -0.545 OA
ATOM      9  O   UNL     1     -37.134  -4.310 -12.928  1.00  0.00    -0.545 OA
ENDBRANCH   1   7
BRANCH   4  10
ATOM     10  O   UNL     1     -41.406  -7.208 -13.324  1.00  0.00    -0.504 OA
ATOM     11  H   UNL     1     -41.891  -7.011 -12.455  1.00  0.00     0.293 HD
ENDBRANCH   4  10
BRANCH   6  12
ATOM     12  O   UNL     1     -40.482  -9.876 -13.385  1.00  0.00    -0.504 OA
ATOM     13  H   UNL     1     -40.453 -10.600 -14.093  1.00  0.00     0.293 HD
ENDBRANCH   6  12
TORSDOF 3
ENDMDL
MODEL 7
REMARK VINA RESULT:    -5.078      1.184      4.637
REMARK INTER + INTRA:          -5.716
REMARK INTER:                  -5.673
REMARK INTRA:                  -0.044
REMARK UNBOUND:                -0.044
REMARK SMILES O=C([O-])c1ccc(O)c(O)c1
REMARK SMILES IDX 4 1 11 2 5 3 9 4 6 5 7 6 2 7 1 8 3 9 10 10 8 12
REMARK H PARENT 10 11 8 13
REMARK Flexibility Score: inf
ROOT
ATOM      1  C   UNL     1     -31.013  -2.505 -19.882  1.00  0.00     0.001 A 
ATOM      2  C   UNL     1     -30.635  -2.688 -18.540  1.00  0.00     0.060 A 
ATOM      3  C   UNL     1     -32.356  -2.709 -20.245  1.00  0.00     0.014 A 
ATOM      4  C   UNL     1     -31.581  -3.068 -17.577  1.00  0.00     0.158 A 
ATOM      5  C   UNL     1     -33.299  -3.087 -19.285  1.00  0.00     0.051 A 
ATOM      6  C   UNL     1     -32.919  -3.268 -17.953  1.00  0.00     0.157 A 
ENDROOT
BRANCH   1   7
ATOM      7  C   UNL     1     -30.011  -2.105 -20.894  1.00  0.00     0.072 C 
ATOM      8  O   UNL     1     -30.374  -1.638 -22.006  1.00  0.00    -0.545 OA
ATOM      9  O   UNL     1     -28.652  -2.239 -20.631  1.00  0.00    -0.545 OA
ENDBRANCH   1   7
BRANCH   4  10
ATOM     10  O   UNL     1     -31.195  -3.247 -16.248  1.00  0.00    -0.504 OA
ATOM     11  H   UNL     1     -31.120  -4.171 -15.838  1.00  0.00     0.293 HD
ENDBRANCH   4  10
BRANCH   6  12
ATOM     12  O   UNL     1     -33.883  -3.645 -17.018  1.00  0.00    -0.504 OA
ATOM     13  H   UNL     1     -34.061  -4.617 -16.791  1.00  0.00     0.293 HD
ENDBRANCH   6  12
TORSDOF 3
ENDMDL
MODEL 8
REMARK VINA RESULT:    -4.845      7.509     10.255
REMARK INTER + INTRA:          -5.456
REMARK INTER:                  -5.412
REMARK INTRA:                  -0.044
REMARK UNBOUND:                -0.044
REMARK SMILES O=C([O-])c1ccc(O)c(O)c1
REMARK SMILES IDX 4 1 11 2 5 3 9 4 6 5 7 6 2 7 1 8 3 9 10 10 8 12
REMARK H PARENT 10 11 8 13
REMARK Flexibility Score: inf
ROOT
ATOM      1  C   UNL     1     -37.734  -7.412 -14.426  1.00  0.00     0.001 A 
ATOM      2  C   UNL     1     -38.722  -8.382 -14.175  1.00  0.00     0.060 A 
ATOM      3  C   UNL     1     -37.843  -6.155 -13.807  1.00  0.00     0.014 A 
ATOM      4  C   UNL     1     -39.798  -8.101 -13.322  1.00  0.00     0.158 A 
ATOM      5  C   UNL     1     -38.916  -5.874 -12.957  1.00  0.00     0.051 A 
ATOM      6  C   UNL     1     -39.895  -6.840 -12.711  1.00  0.00     0.157 A 
ENDROOT
BRANCH   1   7
ATOM      7  C   UNL     1     -36.600  -7.714 -15.326  1.00  0.00     0.072 C 
ATOM      8  O   UNL     1     -36.350  -8.900 -15.668  1.00  0.00    -0.545 OA
ATOM      9  O   UNL     1     -35.792  -6.690 -15.809  1.00  0.00    -0.545 OA
ENDBRANCH   1   7
BRANCH   4  10
ATOM     10  O   UNL     1     -40.773  -9.070 -13.082  1.00  0.00    -0.504 OA
ATOM     11  H   UNL     1     -40.622 -10.044 -13.315  1.00  0.00     0.293 HD
ENDBRANCH   4  10
BRANCH   6  12
ATOM     12  O   UNL     1     -40.954  -6.531 -11.857  1.00  0.00    -0.504 OA
ATOM     13  H   UNL     1     -41.066  -5.609 -11.451  1.00  0.00     0.293 HD
ENDBRANCH   6  12
TORSDOF 3
ENDMDL
MODEL 9
REMARK VINA RESULT:    -4.820      9.010     10.616
REMARK INTER + INTRA:          -5.428
REMARK INTER:                  -5.391
REMARK INTRA:                  -0.037
REMARK UNBOUND:                -0.044
REMARK SMILES O=C([O-])c1ccc(O)c(O)c1
REMARK SMILES IDX 4 1 11 2 5 3 9 4 6 5 7 6 2 7 1 8 3 9 10 10 8 12
REMARK H PARENT 10 11 8 13
REMARK Flexibility Score: inf
ROOT
ATOM      1  C   UNL     1     -38.896  -5.754 -12.995  1.00  0.00     0.001 A 
ATOM      2  C   UNL     1     -37.985  -6.727 -13.445  1.00  0.00     0.060 A 
ATOM      3  C   UNL     1     -40.217  -6.139 -12.711  1.00  0.00     0.014 A 
ATOM      4  C   UNL     1     -38.387  -8.060 -13.606  1.00  0.00     0.158 A 
ATOM      5  C   UNL     1     -40.619  -7.467 -12.872  1.00  0.00     0.051 A 
ATOM      6  C   UNL     1     -39.711  -8.431 -13.319  1.00  0.00     0.157 A 
ENDROOT
BRANCH   1   7
ATOM      7  C   UNL     1     -38.466  -4.348 -12.826  1.00  0.00     0.072 C 
ATOM      8  O   UNL     1     -38.113  -3.662 -13.821  1.00  0.00    -0.545 OA
ATOM      9  O   UNL     1     -38.447  -3.765 -11.564  1.00  0.00    -0.545 OA
ENDBRANCH   1   7
BRANCH   4  10
ATOM     10  O   UNL     1     -37.476  -9.017 -14.053  1.00  0.00    -0.504 OA
ATOM     11  H   UNL     1     -36.766  -9.401 -13.440  1.00  0.00     0.293 HD
ENDBRANCH   4  10
BRANCH   6  12
ATOM     12  O   UNL     1     -40.140  -9.750 -13.470  1.00  0.00    -0.504 OA
ATOM     13  H   UNL     1     -39.497 -10.532 -13.437  1.00  0.00     0.293 HD
ENDBRANCH   6  12
TORSDOF 3
ENDMDL
