MODEL 1
REMARK VINA RESULT:    -4.785      0.000      0.000
REMARK INTER + INTRA:          -6.603
REMARK INTER:                  -5.903
REMARK INTRA:                  -0.700
REMARK UNBOUND:                -0.700
REMARK SMILES CC(C)=CCC[C@@H](C)c1ccc(C)cc1
REMARK SMILES IDX 6 1 7 2 8 3 9 4 13 5 12 6 11 7 14 8 10 9 15 10 5 11 4 12
REMARK SMILES IDX 2 13 1 14 3 15
REMARK H PARENT
REMARK Flexibility Score: inf
ROOT
ATOM      1  C   UNL     1      36.894  49.745  54.928  1.00  0.00     0.012 C 
ENDROOT
BRANCH   1   2
ATOM      2  C   UNL     1      36.391  48.437  55.585  1.00  0.00     0.016 C 
ATOM      3  C   UNL     1      37.545  47.701  56.278  1.00  0.00     0.013 C 
BRANCH   2   4
ATOM      4  C   UNL     1      35.256  48.687  56.563  1.00  0.00    -0.045 A 
ATOM      5  C   UNL     1      31.998  49.396  59.308  1.00  0.00     0.044 C 
ATOM      6  C   UNL     1      33.126  49.178  58.344  1.00  0.00    -0.051 A 
ATOM      7  C   UNL     1      32.879  48.621  57.081  1.00  0.00     0.004 A 
ATOM      8  C   UNL     1      34.444  49.465  58.723  1.00  0.00     0.004 A 
ATOM      9  C   UNL     1      33.934  48.384  56.195  1.00  0.00     0.004 A 
ATOM     10  C   UNL     1      35.500  49.230  57.838  1.00  0.00     0.004 A 
ENDBRANCH   2   4
ENDBRANCH   1   2
BRANCH   1  11
ATOM     11  C   UNL     1      35.870  50.893  54.974  1.00  0.00     0.028 C 
BRANCH  11  12
ATOM     12  C   UNL     1      36.529  52.250  54.907  1.00  0.00    -0.028 C 
ATOM     13  C   UNL     1      36.748  53.052  55.972  1.00  0.00    -0.080 C 
ATOM     14  C   UNL     1      36.288  52.681  57.363  1.00  0.00     0.039 C 
ATOM     15  C   UNL     1      37.454  54.365  55.749  1.00  0.00     0.039 C 
ENDBRANCH  11  12
ENDBRANCH   1  11
TORSDOF 4
ENDMDL
MODEL 2
REMARK VINA RESULT:    -4.548      2.508      4.045
REMARK INTER + INTRA:          -6.312
REMARK INTER:                  -5.808
REMARK INTRA:                  -0.504
REMARK UNBOUND:                -0.700
REMARK SMILES CC(C)=CCC[C@@H](C)c1ccc(C)cc1
REMARK SMILES IDX 6 1 7 2 8 3 9 4 13 5 12 6 11 7 14 8 10 9 15 10 5 11 4 12
REMARK SMILES IDX 2 13 1 14 3 15
REMARK H PARENT
REMARK Flexibility Score: inf
ROOT
ATOM      1  C   UNL     1      37.644  48.476  56.085  1.00  0.00     0.012 C 
ENDROOT
BRANCH   1   2
ATOM      2  C   UNL     1      36.233  48.295  55.474  1.00  0.00     0.016 C 
ATOM      3  C   UNL     1      36.068  46.881  54.904  1.00  0.00     0.013 C 
BRANCH   2   4
ATOM      4  C   UNL     1      35.132  48.598  56.476  1.00  0.00    -0.045 A 
ATOM      5  C   UNL     1      31.970  49.455  59.290  1.00  0.00     0.044 C 
ATOM      6  C   UNL     1      33.064  49.185  58.301  1.00  0.00    -0.051 A 
ATOM      7  C   UNL     1      32.772  48.577  57.072  1.00  0.00     0.004 A 
ATOM      8  C   UNL     1      34.397  49.476  58.625  1.00  0.00     0.004 A 
ATOM      9  C   UNL     1      33.796  48.292  56.164  1.00  0.00     0.004 A 
ATOM     10  C   UNL     1      35.422  49.192  57.719  1.00  0.00     0.004 A 
ENDBRANCH   2   4
ENDBRANCH   1   2
BRANCH   1  11
ATOM     11  C   UNL     1      38.783  48.344  55.059  1.00  0.00     0.028 C 
BRANCH  11  12
ATOM     12  C   UNL     1      39.658  47.142  55.326  1.00  0.00    -0.028 C 
ATOM     13  C   UNL     1      40.861  47.189  55.939  1.00  0.00    -0.080 C 
ATOM     14  C   UNL     1      41.490  48.493  56.374  1.00  0.00     0.039 C 
ATOM     15  C   UNL     1      41.599  45.895  56.169  1.00  0.00     0.039 C 
ENDBRANCH  11  12
ENDBRANCH   1  11
TORSDOF 4
ENDMDL
MODEL 3
REMARK VINA RESULT:    -4.435      6.867     10.148
REMARK INTER + INTRA:          -6.171
REMARK INTER:                  -5.677
REMARK INTRA:                  -0.494
REMARK UNBOUND:                -0.700
REMARK SMILES CC(C)=CCC[C@@H](C)c1ccc(C)cc1
REMARK SMILES IDX 6 1 7 2 8 3 9 4 13 5 12 6 11 7 14 8 10 9 15 10 5 11 4 12
REMARK SMILES IDX 2 13 1 14 3 15
REMARK H PARENT
REMARK Flexibility Score: inf
ROOT
ATOM      1  C   UNL     1      43.370  49.768  55.402  1.00  0.00     0.012 C 
ENDROOT
BRANCH   1   2
ATOM      2  C   UNL     1      43.509  51.242  54.953  1.00  0.00     0.016 C 
ATOM      3  C   UNL     1      42.134  51.917  54.876  1.00  0.00     0.013 C 
BRANCH   2   4
ATOM      4  C   UNL     1      44.440  52.032  55.858  1.00  0.00    -0.045 A 
ATOM      5  C   UNL     1      47.095  54.304  58.396  1.00  0.00     0.044 C 
ATOM      6  C   UNL     1      46.197  53.503  57.500  1.00  0.00    -0.051 A 
ATOM      7  C   UNL     1      45.727  54.050  56.298  1.00  0.00     0.004 A 
ATOM      8  C   UNL     1      45.765  52.228  57.891  1.00  0.00     0.004 A 
ATOM      9  C   UNL     1      44.861  53.318  55.480  1.00  0.00     0.004 A 
ATOM     10  C   UNL     1      44.901  51.494  57.074  1.00  0.00     0.004 A 
ENDBRANCH   2   4
ENDBRANCH   1   2
BRANCH   1  11
ATOM     11  C   UNL     1      41.978  49.168  55.132  1.00  0.00     0.028 C 
BRANCH  11  12
ATOM     12  C   UNL     1      42.000  47.659  55.111  1.00  0.00    -0.028 C 
ATOM     13  C   UNL     1      41.360  46.869  56.001  1.00  0.00    -0.080 C 
ATOM     14  C   UNL     1      40.589  47.438  57.170  1.00  0.00     0.039 C 
ATOM     15  C   UNL     1      41.445  45.375  55.825  1.00  0.00     0.039 C 
ENDBRANCH  11  12
ENDBRANCH   1  11
TORSDOF 4
ENDMDL
MODEL 4
REMARK VINA RESULT:    -3.951      6.690      9.914
REMARK INTER + INTRA:          -5.574
REMARK INTER:                  -5.000
REMARK INTRA:                  -0.574
REMARK UNBOUND:                -0.700
REMARK SMILES CC(C)=CCC[C@@H](C)c1ccc(C)cc1
REMARK SMILES IDX 6 1 7 2 8 3 9 4 13 5 12 6 11 7 14 8 10 9 15 10 5 11 4 12
REMARK SMILES IDX 2 13 1 14 3 15
REMARK H PARENT
REMARK Flexibility Score: inf
ROOT
ATOM      1  C   UNL     1      42.663  50.079  56.228  1.00  0.00     0.012 C 
ENDROOT
BRANCH   1   2
ATOM      2  C   UNL     1      44.208  50.100  56.135  1.00  0.00     0.016 C 
ATOM      3  C   UNL     1      44.685  49.354  54.882  1.00  0.00     0.013 C 
BRANCH   2   4
ATOM      4  C   UNL     1      44.764  51.513  56.158  1.00  0.00    -0.045 A 
ATOM      5  C   UNL     1      46.341  55.534  56.178  1.00  0.00     0.044 C 
ATOM      6  C   UNL     1      45.820  54.127  56.160  1.00  0.00    -0.051 A 
ATOM      7  C   UNL     1      45.120  53.647  55.044  1.00  0.00     0.004 A 
ATOM      8  C   UNL     1      45.968  53.305  57.285  1.00  0.00     0.004 A 
ATOM      9  C   UNL     1      44.603  52.349  55.040  1.00  0.00     0.004 A 
ATOM     10  C   UNL     1      45.452  52.006  57.283  1.00  0.00     0.004 A 
ENDBRANCH   2   4
ENDBRANCH   1   2
BRANCH   1  11
ATOM     11  C   UNL     1      41.980  49.406  55.024  1.00  0.00     0.028 C 
BRANCH  11  12
ATOM     12  C   UNL     1      40.547  49.032  55.315  1.00  0.00    -0.028 C 
ATOM     13  C   UNL     1      40.158  47.882  55.908  1.00  0.00    -0.080 C 
ATOM     14  C   UNL     1      41.145  46.805  56.295  1.00  0.00     0.039 C 
ATOM     15  C   UNL     1      38.688  47.670  56.167  1.00  0.00     0.039 C 
ENDBRANCH  11  12
ENDBRANCH   1  11
TORSDOF 4
ENDMDL
MODEL 5
REMARK VINA RESULT:    -3.626      6.474      8.489
REMARK INTER + INTRA:          -5.174
REMARK INTER:                  -4.468
REMARK INTRA:                  -0.706
REMARK UNBOUND:                -0.700
REMARK SMILES CC(C)=CCC[C@@H](C)c1ccc(C)cc1
REMARK SMILES IDX 6 1 7 2 8 3 9 4 13 5 12 6 11 7 14 8 10 9 15 10 5 11 4 12
REMARK SMILES IDX 2 13 1 14 3 15
REMARK H PARENT
REMARK Flexibility Score: inf
ROOT
ATOM      1  C   UNL     1      43.634  50.629  57.385  1.00  0.00     0.012 C 
ENDROOT
BRANCH   1   2
ATOM      2  C   UNL     1      42.474  50.500  56.368  1.00  0.00     0.016 C 
ATOM      3  C   UNL     1      42.833  51.195  55.048  1.00  0.00     0.013 C 
BRANCH   2   4
ATOM      4  C   UNL     1      42.088  49.051  56.120  1.00  0.00    -0.045 A 
ATOM      5  C   UNL     1      41.013  44.936  55.375  1.00  0.00     0.044 C 
ATOM      6  C   UNL     1      41.366  46.374  55.613  1.00  0.00    -0.051 A 
ATOM      7  C   UNL     1      42.398  46.979  54.883  1.00  0.00     0.004 A 
ATOM      8  C   UNL     1      40.713  47.104  56.615  1.00  0.00     0.004 A 
ATOM      9  C   UNL     1      42.752  48.308  55.129  1.00  0.00     0.004 A 
ATOM     10  C   UNL     1      41.065  48.434  56.862  1.00  0.00     0.004 A 
ENDBRANCH   2   4
ENDBRANCH   1   2
BRANCH   1  11
ATOM     11  C   UNL     1      44.983  50.995  56.741  1.00  0.00     0.028 C 
BRANCH  11  12
ATOM     12  C   UNL     1      45.676  52.123  57.467  1.00  0.00    -0.028 C 
ATOM     13  C   UNL     1      45.914  53.344  56.940  1.00  0.00    -0.080 C 
ATOM     14  C   UNL     1      45.551  53.687  55.514  1.00  0.00     0.039 C 
ATOM     15  C   UNL     1      46.583  54.381  57.806  1.00  0.00     0.039 C 
ENDBRANCH  11  12
ENDBRANCH   1  11
TORSDOF 4
ENDMDL
MODEL 6
REMARK VINA RESULT:    -3.539      1.651      2.700
REMARK INTER + INTRA:          -5.066
REMARK INTER:                  -4.522
REMARK INTRA:                  -0.544
REMARK UNBOUND:                -0.700
REMARK SMILES CC(C)=CCC[C@@H](C)c1ccc(C)cc1
REMARK SMILES IDX 6 1 7 2 8 3 9 4 13 5 12 6 11 7 14 8 10 9 15 10 5 11 4 12
REMARK SMILES IDX 2 13 1 14 3 15
REMARK H PARENT
REMARK Flexibility Score: inf
ROOT
ATOM      1  C   UNL     1      36.232  53.176  55.273  1.00  0.00     0.012 C 
ENDROOT
BRANCH   1   2
ATOM      2  C   UNL     1      36.185  51.670  54.914  1.00  0.00     0.016 C 
ATOM      3  C   UNL     1      37.600  51.079  54.875  1.00  0.00     0.013 C 
BRANCH   2   4
ATOM      4  C   UNL     1      35.304  50.881  55.868  1.00  0.00    -0.045 A 
ATOM      5  C   UNL     1      32.767  48.636  58.546  1.00  0.00     0.044 C 
ATOM      6  C   UNL     1      33.630  49.440  57.619  1.00  0.00    -0.051 A 
ATOM      7  C   UNL     1      33.395  49.419  56.237  1.00  0.00     0.004 A 
ATOM      8  C   UNL     1      34.721  50.164  58.120  1.00  0.00     0.004 A 
ATOM      9  C   UNL     1      34.220  50.139  55.370  1.00  0.00     0.004 A 
ATOM     10  C   UNL     1      35.547  50.885  57.254  1.00  0.00     0.004 A 
ENDBRANCH   2   4
ENDBRANCH   1   2
BRANCH   1  11
ATOM     11  C   UNL     1      37.571  53.622  55.888  1.00  0.00     0.028 C 
BRANCH  11  12
ATOM     12  C   UNL     1      38.048  54.940  55.325  1.00  0.00    -0.028 C 
ATOM     13  C   UNL     1      37.788  56.148  55.871  1.00  0.00    -0.080 C 
ATOM     14  C   UNL     1      36.923  56.303  57.100  1.00  0.00     0.039 C 
ATOM     15  C   UNL     1      38.368  57.372  55.213  1.00  0.00     0.039 C 
ENDBRANCH  11  12
ENDBRANCH   1  11
TORSDOF 4
ENDMDL
MODEL 7
REMARK VINA RESULT:    -3.448      3.873      6.888
REMARK INTER + INTRA:          -4.954
REMARK INTER:                  -4.369
REMARK INTRA:                  -0.585
REMARK UNBOUND:                -0.700
REMARK SMILES CC(C)=CCC[C@@H](C)c1ccc(C)cc1
REMARK SMILES IDX 6 1 7 2 8 3 9 4 13 5 12 6 11 7 14 8 10 9 15 10 5 11 4 12
REMARK SMILES IDX 2 13 1 14 3 15
REMARK H PARENT
REMARK Flexibility Score: inf
ROOT
ATOM      1  C   UNL     1      38.916  47.660  56.776  1.00  0.00     0.012 C 
ENDROOT
BRANCH   1   2
ATOM      2  C   UNL     1      39.993  47.493  55.677  1.00  0.00     0.016 C 
ATOM      3  C   UNL     1      41.055  48.594  55.787  1.00  0.00     0.013 C 
BRANCH   2   4
ATOM      4  C   UNL     1      40.643  46.120  55.716  1.00  0.00    -0.045 A 
ATOM      5  C   UNL     1      42.453  42.200  55.804  1.00  0.00     0.044 C 
ATOM      6  C   UNL     1      41.805  43.552  55.795  1.00  0.00    -0.051 A 
ATOM      7  C   UNL     1      40.753  43.826  54.910  1.00  0.00     0.004 A 
ATOM      8  C   UNL     1      42.290  44.574  56.623  1.00  0.00     0.004 A 
ATOM      9  C   UNL     1      40.172  45.097  54.875  1.00  0.00     0.004 A 
ATOM     10  C   UNL     1      41.710  45.845  56.590  1.00  0.00     0.004 A 
ENDBRANCH   2   4
ENDBRANCH   1   2
BRANCH   1  11
ATOM     11  C   UNL     1      37.473  47.588  56.244  1.00  0.00     0.028 C 
BRANCH  11  12
ATOM     12  C   UNL     1      36.916  48.952  55.914  1.00  0.00    -0.028 C 
ATOM     13  C   UNL     1      36.155  49.693  56.749  1.00  0.00    -0.080 C 
ATOM     14  C   UNL     1      35.728  49.186  58.108  1.00  0.00     0.039 C 
ATOM     15  C   UNL     1      35.705  51.056  56.290  1.00  0.00     0.039 C 
ENDBRANCH  11  12
ENDBRANCH   1  11
TORSDOF 4
ENDMDL
MODEL 8
REMARK VINA RESULT:    -3.360      4.638      7.837
REMARK INTER + INTRA:          -4.845
REMARK INTER:                  -4.318
REMARK INTRA:                  -0.527
REMARK UNBOUND:                -0.700
REMARK SMILES CC(C)=CCC[C@@H](C)c1ccc(C)cc1
REMARK SMILES IDX 6 1 7 2 8 3 9 4 13 5 12 6 11 7 14 8 10 9 15 10 5 11 4 12
REMARK SMILES IDX 2 13 1 14 3 15
REMARK H PARENT
REMARK Flexibility Score: inf
ROOT
ATOM      1  C   UNL     1      39.741  46.716  54.875  1.00  0.00     0.012 C 
ENDROOT
BRANCH   1   2
ATOM      2  C   UNL     1      41.077  46.464  55.615  1.00  0.00     0.016 C 
ATOM      3  C   UNL     1      41.107  47.218  56.951  1.00  0.00     0.013 C 
BRANCH   2   4
ATOM      4  C   UNL     1      41.341  44.984  55.833  1.00  0.00    -0.045 A 
ATOM      5  C   UNL     1      42.123  40.787  56.483  1.00  0.00     0.044 C 
ATOM      6  C   UNL     1      41.877  42.247  56.242  1.00  0.00    -0.051 A 
ATOM      7  C   UNL     1      42.295  43.198  57.183  1.00  0.00     0.004 A 
ATOM      8  C   UNL     1      41.168  42.666  55.108  1.00  0.00     0.004 A 
ATOM      9  C   UNL     1      42.036  44.556  56.977  1.00  0.00     0.004 A 
ATOM     10  C   UNL     1      40.908  44.023  54.900  1.00  0.00     0.004 A 
ENDBRANCH   2   4
ENDBRANCH   1   2
BRANCH   1  11
ATOM     11  C   UNL     1      38.828  47.737  55.579  1.00  0.00     0.028 C 
BRANCH  11  12
ATOM     12  C   UNL     1      37.366  47.487  55.296  1.00  0.00    -0.028 C 
ATOM     13  C   UNL     1      36.344  48.074  55.957  1.00  0.00    -0.080 C 
ATOM     14  C   UNL     1      36.575  49.019  57.113  1.00  0.00     0.039 C 
ATOM     15  C   UNL     1      34.935  47.752  55.531  1.00  0.00     0.039 C 
ENDBRANCH  11  12
ENDBRANCH   1  11
TORSDOF 4
ENDMDL
MODEL 9
REMARK VINA RESULT:    -2.208      7.073     10.156
REMARK INTER + INTRA:          -3.424
REMARK INTER:                  -3.223
REMARK INTRA:                  -0.200
REMARK UNBOUND:                -0.700
REMARK SMILES CC(C)=CCC[C@@H](C)c1ccc(C)cc1
REMARK SMILES IDX 6 1 7 2 8 3 9 4 13 5 12 6 11 7 14 8 10 9 15 10 5 11 4 12
REMARK SMILES IDX 2 13 1 14 3 15
REMARK H PARENT
REMARK Flexibility Score: inf
ROOT
ATOM      1  C   UNL     1      42.123  44.644  56.167  1.00  0.00     0.012 C 
ENDROOT
BRANCH   1   2
ATOM      2  C   UNL     1      41.316  43.323  56.179  1.00  0.00     0.016 C 
ATOM      3  C   UNL     1      40.525  43.160  54.875  1.00  0.00     0.013 C 
BRANCH   2   4
ATOM      4  C   UNL     1      42.203  42.113  56.420  1.00  0.00    -0.045 A 
ATOM      5  C   UNL     1      44.716  38.678  57.149  1.00  0.00     0.044 C 
ATOM      6  C   UNL     1      43.866  39.889  56.905  1.00  0.00    -0.051 A 
ATOM      7  C   UNL     1      43.004  40.361  57.906  1.00  0.00     0.004 A 
ATOM      8  C   UNL     1      43.874  40.517  55.653  1.00  0.00     0.004 A 
ATOM      9  C   UNL     1      42.185  41.467  57.668  1.00  0.00     0.004 A 
ATOM     10  C   UNL     1      43.056  41.624  55.413  1.00  0.00     0.004 A 
ENDBRANCH   2   4
ENDBRANCH   1   2
BRANCH   1  11
ATOM     11  C   UNL     1      41.716  45.605  55.035  1.00  0.00     0.028 C 
BRANCH  11  12
ATOM     12  C   UNL     1      40.379  46.257  55.291  1.00  0.00    -0.028 C 
ATOM     13  C   UNL     1      40.212  47.466  55.870  1.00  0.00    -0.080 C 
ATOM     14  C   UNL     1      41.379  48.278  56.384  1.00  0.00     0.039 C 
ATOM     15  C   UNL     1      38.811  48.002  56.022  1.00  0.00     0.039 C 
ENDBRANCH  11  12
ENDBRANCH   1  11
TORSDOF 4
ENDMDL
