MODEL 1
REMARK VINA RESULT:    -6.060      0.000      0.000
REMARK INTER + INTRA:          -7.752
REMARK INTER:                  -7.477
REMARK INTRA:                  -0.275
REMARK UNBOUND:                -0.275
REMARK SMILES O=c1c(O)c(-c2cc(O)c(O)c(O)c2)oc2cc(O)cc(O)c12
REMARK SMILES IDX 5 1 3 2 2 3 1 4 23 5 21 6 20 7 18 8 17 9 16 10 15 11 6 12
REMARK SMILES IDX 7 13 8 14 14 15 10 16 12 17 9 18 11 20 13 22 4 24 22 26
REMARK SMILES IDX 19 28
REMARK H PARENT 9 19 11 21 13 23 4 25 22 27 19 29
REMARK Flexibility Score: inf
ROOT
ATOM      1  C   UNL     1      25.274   9.444  15.179  1.00  0.00     0.180 A 
ATOM      2  C   UNL     1      24.735  10.022  16.341  1.00  0.00     0.208 A 
ATOM      3  C   UNL     1      23.424  10.525  16.306  1.00  0.00     0.238 A 
ATOM      4  O   UNL     1      22.966  11.090  17.333  1.00  0.00    -0.285 OA
ATOM      5  C   UNL     1      22.664  10.428  15.115  1.00  0.00     0.111 A 
ATOM      6  C   UNL     1      21.312  10.867  14.978  1.00  0.00     0.134 A 
ATOM      7  C   UNL     1      20.703  10.841  13.718  1.00  0.00     0.093 A 
ATOM      8  C   UNL     1      21.373  10.331  12.603  1.00  0.00     0.123 A 
ATOM      9  C   UNL     1      22.671   9.845  12.739  1.00  0.00     0.094 A 
ATOM     10  C   UNL     1      23.319   9.891  13.976  1.00  0.00     0.146 A 
ATOM     11  O   UNL     1      24.560   9.426  14.059  1.00  0.00    -0.452 OA
ENDROOT
BRANCH   1  12
ATOM     12  C   UNL     1      26.639   8.870  15.146  1.00  0.00     0.029 A 
ATOM     13  C   UNL     1      26.803   7.476  15.163  1.00  0.00     0.062 A 
ATOM     14  C   UNL     1      28.080   6.907  15.153  1.00  0.00     0.162 A 
ATOM     15  C   UNL     1      27.778   9.692  15.155  1.00  0.00     0.062 A 
ATOM     16  C   UNL     1      29.216   7.733  15.140  1.00  0.00     0.200 A 
ATOM     17  C   UNL     1      29.063   9.130  15.146  1.00  0.00     0.162 A 
BRANCH  14  18
ATOM     18  O   UNL     1      28.199   5.517  15.156  1.00  0.00    -0.504 OA
ATOM     19  H   UNL     1      28.475   5.001  15.983  1.00  0.00     0.293 HD
ENDBRANCH  14  18
BRANCH  16  20
ATOM     20  O   UNL     1      30.487   7.157  15.128  1.00  0.00    -0.502 OA
ATOM     21  H   UNL     1      31.333   7.714  15.099  1.00  0.00     0.293 HD
ENDBRANCH  16  20
BRANCH  17  22
ATOM     22  O   UNL     1      30.186   9.955  15.149  1.00  0.00    -0.504 OA
ATOM     23  H   UNL     1      30.867   9.928  14.398  1.00  0.00     0.293 HD
ENDBRANCH  17  22
ENDBRANCH   1  12
BRANCH   2  24
ATOM     24  O   UNL     1      25.509  10.127  17.499  1.00  0.00    -0.502 OA
ATOM     25  H   UNL     1      25.540  10.970  18.058  1.00  0.00     0.293 HD
ENDBRANCH   2  24
BRANCH   6  26
ATOM     26  O   UNL     1      20.524  11.308  16.044  1.00  0.00    -0.507 OA
ATOM     27  H   UNL     1      20.870  11.514  16.969  1.00  0.00     0.293 HD
ENDBRANCH   6  26
BRANCH   8  28
ATOM     28  O   UNL     1      20.753  10.295  11.357  1.00  0.00    -0.508 OA
ATOM     29  H   UNL     1      19.748  10.194  11.266  1.00  0.00     0.293 HD
ENDBRANCH   8  28
TORSDOF 7
ENDMDL
MODEL 2
REMARK VINA RESULT:    -5.999      0.083      1.757
REMARK INTER + INTRA:          -7.677
REMARK INTER:                  -7.409
REMARK INTRA:                  -0.268
REMARK UNBOUND:                -0.275
REMARK SMILES O=c1c(O)c(-c2cc(O)c(O)c(O)c2)oc2cc(O)cc(O)c12
REMARK SMILES IDX 5 1 3 2 2 3 1 4 23 5 21 6 20 7 18 8 17 9 16 10 15 11 6 12
REMARK SMILES IDX 7 13 8 14 14 15 10 16 12 17 9 18 11 20 13 22 4 24 22 26
REMARK SMILES IDX 19 28
REMARK H PARENT 9 19 11 21 13 23 4 25 22 27 19 29
REMARK Flexibility Score: inf
ROOT
ATOM      1  C   UNL     1      25.264   9.462  15.219  1.00  0.00     0.180 A 
ATOM      2  C   UNL     1      24.742  10.109  16.352  1.00  0.00     0.208 A 
ATOM      3  C   UNL     1      23.442  10.636  16.297  1.00  0.00     0.238 A 
ATOM      4  O   UNL     1      23.001  11.261  17.297  1.00  0.00    -0.285 OA
ATOM      5  C   UNL     1      22.674  10.496  15.117  1.00  0.00     0.111 A 
ATOM      6  C   UNL     1      21.331  10.956  14.963  1.00  0.00     0.134 A 
ATOM      7  C   UNL     1      20.715  10.880  13.708  1.00  0.00     0.093 A 
ATOM      8  C   UNL     1      21.368  10.301  12.617  1.00  0.00     0.123 A 
ATOM      9  C   UNL     1      22.657   9.795  12.772  1.00  0.00     0.094 A 
ATOM     10  C   UNL     1      23.312   9.889  14.003  1.00  0.00     0.146 A 
ATOM     11  O   UNL     1      24.543   9.403  14.104  1.00  0.00    -0.452 OA
ENDROOT
BRANCH   1  12
ATOM     12  C   UNL     1      26.616   8.858  15.209  1.00  0.00     0.029 A 
ATOM     13  C   UNL     1      27.744   9.691  15.153  1.00  0.00     0.062 A 
ATOM     14  C   UNL     1      29.032   9.149  15.121  1.00  0.00     0.162 A 
ATOM     15  C   UNL     1      26.795   7.464  15.197  1.00  0.00     0.062 A 
ATOM     16  C   UNL     1      29.206   7.754  15.131  1.00  0.00     0.200 A 
ATOM     17  C   UNL     1      28.082   6.911  15.164  1.00  0.00     0.162 A 
BRANCH  14  18
ATOM     18  O   UNL     1      30.127  10.012  15.081  1.00  0.00    -0.504 OA
ATOM     19  H   UNL     1      30.556  10.378  15.922  1.00  0.00     0.293 HD
ENDBRANCH  14  18
BRANCH  16  20
ATOM     20  O   UNL     1      30.496   7.221  15.102  1.00  0.00    -0.502 OA
ATOM     21  H   UNL     1      31.301   7.738  15.438  1.00  0.00     0.293 HD
ENDBRANCH  16  20
BRANCH  17  22
ATOM     22  O   UNL     1      28.248   5.528  15.158  1.00  0.00    -0.504 OA
ATOM     23  H   UNL     1      28.485   5.024  14.310  1.00  0.00     0.293 HD
ENDBRANCH  17  22
ENDBRANCH   1  12
BRANCH   2  24
ATOM     24  O   UNL     1      25.525  10.255  17.501  1.00  0.00    -0.502 OA
ATOM     25  H   UNL     1      26.506  10.502  17.462  1.00  0.00     0.293 HD
ENDBRANCH   2  24
BRANCH   6  26
ATOM     26  O   UNL     1      20.557  11.466  16.009  1.00  0.00    -0.507 OA
ATOM     27  H   UNL     1      20.211  12.412  16.060  1.00  0.00     0.293 HD
ENDBRANCH   6  26
BRANCH   8  28
ATOM     28  O   UNL     1      20.741  10.215  11.377  1.00  0.00    -0.508 OA
ATOM     29  H   UNL     1      19.748  10.033  11.296  1.00  0.00     0.293 HD
ENDBRANCH   8  28
TORSDOF 7
ENDMDL
MODEL 3
REMARK VINA RESULT:    -5.955      3.530      6.631
REMARK INTER + INTRA:          -7.623
REMARK INTER:                  -7.308
REMARK INTRA:                  -0.314
REMARK UNBOUND:                -0.275
REMARK SMILES O=c1c(O)c(-c2cc(O)c(O)c(O)c2)oc2cc(O)cc(O)c12
REMARK SMILES IDX 5 1 3 2 2 3 1 4 23 5 21 6 20 7 18 8 17 9 16 10 15 11 6 12
REMARK SMILES IDX 7 13 8 14 14 15 10 16 12 17 9 18 11 20 13 22 4 24 22 26
REMARK SMILES IDX 19 28
REMARK H PARENT 9 19 11 21 13 23 4 25 22 27 19 29
REMARK Flexibility Score: inf
ROOT
ATOM      1  C   UNL     1      26.706   6.675  15.299  1.00  0.00     0.180 A 
ATOM      2  C   UNL     1      26.523   6.004  14.078  1.00  0.00     0.208 A 
ATOM      3  C   UNL     1      26.042   4.685  14.091  1.00  0.00     0.238 A 
ATOM      4  O   UNL     1      25.932   4.072  12.997  1.00  0.00    -0.285 OA
ATOM      5  C   UNL     1      25.735   4.059  15.322  1.00  0.00     0.111 A 
ATOM      6  C   UNL     1      25.204   2.740  15.451  1.00  0.00     0.134 A 
ATOM      7  C   UNL     1      25.060   2.175  16.725  1.00  0.00     0.093 A 
ATOM      8  C   UNL     1      25.368   2.905  17.876  1.00  0.00     0.123 A 
ATOM      9  C   UNL     1      25.830   4.213  17.762  1.00  0.00     0.094 A 
ATOM     10  C   UNL     1      26.018   4.792  16.504  1.00  0.00     0.146 A 
ATOM     11  O   UNL     1      26.470   6.039  16.442  1.00  0.00    -0.452 OA
ENDROOT
BRANCH   1  12
ATOM     12  C   UNL     1      27.185   8.075  15.366  1.00  0.00     0.029 A 
ATOM     13  C   UNL     1      28.554   8.343  15.223  1.00  0.00     0.062 A 
ATOM     14  C   UNL     1      29.038   9.653  15.302  1.00  0.00     0.162 A 
ATOM     15  C   UNL     1      26.303   9.138  15.625  1.00  0.00     0.062 A 
ATOM     16  C   UNL     1      28.149  10.716  15.540  1.00  0.00     0.200 A 
ATOM     17  C   UNL     1      26.778  10.454  15.707  1.00  0.00     0.162 A 
BRANCH  14  18
ATOM     18  O   UNL     1      30.405   9.879  15.141  1.00  0.00    -0.504 OA
ATOM     19  H   UNL     1      30.804  10.160  14.253  1.00  0.00     0.293 HD
ENDBRANCH  14  18
BRANCH  16  20
ATOM     20  O   UNL     1      28.639  12.020  15.614  1.00  0.00    -0.502 OA
ATOM     21  H   UNL     1      28.619  12.650  14.821  1.00  0.00     0.293 HD
ENDBRANCH  16  20
BRANCH  17  22
ATOM     22  O   UNL     1      25.894  11.502  15.958  1.00  0.00    -0.504 OA
ATOM     23  H   UNL     1      24.929  11.331  16.220  1.00  0.00     0.293 HD
ENDBRANCH  17  22
ENDBRANCH   1  12
BRANCH   2  24
ATOM     24  O   UNL     1      26.853   6.633  12.874  1.00  0.00    -0.502 OA
ATOM     25  H   UNL     1      27.447   6.199  12.179  1.00  0.00     0.293 HD
ENDBRANCH   2  24
BRANCH   6  26
ATOM     26  O   UNL     1      24.779   1.961  14.372  1.00  0.00    -0.507 OA
ATOM     27  H   UNL     1      23.814   1.775  14.141  1.00  0.00     0.293 HD
ENDBRANCH   6  26
BRANCH   8  28
ATOM     28  O   UNL     1      25.208   2.340  19.139  1.00  0.00    -0.508 OA
ATOM     29  H   UNL     1      24.668   2.802  19.862  1.00  0.00     0.293 HD
ENDBRANCH   8  28
TORSDOF 7
ENDMDL
MODEL 4
REMARK VINA RESULT:    -5.901      2.637      5.321
REMARK INTER + INTRA:          -7.556
REMARK INTER:                  -7.960
REMARK INTRA:                   0.404
REMARK UNBOUND:                -0.275
REMARK SMILES O=c1c(O)c(-c2cc(O)c(O)c(O)c2)oc2cc(O)cc(O)c12
REMARK SMILES IDX 5 1 3 2 2 3 1 4 23 5 21 6 20 7 18 8 17 9 16 10 15 11 6 12
REMARK SMILES IDX 7 13 8 14 14 15 10 16 12 17 9 18 11 20 13 22 4 24 22 26
REMARK SMILES IDX 19 28
REMARK H PARENT 9 19 11 21 13 23 4 25 22 27 19 29
REMARK Flexibility Score: inf
ROOT
ATOM      1  C   UNL     1      27.448   6.874  15.142  1.00  0.00     0.180 A 
ATOM      2  C   UNL     1      28.694   7.484  15.367  1.00  0.00     0.208 A 
ATOM      3  C   UNL     1      28.768   8.885  15.414  1.00  0.00     0.238 A 
ATOM      4  O   UNL     1      29.895   9.426  15.562  1.00  0.00    -0.285 OA
ATOM      5  C   UNL     1      27.593   9.658  15.253  1.00  0.00     0.111 A 
ATOM      6  C   UNL     1      27.545  11.084  15.323  1.00  0.00     0.134 A 
ATOM      7  C   UNL     1      26.351  11.750  15.018  1.00  0.00     0.093 A 
ATOM      8  C   UNL     1      25.188  11.040  14.710  1.00  0.00     0.123 A 
ATOM      9  C   UNL     1      25.210   9.647  14.698  1.00  0.00     0.094 A 
ATOM     10  C   UNL     1      26.395   8.955  14.962  1.00  0.00     0.146 A 
ATOM     11  O   UNL     1      26.375   7.628  14.930  1.00  0.00    -0.452 OA
ENDROOT
BRANCH   1  12
ATOM     12  C   UNL     1      27.286   5.403  15.104  1.00  0.00     0.029 A 
ATOM     13  C   UNL     1      26.053   4.853  14.722  1.00  0.00     0.062 A 
ATOM     14  C   UNL     1      25.865   3.468  14.697  1.00  0.00     0.162 A 
ATOM     15  C   UNL     1      28.325   4.542  15.498  1.00  0.00     0.062 A 
ATOM     16  C   UNL     1      26.914   2.611  15.071  1.00  0.00     0.200 A 
ATOM     17  C   UNL     1      28.146   3.153  15.477  1.00  0.00     0.162 A 
BRANCH  14  18
ATOM     18  O   UNL     1      24.628   2.961  14.297  1.00  0.00    -0.504 OA
ATOM     19  H   UNL     1      23.756   3.423  14.527  1.00  0.00     0.293 HD
ENDBRANCH  14  18
BRANCH  16  20
ATOM     20  O   UNL     1      26.719   1.229  15.040  1.00  0.00    -0.502 OA
ATOM     21  H   UNL     1      26.246   0.734  15.787  1.00  0.00     0.293 HD
ENDBRANCH  16  20
BRANCH  17  22
ATOM     22  O   UNL     1      29.185   2.308  15.863  1.00  0.00    -0.504 OA
ATOM     23  H   UNL     1      29.625   2.389  16.773  1.00  0.00     0.293 HD
ENDBRANCH  17  22
ENDBRANCH   1  12
BRANCH   2  24
ATOM     24  O   UNL     1      29.845   6.703  15.502  1.00  0.00    -0.502 OA
ATOM     25  H   UNL     1      30.624   6.766  14.859  1.00  0.00     0.293 HD
ENDBRANCH   2  24
BRANCH   6  26
ATOM     26  O   UNL     1      28.624  11.883  15.710  1.00  0.00    -0.507 OA
ATOM     27  H   UNL     1      28.622  12.508  16.502  1.00  0.00     0.293 HD
ENDBRANCH   6  26
BRANCH   8  28
ATOM     28  O   UNL     1      24.001  11.710  14.424  1.00  0.00    -0.508 OA
ATOM     29  H   UNL     1      23.143  11.506  14.923  1.00  0.00     0.293 HD
ENDBRANCH   8  28
TORSDOF 7
ENDMDL
MODEL 5
REMARK VINA RESULT:    -5.840      2.689      5.438
REMARK INTER + INTRA:          -7.481
REMARK INTER:                  -7.982
REMARK INTRA:                   0.501
REMARK UNBOUND:                -0.275
REMARK SMILES O=c1c(O)c(-c2cc(O)c(O)c(O)c2)oc2cc(O)cc(O)c12
REMARK SMILES IDX 5 1 3 2 2 3 1 4 23 5 21 6 20 7 18 8 17 9 16 10 15 11 6 12
REMARK SMILES IDX 7 13 8 14 14 15 10 16 12 17 9 18 11 20 13 22 4 24 22 26
REMARK SMILES IDX 19 28
REMARK H PARENT 9 19 11 21 13 23 4 25 22 27 19 29
REMARK Flexibility Score: inf
ROOT
ATOM      1  C   UNL     1      27.419   6.855  15.146  1.00  0.00     0.180 A 
ATOM      2  C   UNL     1      28.682   7.430  15.371  1.00  0.00     0.208 A 
ATOM      3  C   UNL     1      28.798   8.829  15.401  1.00  0.00     0.238 A 
ATOM      4  O   UNL     1      29.939   9.337  15.549  1.00  0.00    -0.285 OA
ATOM      5  C   UNL     1      27.648   9.635  15.221  1.00  0.00     0.111 A 
ATOM      6  C   UNL     1      27.643  11.062  15.272  1.00  0.00     0.134 A 
ATOM      7  C   UNL     1      26.471  11.759  14.950  1.00  0.00     0.093 A 
ATOM      8  C   UNL     1      25.289  11.081  14.643  1.00  0.00     0.123 A 
ATOM      9  C   UNL     1      25.270   9.688  14.650  1.00  0.00     0.094 A 
ATOM     10  C   UNL     1      26.432   8.964  14.931  1.00  0.00     0.146 A 
ATOM     11  O   UNL     1      26.371   7.638  14.916  1.00  0.00    -0.452 OA
ENDROOT
BRANCH   1  12
ATOM     12  C   UNL     1      27.213   5.389  15.126  1.00  0.00     0.029 A 
ATOM     13  C   UNL     1      28.270   4.538  15.484  1.00  0.00     0.062 A 
ATOM     14  C   UNL     1      28.111   3.149  15.455  1.00  0.00     0.162 A 
ATOM     15  C   UNL     1      25.997   4.827  14.701  1.00  0.00     0.062 A 
ATOM     16  C   UNL     1      26.886   2.592  15.050  1.00  0.00     0.200 A 
ATOM     17  C   UNL     1      25.829   3.436  14.668  1.00  0.00     0.162 A 
BRANCH  14  18
ATOM     18  O   UNL     1      29.182   2.338  15.833  1.00  0.00    -0.504 OA
ATOM     19  H   UNL     1      30.145   2.615  15.686  1.00  0.00     0.293 HD
ENDBRANCH  14  18
BRANCH  16  20
ATOM     20  O   UNL     1      26.735   1.205  15.027  1.00  0.00    -0.502 OA
ATOM     21  H   UNL     1      27.309   0.609  14.442  1.00  0.00     0.293 HD
ENDBRANCH  16  20
BRANCH  17  22
ATOM     22  O   UNL     1      24.617   2.889  14.250  1.00  0.00    -0.504 OA
ATOM     23  H   UNL     1      24.142   3.222  13.419  1.00  0.00     0.293 HD
ENDBRANCH  17  22
ENDBRANCH   1  12
BRANCH   2  24
ATOM     24  O   UNL     1      29.807   6.616  15.525  1.00  0.00    -0.502 OA
ATOM     25  H   UNL     1      30.422   6.683  16.326  1.00  0.00     0.293 HD
ENDBRANCH   2  24
BRANCH   6  26
ATOM     26  O   UNL     1      28.743  11.833  15.656  1.00  0.00    -0.507 OA
ATOM     27  H   UNL     1      28.937  12.765  15.322  1.00  0.00     0.293 HD
ENDBRANCH   6  26
BRANCH   8  28
ATOM     28  O   UNL     1      24.126  11.783  14.340  1.00  0.00    -0.508 OA
ATOM     29  H   UNL     1      23.380  11.364  13.796  1.00  0.00     0.293 HD
ENDBRANCH   8  28
TORSDOF 7
ENDMDL
MODEL 6
REMARK VINA RESULT:    -5.800      1.277      2.839
REMARK INTER + INTRA:          -7.432
REMARK INTER:                  -7.178
REMARK INTRA:                  -0.253
REMARK UNBOUND:                -0.275
REMARK SMILES O=c1c(O)c(-c2cc(O)c(O)c(O)c2)oc2cc(O)cc(O)c12
REMARK SMILES IDX 5 1 3 2 2 3 1 4 23 5 21 6 20 7 18 8 17 9 16 10 15 11 6 12
REMARK SMILES IDX 7 13 8 14 14 15 10 16 12 17 9 18 11 20 13 22 4 24 22 26
REMARK SMILES IDX 19 28
REMARK H PARENT 9 19 11 21 13 23 4 25 22 27 19 29
REMARK Flexibility Score: inf
ROOT
ATOM      1  C   UNL     1      25.712   8.962  14.408  1.00  0.00     0.180 A 
ATOM      2  C   UNL     1      25.136   8.780  13.140  1.00  0.00     0.208 A 
ATOM      3  C   UNL     1      23.890   9.368  12.867  1.00  0.00     0.238 A 
ATOM      4  O   UNL     1      23.354   9.156  11.748  1.00  0.00    -0.285 OA
ATOM      5  C   UNL     1      23.244  10.143  13.860  1.00  0.00     0.111 A 
ATOM      6  C   UNL     1      21.999  10.817  13.679  1.00  0.00     0.134 A 
ATOM      7  C   UNL     1      21.391  11.448  14.772  1.00  0.00     0.093 A 
ATOM      8  C   UNL     1      22.013  11.483  16.023  1.00  0.00     0.123 A 
ATOM      9  C   UNL     1      23.256  10.879  16.193  1.00  0.00     0.094 A 
ATOM     10  C   UNL     1      23.872  10.211  15.131  1.00  0.00     0.146 A 
ATOM     11  O   UNL     1      25.052   9.640  15.341  1.00  0.00    -0.452 OA
ENDROOT
BRANCH   1  12
ATOM     12  C   UNL     1      27.034   8.395  14.762  1.00  0.00     0.029 A 
ATOM     13  C   UNL     1      27.160   7.012  14.965  1.00  0.00     0.062 A 
ATOM     14  C   UNL     1      28.391   6.451  15.319  1.00  0.00     0.162 A 
ATOM     15  C   UNL     1      28.155   9.220  14.955  1.00  0.00     0.062 A 
ATOM     16  C   UNL     1      29.515   7.278  15.490  1.00  0.00     0.200 A 
ATOM     17  C   UNL     1      29.393   8.667  15.311  1.00  0.00     0.162 A 
BRANCH  14  18
ATOM     18  O   UNL     1      28.478   5.070  15.498  1.00  0.00    -0.504 OA
ATOM     19  H   UNL     1      29.357   4.607  15.695  1.00  0.00     0.293 HD
ENDBRANCH  14  18
BRANCH  16  20
ATOM     20  O   UNL     1      30.740   6.710  15.841  1.00  0.00    -0.502 OA
ATOM     21  H   UNL     1      31.047   5.817  15.472  1.00  0.00     0.293 HD
ENDBRANCH  16  20
BRANCH  17  22
ATOM     22  O   UNL     1      30.501   9.493  15.494  1.00  0.00    -0.504 OA
ATOM     23  H   UNL     1      30.399  10.487  15.668  1.00  0.00     0.293 HD
ENDBRANCH  17  22
ENDBRANCH   1  12
BRANCH   2  24
ATOM     24  O   UNL     1      25.780   7.993  12.181  1.00  0.00    -0.502 OA
ATOM     25  H   UNL     1      25.907   6.995  12.293  1.00  0.00     0.293 HD
ENDBRANCH   2  24
BRANCH   6  26
ATOM     26  O   UNL     1      21.339  10.921  12.452  1.00  0.00    -0.507 OA
ATOM     27  H   UNL     1      20.415  11.308  12.326  1.00  0.00     0.293 HD
ENDBRANCH   6  26
BRANCH   8  28
ATOM     28  O   UNL     1      21.407  12.125  17.099  1.00  0.00    -0.508 OA
ATOM     29  H   UNL     1      20.401  12.233  17.156  1.00  0.00     0.293 HD
ENDBRANCH   8  28
TORSDOF 7
ENDMDL
MODEL 7
REMARK VINA RESULT:    -5.736      3.323      6.192
REMARK INTER + INTRA:          -7.353
REMARK INTER:                  -7.021
REMARK INTRA:                  -0.331
REMARK UNBOUND:                -0.275
REMARK SMILES O=c1c(O)c(-c2cc(O)c(O)c(O)c2)oc2cc(O)cc(O)c12
REMARK SMILES IDX 5 1 3 2 2 3 1 4 23 5 21 6 20 7 18 8 17 9 16 10 15 11 6 12
REMARK SMILES IDX 7 13 8 14 14 15 10 16 12 17 9 18 11 20 13 22 4 24 22 26
REMARK SMILES IDX 19 28
REMARK H PARENT 9 19 11 21 13 23 4 25 22 27 19 29
REMARK Flexibility Score: inf
ROOT
ATOM      1  C   UNL     1      27.082   6.417  15.342  1.00  0.00     0.180 A 
ATOM      2  C   UNL     1      28.476   6.539  15.477  1.00  0.00     0.208 A 
ATOM      3  C   UNL     1      29.082   7.773  15.192  1.00  0.00     0.238 A 
ATOM      4  O   UNL     1      30.335   7.860  15.262  1.00  0.00    -0.285 OA
ATOM      5  C   UNL     1      28.286   8.873  14.792  1.00  0.00     0.111 A 
ATOM      6  C   UNL     1      28.790  10.181  14.518  1.00  0.00     0.134 A 
ATOM      7  C   UNL     1      27.929  11.158  14.004  1.00  0.00     0.093 A 
ATOM      8  C   UNL     1      26.569  10.895  13.817  1.00  0.00     0.123 A 
ATOM      9  C   UNL     1      26.057   9.641  14.138  1.00  0.00     0.094 A 
ATOM     10  C   UNL     1      26.898   8.634  14.619  1.00  0.00     0.146 A 
ATOM     11  O   UNL     1      26.370   7.449  14.903  1.00  0.00    -0.452 OA
ENDROOT
BRANCH   1  12
ATOM     12  C   UNL     1      26.368   5.156  15.648  1.00  0.00     0.029 A 
ATOM     13  C   UNL     1      25.774   4.987  16.908  1.00  0.00     0.062 A 
ATOM     14  C   UNL     1      25.111   3.800  17.233  1.00  0.00     0.162 A 
ATOM     15  C   UNL     1      26.320   4.100  14.723  1.00  0.00     0.062 A 
ATOM     16  C   UNL     1      25.048   2.754  16.296  1.00  0.00     0.200 A 
ATOM     17  C   UNL     1      25.659   2.905  15.040  1.00  0.00     0.162 A 
BRANCH  14  18
ATOM     18  O   UNL     1      24.522   3.677  18.491  1.00  0.00    -0.504 OA
ATOM     19  H   UNL     1      24.895   4.143  19.309  1.00  0.00     0.293 HD
ENDBRANCH  14  18
BRANCH  16  20
ATOM     20  O   UNL     1      24.382   1.573  16.627  1.00  0.00    -0.502 OA
ATOM     21  H   UNL     1      24.639   1.016  17.433  1.00  0.00     0.293 HD
ENDBRANCH  16  20
BRANCH  17  22
ATOM     22  O   UNL     1      25.612   1.865  14.112  1.00  0.00    -0.504 OA
ATOM     23  H   UNL     1      25.750   0.900  14.389  1.00  0.00     0.293 HD
ENDBRANCH  17  22
ENDBRANCH   1  12
BRANCH   2  24
ATOM     24  O   UNL     1      29.245   5.434  15.852  1.00  0.00    -0.502 OA
ATOM     25  H   UNL     1      30.142   5.228  15.430  1.00  0.00     0.293 HD
ENDBRANCH   2  24
BRANCH   6  26
ATOM     26  O   UNL     1      30.109  10.574  14.757  1.00  0.00    -0.507 OA
ATOM     27  H   UNL     1      30.637  11.203  14.170  1.00  0.00     0.293 HD
ENDBRANCH   6  26
BRANCH   8  28
ATOM     28  O   UNL     1      25.718  11.879  13.320  1.00  0.00    -0.508 OA
ATOM     29  H   UNL     1      25.384  12.636  13.905  1.00  0.00     0.293 HD
ENDBRANCH   8  28
TORSDOF 7
ENDMDL
MODEL 8
REMARK VINA RESULT:    -5.584      1.252      3.449
REMARK INTER + INTRA:          -7.165
REMARK INTER:                  -6.813
REMARK INTRA:                  -0.352
REMARK UNBOUND:                -0.275
REMARK SMILES O=c1c(O)c(-c2cc(O)c(O)c(O)c2)oc2cc(O)cc(O)c12
REMARK SMILES IDX 5 1 3 2 2 3 1 4 23 5 21 6 20 7 18 8 17 9 16 10 15 11 6 12
REMARK SMILES IDX 7 13 8 14 14 15 10 16 12 17 9 18 11 20 13 22 4 24 22 26
REMARK SMILES IDX 19 28
REMARK H PARENT 9 19 11 21 13 23 4 25 22 27 19 29
REMARK Flexibility Score: inf
ROOT
ATOM      1  C   UNL     1      25.273   9.441  15.315  1.00  0.00     0.180 A 
ATOM      2  C   UNL     1      24.561   9.745  14.142  1.00  0.00     0.208 A 
ATOM      3  C   UNL     1      23.302  10.357  14.250  1.00  0.00     0.238 A 
ATOM      4  O   UNL     1      22.646  10.578  13.199  1.00  0.00    -0.285 OA
ATOM      5  C   UNL     1      22.778  10.672  15.526  1.00  0.00     0.111 A 
ATOM      6  C   UNL     1      21.530  11.329  15.752  1.00  0.00     0.134 A 
ATOM      7  C   UNL     1      21.053  11.472  17.060  1.00  0.00     0.093 A 
ATOM      8  C   UNL     1      21.806  11.041  18.155  1.00  0.00     0.123 A 
ATOM      9  C   UNL     1      23.052  10.453  17.948  1.00  0.00     0.094 A 
ATOM     10  C   UNL     1      23.540  10.264  16.652  1.00  0.00     0.146 A 
ATOM     11  O   UNL     1      24.727   9.689  16.500  1.00  0.00    -0.452 OA
ENDROOT
BRANCH   1  12
ATOM     12  C   UNL     1      26.617   8.819  15.281  1.00  0.00     0.029 A 
ATOM     13  C   UNL     1      27.757   9.638  15.270  1.00  0.00     0.062 A 
ATOM     14  C   UNL     1      29.037   9.079  15.218  1.00  0.00     0.162 A 
ATOM     15  C   UNL     1      26.776   7.425  15.203  1.00  0.00     0.062 A 
ATOM     16  C   UNL     1      29.192   7.683  15.162  1.00  0.00     0.200 A 
ATOM     17  C   UNL     1      28.056   6.856  15.150  1.00  0.00     0.162 A 
BRANCH  14  18
ATOM     18  O   UNL     1      30.145   9.928  15.223  1.00  0.00    -0.504 OA
ATOM     19  H   UNL     1      30.862   9.882  14.509  1.00  0.00     0.293 HD
ENDBRANCH  14  18
BRANCH  16  20
ATOM     20  O   UNL     1      30.474   7.134  15.113  1.00  0.00    -0.502 OA
ATOM     21  H   UNL     1      31.184   7.476  14.476  1.00  0.00     0.293 HD
ENDBRANCH  16  20
BRANCH  17  22
ATOM     22  O   UNL     1      28.202   5.472  15.078  1.00  0.00    -0.504 OA
ATOM     23  H   UNL     1      29.111   5.029  15.161  1.00  0.00     0.293 HD
ENDBRANCH  17  22
ENDBRANCH   1  12
BRANCH   2  24
ATOM     24  O   UNL     1      25.087   9.406  12.892  1.00  0.00    -0.502 OA
ATOM     25  H   UNL     1      25.146   8.449  12.569  1.00  0.00     0.293 HD
ENDBRANCH   2  24
BRANCH   6  26
ATOM     26  O   UNL     1      20.744  11.878  14.736  1.00  0.00    -0.507 OA
ATOM     27  H   UNL     1      20.376  12.818  14.738  1.00  0.00     0.293 HD
ENDBRANCH   6  26
BRANCH   8  28
ATOM     28  O   UNL     1      21.330  11.202  19.453  1.00  0.00    -0.508 OA
ATOM     29  H   UNL     1      20.843  12.044  19.739  1.00  0.00     0.293 HD
ENDBRANCH   8  28
TORSDOF 7
ENDMDL
MODEL 9
REMARK VINA RESULT:    -5.428      1.244      7.086
REMARK INTER + INTRA:          -6.973
REMARK INTER:                  -6.678
REMARK INTRA:                  -0.295
REMARK UNBOUND:                -0.275
REMARK SMILES O=c1c(O)c(-c2cc(O)c(O)c(O)c2)oc2cc(O)cc(O)c12
REMARK SMILES IDX 5 1 3 2 2 3 1 4 23 5 21 6 20 7 18 8 17 9 16 10 15 11 6 12
REMARK SMILES IDX 7 13 8 14 14 15 10 16 12 17 9 18 11 20 13 22 4 24 22 26
REMARK SMILES IDX 19 28
REMARK H PARENT 9 19 11 21 13 23 4 25 22 27 19 29
REMARK Flexibility Score: inf
ROOT
ATOM      1  C   UNL     1      25.016   9.761  14.488  1.00  0.00     0.180 A 
ATOM      2  C   UNL     1      25.966  10.784  14.646  1.00  0.00     0.208 A 
ATOM      3  C   UNL     1      27.304  10.438  14.898  1.00  0.00     0.238 A 
ATOM      4  O   UNL     1      28.139  11.358  15.092  1.00  0.00    -0.285 OA
ATOM      5  C   UNL     1      27.676   9.074  14.974  1.00  0.00     0.111 A 
ATOM      6  C   UNL     1      29.009   8.609  15.186  1.00  0.00     0.134 A 
ATOM      7  C   UNL     1      29.241   7.240  15.373  1.00  0.00     0.093 A 
ATOM      8  C   UNL     1      28.197   6.315  15.292  1.00  0.00     0.123 A 
ATOM      9  C   UNL     1      26.902   6.754  15.027  1.00  0.00     0.094 A 
ATOM     10  C   UNL     1      26.634   8.116  14.871  1.00  0.00     0.146 A 
ATOM     11  O   UNL     1      25.384   8.492  14.630  1.00  0.00    -0.452 OA
ENDROOT
BRANCH   1  12
ATOM     12  C   UNL     1      23.593  10.046  14.195  1.00  0.00     0.029 A 
ATOM     13  C   UNL     1      22.749  10.483  15.227  1.00  0.00     0.062 A 
ATOM     14  C   UNL     1      21.396  10.740  14.984  1.00  0.00     0.162 A 
ATOM     15  C   UNL     1      23.053   9.835  12.915  1.00  0.00     0.062 A 
ATOM     16  C   UNL     1      20.866  10.548  13.697  1.00  0.00     0.200 A 
ATOM     17  C   UNL     1      21.698  10.089  12.661  1.00  0.00     0.162 A 
BRANCH  14  18
ATOM     18  O   UNL     1      20.594  11.187  16.035  1.00  0.00    -0.504 OA
ATOM     19  H   UNL     1      19.812  10.645  16.384  1.00  0.00     0.293 HD
ENDBRANCH  14  18
BRANCH  16  20
ATOM     20  O   UNL     1      19.515  10.810  13.462  1.00  0.00    -0.502 OA
ATOM     21  H   UNL     1      19.014  10.401  12.682  1.00  0.00     0.293 HD
ENDBRANCH  16  20
BRANCH  17  22
ATOM     22  O   UNL     1      21.175   9.882  11.386  1.00  0.00    -0.504 OA
ATOM     23  H   UNL     1      20.425  10.458  11.020  1.00  0.00     0.293 HD
ENDBRANCH  17  22
ENDBRANCH   1  12
BRANCH   2  24
ATOM     24  O   UNL     1      25.574  12.124  14.589  1.00  0.00    -0.502 OA
ATOM     25  H   UNL     1      25.774  12.716  13.793  1.00  0.00     0.293 HD
ENDBRANCH   2  24
BRANCH   6  26
ATOM     26  O   UNL     1      30.133   9.438  15.192  1.00  0.00    -0.507 OA
ATOM     27  H   UNL     1      30.604   9.776  14.365  1.00  0.00     0.293 HD
ENDBRANCH   6  26
BRANCH   8  28
ATOM     28  O   UNL     1      28.440   4.954  15.464  1.00  0.00    -0.508 OA
ATOM     29  H   UNL     1      28.080   4.448  16.265  1.00  0.00     0.293 HD
ENDBRANCH   8  28
TORSDOF 7
ENDMDL
