MODEL 1
REMARK VINA RESULT:    -4.005      0.000      0.000
REMARK INTER + INTRA:          -7.374
REMARK INTER:                  -6.347
REMARK INTRA:                  -1.027
REMARK UNBOUND:                -1.027
REMARK SMILES CCCCCCCCCCCC(=O)[O-]
REMARK SMILES IDX 7 1 8 2 9 3 10 4 11 5 12 6 13 7 14 8 6 9 5 10 4 11 3 12 2 13
REMARK SMILES IDX 1 14
REMARK H PARENT
REMARK Flexibility Score: inf
ROOT
ATOM      1  C   UNL     1     -35.791  -9.508   2.094  1.00  0.00     0.000 C 
ENDROOT
BRANCH   1   2
ATOM      2  C   UNL     1     -37.271  -9.108   2.048  1.00  0.00     0.000 C 
BRANCH   2   3
ATOM      3  C   UNL     1     -37.593  -8.334   0.764  1.00  0.00     0.000 C 
BRANCH   3   4
ATOM      4  C   UNL     1     -36.352  -8.201  -0.125  1.00  0.00     0.006 C 
BRANCH   4   5
ATOM      5  C   UNL     1     -36.619  -8.758  -1.527  1.00  0.00     0.053 C 
BRANCH   5   6
ATOM      6  C   UNL     1     -36.157 -10.178  -1.623  1.00  0.00     0.041 C 
ATOM      7  O   UNL     1     -35.059 -10.450  -2.175  1.00  0.00    -0.550 OA
ATOM      8  O   UNL     1     -36.963 -11.205  -1.149  1.00  0.00    -0.550 OA
ENDBRANCH   5   6
ENDBRANCH   4   5
ENDBRANCH   3   4
ENDBRANCH   2   3
ENDBRANCH   1   2
BRANCH   1   9
ATOM      9  C   UNL     1     -35.633 -11.031   2.182  1.00  0.00     0.000 C 
BRANCH   9  10
ATOM     10  C   UNL     1     -34.428 -11.507   1.358  1.00  0.00    -0.000 C 
BRANCH  10  11
ATOM     11  C   UNL     1     -33.322 -12.125   2.228  1.00  0.00    -0.000 C 
BRANCH  11  12
ATOM     12  C   UNL     1     -33.347 -11.606   3.674  1.00  0.00    -0.000 C 
BRANCH  12  13
ATOM     13  C   UNL     1     -32.127 -10.723   3.959  1.00  0.00    -0.003 C 
ATOM     14  C   UNL     1     -31.001 -11.000   2.966  1.00  0.00     0.004 C 
ENDBRANCH  12  13
ENDBRANCH  11  12
ENDBRANCH  10  11
ENDBRANCH   9  10
ENDBRANCH   1   9
TORSDOF 10
ENDMDL
MODEL 2
REMARK VINA RESULT:    -4.003      3.244      6.485
REMARK INTER + INTRA:          -7.370
REMARK INTER:                  -6.911
REMARK INTRA:                  -0.460
REMARK UNBOUND:                -1.027
REMARK SMILES CCCCCCCCCCCC(=O)[O-]
REMARK SMILES IDX 7 1 8 2 9 3 10 4 11 5 12 6 13 7 14 8 6 9 5 10 4 11 3 12 2 13
REMARK SMILES IDX 1 14
REMARK H PARENT
REMARK Flexibility Score: inf
ROOT
ATOM      1  C   UNL     1     -35.895  -9.130   2.036  1.00  0.00     0.000 C 
ENDROOT
BRANCH   1   2
ATOM      2  C   UNL     1     -35.573 -10.579   2.421  1.00  0.00     0.000 C 
BRANCH   2   3
ATOM      3  C   UNL     1     -34.785 -11.283   1.310  1.00  0.00     0.000 C 
BRANCH   3   4
ATOM      4  C   UNL     1     -33.434 -11.788   1.829  1.00  0.00     0.006 C 
BRANCH   4   5
ATOM      5  C   UNL     1     -33.209 -11.362   3.283  1.00  0.00     0.053 C 
BRANCH   5   6
ATOM      6  C   UNL     1     -31.755 -11.120   3.540  1.00  0.00     0.041 C 
ATOM      7  O   UNL     1     -31.337 -10.973   4.719  1.00  0.00    -0.550 OA
ATOM      8  O   UNL     1     -30.870 -11.008   2.476  1.00  0.00    -0.550 OA
ENDBRANCH   5   6
ENDBRANCH   4   5
ENDBRANCH   3   4
ENDBRANCH   2   3
ENDBRANCH   1   2
BRANCH   1   9
ATOM      9  C   UNL     1     -36.879  -9.077   0.861  1.00  0.00     0.000 C 
BRANCH   9  10
ATOM     10  C   UNL     1     -36.310  -8.243  -0.296  1.00  0.00    -0.000 C 
BRANCH  10  11
ATOM     11  C   UNL     1     -37.404  -7.526  -1.104  1.00  0.00    -0.000 C 
BRANCH  11  12
ATOM     12  C   UNL     1     -37.862  -6.215  -0.445  1.00  0.00    -0.000 C 
BRANCH  12  13
ATOM     13  C   UNL     1     -37.824  -5.057  -1.448  1.00  0.00    -0.003 C 
ATOM     14  C   UNL     1     -37.431  -3.749  -0.765  1.00  0.00     0.004 C 
ENDBRANCH  12  13
ENDBRANCH  11  12
ENDBRANCH  10  11
ENDBRANCH   9  10
ENDBRANCH   1   9
TORSDOF 10
ENDMDL
MODEL 3
REMARK VINA RESULT:    -3.959      3.203      3.644
REMARK INTER + INTRA:          -7.301
REMARK INTER:                  -6.812
REMARK INTRA:                  -0.489
REMARK UNBOUND:                -1.027
REMARK SMILES CCCCCCCCCCCC(=O)[O-]
REMARK SMILES IDX 7 1 8 2 9 3 10 4 11 5 12 6 13 7 14 8 6 9 5 10 4 11 3 12 2 13
REMARK SMILES IDX 1 14
REMARK H PARENT
REMARK Flexibility Score: inf
ROOT
ATOM      1  C   UNL     1     -36.153  -8.965   1.127  1.00  0.00     0.000 C 
ENDROOT
BRANCH   1   2
ATOM      2  C   UNL     1     -37.267  -8.073   0.564  1.00  0.00     0.000 C 
BRANCH   2   3
ATOM      3  C   UNL     1     -37.233  -8.049  -0.968  1.00  0.00     0.000 C 
BRANCH   3   4
ATOM      4  C   UNL     1     -37.943  -6.805  -1.515  1.00  0.00     0.006 C 
BRANCH   4   5
ATOM      5  C   UNL     1     -38.048  -5.717  -0.443  1.00  0.00     0.053 C 
BRANCH   5   6
ATOM      6  C   UNL     1     -37.727  -4.376  -1.024  1.00  0.00     0.041 C 
ATOM      7  O   UNL     1     -37.470  -4.263  -2.251  1.00  0.00    -0.550 OA
ATOM      8  O   UNL     1     -37.663  -3.258  -0.201  1.00  0.00    -0.550 OA
ENDBRANCH   5   6
ENDBRANCH   4   5
ENDBRANCH   3   4
ENDBRANCH   2   3
ENDBRANCH   1   2
BRANCH   1   9
ATOM      9  C   UNL     1     -36.469  -9.404   2.561  1.00  0.00     0.000 C 
BRANCH   9  10
ATOM     10  C   UNL     1     -35.627 -10.625   2.961  1.00  0.00    -0.000 C 
BRANCH  10  11
ATOM     11  C   UNL     1     -34.667 -11.072   1.847  1.00  0.00    -0.000 C 
BRANCH  11  12
ATOM     12  C   UNL     1     -33.520 -11.950   2.372  1.00  0.00    -0.000 C 
BRANCH  12  13
ATOM     13  C   UNL     1     -32.629 -11.165   3.341  1.00  0.00    -0.003 C 
ATOM     14  C   UNL     1     -31.177 -11.156   2.871  1.00  0.00     0.004 C 
ENDBRANCH  12  13
ENDBRANCH  11  12
ENDBRANCH  10  11
ENDBRANCH   9  10
ENDBRANCH   1   9
TORSDOF 10
ENDMDL
MODEL 4
REMARK VINA RESULT:    -3.667      2.678      5.815
REMARK INTER + INTRA:          -6.837
REMARK INTER:                  -6.160
REMARK INTRA:                  -0.678
REMARK UNBOUND:                -1.027
REMARK SMILES CCCCCCCCCCCC(=O)[O-]
REMARK SMILES IDX 7 1 8 2 9 3 10 4 11 5 12 6 13 7 14 8 6 9 5 10 4 11 3 12 2 13
REMARK SMILES IDX 1 14
REMARK H PARENT
REMARK Flexibility Score: inf
ROOT
ATOM      1  C   UNL     1     -35.768  -9.558   2.610  1.00  0.00     0.000 C 
ENDROOT
BRANCH   1   2
ATOM      2  C   UNL     1     -35.677 -11.012   2.133  1.00  0.00     0.000 C 
BRANCH   2   3
ATOM      3  C   UNL     1     -34.216 -11.444   1.957  1.00  0.00     0.000 C 
BRANCH   3   4
ATOM      4  C   UNL     1     -33.547 -11.690   3.313  1.00  0.00     0.006 C 
BRANCH   4   5
ATOM      5  C   UNL     1     -32.436 -10.668   3.572  1.00  0.00     0.053 C 
BRANCH   5   6
ATOM      6  C   UNL     1     -31.120 -11.191   3.088  1.00  0.00     0.041 C 
ATOM      7  O   UNL     1     -30.093 -11.084   3.809  1.00  0.00    -0.550 OA
ATOM      8  O   UNL     1     -31.017 -11.750   1.821  1.00  0.00    -0.550 OA
ENDBRANCH   5   6
ENDBRANCH   4   5
ENDBRANCH   3   4
ENDBRANCH   2   3
ENDBRANCH   1   2
BRANCH   1   9
ATOM      9  C   UNL     1     -37.212  -9.045   2.546  1.00  0.00     0.000 C 
BRANCH   9  10
ATOM     10  C   UNL     1     -37.807  -9.253   1.145  1.00  0.00    -0.000 C 
BRANCH  10  11
ATOM     11  C   UNL     1     -37.655  -8.015   0.247  1.00  0.00    -0.000 C 
BRANCH  11  12
ATOM     12  C   UNL     1     -36.345  -8.025  -0.557  1.00  0.00    -0.000 C 
BRANCH  12  13
ATOM     13  C   UNL     1     -36.104  -9.399  -1.192  1.00  0.00    -0.003 C 
ATOM     14  C   UNL     1     -36.570  -9.425  -2.645  1.00  0.00     0.004 C 
ENDBRANCH  12  13
ENDBRANCH  11  12
ENDBRANCH  10  11
ENDBRANCH   9  10
ENDBRANCH   1   9
TORSDOF 10
ENDMDL
MODEL 5
REMARK VINA RESULT:    -3.442     20.411     22.475
REMARK INTER + INTRA:          -6.482
REMARK INTER:                  -5.034
REMARK INTRA:                  -1.448
REMARK UNBOUND:                -1.027
REMARK SMILES CCCCCCCCCCCC(=O)[O-]
REMARK SMILES IDX 7 1 8 2 9 3 10 4 11 5 12 6 13 7 14 8 6 9 5 10 4 11 3 12 2 13
REMARK SMILES IDX 1 14
REMARK H PARENT
REMARK Flexibility Score: inf
ROOT
ATOM      1  C   UNL     1     -24.122   5.131  12.380  1.00  0.00     0.000 C 
ENDROOT
BRANCH   1   2
ATOM      2  C   UNL     1     -22.839   4.741  13.125  1.00  0.00     0.000 C 
BRANCH   2   3
ATOM      3  C   UNL     1     -22.173   3.523  12.475  1.00  0.00     0.000 C 
BRANCH   3   4
ATOM      4  C   UNL     1     -22.744   3.264  11.076  1.00  0.00     0.006 C 
BRANCH   4   5
ATOM      5  C   UNL     1     -22.213   1.948  10.500  1.00  0.00     0.053 C 
BRANCH   5   6
ATOM      6  C   UNL     1     -21.825   2.121   9.066  1.00  0.00     0.041 C 
ATOM      7  O   UNL     1     -22.321   1.375   8.181  1.00  0.00    -0.550 OA
ATOM      8  O   UNL     1     -20.878   3.074   8.712  1.00  0.00    -0.550 OA
ENDBRANCH   5   6
ENDBRANCH   4   5
ENDBRANCH   3   4
ENDBRANCH   2   3
ENDBRANCH   1   2
BRANCH   1   9
ATOM      9  C   UNL     1     -24.233   6.654  12.234  1.00  0.00     0.000 C 
BRANCH   9  10
ATOM     10  C   UNL     1     -22.847   7.314  12.284  1.00  0.00    -0.000 C 
BRANCH  10  11
ATOM     11  C   UNL     1     -22.317   7.687  10.890  1.00  0.00    -0.000 C 
BRANCH  11  12
ATOM     12  C   UNL     1     -21.285   6.679  10.360  1.00  0.00    -0.000 C 
BRANCH  12  13
ATOM     13  C   UNL     1     -20.121   6.521  11.345  1.00  0.00    -0.003 C 
ATOM     14  C   UNL     1     -19.286   5.285  11.018  1.00  0.00     0.004 C 
ENDBRANCH  12  13
ENDBRANCH  11  12
ENDBRANCH  10  11
ENDBRANCH   9  10
ENDBRANCH   1   9
TORSDOF 10
ENDMDL
MODEL 6
REMARK VINA RESULT:    -3.314      2.841      5.330
REMARK INTER + INTRA:          -6.279
REMARK INTER:                  -5.370
REMARK INTRA:                  -0.909
REMARK UNBOUND:                -1.027
REMARK SMILES CCCCCCCCCCCC(=O)[O-]
REMARK SMILES IDX 7 1 8 2 9 3 10 4 11 5 12 6 13 7 14 8 6 9 5 10 4 11 3 12 2 13
REMARK SMILES IDX 1 14
REMARK H PARENT
REMARK Flexibility Score: inf
ROOT
ATOM      1  C   UNL     1     -35.900  -9.181   1.211  1.00  0.00     0.000 C 
ENDROOT
BRANCH   1   2
ATOM      2  C   UNL     1     -36.263  -9.905   2.513  1.00  0.00     0.000 C 
BRANCH   2   3
ATOM      3  C   UNL     1     -35.905 -11.394   2.433  1.00  0.00     0.000 C 
BRANCH   3   4
ATOM      4  C   UNL     1     -34.690 -11.717   3.310  1.00  0.00     0.006 C 
BRANCH   4   5
ATOM      5  C   UNL     1     -33.393 -11.649   2.498  1.00  0.00     0.053 C 
BRANCH   5   6
ATOM      6  C   UNL     1     -32.247 -11.249   3.373  1.00  0.00     0.041 C 
ATOM      7  O   UNL     1     -31.127 -10.979   2.864  1.00  0.00    -0.550 OA
ATOM      8  O   UNL     1     -32.402 -11.222   4.753  1.00  0.00    -0.550 OA
ENDBRANCH   5   6
ENDBRANCH   4   5
ENDBRANCH   3   4
ENDBRANCH   2   3
ENDBRANCH   1   2
BRANCH   1   9
ATOM      9  C   UNL     1     -37.096  -8.390   0.668  1.00  0.00     0.000 C 
BRANCH   9  10
ATOM     10  C   UNL     1     -37.320  -8.687  -0.822  1.00  0.00    -0.000 C 
BRANCH  10  11
ATOM     11  C   UNL     1     -36.831 -10.086  -1.228  1.00  0.00    -0.000 C 
BRANCH  11  12
ATOM     12  C   UNL     1     -35.652 -10.039  -2.212  1.00  0.00    -0.000 C 
BRANCH  12  13
ATOM     13  C   UNL     1     -34.994 -11.417  -2.345  1.00  0.00    -0.003 C 
ATOM     14  C   UNL     1     -34.418 -11.884  -1.010  1.00  0.00     0.004 C 
ENDBRANCH  12  13
ENDBRANCH  11  12
ENDBRANCH  10  11
ENDBRANCH   9  10
ENDBRANCH   1   9
TORSDOF 10
ENDMDL
MODEL 7
REMARK VINA RESULT:    -3.250     19.862     22.197
REMARK INTER + INTRA:          -6.176
REMARK INTER:                  -5.309
REMARK INTRA:                  -0.867
REMARK UNBOUND:                -1.027
REMARK SMILES CCCCCCCCCCCC(=O)[O-]
REMARK SMILES IDX 7 1 8 2 9 3 10 4 11 5 12 6 13 7 14 8 6 9 5 10 4 11 3 12 2 13
REMARK SMILES IDX 1 14
REMARK H PARENT
REMARK Flexibility Score: inf
ROOT
ATOM      1  C   UNL     1     -19.784   2.875  12.245  1.00  0.00     0.000 C 
ENDROOT
BRANCH   1   2
ATOM      2  C   UNL     1     -19.190   4.078  11.503  1.00  0.00     0.000 C 
BRANCH   2   3
ATOM      3  C   UNL     1     -19.126   3.819   9.993  1.00  0.00     0.000 C 
BRANCH   3   4
ATOM      4  C   UNL     1     -19.740   2.459   9.641  1.00  0.00     0.006 C 
BRANCH   4   5
ATOM      5  C   UNL     1     -20.836   2.608   8.582  1.00  0.00     0.053 C 
BRANCH   5   6
ATOM      6  C   UNL     1     -21.957   1.655   8.850  1.00  0.00     0.041 C 
ATOM      7  O   UNL     1     -22.249   1.338  10.033  1.00  0.00    -0.550 OA
ATOM      8  O   UNL     1     -22.648   1.078   7.791  1.00  0.00    -0.550 OA
ENDBRANCH   5   6
ENDBRANCH   4   5
ENDBRANCH   3   4
ENDBRANCH   2   3
ENDBRANCH   1   2
BRANCH   1   9
ATOM      9  C   UNL     1     -21.008   3.286  13.071  1.00  0.00     0.000 C 
BRANCH   9  10
ATOM     10  C   UNL     1     -22.041   4.015  12.199  1.00  0.00    -0.000 C 
BRANCH  10  11
ATOM     11  C   UNL     1     -23.073   4.795  13.029  1.00  0.00    -0.000 C 
BRANCH  11  12
ATOM     12  C   UNL     1     -22.945   6.317  12.853  1.00  0.00    -0.000 C 
BRANCH  12  13
ATOM     13  C   UNL     1     -24.193   6.895  12.175  1.00  0.00    -0.003 C 
ATOM     14  C   UNL     1     -25.370   5.928  12.270  1.00  0.00     0.004 C 
ENDBRANCH  12  13
ENDBRANCH  11  12
ENDBRANCH  10  11
ENDBRANCH   9  10
ENDBRANCH   1   9
TORSDOF 10
ENDMDL
MODEL 8
REMARK VINA RESULT:    -3.246     20.031     22.208
REMARK INTER + INTRA:          -6.171
REMARK INTER:                  -5.157
REMARK INTRA:                  -1.014
REMARK UNBOUND:                -1.027
REMARK SMILES CCCCCCCCCCCC(=O)[O-]
REMARK SMILES IDX 7 1 8 2 9 3 10 4 11 5 12 6 13 7 14 8 6 9 5 10 4 11 3 12 2 13
REMARK SMILES IDX 1 14
REMARK H PARENT
REMARK Flexibility Score: inf
ROOT
ATOM      1  C   UNL     1     -20.662   5.971  11.022  1.00  0.00     0.000 C 
ENDROOT
BRANCH   1   2
ATOM      2  C   UNL     1     -20.105   5.736   9.613  1.00  0.00     0.000 C 
BRANCH   2   3
ATOM      3  C   UNL     1     -20.555   4.378   9.061  1.00  0.00     0.000 C 
BRANCH   3   4
ATOM      4  C   UNL     1     -20.726   3.355  10.189  1.00  0.00     0.006 C 
BRANCH   4   5
ATOM      5  C   UNL     1     -22.078   2.643  10.084  1.00  0.00     0.053 C 
BRANCH   5   6
ATOM      6  C   UNL     1     -22.003   1.515   9.104  1.00  0.00     0.041 C 
ATOM      7  O   UNL     1     -21.002   0.752   9.093  1.00  0.00    -0.550 OA
ATOM      8  O   UNL     1     -23.015   1.338   8.169  1.00  0.00    -0.550 OA
ENDBRANCH   5   6
ENDBRANCH   4   5
ENDBRANCH   3   4
ENDBRANCH   2   3
ENDBRANCH   1   2
BRANCH   1   9
ATOM      9  C   UNL     1     -21.631   7.159  11.041  1.00  0.00     0.000 C 
BRANCH   9  10
ATOM     10  C   UNL     1     -22.590   7.067  12.237  1.00  0.00    -0.000 C 
BRANCH  10  11
ATOM     11  C   UNL     1     -22.800   5.623  12.719  1.00  0.00    -0.000 C 
BRANCH  11  12
ATOM     12  C   UNL     1     -24.192   5.077  12.363  1.00  0.00    -0.000 C 
BRANCH  12  13
ATOM     13  C   UNL     1     -25.201   6.219  12.197  1.00  0.00    -0.003 C 
ATOM     14  C   UNL     1     -26.596   5.681  11.887  1.00  0.00     0.004 C 
ENDBRANCH  12  13
ENDBRANCH  11  12
ENDBRANCH  10  11
ENDBRANCH   9  10
ENDBRANCH   1   9
TORSDOF 10
ENDMDL
MODEL 9
REMARK VINA RESULT:    -3.177     20.899     22.383
REMARK INTER + INTRA:          -6.061
REMARK INTER:                  -5.176
REMARK INTRA:                  -0.885
REMARK UNBOUND:                -1.027
REMARK SMILES CCCCCCCCCCCC(=O)[O-]
REMARK SMILES IDX 7 1 8 2 9 3 10 4 11 5 12 6 13 7 14 8 6 9 5 10 4 11 3 12 2 13
REMARK SMILES IDX 1 14
REMARK H PARENT
REMARK Flexibility Score: inf
ROOT
ATOM      1  C   UNL     1     -18.449   6.421  -4.006  1.00  0.00     0.000 C 
ENDROOT
BRANCH   1   2
ATOM      2  C   UNL     1     -19.618   6.895  -4.878  1.00  0.00     0.000 C 
BRANCH   2   3
ATOM      3  C   UNL     1     -20.511   7.881  -4.115  1.00  0.00     0.000 C 
BRANCH   3   4
ATOM      4  C   UNL     1     -20.209   7.848  -2.612  1.00  0.00     0.006 C 
BRANCH   4   5
ATOM      5  C   UNL     1     -21.393   7.277  -1.826  1.00  0.00     0.053 C 
BRANCH   5   6
ATOM      6  C   UNL     1     -21.404   5.783  -1.903  1.00  0.00     0.041 C 
ATOM      7  O   UNL     1     -20.525   5.113  -1.301  1.00  0.00    -0.550 OA
ATOM      8  O   UNL     1     -22.354   5.134  -2.681  1.00  0.00    -0.550 OA
ENDBRANCH   5   6
ENDBRANCH   4   5
ENDBRANCH   3   4
ENDBRANCH   2   3
ENDBRANCH   1   2
BRANCH   1   9
ATOM      9  C   UNL     1     -17.875   5.097  -4.525  1.00  0.00     0.000 C 
BRANCH   9  10
ATOM     10  C   UNL     1     -18.998   4.104  -4.858  1.00  0.00    -0.000 C 
BRANCH  10  11
ATOM     11  C   UNL     1     -19.160   3.012  -3.788  1.00  0.00    -0.000 C 
BRANCH  11  12
ATOM     12  C   UNL     1     -17.996   2.009  -3.786  1.00  0.00    -0.000 C 
BRANCH  12  13
ATOM     13  C   UNL     1     -18.223   0.905  -4.825  1.00  0.00    -0.003 C 
ATOM     14  C   UNL     1     -18.628  -0.406  -4.157  1.00  0.00     0.004 C 
ENDBRANCH  12  13
ENDBRANCH  11  12
ENDBRANCH  10  11
ENDBRANCH   9  10
ENDBRANCH   1   9
TORSDOF 10
ENDMDL
