MODEL 1
REMARK VINA RESULT:    -5.922      0.000      0.000
REMARK INTER + INTRA:         -11.179
REMARK INTER:                  -9.210
REMARK INTRA:                  -1.968
REMARK UNBOUND:                -1.968
REMARK SMILES C[C@]12C[C@]3(O)O[C@H](O1)[C@@]1(COC(=O)c4ccccc4)[C@@H]3C[C@]12O[C@H]1O[C@H](CO)[C@H](O)[C@@H](O)[C@@H]1O
REMARK SMILES IDX 1 1 2 2 3 3 4 4 20 5 21 6 22 7 9 8 7 9 8 10 6 11 23 12 24 13
REMARK SMILES IDX 33 14 25 15 31 16 26 17 29 18 34 19 32 21 27 23 28 24 30 26
REMARK SMILES IDX 5 28 10 30 11 31 12 32 13 33 14 34 15 35 19 36 16 37 18 38
REMARK SMILES IDX 17 39
REMARK H PARENT 34 20 32 22 28 25 30 27 5 29
REMARK Flexibility Score: inf
ROOT
ATOM      1  C   UNL     1      22.356  30.733 -12.262  1.00  0.00     0.046 C 
ATOM      2  C   UNL     1      23.375  30.836 -13.403  1.00  0.00     0.104 C 
ATOM      3  C   UNL     1      23.584  32.331 -13.833  1.00  0.00     0.104 C 
ATOM      4  C   UNL     1      24.708  32.232 -14.921  1.00  0.00     0.175 C 
ATOM      5  C   UNL     1      25.890  31.359 -14.402  1.00  0.00     0.070 C 
ATOM      6  C   UNL     1      25.886  31.176 -12.871  1.00  0.00     0.050 C 
ATOM      7  C   UNL     1      24.763  30.138 -13.099  1.00  0.00     0.115 C 
ATOM      8  C   UNL     1      25.241  29.981 -14.550  1.00  0.00     0.096 C 
ATOM      9  C   UNL     1      24.020  30.188 -15.434  1.00  0.00     0.267 C 
ATOM     10  O   UNL     1      22.901  30.174 -14.560  1.00  0.00    -0.342 OA
ATOM     11  O   UNL     1      24.159  31.486 -15.988  1.00  0.00    -0.320 OA
ENDROOT
BRANCH   7  12
ATOM     12  O   UNL     1      24.576  28.982 -12.272  1.00  0.00    -0.339 OA
BRANCH  12  13
ATOM     13  C   UNL     1      25.336  28.866 -11.076  1.00  0.00     0.282 C 
ATOM     14  C   UNL     1      25.620  27.369 -10.798  1.00  0.00     0.202 C 
ATOM     15  O   UNL     1      24.725  29.543  -9.989  1.00  0.00    -0.341 OA
ATOM     16  C   UNL     1      24.353  26.595 -10.365  1.00  0.00     0.179 C 
ATOM     17  C   UNL     1      23.798  28.804  -9.212  1.00  0.00     0.178 C 
ATOM     18  C   UNL     1      23.229  27.542  -9.919  1.00  0.00     0.177 C 
BRANCH  14  19
ATOM     19  O   UNL     1      26.604  27.248  -9.802  1.00  0.00    -0.385 OA
ATOM     20  H   UNL     1      27.476  27.140 -10.262  1.00  0.00     0.211 HD
ENDBRANCH  14  19
BRANCH  16  21
ATOM     21  O   UNL     1      23.891  25.811 -11.438  1.00  0.00    -0.387 OA
ATOM     22  H   UNL     1      23.812  26.409 -12.225  1.00  0.00     0.211 HD
ENDBRANCH  16  21
BRANCH  17  23
ATOM     23  C   UNL     1      24.431  28.514  -7.835  1.00  0.00     0.191 C 
BRANCH  23  24
ATOM     24  O   UNL     1      25.618  29.248  -7.671  1.00  0.00    -0.394 OA
ATOM     25  H   UNL     1      25.353  30.200  -7.606  1.00  0.00     0.210 HD
ENDBRANCH  23  24
ENDBRANCH  17  23
BRANCH  18  26
ATOM     26  O   UNL     1      22.329  26.855  -9.085  1.00  0.00    -0.387 OA
ATOM     27  H   UNL     1      22.652  25.930  -9.011  1.00  0.00     0.211 HD
ENDBRANCH  18  26
ENDBRANCH  12  13
ENDBRANCH   7  12
BRANCH   4  28
ATOM     28  O   UNL     1      25.154  33.491 -15.344  1.00  0.00    -0.365 OA
ATOM     29  H   UNL     1      25.340  34.024 -14.524  1.00  0.00     0.214 HD
ENDBRANCH   4  28
BRANCH   8  30
ATOM     30  C   UNL     1      26.210  28.855 -14.989  1.00  0.00     0.249 C 
BRANCH  30  31
ATOM     31  O   UNL     1      25.486  27.734 -15.508  1.00  0.00    -0.461 OA
BRANCH  31  32
ATOM     32  C   UNL     1      24.973  26.669 -14.757  1.00  0.00     0.338 C 
ATOM     33  O   UNL     1      23.756  26.700 -14.438  1.00  0.00    -0.246 OA
BRANCH  32  34
ATOM     34  C   UNL     1      25.769  25.485 -14.384  1.00  0.00     0.060 A 
ATOM     35  C   UNL     1      26.928  25.599 -13.597  1.00  0.00     0.015 A 
ATOM     36  C   UNL     1      25.332  24.211 -14.785  1.00  0.00     0.015 A 
ATOM     37  C   UNL     1      27.647  24.454 -13.238  1.00  0.00     0.001 A 
ATOM     38  C   UNL     1      26.056  23.071 -14.427  1.00  0.00     0.001 A 
ATOM     39  C   UNL     1      27.215  23.192 -13.655  1.00  0.00     0.000 A 
ENDBRANCH  32  34
ENDBRANCH  31  32
ENDBRANCH  30  31
ENDBRANCH   8  30
TORSDOF 12
ENDMDL
MODEL 2
REMARK VINA RESULT:    -5.786      1.892      2.674
REMARK INTER + INTRA:         -10.967
REMARK INTER:                  -9.410
REMARK INTRA:                  -1.557
REMARK UNBOUND:                -1.968
REMARK SMILES C[C@]12C[C@]3(O)O[C@H](O1)[C@@]1(COC(=O)c4ccccc4)[C@@H]3C[C@]12O[C@H]1O[C@H](CO)[C@H](O)[C@@H](O)[C@@H]1O
REMARK SMILES IDX 1 1 2 2 3 3 4 4 20 5 21 6 22 7 9 8 7 9 8 10 6 11 23 12 24 13
REMARK SMILES IDX 33 14 25 15 31 16 26 17 29 18 34 19 32 21 27 23 28 24 30 26
REMARK SMILES IDX 5 28 10 30 11 31 12 32 13 33 14 34 15 35 19 36 16 37 18 38
REMARK SMILES IDX 17 39
REMARK H PARENT 34 20 32 22 28 25 30 27 5 29
REMARK Flexibility Score: inf
ROOT
ATOM      1  C   UNL     1      23.709  30.538 -12.383  1.00  0.00     0.046 C 
ATOM      2  C   UNL     1      24.856  29.787 -13.068  1.00  0.00     0.104 C 
ATOM      3  C   UNL     1      25.656  30.740 -14.026  1.00  0.00     0.104 C 
ATOM      4  C   UNL     1      26.819  29.826 -14.543  1.00  0.00     0.175 C 
ATOM      5  C   UNL     1      27.510  29.100 -13.351  1.00  0.00     0.070 C 
ATOM      6  C   UNL     1      27.208  29.748 -11.985  1.00  0.00     0.050 C 
ATOM      7  C   UNL     1      25.834  29.044 -12.069  1.00  0.00     0.115 C 
ATOM      8  C   UNL     1      26.438  28.046 -13.068  1.00  0.00     0.096 C 
ATOM      9  C   UNL     1      25.524  28.045 -14.285  1.00  0.00     0.267 C 
ATOM     10  O   UNL     1      24.357  28.754 -13.895  1.00  0.00    -0.342 OA
ATOM     11  O   UNL     1      26.206  28.788 -15.281  1.00  0.00    -0.320 OA
ENDROOT
BRANCH   7  12
ATOM     12  O   UNL     1      25.117  28.571 -10.920  1.00  0.00    -0.339 OA
BRANCH  12  13
ATOM     13  C   UNL     1      25.566  28.955  -9.628  1.00  0.00     0.282 C 
ATOM     14  C   UNL     1      26.446  27.824  -9.039  1.00  0.00     0.202 C 
ATOM     15  O   UNL     1      24.493  29.343  -8.784  1.00  0.00    -0.341 OA
ATOM     16  C   UNL     1      25.623  26.571  -8.655  1.00  0.00     0.179 C 
ATOM     17  C   UNL     1      23.873  28.320  -8.025  1.00  0.00     0.178 C 
ATOM     18  C   UNL     1      24.121  26.882  -8.559  1.00  0.00     0.177 C 
BRANCH  14  19
ATOM     19  O   UNL     1      27.132  28.296  -7.907  1.00  0.00    -0.385 OA
ATOM     20  H   UNL     1      27.105  27.577  -7.225  1.00  0.00     0.211 HD
ENDBRANCH  14  19
BRANCH  16  21
ATOM     21  O   UNL     1      25.821  25.566  -9.618  1.00  0.00    -0.387 OA
ATOM     22  H   UNL     1      26.415  25.943 -10.317  1.00  0.00     0.211 HD
ENDBRANCH  16  21
BRANCH  17  23
ATOM     23  C   UNL     1      24.255  28.508  -6.542  1.00  0.00     0.191 C 
BRANCH  23  24
ATOM     24  O   UNL     1      24.982  29.696  -6.364  1.00  0.00    -0.394 OA
ATOM     25  H   UNL     1      25.882  29.430  -6.047  1.00  0.00     0.210 HD
ENDBRANCH  23  24
ENDBRANCH  17  23
BRANCH  18  26
ATOM     26  O   UNL     1      23.487  25.922  -7.750  1.00  0.00    -0.387 OA
ATOM     27  H   UNL     1      23.426  26.300  -6.845  1.00  0.00     0.211 HD
ENDBRANCH  18  26
ENDBRANCH  12  13
ENDBRANCH   7  12
BRANCH   4  28
ATOM     28  O   UNL     1      27.749  30.532 -15.317  1.00  0.00    -0.365 OA
ATOM     29  H   UNL     1      28.117  29.892 -15.985  1.00  0.00     0.214 HD
ENDBRANCH   4  28
BRANCH   8  30
ATOM     30  C   UNL     1      26.988  26.665 -12.635  1.00  0.00     0.249 C 
BRANCH  30  31
ATOM     31  O   UNL     1      25.973  25.660 -12.733  1.00  0.00    -0.461 OA
BRANCH  31  32
ATOM     32  C   UNL     1      26.057  24.478 -13.479  1.00  0.00     0.338 C 
ATOM     33  O   UNL     1      25.934  24.556 -14.729  1.00  0.00    -0.246 OA
BRANCH  32  34
ATOM     34  C   UNL     1      26.350  23.162 -12.880  1.00  0.00     0.060 A 
ATOM     35  C   UNL     1      25.631  22.012 -13.247  1.00  0.00     0.015 A 
ATOM     36  C   UNL     1      27.404  23.049 -11.956  1.00  0.00     0.015 A 
ATOM     37  C   UNL     1      25.950  20.774 -12.680  1.00  0.00     0.001 A 
ATOM     38  C   UNL     1      27.717  21.811 -11.390  1.00  0.00     0.001 A 
ATOM     39  C   UNL     1      26.989  20.673 -11.750  1.00  0.00     0.000 A 
ENDBRANCH  32  34
ENDBRANCH  31  32
ENDBRANCH  30  31
ENDBRANCH   8  30
TORSDOF 12
ENDMDL
MODEL 3
REMARK VINA RESULT:    -5.670      2.128      4.990
REMARK INTER + INTRA:         -10.787
REMARK INTER:                  -8.835
REMARK INTRA:                  -1.952
REMARK UNBOUND:                -1.968
REMARK SMILES C[C@]12C[C@]3(O)O[C@H](O1)[C@@]1(COC(=O)c4ccccc4)[C@@H]3C[C@]12O[C@H]1O[C@H](CO)[C@H](O)[C@@H](O)[C@@H]1O
REMARK SMILES IDX 1 1 2 2 3 3 4 4 20 5 21 6 22 7 9 8 7 9 8 10 6 11 23 12 24 13
REMARK SMILES IDX 33 14 25 15 31 16 26 17 29 18 34 19 32 21 27 23 28 24 30 26
REMARK SMILES IDX 5 28 10 30 11 31 12 32 13 33 14 34 15 35 19 36 16 37 18 38
REMARK SMILES IDX 17 39
REMARK H PARENT 34 20 32 22 28 25 30 27 5 29
REMARK Flexibility Score: inf
ROOT
ATOM      1  C   UNL     1      26.236  28.974 -15.968  1.00  0.00     0.046 C 
ATOM      2  C   UNL     1      25.073  29.575 -15.171  1.00  0.00     0.104 C 
ATOM      3  C   UNL     1      24.042  30.275 -16.125  1.00  0.00     0.104 C 
ATOM      4  C   UNL     1      22.906  30.729 -15.146  1.00  0.00     0.175 C 
ATOM      5  C   UNL     1      22.487  29.551 -14.217  1.00  0.00     0.070 C 
ATOM      6  C   UNL     1      22.939  28.172 -14.739  1.00  0.00     0.050 C 
ATOM      7  C   UNL     1      24.344  28.546 -14.213  1.00  0.00     0.115 C 
ATOM      8  C   UNL     1      23.688  29.565 -13.269  1.00  0.00     0.096 C 
ATOM      9  C   UNL     1      24.392  30.894 -13.510  1.00  0.00     0.267 C 
ATOM     10  O   UNL     1      25.532  30.591 -14.301  1.00  0.00    -0.342 OA
ATOM     11  O   UNL     1      23.491  31.675 -14.275  1.00  0.00    -0.320 OA
ENDROOT
BRANCH   7  12
ATOM     12  O   UNL     1      25.277  27.585 -13.700  1.00  0.00    -0.339 OA
BRANCH  12  13
ATOM     13  C   UNL     1      25.300  26.283 -14.269  1.00  0.00     0.282 C 
ATOM     14  C   UNL     1      24.345  25.362 -13.469  1.00  0.00     0.202 C 
ATOM     15  O   UNL     1      26.620  25.774 -14.386  1.00  0.00    -0.341 OA
ATOM     16  C   UNL     1      24.886  25.028 -12.059  1.00  0.00     0.179 C 
ATOM     17  C   UNL     1      27.131  25.060 -13.273  1.00  0.00     0.178 C 
ATOM     18  C   UNL     1      26.387  25.332 -11.936  1.00  0.00     0.177 C 
BRANCH  14  19
ATOM     19  O   UNL     1      24.127  24.170 -14.180  1.00  0.00    -0.385 OA
ATOM     20  H   UNL     1      24.924  23.597 -14.044  1.00  0.00     0.211 HD
ENDBRANCH  14  19
BRANCH  16  21
ATOM     21  O   UNL     1      24.188  25.781 -11.097  1.00  0.00    -0.387 OA
ATOM     22  H   UNL     1      24.119  25.223 -10.281  1.00  0.00     0.211 HD
ENDBRANCH  16  21
BRANCH  17  23
ATOM     23  C   UNL     1      27.215  23.565 -13.646  1.00  0.00     0.191 C 
BRANCH  23  24
ATOM     24  O   UNL     1      26.900  23.374 -15.001  1.00  0.00    -0.394 OA
ATOM     25  H   UNL     1      26.173  24.012 -15.214  1.00  0.00     0.210 HD
ENDBRANCH  23  24
ENDBRANCH  17  23
BRANCH  18  26
ATOM     26  O   UNL     1      26.941  24.581 -10.884  1.00  0.00    -0.387 OA
ATOM     27  H   UNL     1      26.273  23.908 -10.626  1.00  0.00     0.211 HD
ENDBRANCH  18  26
ENDBRANCH  12  13
ENDBRANCH   7  12
BRANCH   4  28
ATOM     28  O   UNL     1      21.799  31.261 -15.822  1.00  0.00    -0.365 OA
ATOM     29  H   UNL     1      22.150  31.929 -16.472  1.00  0.00     0.214 HD
ENDBRANCH   4  28
BRANCH   8  30
ATOM     30  C   UNL     1      23.351  29.237 -11.794  1.00  0.00     0.249 C 
BRANCH  30  31
ATOM     31  O   UNL     1      24.348  29.769 -10.914  1.00  0.00    -0.461 OA
BRANCH  31  32
ATOM     32  C   UNL     1      25.519  29.117 -10.509  1.00  0.00     0.338 C 
ATOM     33  O   UNL     1      25.407  28.065  -9.828  1.00  0.00    -0.246 OA
BRANCH  32  34
ATOM     34  C   UNL     1      26.869  29.563 -10.901  1.00  0.00     0.060 A 
ATOM     35  C   UNL     1      27.598  30.471 -10.115  1.00  0.00     0.015 A 
ATOM     36  C   UNL     1      27.458  29.030 -12.061  1.00  0.00     0.015 A 
ATOM     37  C   UNL     1      28.888  30.855 -10.500  1.00  0.00     0.001 A 
ATOM     38  C   UNL     1      28.743  29.419 -12.444  1.00  0.00     0.001 A 
ATOM     39  C   UNL     1      29.458  30.333 -11.664  1.00  0.00     0.000 A 
ENDBRANCH  32  34
ENDBRANCH  31  32
ENDBRANCH  30  31
ENDBRANCH   8  30
TORSDOF 12
ENDMDL
MODEL 4
REMARK VINA RESULT:    -5.645      2.887      6.399
REMARK INTER + INTRA:         -10.748
REMARK INTER:                  -9.448
REMARK INTRA:                  -1.300
REMARK UNBOUND:                -1.968
REMARK SMILES C[C@]12C[C@]3(O)O[C@H](O1)[C@@]1(COC(=O)c4ccccc4)[C@@H]3C[C@]12O[C@H]1O[C@H](CO)[C@H](O)[C@@H](O)[C@@H]1O
REMARK SMILES IDX 1 1 2 2 3 3 4 4 20 5 21 6 22 7 9 8 7 9 8 10 6 11 23 12 24 13
REMARK SMILES IDX 33 14 25 15 31 16 26 17 29 18 34 19 32 21 27 23 28 24 30 26
REMARK SMILES IDX 5 28 10 30 11 31 12 32 13 33 14 34 15 35 19 36 16 37 18 38
REMARK SMILES IDX 17 39
REMARK H PARENT 34 20 32 22 28 25 30 27 5 29
REMARK Flexibility Score: inf
ROOT
ATOM      1  C   UNL     1      24.455  24.057 -15.356  1.00  0.00     0.046 C 
ATOM      2  C   UNL     1      24.734  25.435 -14.744  1.00  0.00     0.104 C 
ATOM      3  C   UNL     1      23.541  26.419 -15.012  1.00  0.00     0.104 C 
ATOM      4  C   UNL     1      23.969  27.713 -14.240  1.00  0.00     0.175 C 
ATOM      5  C   UNL     1      24.423  27.356 -12.793  1.00  0.00     0.070 C 
ATOM      6  C   UNL     1      23.951  25.962 -12.333  1.00  0.00     0.050 C 
ATOM      7  C   UNL     1      25.097  25.398 -13.204  1.00  0.00     0.115 C 
ATOM      8  C   UNL     1      25.795  26.764 -13.120  1.00  0.00     0.096 C 
ATOM      9  C   UNL     1      26.099  27.184 -14.551  1.00  0.00     0.267 C 
ATOM     10  O   UNL     1      25.861  26.035 -15.351  1.00  0.00    -0.342 OA
ATOM     11  O   UNL     1      25.143  28.179 -14.873  1.00  0.00    -0.320 OA
ENDROOT
BRANCH   7  12
ATOM     12  O   UNL     1      25.817  24.200 -12.883  1.00  0.00    -0.339 OA
BRANCH  12  13
ATOM     13  C   UNL     1      25.084  23.044 -12.501  1.00  0.00     0.282 C 
ATOM     14  C   UNL     1      25.071  22.938 -10.955  1.00  0.00     0.202 C 
ATOM     15  O   UNL     1      25.558  21.874 -13.150  1.00  0.00    -0.341 OA
ATOM     16  C   UNL     1      26.454  22.561 -10.375  1.00  0.00     0.179 C 
ATOM     17  C   UNL     1      26.599  21.160 -12.504  1.00  0.00     0.178 C 
ATOM     18  C   UNL     1      27.388  21.986 -11.451  1.00  0.00     0.177 C 
BRANCH  14  19
ATOM     19  O   UNL     1      24.120  21.986 -10.551  1.00  0.00    -0.385 OA
ATOM     20  H   UNL     1      24.282  21.165 -11.082  1.00  0.00     0.211 HD
ENDBRANCH  14  19
BRANCH  16  21
ATOM     21  O   UNL     1      27.054  23.701  -9.811  1.00  0.00    -0.387 OA
ATOM     22  H   UNL     1      27.023  23.592  -8.826  1.00  0.00     0.211 HD
ENDBRANCH  16  21
BRANCH  17  23
ATOM     23  C   UNL     1      26.021  19.839 -11.954  1.00  0.00     0.191 C 
BRANCH  23  24
ATOM     24  O   UNL     1      27.031  18.872 -11.823  1.00  0.00    -0.394 OA
ATOM     25  H   UNL     1      26.697  18.202 -11.174  1.00  0.00     0.210 HD
ENDBRANCH  23  24
ENDBRANCH  17  23
BRANCH  18  26
ATOM     26  O   UNL     1      28.393  21.211 -10.845  1.00  0.00    -0.387 OA
ATOM     27  H   UNL     1      28.229  20.275 -11.097  1.00  0.00     0.211 HD
ENDBRANCH  18  26
ENDBRANCH  12  13
ENDBRANCH   7  12
BRANCH   4  28
ATOM     28  O   UNL     1      22.963  28.688 -14.231  1.00  0.00    -0.365 OA
ATOM     29  H   UNL     1      23.136  29.277 -13.447  1.00  0.00     0.214 HD
ENDBRANCH   4  28
BRANCH   8  30
ATOM     30  C   UNL     1      26.896  27.073 -12.076  1.00  0.00     0.249 C 
BRANCH  30  31
ATOM     31  O   UNL     1      27.757  28.120 -12.539  1.00  0.00    -0.461 OA
BRANCH  31  32
ATOM     32  C   UNL     1      27.717  29.458 -12.127  1.00  0.00     0.338 C 
ATOM     33  O   UNL     1      28.674  29.894 -11.435  1.00  0.00    -0.246 OA
BRANCH  32  34
ATOM     34  C   UNL     1      26.649  30.395 -12.522  1.00  0.00     0.060 A 
ATOM     35  C   UNL     1      26.544  30.875 -13.838  1.00  0.00     0.015 A 
ATOM     36  C   UNL     1      25.686  30.778 -11.572  1.00  0.00     0.015 A 
ATOM     37  C   UNL     1      25.504  31.743 -14.188  1.00  0.00     0.001 A 
ATOM     38  C   UNL     1      24.652  31.648 -11.924  1.00  0.00     0.001 A 
ATOM     39  C   UNL     1      24.561  32.132 -13.232  1.00  0.00     0.000 A 
ENDBRANCH  32  34
ENDBRANCH  31  32
ENDBRANCH  30  31
ENDBRANCH   8  30
TORSDOF 12
ENDMDL
MODEL 5
REMARK VINA RESULT:    -5.593      2.385      5.639
REMARK INTER + INTRA:         -10.668
REMARK INTER:                  -8.530
REMARK INTRA:                  -2.138
REMARK UNBOUND:                -1.968
REMARK SMILES C[C@]12C[C@]3(O)O[C@H](O1)[C@@]1(COC(=O)c4ccccc4)[C@@H]3C[C@]12O[C@H]1O[C@H](CO)[C@H](O)[C@@H](O)[C@@H]1O
REMARK SMILES IDX 1 1 2 2 3 3 4 4 20 5 21 6 22 7 9 8 7 9 8 10 6 11 23 12 24 13
REMARK SMILES IDX 33 14 25 15 31 16 26 17 29 18 34 19 32 21 27 23 28 24 30 26
REMARK SMILES IDX 5 28 10 30 11 31 12 32 13 33 14 34 15 35 19 36 16 37 18 38
REMARK SMILES IDX 17 39
REMARK H PARENT 34 20 32 22 28 25 30 27 5 29
REMARK Flexibility Score: inf
ROOT
ATOM      1  C   UNL     1      24.054  26.999 -11.542  1.00  0.00     0.046 C 
ATOM      2  C   UNL     1      24.764  26.804 -12.886  1.00  0.00     0.104 C 
ATOM      3  C   UNL     1      24.742  25.295 -13.317  1.00  0.00     0.104 C 
ATOM      4  C   UNL     1      25.418  25.321 -14.731  1.00  0.00     0.175 C 
ATOM      5  C   UNL     1      24.780  26.432 -15.617  1.00  0.00     0.070 C 
ATOM      6  C   UNL     1      23.414  26.920 -15.093  1.00  0.00     0.050 C 
ATOM      7  C   UNL     1      24.218  27.729 -14.049  1.00  0.00     0.115 C 
ATOM      8  C   UNL     1      25.443  27.651 -14.973  1.00  0.00     0.096 C 
ATOM      9  C   UNL     1      26.587  27.106 -14.130  1.00  0.00     0.267 C 
ATOM     10  O   UNL     1      26.133  27.147 -12.785  1.00  0.00    -0.342 OA
ATOM     11  O   UNL     1      26.747  25.754 -14.524  1.00  0.00    -0.320 OA
ENDROOT
BRANCH   7  12
ATOM     12  O   UNL     1      23.787  28.994 -13.528  1.00  0.00    -0.339 OA
BRANCH  12  13
ATOM     13  C   UNL     1      22.440  29.395 -13.733  1.00  0.00     0.282 C 
ATOM     14  C   UNL     1      22.409  30.899 -14.106  1.00  0.00     0.202 C 
ATOM     15  O   UNL     1      21.610  29.062 -12.631  1.00  0.00    -0.341 OA
ATOM     16  C   UNL     1      22.762  31.814 -12.910  1.00  0.00     0.179 C 
ATOM     17  C   UNL     1      21.508  30.022 -11.593  1.00  0.00     0.178 C 
ATOM     18  C   UNL     1      22.655  31.070 -11.570  1.00  0.00     0.177 C 
BRANCH  14  19
ATOM     19  O   UNL     1      21.137  31.242 -14.596  1.00  0.00    -0.385 OA
ATOM     20  H   UNL     1      21.273  31.847 -15.369  1.00  0.00     0.211 HD
ENDBRANCH  14  19
BRANCH  16  21
ATOM     21  O   UNL     1      24.074  32.298 -13.060  1.00  0.00    -0.387 OA
ATOM     22  H   UNL     1      24.642  31.815 -12.407  1.00  0.00     0.211 HD
ENDBRANCH  16  21
BRANCH  17  23
ATOM     23  C   UNL     1      20.097  30.646 -11.637  1.00  0.00     0.191 C 
BRANCH  23  24
ATOM     24  O   UNL     1      19.298  29.996 -12.593  1.00  0.00    -0.394 OA
ATOM     25  H   UNL     1      19.902  29.728 -13.330  1.00  0.00     0.210 HD
ENDBRANCH  23  24
ENDBRANCH  17  23
BRANCH  18  26
ATOM     26  O   UNL     1      22.480  31.993 -10.524  1.00  0.00    -0.387 OA
ATOM     27  H   UNL     1      22.888  32.839 -10.814  1.00  0.00     0.211 HD
ENDBRANCH  18  26
ENDBRANCH  12  13
ENDBRANCH   7  12
BRANCH   4  28
ATOM     28  O   UNL     1      25.372  24.074 -15.368  1.00  0.00    -0.365 OA
ATOM     29  H   UNL     1      24.936  23.440 -14.735  1.00  0.00     0.214 HD
ENDBRANCH   4  28
BRANCH   8  30
ATOM     30  C   UNL     1      25.811  28.783 -15.962  1.00  0.00     0.249 C 
BRANCH  30  31
ATOM     31  O   UNL     1      26.890  29.575 -15.451  1.00  0.00    -0.461 OA
BRANCH  31  32
ATOM     32  C   UNL     1      26.788  30.562 -14.463  1.00  0.00     0.338 C 
ATOM     33  O   UNL     1      26.091  31.580 -14.713  1.00  0.00    -0.246 OA
BRANCH  32  34
ATOM     34  C   UNL     1      27.396  30.435 -13.126  1.00  0.00     0.060 A 
ATOM     35  C   UNL     1      26.610  30.421 -11.961  1.00  0.00     0.015 A 
ATOM     36  C   UNL     1      28.788  30.276 -13.018  1.00  0.00     0.015 A 
ATOM     37  C   UNL     1      27.215  30.272 -10.708  1.00  0.00     0.001 A 
ATOM     38  C   UNL     1      29.388  30.132 -11.765  1.00  0.00     0.001 A 
ATOM     39  C   UNL     1      28.602  30.132 -10.609  1.00  0.00     0.000 A 
ENDBRANCH  32  34
ENDBRANCH  31  32
ENDBRANCH  30  31
ENDBRANCH   8  30
TORSDOF 12
ENDMDL
MODEL 6
REMARK VINA RESULT:    -5.579      2.390      6.126
REMARK INTER + INTRA:         -10.646
REMARK INTER:                  -9.609
REMARK INTRA:                  -1.037
REMARK UNBOUND:                -1.968
REMARK SMILES C[C@]12C[C@]3(O)O[C@H](O1)[C@@]1(COC(=O)c4ccccc4)[C@@H]3C[C@]12O[C@H]1O[C@H](CO)[C@H](O)[C@@H](O)[C@@H]1O
REMARK SMILES IDX 1 1 2 2 3 3 4 4 20 5 21 6 22 7 9 8 7 9 8 10 6 11 23 12 24 13
REMARK SMILES IDX 33 14 25 15 31 16 26 17 29 18 34 19 32 21 27 23 28 24 30 26
REMARK SMILES IDX 5 28 10 30 11 31 12 32 13 33 14 34 15 35 19 36 16 37 18 38
REMARK SMILES IDX 17 39
REMARK H PARENT 34 20 32 22 28 25 30 27 5 29
REMARK Flexibility Score: inf
ROOT
ATOM      1  C   UNL     1      26.581  25.130 -12.170  1.00  0.00     0.046 C 
ATOM      2  C   UNL     1      25.639  25.545 -13.306  1.00  0.00     0.104 C 
ATOM      3  C   UNL     1      24.298  24.731 -13.246  1.00  0.00     0.104 C 
ATOM      4  C   UNL     1      23.452  25.357 -14.407  1.00  0.00     0.175 C 
ATOM      5  C   UNL     1      23.467  26.912 -14.311  1.00  0.00     0.070 C 
ATOM      6  C   UNL     1      23.908  27.433 -12.929  1.00  0.00     0.050 C 
ATOM      7  C   UNL     1      25.350  27.100 -13.375  1.00  0.00     0.115 C 
ATOM      8  C   UNL     1      24.883  27.163 -14.837  1.00  0.00     0.096 C 
ATOM      9  C   UNL     1      25.321  25.859 -15.488  1.00  0.00     0.267 C 
ATOM     10  O   UNL     1      26.208  25.243 -14.565  1.00  0.00    -0.342 OA
ATOM     11  O   UNL     1      24.149  25.070 -15.602  1.00  0.00    -0.320 OA
ENDROOT
BRANCH   7  12
ATOM     12  O   UNL     1      26.500  27.846 -12.952  1.00  0.00    -0.339 OA
BRANCH  12  13
ATOM     13  C   UNL     1      26.322  28.913 -12.031  1.00  0.00     0.282 C 
ATOM     14  C   UNL     1      26.326  30.256 -12.802  1.00  0.00     0.202 C 
ATOM     15  O   UNL     1      27.261  28.861 -10.968  1.00  0.00    -0.341 OA
ATOM     16  C   UNL     1      27.727  30.625 -13.344  1.00  0.00     0.179 C 
ATOM     17  C   UNL     1      28.495  29.530 -11.170  1.00  0.00     0.178 C 
ATOM     18  C   UNL     1      28.837  29.814 -12.658  1.00  0.00     0.177 C 
BRANCH  14  19
ATOM     19  O   UNL     1      25.864  31.286 -11.966  1.00  0.00    -0.385 OA
ATOM     20  H   UNL     1      25.174  30.895 -11.371  1.00  0.00     0.211 HD
ENDBRANCH  14  19
BRANCH  16  21
ATOM     21  O   UNL     1      27.774  30.383 -14.729  1.00  0.00    -0.387 OA
ATOM     22  H   UNL     1      28.494  29.721 -14.887  1.00  0.00     0.211 HD
ENDBRANCH  16  21
BRANCH  17  23
ATOM     23  C   UNL     1      28.524  30.786 -10.274  1.00  0.00     0.191 C 
BRANCH  23  24
ATOM     24  O   UNL     1      27.777  30.578  -9.103  1.00  0.00    -0.394 OA
ATOM     25  H   UNL     1      27.902  31.385  -8.542  1.00  0.00     0.210 HD
ENDBRANCH  23  24
ENDBRANCH  17  23
BRANCH  18  26
ATOM     26  O   UNL     1      30.065  30.489 -12.779  1.00  0.00    -0.387 OA
ATOM     27  H   UNL     1      30.464  30.527 -11.881  1.00  0.00     0.211 HD
ENDBRANCH  18  26
ENDBRANCH  12  13
ENDBRANCH   7  12
BRANCH   4  28
ATOM     28  O   UNL     1      22.142  24.863 -14.440  1.00  0.00    -0.365 OA
ATOM     29  H   UNL     1      21.715  25.226 -15.263  1.00  0.00     0.214 HD
ENDBRANCH   4  28
BRANCH   8  30
ATOM     30  C   UNL     1      25.033  28.436 -15.704  1.00  0.00     0.249 C 
BRANCH  30  31
ATOM     31  O   UNL     1      23.797  29.156 -15.769  1.00  0.00    -0.461 OA
BRANCH  31  32
ATOM     32  C   UNL     1      23.553  30.420 -15.216  1.00  0.00     0.338 C 
ATOM     33  O   UNL     1      24.359  31.349 -15.482  1.00  0.00    -0.246 OA
BRANCH  32  34
ATOM     34  C   UNL     1      22.365  30.730 -14.400  1.00  0.00     0.060 A 
ATOM     35  C   UNL     1      21.084  30.819 -14.972  1.00  0.00     0.015 A 
ATOM     36  C   UNL     1      22.509  30.893 -13.011  1.00  0.00     0.015 A 
ATOM     37  C   UNL     1      19.972  31.089 -14.167  1.00  0.00     0.001 A 
ATOM     38  C   UNL     1      21.398  31.166 -12.211  1.00  0.00     0.001 A 
ATOM     39  C   UNL     1      20.129  31.266 -12.789  1.00  0.00     0.000 A 
ENDBRANCH  32  34
ENDBRANCH  31  32
ENDBRANCH  30  31
ENDBRANCH   8  30
TORSDOF 12
ENDMDL
MODEL 7
REMARK VINA RESULT:    -5.547      2.843      6.146
REMARK INTER + INTRA:         -10.596
REMARK INTER:                  -8.922
REMARK INTRA:                  -1.673
REMARK UNBOUND:                -1.968
REMARK SMILES C[C@]12C[C@]3(O)O[C@H](O1)[C@@]1(COC(=O)c4ccccc4)[C@@H]3C[C@]12O[C@H]1O[C@H](CO)[C@H](O)[C@@H](O)[C@@H]1O
REMARK SMILES IDX 1 1 2 2 3 3 4 4 20 5 21 6 22 7 9 8 7 9 8 10 6 11 23 12 24 13
REMARK SMILES IDX 33 14 25 15 31 16 26 17 29 18 34 19 32 21 27 23 28 24 30 26
REMARK SMILES IDX 5 28 10 30 11 31 12 32 13 33 14 34 15 35 19 36 16 37 18 38
REMARK SMILES IDX 17 39
REMARK H PARENT 34 20 32 22 28 25 30 27 5 29
REMARK Flexibility Score: inf
ROOT
ATOM      1  C   UNL     1      24.020  26.345 -15.058  1.00  0.00     0.046 C 
ATOM      2  C   UNL     1      24.652  25.334 -14.093  1.00  0.00     0.104 C 
ATOM      3  C   UNL     1      25.138  24.055 -14.862  1.00  0.00     0.104 C 
ATOM      4  C   UNL     1      25.825  23.206 -13.738  1.00  0.00     0.175 C 
ATOM      5  C   UNL     1      26.811  24.090 -12.917  1.00  0.00     0.070 C 
ATOM      6  C   UNL     1      27.199  25.398 -13.635  1.00  0.00     0.050 C 
ATOM      7  C   UNL     1      25.814  25.929 -13.199  1.00  0.00     0.115 C 
ATOM      8  C   UNL     1      25.789  24.869 -12.088  1.00  0.00     0.096 C 
ATOM      9  C   UNL     1      24.473  24.118 -12.236  1.00  0.00     0.267 C 
ATOM     10  O   UNL     1      23.698  24.871 -13.157  1.00  0.00    -0.342 OA
ATOM     11  O   UNL     1      24.805  22.870 -12.820  1.00  0.00    -0.320 OA
ENDROOT
BRANCH   7  12
ATOM     12  O   UNL     1      25.558  27.306 -12.889  1.00  0.00    -0.339 OA
BRANCH  12  13
ATOM     13  C   UNL     1      26.343  28.307 -13.522  1.00  0.00     0.282 C 
ATOM     14  C   UNL     1      27.344  28.893 -12.495  1.00  0.00     0.202 C 
ATOM     15  O   UNL     1      25.541  29.288 -14.162  1.00  0.00    -0.341 OA
ATOM     16  C   UNL     1      26.651  29.762 -11.420  1.00  0.00     0.179 C 
ATOM     17  C   UNL     1      25.145  30.402 -13.379  1.00  0.00     0.178 C 
ATOM     18  C   UNL     1      25.233  30.174 -11.845  1.00  0.00     0.177 C 
BRANCH  14  19
ATOM     19  O   UNL     1      28.315  29.661 -13.161  1.00  0.00    -0.385 OA
ATOM     20  H   UNL     1      27.967  30.587 -13.221  1.00  0.00     0.211 HD
ENDBRANCH  14  19
BRANCH  16  21
ATOM     21  O   UNL     1      26.575  29.043 -10.213  1.00  0.00    -0.387 OA
ATOM     22  H   UNL     1      26.599  29.706  -9.475  1.00  0.00     0.211 HD
ENDBRANCH  16  21
BRANCH  17  23
ATOM     23  C   UNL     1      25.917  31.645 -13.869  1.00  0.00     0.191 C 
BRANCH  23  24
ATOM     24  O   UNL     1      26.686  31.337 -15.003  1.00  0.00    -0.394 OA
ATOM     25  H   UNL     1      26.206  31.717 -15.781  1.00  0.00     0.210 HD
ENDBRANCH  23  24
ENDBRANCH  17  23
BRANCH  18  26
ATOM     26  O   UNL     1      24.838  31.323 -11.136  1.00  0.00    -0.387 OA
ATOM     27  H   UNL     1      25.299  31.301 -10.269  1.00  0.00     0.211 HD
ENDBRANCH  18  26
ENDBRANCH  12  13
ENDBRANCH   7  12
BRANCH   4  28
ATOM     28  O   UNL     1      26.464  22.067 -14.244  1.00  0.00    -0.365 OA
ATOM     29  H   UNL     1      26.029  21.278 -13.819  1.00  0.00     0.214 HD
ENDBRANCH   4  28
BRANCH   8  30
ATOM     30  C   UNL     1      26.233  25.175 -10.637  1.00  0.00     0.249 C 
BRANCH  30  31
ATOM     31  O   UNL     1      25.745  24.176  -9.734  1.00  0.00    -0.461 OA
BRANCH  31  32
ATOM     32  C   UNL     1      26.432  23.022  -9.336  1.00  0.00     0.338 C 
ATOM     33  O   UNL     1      27.114  23.073  -8.279  1.00  0.00    -0.246 OA
BRANCH  32  34
ATOM     34  C   UNL     1      26.340  21.738 -10.054  1.00  0.00     0.060 A 
ATOM     35  C   UNL     1      25.187  20.937  -9.979  1.00  0.00     0.015 A 
ATOM     36  C   UNL     1      27.410  21.328 -10.868  1.00  0.00     0.015 A 
ATOM     37  C   UNL     1      25.120  19.735 -10.693  1.00  0.00     0.001 A 
ATOM     38  C   UNL     1      27.340  20.126 -11.576  1.00  0.00     0.001 A 
ATOM     39  C   UNL     1      26.196  19.328 -11.487  1.00  0.00     0.000 A 
ENDBRANCH  32  34
ENDBRANCH  31  32
ENDBRANCH  30  31
ENDBRANCH   8  30
TORSDOF 12
ENDMDL
MODEL 8
REMARK VINA RESULT:    -5.543      2.456      5.460
REMARK INTER + INTRA:         -10.590
REMARK INTER:                  -9.267
REMARK INTRA:                  -1.323
REMARK UNBOUND:                -1.968
REMARK SMILES C[C@]12C[C@]3(O)O[C@H](O1)[C@@]1(COC(=O)c4ccccc4)[C@@H]3C[C@]12O[C@H]1O[C@H](CO)[C@H](O)[C@@H](O)[C@@H]1O
REMARK SMILES IDX 1 1 2 2 3 3 4 4 20 5 21 6 22 7 9 8 7 9 8 10 6 11 23 12 24 13
REMARK SMILES IDX 33 14 25 15 31 16 26 17 29 18 34 19 32 21 27 23 28 24 30 26
REMARK SMILES IDX 5 28 10 30 11 31 12 32 13 33 14 34 15 35 19 36 16 37 18 38
REMARK SMILES IDX 17 39
REMARK H PARENT 34 20 32 22 28 25 30 27 5 29
REMARK Flexibility Score: inf
ROOT
ATOM      1  C   UNL     1      22.630  28.082 -12.801  1.00  0.00     0.046 C 
ATOM      2  C   UNL     1      23.238  26.804 -13.389  1.00  0.00     0.104 C 
ATOM      3  C   UNL     1      22.179  26.020 -14.241  1.00  0.00     0.104 C 
ATOM      4  C   UNL     1      23.007  24.823 -14.821  1.00  0.00     0.175 C 
ATOM      5  C   UNL     1      24.338  25.336 -15.446  1.00  0.00     0.070 C 
ATOM      6  C   UNL     1      24.331  26.850 -15.735  1.00  0.00     0.050 C 
ATOM      7  C   UNL     1      24.565  27.039 -14.219  1.00  0.00     0.115 C 
ATOM      8  C   UNL     1      25.112  25.605 -14.154  1.00  0.00     0.096 C 
ATOM      9  C   UNL     1      24.339  24.897 -13.050  1.00  0.00     0.267 C 
ATOM     10  O   UNL     1      23.628  25.914 -12.360  1.00  0.00    -0.342 OA
ATOM     11  O   UNL     1      23.413  24.050 -13.710  1.00  0.00    -0.320 OA
ENDROOT
BRANCH   7  12
ATOM     12  O   UNL     1      25.321  28.125 -13.666  1.00  0.00    -0.339 OA
BRANCH  12  13
ATOM     13  C   UNL     1      25.587  29.258 -14.481  1.00  0.00     0.282 C 
ATOM     14  C   UNL     1      26.926  29.900 -14.037  1.00  0.00     0.202 C 
ATOM     15  O   UNL     1      24.498  30.168 -14.502  1.00  0.00    -0.341 OA
ATOM     16  C   UNL     1      26.822  30.600 -12.662  1.00  0.00     0.179 C 
ATOM     17  C   UNL     1      24.478  31.168 -13.497  1.00  0.00     0.178 C 
ATOM     18  C   UNL     1      25.361  30.853 -12.259  1.00  0.00     0.177 C 
BRANCH  14  19
ATOM     19  O   UNL     1      27.352  30.828 -15.003  1.00  0.00    -0.385 OA
ATOM     20  H   UNL     1      26.844  30.642 -15.834  1.00  0.00     0.211 HD
ENDBRANCH  14  19
BRANCH  16  21
ATOM     21  O   UNL     1      27.435  29.801 -11.681  1.00  0.00    -0.387 OA
ATOM     22  H   UNL     1      26.904  29.897 -10.849  1.00  0.00     0.211 HD
ENDBRANCH  16  21
BRANCH  17  23
ATOM     23  C   UNL     1      24.787  32.529 -14.154  1.00  0.00     0.191 C 
BRANCH  23  24
ATOM     24  O   UNL     1      24.787  32.417 -15.554  1.00  0.00    -0.394 OA
ATOM     25  H   UNL     1      25.364  33.146 -15.895  1.00  0.00     0.210 HD
ENDBRANCH  23  24
ENDBRANCH  17  23
BRANCH  18  26
ATOM     26  O   UNL     1      25.301  31.892 -11.314  1.00  0.00    -0.387 OA
ATOM     27  H   UNL     1      25.845  32.633 -11.662  1.00  0.00     0.211 HD
ENDBRANCH  18  26
ENDBRANCH  12  13
ENDBRANCH   7  12
BRANCH   4  28
ATOM     28  O   UNL     1      22.273  24.062 -15.741  1.00  0.00    -0.365 OA
ATOM     29  H   UNL     1      21.321  24.339 -15.653  1.00  0.00     0.214 HD
ENDBRANCH   4  28
BRANCH   8  30
ATOM     30  C   UNL     1      26.625  25.288 -14.229  1.00  0.00     0.249 C 
BRANCH  30  31
ATOM     31  O   UNL     1      27.094  24.747 -12.989  1.00  0.00    -0.461 OA
BRANCH  31  32
ATOM     32  C   UNL     1      27.759  23.525 -12.825  1.00  0.00     0.338 C 
ATOM     33  O   UNL     1      28.985  23.475 -13.105  1.00  0.00    -0.246 OA
BRANCH  32  34
ATOM     34  C   UNL     1      27.111  22.320 -12.275  1.00  0.00     0.060 A 
ATOM     35  C   UNL     1      26.129  21.621 -12.997  1.00  0.00     0.015 A 
ATOM     36  C   UNL     1      27.520  21.832 -11.022  1.00  0.00     0.015 A 
ATOM     37  C   UNL     1      25.551  20.465 -12.459  1.00  0.00     0.001 A 
ATOM     38  C   UNL     1      26.938  20.681 -10.487  1.00  0.00     0.001 A 
ATOM     39  C   UNL     1      25.953  19.998 -11.205  1.00  0.00     0.000 A 
ENDBRANCH  32  34
ENDBRANCH  31  32
ENDBRANCH  30  31
ENDBRANCH   8  30
TORSDOF 12
ENDMDL
MODEL 9
REMARK VINA RESULT:    -5.501      1.786      6.232
REMARK INTER + INTRA:         -10.524
REMARK INTER:                  -8.470
REMARK INTRA:                  -2.054
REMARK UNBOUND:                -1.968
REMARK SMILES C[C@]12C[C@]3(O)O[C@H](O1)[C@@]1(COC(=O)c4ccccc4)[C@@H]3C[C@]12O[C@H]1O[C@H](CO)[C@H](O)[C@@H](O)[C@@H]1O
REMARK SMILES IDX 1 1 2 2 3 3 4 4 20 5 21 6 22 7 9 8 7 9 8 10 6 11 23 12 24 13
REMARK SMILES IDX 33 14 25 15 31 16 26 17 29 18 34 19 32 21 27 23 28 24 30 26
REMARK SMILES IDX 5 28 10 30 11 31 12 32 13 33 14 34 15 35 19 36 16 37 18 38
REMARK SMILES IDX 17 39
REMARK H PARENT 34 20 32 22 28 25 30 27 5 29
REMARK Flexibility Score: inf
ROOT
ATOM      1  C   UNL     1      23.075  26.863 -15.326  1.00  0.00     0.046 C 
ATOM      2  C   UNL     1      24.172  26.158 -14.520  1.00  0.00     0.104 C 
ATOM      3  C   UNL     1      24.755  24.938 -15.317  1.00  0.00     0.104 C 
ATOM      4  C   UNL     1      25.903  24.422 -14.383  1.00  0.00     0.175 C 
ATOM      5  C   UNL     1      26.807  25.607 -13.929  1.00  0.00     0.070 C 
ATOM      6  C   UNL     1      26.646  26.866 -14.804  1.00  0.00     0.050 C 
ATOM      7  C   UNL     1      25.333  27.115 -14.028  1.00  0.00     0.115 C 
ATOM      8  C   UNL     1      25.869  26.230 -12.893  1.00  0.00     0.096 C 
ATOM      9  C   UNL     1      24.799  25.183 -12.618  1.00  0.00     0.267 C 
ATOM     10  O   UNL     1      23.645  25.612 -13.326  1.00  0.00    -0.342 OA
ATOM     11  O   UNL     1      25.277  23.980 -13.196  1.00  0.00    -0.320 OA
ENDROOT
BRANCH   7  12
ATOM     12  O   UNL     1      24.821  28.424 -13.741  1.00  0.00    -0.339 OA
BRANCH  12  13
ATOM     13  C   UNL     1      25.181  29.501 -14.595  1.00  0.00     0.282 C 
ATOM     14  C   UNL     1      26.414  30.228 -14.002  1.00  0.00     0.202 C 
ATOM     15  O   UNL     1      24.084  30.361 -14.860  1.00  0.00    -0.341 OA
ATOM     16  C   UNL     1      26.074  31.027 -12.722  1.00  0.00     0.179 C 
ATOM     17  C   UNL     1      23.877  31.434 -13.956  1.00  0.00     0.178 C 
ATOM     18  C   UNL     1      24.561  31.250 -12.573  1.00  0.00     0.177 C 
BRANCH  14  19
ATOM     19  O   UNL     1      26.961  31.097 -14.962  1.00  0.00    -0.385 OA
ATOM     20  H   UNL     1      27.828  31.420 -14.606  1.00  0.00     0.211 HD
ENDBRANCH  14  19
BRANCH  16  21
ATOM     21  O   UNL     1      26.546  30.330 -11.594  1.00  0.00    -0.387 OA
ATOM     22  H   UNL     1      26.429  29.363 -11.778  1.00  0.00     0.211 HD
ENDBRANCH  16  21
BRANCH  17  23
ATOM     23  C   UNL     1      24.248  32.753 -14.665  1.00  0.00     0.191 C 
BRANCH  23  24
ATOM     24  O   UNL     1      24.337  32.561 -16.054  1.00  0.00    -0.394 OA
ATOM     25  H   UNL     1      25.264  32.798 -16.312  1.00  0.00     0.210 HD
ENDBRANCH  23  24
ENDBRANCH  17  23
BRANCH  18  26
ATOM     26  O   UNL     1      24.323  32.356 -11.737  1.00  0.00    -0.387 OA
ATOM     27  H   UNL     1      23.495  32.170 -11.240  1.00  0.00     0.211 HD
ENDBRANCH  18  26
ENDBRANCH  12  13
ENDBRANCH   7  12
BRANCH   4  28
ATOM     28  O   UNL     1      26.660  23.405 -14.979  1.00  0.00    -0.365 OA
ATOM     29  H   UNL     1      26.325  22.541 -14.614  1.00  0.00     0.214 HD
ENDBRANCH   4  28
BRANCH   8  30
ATOM     30  C   UNL     1      26.579  26.813 -11.647  1.00  0.00     0.249 C 
BRANCH  30  31
ATOM     31  O   UNL     1      25.694  26.839 -10.522  1.00  0.00    -0.461 OA
BRANCH  31  32
ATOM     32  C   UNL     1      25.280  27.983  -9.828  1.00  0.00     0.338 C 
ATOM     33  O   UNL     1      26.113  28.554  -9.077  1.00  0.00    -0.246 OA
BRANCH  32  34
ATOM     34  C   UNL     1      23.945  28.588  -9.989  1.00  0.00     0.060 A 
ATOM     35  C   UNL     1      23.560  29.721  -9.252  1.00  0.00     0.015 A 
ATOM     36  C   UNL     1      23.057  28.048 -10.935  1.00  0.00     0.015 A 
ATOM     37  C   UNL     1      22.295  30.288  -9.446  1.00  0.00     0.001 A 
ATOM     38  C   UNL     1      21.794  28.615 -11.123  1.00  0.00     0.001 A 
ATOM     39  C   UNL     1      21.412  29.733 -10.377  1.00  0.00     0.000 A 
ENDBRANCH  32  34
ENDBRANCH  31  32
ENDBRANCH  30  31
ENDBRANCH   8  30
TORSDOF 12
ENDMDL
