MODEL 1
REMARK VINA RESULT:    -3.759      0.000      0.000
REMARK INTER + INTRA:          -4.911
REMARK INTER:                  -4.638
REMARK INTRA:                  -0.273
REMARK UNBOUND:                -0.273
REMARK SMILES C=CCc1ccc(OC)c(OC)c1
REMARK SMILES IDX 7 1 10 2 13 3 4 4 5 5 6 6 8 7 9 8 11 9 12 10 3 11 2 12 1 13
REMARK H PARENT
REMARK Flexibility Score: inf
ROOT
ATOM      1  C   UNL     1       8.352 -35.859 -11.987  1.00  0.00     0.160 A 
ATOM      2  C   UNL     1       9.692 -35.683 -12.369  1.00  0.00     0.160 A 
ATOM      3  C   UNL     1      10.369 -34.500 -12.013  1.00  0.00     0.054 A 
ATOM      4  C   UNL     1       9.716 -33.495 -11.284  1.00  0.00    -0.040 A 
ATOM      5  C   UNL     1       8.382 -33.683 -10.897  1.00  0.00     0.008 A 
ATOM      6  C   UNL     1       7.703 -34.851 -11.247  1.00  0.00     0.051 A 
ENDROOT
BRANCH   1   7
ATOM      7  O   UNL     1       7.703 -37.047 -12.358  1.00  0.00    -0.493 OA
ATOM      8  C   UNL     1       6.502 -37.105 -13.120  1.00  0.00     0.278 C 
ENDBRANCH   1   7
BRANCH   2   9
ATOM      9  O   UNL     1      10.315 -36.706 -13.101  1.00  0.00    -0.493 OA
ATOM     10  C   UNL     1      11.663 -37.125 -12.917  1.00  0.00     0.278 C 
ENDBRANCH   2   9
BRANCH   4  11
ATOM     11  C   UNL     1      10.457 -32.247 -10.883  1.00  0.00     0.062 C 
BRANCH  11  12
ATOM     12  C   UNL     1       9.500 -31.112 -10.646  1.00  0.00    -0.030 C 
ATOM     13  C   UNL     1       9.768 -30.139  -9.772  1.00  0.00     0.004 C 
ENDBRANCH  11  12
ENDBRANCH   4  11
TORSDOF 4
ENDMDL
MODEL 2
REMARK VINA RESULT:    -3.111      1.089      2.911
REMARK INTER + INTRA:          -4.111
REMARK INTER:                  -3.860
REMARK INTRA:                  -0.251
REMARK UNBOUND:                -0.273
REMARK SMILES C=CCc1ccc(OC)c(OC)c1
REMARK SMILES IDX 7 1 10 2 13 3 4 4 5 5 6 6 8 7 9 8 11 9 12 10 3 11 2 12 1 13
REMARK H PARENT
REMARK Flexibility Score: inf
ROOT
ATOM      1  C   UNL     1      10.520 -35.350 -11.628  1.00  0.00     0.160 A 
ATOM      2  C   UNL     1       9.156 -35.034 -11.736  1.00  0.00     0.160 A 
ATOM      3  C   UNL     1       8.735 -33.697 -11.591  1.00  0.00     0.054 A 
ATOM      4  C   UNL     1       9.667 -32.679 -11.335  1.00  0.00    -0.040 A 
ATOM      5  C   UNL     1      11.028 -33.002 -11.239  1.00  0.00     0.008 A 
ATOM      6  C   UNL     1      11.452 -34.323 -11.380  1.00  0.00     0.051 A 
ENDROOT
BRANCH   1   7
ATOM      7  O   UNL     1      10.908 -36.690 -11.775  1.00  0.00    -0.493 OA
ATOM      8  C   UNL     1      12.080 -37.120 -12.460  1.00  0.00     0.278 C 
ENDBRANCH   1   7
BRANCH   2   9
ATOM      9  O   UNL     1       8.249 -36.076 -11.988  1.00  0.00    -0.493 OA
ATOM     10  C   UNL     1       6.833 -35.933 -11.986  1.00  0.00     0.278 C 
ENDBRANCH   2   9
BRANCH   4  11
ATOM     11  C   UNL     1       9.212 -31.250 -11.212  1.00  0.00     0.062 C 
BRANCH  11  12
ATOM     12  C   UNL     1       9.932 -30.557 -10.090  1.00  0.00    -0.030 C 
ATOM     13  C   UNL     1       9.360 -29.573  -9.389  1.00  0.00     0.004 C 
ENDBRANCH  11  12
ENDBRANCH   4  11
TORSDOF 4
ENDMDL
MODEL 3
REMARK VINA RESULT:    -2.823      2.456      4.995
REMARK INTER + INTRA:          -3.756
REMARK INTER:                  -3.536
REMARK INTRA:                  -0.220
REMARK UNBOUND:                -0.273
REMARK SMILES C=CCc1ccc(OC)c(OC)c1
REMARK SMILES IDX 7 1 10 2 13 3 4 4 5 5 6 6 8 7 9 8 11 9 12 10 3 11 2 12 1 13
REMARK H PARENT
REMARK Flexibility Score: inf
ROOT
ATOM      1  C   UNL     1      10.049 -32.462 -11.248  1.00  0.00     0.160 A 
ATOM      2  C   UNL     1       9.250 -33.473 -11.806  1.00  0.00     0.160 A 
ATOM      3  C   UNL     1       9.788 -34.761 -11.999  1.00  0.00     0.054 A 
ATOM      4  C   UNL     1      11.117 -35.040 -11.643  1.00  0.00    -0.040 A 
ATOM      5  C   UNL     1      11.904 -34.028 -11.077  1.00  0.00     0.008 A 
ATOM      6  C   UNL     1      11.379 -32.750 -10.884  1.00  0.00     0.051 A 
ENDROOT
BRANCH   1   7
ATOM      7  O   UNL     1       9.485 -31.189 -11.069  1.00  0.00    -0.493 OA
ATOM      8  C   UNL     1       9.819 -30.302 -10.007  1.00  0.00     0.278 C 
ENDBRANCH   1   7
BRANCH   2   9
ATOM      9  O   UNL     1       7.927 -33.160 -12.155  1.00  0.00    -0.493 OA
ATOM     10  C   UNL     1       6.908 -34.122 -12.406  1.00  0.00     0.278 C 
ENDBRANCH   2   9
BRANCH   4  11
ATOM     11  C   UNL     1      11.674 -36.427 -11.826  1.00  0.00     0.062 C 
BRANCH  11  12
ATOM     12  C   UNL     1      11.817 -37.122 -10.501  1.00  0.00    -0.030 C 
ATOM     13  C   UNL     1      10.831 -37.124  -9.599  1.00  0.00     0.004 C 
ENDBRANCH  11  12
ENDBRANCH   4  11
TORSDOF 4
ENDMDL
