MODEL 1
REMARK VINA RESULT:    -5.263      0.000      0.000
REMARK INTER + INTRA:         -11.881
REMARK INTER:                  -9.570
REMARK INTRA:                  -2.311
REMARK UNBOUND:                -2.311
REMARK SMILES CCCCCCCCCCCCCC[C@@H](C)C(=O)[O-]
REMARK SMILES IDX 9 1 10 2 11 3 12 4 13 5 14 6 15 7 16 8 17 9 18 10 19 11 8 12
REMARK SMILES IDX 7 13 6 14 5 15 4 16 3 17 2 18 1 19
REMARK H PARENT
REMARK Flexibility Score: inf
ROOT
ATOM      1  C   UNL     1      18.152  20.797   8.653  1.00  0.00     0.000 C 
ENDROOT
BRANCH   1   2
ATOM      2  C   UNL     1      17.694  20.895  10.119  1.00  0.00     0.000 C 
BRANCH   2   3
ATOM      3  C   UNL     1      18.609  21.798  10.963  1.00  0.00     0.000 C 
BRANCH   3   4
ATOM      4  C   UNL     1      19.774  22.387  10.153  1.00  0.00     0.000 C 
BRANCH   4   5
ATOM      5  C   UNL     1      19.759  23.922  10.209  1.00  0.00     0.001 C 
BRANCH   5   6
ATOM      6  C   UNL     1      19.481  24.573   8.841  1.00  0.00     0.009 C 
BRANCH   6   7
ATOM      7  C   UNL     1      18.141  25.339   8.742  1.00  0.00     0.032 C 
ATOM      8  C   UNL     1      17.117  24.867   9.782  1.00  0.00     0.014 C 
BRANCH   7   9
ATOM      9  C   UNL     1      18.394  26.812   8.912  1.00  0.00     0.044 C 
ATOM     10  O   UNL     1      19.554  27.230   9.168  1.00  0.00    -0.550 OA
ATOM     11  O   UNL     1      17.348  27.721   8.804  1.00  0.00    -0.550 OA
ENDBRANCH   7   9
ENDBRANCH   6   7
ENDBRANCH   5   6
ENDBRANCH   4   5
ENDBRANCH   3   4
ENDBRANCH   2   3
ENDBRANCH   1   2
BRANCH   1  12
ATOM     12  C   UNL     1      17.394  21.767   7.732  1.00  0.00     0.000 C 
BRANCH  12  13
ATOM     13  C   UNL     1      17.781  21.608   6.250  1.00  0.00    -0.000 C 
BRANCH  13  14
ATOM     14  C   UNL     1      19.102  22.333   5.915  1.00  0.00    -0.000 C 
BRANCH  14  15
ATOM     15  C   UNL     1      20.049  21.508   5.026  1.00  0.00    -0.000 C 
BRANCH  15  16
ATOM     16  C   UNL     1      21.513  21.573   5.494  1.00  0.00    -0.000 C 
BRANCH  16  17
ATOM     17  C   UNL     1      21.657  22.064   6.946  1.00  0.00    -0.000 C 
BRANCH  17  18
ATOM     18  C   UNL     1      22.219  21.025   7.933  1.00  0.00    -0.003 C 
ATOM     19  C   UNL     1      23.015  19.915   7.249  1.00  0.00     0.004 C 
ENDBRANCH  17  18
ENDBRANCH  16  17
ENDBRANCH  15  16
ENDBRANCH  14  15
ENDBRANCH  13  14
ENDBRANCH  12  13
ENDBRANCH   1  12
TORSDOF 14
ENDMDL
MODEL 2
REMARK VINA RESULT:    -5.204      3.428      6.113
REMARK INTER + INTRA:         -11.774
REMARK INTER:                  -9.354
REMARK INTRA:                  -2.420
REMARK UNBOUND:                -2.311
REMARK SMILES CCCCCCCCCCCCCC[C@@H](C)C(=O)[O-]
REMARK SMILES IDX 9 1 10 2 11 3 12 4 13 5 14 6 15 7 16 8 17 9 18 10 19 11 8 12
REMARK SMILES IDX 7 13 6 14 5 15 4 16 3 17 2 18 1 19
REMARK H PARENT
REMARK Flexibility Score: inf
ROOT
ATOM      1  C   UNL     1      17.324  24.343   7.104  1.00  0.00     0.000 C 
ENDROOT
BRANCH   1   2
ATOM      2  C   UNL     1      16.894  22.866   7.124  1.00  0.00     0.000 C 
BRANCH   2   3
ATOM      3  C   UNL     1      17.760  21.987   6.206  1.00  0.00     0.000 C 
BRANCH   3   4
ATOM      4  C   UNL     1      19.119  22.626   5.881  1.00  0.00     0.000 C 
BRANCH   4   5
ATOM      5  C   UNL     1      20.150  21.553   5.500  1.00  0.00     0.001 C 
BRANCH   5   6
ATOM      6  C   UNL     1      20.673  20.760   6.712  1.00  0.00     0.009 C 
BRANCH   6   7
ATOM      7  C   UNL     1      22.209  20.783   6.894  1.00  0.00     0.032 C 
ATOM      8  C   UNL     1      22.625  21.161   8.321  1.00  0.00     0.014 C 
BRANCH   7   9
ATOM      9  C   UNL     1      22.773  19.432   6.543  1.00  0.00     0.044 C 
ATOM     10  O   UNL     1      23.988  19.179   6.754  1.00  0.00    -0.550 OA
ATOM     11  O   UNL     1      21.961  18.461   5.968  1.00  0.00    -0.550 OA
ENDBRANCH   7   9
ENDBRANCH   6   7
ENDBRANCH   5   6
ENDBRANCH   4   5
ENDBRANCH   3   4
ENDBRANCH   2   3
ENDBRANCH   1   2
BRANCH   1  12
ATOM     12  C   UNL     1      17.206  25.011   8.483  1.00  0.00     0.000 C 
BRANCH  12  13
ATOM     13  C   UNL     1      18.385  25.951   8.794  1.00  0.00    -0.000 C 
BRANCH  13  14
ATOM     14  C   UNL     1      19.387  25.316   9.784  1.00  0.00    -0.000 C 
BRANCH  14  15
ATOM     15  C   UNL     1      19.969  23.978   9.298  1.00  0.00    -0.000 C 
BRANCH  15  16
ATOM     16  C   UNL     1      19.950  22.890  10.384  1.00  0.00    -0.000 C 
BRANCH  16  17
ATOM     17  C   UNL     1      19.010  21.718  10.044  1.00  0.00    -0.000 C 
BRANCH  17  18
ATOM     18  C   UNL     1      17.546  21.908  10.478  1.00  0.00    -0.003 C 
ATOM     19  C   UNL     1      17.401  22.727  11.760  1.00  0.00     0.004 C 
ENDBRANCH  17  18
ENDBRANCH  16  17
ENDBRANCH  15  16
ENDBRANCH  14  15
ENDBRANCH  13  14
ENDBRANCH  12  13
ENDBRANCH   1  12
TORSDOF 14
ENDMDL
MODEL 3
REMARK VINA RESULT:    -5.192      1.205      2.077
REMARK INTER + INTRA:         -11.753
REMARK INTER:                  -9.123
REMARK INTRA:                  -2.631
REMARK UNBOUND:                -2.311
REMARK SMILES CCCCCCCCCCCCCC[C@@H](C)C(=O)[O-]
REMARK SMILES IDX 9 1 10 2 11 3 12 4 13 5 14 6 15 7 16 8 17 9 18 10 19 11 8 12
REMARK SMILES IDX 7 13 6 14 5 15 4 16 3 17 2 18 1 19
REMARK H PARENT
REMARK Flexibility Score: inf
ROOT
ATOM      1  C   UNL     1      18.430  20.622   7.581  1.00  0.00     0.000 C 
ENDROOT
BRANCH   1   2
ATOM      2  C   UNL     1      17.233  20.113   8.403  1.00  0.00     0.000 C 
BRANCH   2   3
ATOM      3  C   UNL     1      17.327  20.507   9.887  1.00  0.00     0.000 C 
BRANCH   3   4
ATOM      4  C   UNL     1      18.526  21.420  10.184  1.00  0.00     0.000 C 
BRANCH   4   5
ATOM      5  C   UNL     1      18.135  22.533  11.169  1.00  0.00     0.001 C 
BRANCH   5   6
ATOM      6  C   UNL     1      17.436  23.724  10.488  1.00  0.00     0.009 C 
BRANCH   6   7
ATOM      7  C   UNL     1      18.060  24.166   9.144  1.00  0.00     0.032 C 
ATOM      8  C   UNL     1      17.012  24.324   8.035  1.00  0.00     0.014 C 
BRANCH   7   9
ATOM      9  C   UNL     1      18.793  25.466   9.337  1.00  0.00     0.044 C 
ATOM     10  O   UNL     1      18.721  26.369   8.464  1.00  0.00    -0.550 OA
ATOM     11  O   UNL     1      19.567  25.672  10.473  1.00  0.00    -0.550 OA
ENDBRANCH   7   9
ENDBRANCH   6   7
ENDBRANCH   5   6
ENDBRANCH   4   5
ENDBRANCH   3   4
ENDBRANCH   2   3
ENDBRANCH   1   2
BRANCH   1  12
ATOM     12  C   UNL     1      17.999  21.307   6.274  1.00  0.00     0.000 C 
BRANCH  12  13
ATOM     13  C   UNL     1      19.076  22.254   5.713  1.00  0.00    -0.000 C 
BRANCH  13  14
ATOM     14  C   UNL     1      20.203  21.485   4.989  1.00  0.00    -0.000 C 
BRANCH  14  15
ATOM     15  C   UNL     1      21.596  21.712   5.602  1.00  0.00    -0.000 C 
BRANCH  15  16
ATOM     16  C   UNL     1      21.984  20.626   6.619  1.00  0.00    -0.000 C 
BRANCH  16  17
ATOM     17  C   UNL     1      21.988  21.139   8.071  1.00  0.00    -0.000 C 
BRANCH  17  18
ATOM     18  C   UNL     1      21.644  22.629   8.238  1.00  0.00    -0.003 C 
ATOM     19  C   UNL     1      21.753  23.112   9.684  1.00  0.00     0.004 C 
ENDBRANCH  17  18
ENDBRANCH  16  17
ENDBRANCH  15  16
ENDBRANCH  14  15
ENDBRANCH  13  14
ENDBRANCH  12  13
ENDBRANCH   1  12
TORSDOF 14
ENDMDL
MODEL 4
REMARK VINA RESULT:    -5.191      2.895      5.779
REMARK INTER + INTRA:         -11.751
REMARK INTER:                  -9.411
REMARK INTRA:                  -2.339
REMARK UNBOUND:                -2.311
REMARK SMILES CCCCCCCCCCCCCC[C@@H](C)C(=O)[O-]
REMARK SMILES IDX 9 1 10 2 11 3 12 4 13 5 14 6 15 7 16 8 17 9 18 10 19 11 8 12
REMARK SMILES IDX 7 13 6 14 5 15 4 16 3 17 2 18 1 19
REMARK H PARENT
REMARK Flexibility Score: inf
ROOT
ATOM      1  C   UNL     1      18.767  20.765   9.280  1.00  0.00     0.000 C 
ENDROOT
BRANCH   1   2
ATOM      2  C   UNL     1      18.206  20.353   7.908  1.00  0.00     0.000 C 
BRANCH   2   3
ATOM      3  C   UNL     1      17.349  21.457   7.266  1.00  0.00     0.000 C 
BRANCH   3   4
ATOM      4  C   UNL     1      17.931  21.966   5.939  1.00  0.00     0.000 C 
BRANCH   4   5
ATOM      5  C   UNL     1      19.244  22.728   6.173  1.00  0.00     0.001 C 
BRANCH   5   6
ATOM      6  C   UNL     1      20.491  21.922   5.761  1.00  0.00     0.009 C 
BRANCH   6   7
ATOM      7  C   UNL     1      21.692  22.036   6.729  1.00  0.00     0.032 C 
ATOM      8  C   UNL     1      21.362  22.863   7.978  1.00  0.00     0.014 C 
BRANCH   7   9
ATOM      9  C   UNL     1      22.136  20.658   7.136  1.00  0.00     0.044 C 
ATOM     10  O   UNL     1      21.656  19.643   6.567  1.00  0.00    -0.550 OA
ATOM     11  O   UNL     1      23.068  20.494   8.155  1.00  0.00    -0.550 OA
ENDBRANCH   7   9
ENDBRANCH   6   7
ENDBRANCH   5   6
ENDBRANCH   4   5
ENDBRANCH   3   4
ENDBRANCH   2   3
ENDBRANCH   1   2
BRANCH   1  12
ATOM     12  C   UNL     1      17.661  21.102  10.292  1.00  0.00     0.000 C 
BRANCH  12  13
ATOM     13  C   UNL     1      18.087  22.178  11.307  1.00  0.00    -0.000 C 
BRANCH  13  14
ATOM     14  C   UNL     1      18.322  23.548  10.634  1.00  0.00    -0.000 C 
BRANCH  14  15
ATOM     15  C   UNL     1      17.055  24.150  10.004  1.00  0.00    -0.000 C 
BRANCH  15  16
ATOM     16  C   UNL     1      17.317  24.791   8.631  1.00  0.00    -0.000 C 
BRANCH  16  17
ATOM     17  C   UNL     1      18.744  25.353   8.495  1.00  0.00    -0.000 C 
BRANCH  17  18
ATOM     18  C   UNL     1      18.916  26.815   8.944  1.00  0.00    -0.003 C 
ATOM     19  C   UNL     1      17.640  27.643   8.791  1.00  0.00     0.004 C 
ENDBRANCH  17  18
ENDBRANCH  16  17
ENDBRANCH  15  16
ENDBRANCH  14  15
ENDBRANCH  13  14
ENDBRANCH  12  13
ENDBRANCH   1  12
TORSDOF 14
ENDMDL
MODEL 5
REMARK VINA RESULT:    -5.108      1.701      2.843
REMARK INTER + INTRA:         -11.601
REMARK INTER:                  -9.496
REMARK INTRA:                  -2.105
REMARK UNBOUND:                -2.311
REMARK SMILES CCCCCCCCCCCCCC[C@@H](C)C(=O)[O-]
REMARK SMILES IDX 9 1 10 2 11 3 12 4 13 5 14 6 15 7 16 8 17 9 18 10 19 11 8 12
REMARK SMILES IDX 7 13 6 14 5 15 4 16 3 17 2 18 1 19
REMARK H PARENT
REMARK Flexibility Score: inf
ROOT
ATOM      1  C   UNL     1      19.393  21.627   9.489  1.00  0.00     0.000 C 
ENDROOT
BRANCH   1   2
ATOM      2  C   UNL     1      18.428  21.068   8.429  1.00  0.00     0.000 C 
BRANCH   2   3
ATOM      3  C   UNL     1      17.156  21.920   8.283  1.00  0.00     0.000 C 
BRANCH   3   4
ATOM      4  C   UNL     1      16.966  22.466   6.860  1.00  0.00     0.000 C 
BRANCH   4   5
ATOM      5  C   UNL     1      17.554  23.880   6.733  1.00  0.00     0.001 C 
BRANCH   5   6
ATOM      6  C   UNL     1      17.239  24.776   7.946  1.00  0.00     0.009 C 
BRANCH   6   7
ATOM      7  C   UNL     1      18.460  25.504   8.555  1.00  0.00     0.032 C 
ATOM      8  C   UNL     1      18.287  27.028   8.567  1.00  0.00     0.014 C 
BRANCH   7   9
ATOM      9  C   UNL     1      18.689  25.008   9.956  1.00  0.00     0.044 C 
ATOM     10  O   UNL     1      19.847  25.019  10.450  1.00  0.00    -0.550 OA
ATOM     11  O   UNL     1      17.628  24.521  10.711  1.00  0.00    -0.550 OA
ENDBRANCH   7   9
ENDBRANCH   6   7
ENDBRANCH   5   6
ENDBRANCH   4   5
ENDBRANCH   3   4
ENDBRANCH   2   3
ENDBRANCH   1   2
BRANCH   1  12
ATOM     12  C   UNL     1      20.803  21.875   8.931  1.00  0.00     0.000 C 
BRANCH  12  13
ATOM     13  C   UNL     1      20.797  22.742   7.658  1.00  0.00    -0.000 C 
BRANCH  13  14
ATOM     14  C   UNL     1      21.382  21.990   6.442  1.00  0.00    -0.000 C 
BRANCH  14  15
ATOM     15  C   UNL     1      20.351  21.712   5.335  1.00  0.00    -0.000 C 
BRANCH  15  16
ATOM     16  C   UNL     1      20.974  21.060   4.090  1.00  0.00    -0.000 C 
BRANCH  16  17
ATOM     17  C   UNL     1      22.489  20.822   4.232  1.00  0.00    -0.000 C 
BRANCH  17  18
ATOM     18  C   UNL     1      22.912  19.345   4.314  1.00  0.00    -0.003 C 
ATOM     19  C   UNL     1      23.633  18.998   5.616  1.00  0.00     0.004 C 
ENDBRANCH  17  18
ENDBRANCH  16  17
ENDBRANCH  15  16
ENDBRANCH  14  15
ENDBRANCH  13  14
ENDBRANCH  12  13
ENDBRANCH   1  12
TORSDOF 14
ENDMDL
MODEL 6
REMARK VINA RESULT:    -5.065      2.859      5.853
REMARK INTER + INTRA:         -11.522
REMARK INTER:                  -9.021
REMARK INTRA:                  -2.501
REMARK UNBOUND:                -2.311
REMARK SMILES CCCCCCCCCCCCCC[C@@H](C)C(=O)[O-]
REMARK SMILES IDX 9 1 10 2 11 3 12 4 13 5 14 6 15 7 16 8 17 9 18 10 19 11 8 12
REMARK SMILES IDX 7 13 6 14 5 15 4 16 3 17 2 18 1 19
REMARK H PARENT
REMARK Flexibility Score: inf
ROOT
ATOM      1  C   UNL     1      17.220  24.363   7.203  1.00  0.00     0.000 C 
ENDROOT
BRANCH   1   2
ATOM      2  C   UNL     1      16.884  22.863   7.276  1.00  0.00     0.000 C 
BRANCH   2   3
ATOM      3  C   UNL     1      17.906  21.993   6.527  1.00  0.00     0.000 C 
BRANCH   3   4
ATOM      4  C   UNL     1      18.954  22.823   5.771  1.00  0.00     0.000 C 
BRANCH   4   5
ATOM      5  C   UNL     1      20.244  22.016   5.559  1.00  0.00     0.001 C 
BRANCH   5   6
ATOM      6  C   UNL     1      20.533  21.029   6.706  1.00  0.00     0.009 C 
BRANCH   6   7
ATOM      7  C   UNL     1      21.556  19.919   6.370  1.00  0.00     0.032 C 
ATOM      8  C   UNL     1      21.984  19.942   4.897  1.00  0.00     0.014 C 
BRANCH   7   9
ATOM      9  C   UNL     1      22.766  20.073   7.251  1.00  0.00     0.044 C 
ATOM     10  O   UNL     1      23.778  19.345   7.070  1.00  0.00    -0.550 OA
ATOM     11  O   UNL     1      22.771  21.007   8.280  1.00  0.00    -0.550 OA
ENDBRANCH   7   9
ENDBRANCH   6   7
ENDBRANCH   5   6
ENDBRANCH   4   5
ENDBRANCH   3   4
ENDBRANCH   2   3
ENDBRANCH   1   2
BRANCH   1  12
ATOM     12  C   UNL     1      17.249  25.030   8.587  1.00  0.00     0.000 C 
BRANCH  12  13
ATOM     13  C   UNL     1      18.593  25.716   8.892  1.00  0.00    -0.000 C 
BRANCH  13  14
ATOM     14  C   UNL     1      19.455  24.893   9.873  1.00  0.00    -0.000 C 
BRANCH  14  15
ATOM     15  C   UNL     1      20.116  23.662   9.229  1.00  0.00    -0.000 C 
BRANCH  15  16
ATOM     16  C   UNL     1      20.064  22.417  10.130  1.00  0.00    -0.000 C 
BRANCH  16  17
ATOM     17  C   UNL     1      18.895  22.450  11.132  1.00  0.00    -0.000 C 
BRANCH  17  18
ATOM     18  C   UNL     1      17.594  21.791  10.640  1.00  0.00    -0.003 C 
ATOM     19  C   UNL     1      17.832  20.484   9.885  1.00  0.00     0.004 C 
ENDBRANCH  17  18
ENDBRANCH  16  17
ENDBRANCH  15  16
ENDBRANCH  14  15
ENDBRANCH  13  14
ENDBRANCH  12  13
ENDBRANCH   1  12
TORSDOF 14
ENDMDL
MODEL 7
REMARK VINA RESULT:    -5.016      3.431      6.215
REMARK INTER + INTRA:         -11.433
REMARK INTER:                  -9.020
REMARK INTRA:                  -2.412
REMARK UNBOUND:                -2.311
REMARK SMILES CCCCCCCCCCCCCC[C@@H](C)C(=O)[O-]
REMARK SMILES IDX 9 1 10 2 11 3 12 4 13 5 14 6 15 7 16 8 17 9 18 10 19 11 8 12
REMARK SMILES IDX 7 13 6 14 5 15 4 16 3 17 2 18 1 19
REMARK H PARENT
REMARK Flexibility Score: inf
ROOT
ATOM      1  C   UNL     1      21.660  23.127   9.458  1.00  0.00     0.000 C 
ENDROOT
BRANCH   1   2
ATOM      2  C   UNL     1      21.245  21.974   8.526  1.00  0.00     0.000 C 
BRANCH   2   3
ATOM      3  C   UNL     1      21.248  22.385   7.045  1.00  0.00     0.000 C 
BRANCH   3   4
ATOM      4  C   UNL     1      19.849  22.754   6.528  1.00  0.00     0.000 C 
BRANCH   4   5
ATOM      5  C   UNL     1      19.232  21.591   5.736  1.00  0.00     0.001 C 
BRANCH   5   6
ATOM      6  C   UNL     1      18.077  20.898   6.483  1.00  0.00     0.009 C 
BRANCH   6   7
ATOM      7  C   UNL     1      18.514  19.899   7.580  1.00  0.00     0.032 C 
ATOM      8  C   UNL     1      17.454  19.730   8.676  1.00  0.00     0.014 C 
BRANCH   7   9
ATOM      9  C   UNL     1      18.809  18.565   6.951  1.00  0.00     0.044 C 
ATOM     10  O   UNL     1      18.000  17.610   7.082  1.00  0.00    -0.550 OA
ATOM     11  O   UNL     1      19.984  18.372   6.233  1.00  0.00    -0.550 OA
ENDBRANCH   7   9
ENDBRANCH   6   7
ENDBRANCH   5   6
ENDBRANCH   4   5
ENDBRANCH   3   4
ENDBRANCH   2   3
ENDBRANCH   1   2
BRANCH   1  12
ATOM     12  C   UNL     1      20.630  23.388  10.568  1.00  0.00     0.000 C 
BRANCH  12  13
ATOM     13  C   UNL     1      19.356  22.538  10.412  1.00  0.00    -0.000 C 
BRANCH  13  14
ATOM     14  C   UNL     1      18.076  23.403  10.430  1.00  0.00    -0.000 C 
BRANCH  14  15
ATOM     15  C   UNL     1      17.246  23.303   9.139  1.00  0.00    -0.000 C 
BRANCH  15  16
ATOM     16  C   UNL     1      17.244  24.609   8.328  1.00  0.00    -0.000 C 
BRANCH  16  17
ATOM     17  C   UNL     1      17.051  25.859   9.206  1.00  0.00    -0.000 C 
BRANCH  17  18
ATOM     18  C   UNL     1      17.972  27.045   8.866  1.00  0.00    -0.003 C 
ATOM     19  C   UNL     1      19.457  26.700   8.970  1.00  0.00     0.004 C 
ENDBRANCH  17  18
ENDBRANCH  16  17
ENDBRANCH  15  16
ENDBRANCH  14  15
ENDBRANCH  13  14
ENDBRANCH  12  13
ENDBRANCH   1  12
TORSDOF 14
ENDMDL
MODEL 8
REMARK VINA RESULT:    -4.971      3.375      6.205
REMARK INTER + INTRA:         -11.351
REMARK INTER:                  -8.911
REMARK INTRA:                  -2.441
REMARK UNBOUND:                -2.311
REMARK SMILES CCCCCCCCCCCCCC[C@@H](C)C(=O)[O-]
REMARK SMILES IDX 9 1 10 2 11 3 12 4 13 5 14 6 15 7 16 8 17 9 18 10 19 11 8 12
REMARK SMILES IDX 7 13 6 14 5 15 4 16 3 17 2 18 1 19
REMARK H PARENT
REMARK Flexibility Score: inf
ROOT
ATOM      1  C   UNL     1      16.972  22.761   6.844  1.00  0.00     0.000 C 
ENDROOT
BRANCH   1   2
ATOM      2  C   UNL     1      18.084  21.943   6.164  1.00  0.00     0.000 C 
BRANCH   2   3
ATOM      3  C   UNL     1      19.438  22.672   6.169  1.00  0.00     0.000 C 
BRANCH   3   4
ATOM      4  C   UNL     1      20.332  22.256   7.347  1.00  0.00     0.000 C 
BRANCH   4   5
ATOM      5  C   UNL     1      21.762  21.958   6.870  1.00  0.00     0.001 C 
BRANCH   5   6
ATOM      6  C   UNL     1      21.806  21.207   5.526  1.00  0.00     0.009 C 
BRANCH   6   7
ATOM      7  C   UNL     1      22.345  19.759   5.604  1.00  0.00     0.032 C 
ATOM      8  C   UNL     1      23.218  19.524   6.843  1.00  0.00     0.014 C 
BRANCH   7   9
ATOM      9  C   UNL     1      21.189  18.796   5.609  1.00  0.00     0.044 C 
ATOM     10  O   UNL     1      20.053  19.168   5.214  1.00  0.00    -0.550 OA
ATOM     11  O   UNL     1      21.362  17.494   6.065  1.00  0.00    -0.550 OA
ENDBRANCH   7   9
ENDBRANCH   6   7
ENDBRANCH   5   6
ENDBRANCH   4   5
ENDBRANCH   3   4
ENDBRANCH   2   3
ENDBRANCH   1   2
BRANCH   1  12
ATOM     12  C   UNL     1      17.272  24.268   6.859  1.00  0.00     0.000 C 
BRANCH  12  13
ATOM     13  C   UNL     1      17.253  24.866   8.278  1.00  0.00    -0.000 C 
BRANCH  13  14
ATOM     14  C   UNL     1      18.648  25.363   8.716  1.00  0.00    -0.000 C 
BRANCH  14  15
ATOM     15  C   UNL     1      19.218  24.608   9.929  1.00  0.00    -0.000 C 
BRANCH  15  16
ATOM     16  C   UNL     1      18.174  23.718  10.622  1.00  0.00    -0.000 C 
BRANCH  16  17
ATOM     17  C   UNL     1      18.518  22.219  10.545  1.00  0.00    -0.000 C 
BRANCH  17  18
ATOM     18  C   UNL     1      17.318  21.284  10.312  1.00  0.00    -0.003 C 
ATOM     19  C   UNL     1      17.639  20.114   9.384  1.00  0.00     0.004 C 
ENDBRANCH  17  18
ENDBRANCH  16  17
ENDBRANCH  15  16
ENDBRANCH  14  15
ENDBRANCH  13  14
ENDBRANCH  12  13
ENDBRANCH   1  12
TORSDOF 14
ENDMDL
MODEL 9
REMARK VINA RESULT:    -4.971      3.617      6.790
REMARK INTER + INTRA:         -11.351
REMARK INTER:                  -9.288
REMARK INTRA:                  -2.063
REMARK UNBOUND:                -2.311
REMARK SMILES CCCCCCCCCCCCCC[C@@H](C)C(=O)[O-]
REMARK SMILES IDX 9 1 10 2 11 3 12 4 13 5 14 6 15 7 16 8 17 9 18 10 19 11 8 12
REMARK SMILES IDX 7 13 6 14 5 15 4 16 3 17 2 18 1 19
REMARK H PARENT
REMARK Flexibility Score: inf
ROOT
ATOM      1  C   UNL     1      21.349  23.073   9.665  1.00  0.00     0.000 C 
ENDROOT
BRANCH   1   2
ATOM      2  C   UNL     1      20.932  23.502   8.247  1.00  0.00     0.000 C 
BRANCH   2   3
ATOM      3  C   UNL     1      21.089  22.370   7.219  1.00  0.00     0.000 C 
BRANCH   3   4
ATOM      4  C   UNL     1      19.961  22.353   6.176  1.00  0.00     0.000 C 
BRANCH   4   5
ATOM      5  C   UNL     1      20.405  21.622   4.900  1.00  0.00     0.001 C 
BRANCH   5   6
ATOM      6  C   UNL     1      21.821  21.025   5.009  1.00  0.00     0.009 C 
BRANCH   6   7
ATOM      7  C   UNL     1      21.874  19.482   5.111  1.00  0.00     0.032 C 
ATOM      8  C   UNL     1      21.283  18.792   3.875  1.00  0.00     0.014 C 
BRANCH   7   9
ATOM      9  C   UNL     1      23.300  19.044   5.303  1.00  0.00     0.044 C 
ATOM     10  O   UNL     1      23.938  18.530   4.347  1.00  0.00    -0.550 OA
ATOM     11  O   UNL     1      23.917  19.187   6.540  1.00  0.00    -0.550 OA
ENDBRANCH   7   9
ENDBRANCH   6   7
ENDBRANCH   5   6
ENDBRANCH   4   5
ENDBRANCH   3   4
ENDBRANCH   2   3
ENDBRANCH   1   2
BRANCH   1  12
ATOM     12  C   UNL     1      20.180  23.113  10.662  1.00  0.00     0.000 C 
BRANCH  12  13
ATOM     13  C   UNL     1      19.137  22.011  10.404  1.00  0.00    -0.000 C 
BRANCH  13  14
ATOM     14  C   UNL     1      17.726  22.592  10.167  1.00  0.00    -0.000 C 
BRANCH  14  15
ATOM     15  C   UNL     1      17.221  22.414   8.725  1.00  0.00    -0.000 C 
BRANCH  15  16
ATOM     16  C   UNL     1      16.955  23.752   8.016  1.00  0.00    -0.000 C 
BRANCH  16  17
ATOM     17  C   UNL     1      17.260  24.972   8.905  1.00  0.00    -0.000 C 
BRANCH  17  18
ATOM     18  C   UNL     1      18.318  25.939   8.345  1.00  0.00    -0.003 C 
ATOM     19  C   UNL     1      19.111  26.658   9.436  1.00  0.00     0.004 C 
ENDBRANCH  17  18
ENDBRANCH  16  17
ENDBRANCH  15  16
ENDBRANCH  14  15
ENDBRANCH  13  14
ENDBRANCH  12  13
ENDBRANCH   1  12
TORSDOF 14
ENDMDL
