MODEL 1
REMARK VINA RESULT:    -5.647      0.000      0.000
REMARK INTER + INTRA:          -6.588
REMARK INTER:                  -6.472
REMARK INTRA:                  -0.116
REMARK UNBOUND:                -0.116
REMARK SMILES COc1cc(C(C)=O)ccc1O
REMARK SMILES IDX 5 1 4 2 3 3 11 4 10 5 9 6 6 7 7 8 8 9 2 10 1 11 12 12
REMARK H PARENT 12 13
REMARK Flexibility Score: inf
ROOT
ATOM      1  C   UNL     1      18.247 -11.779  66.690  1.00  0.00     0.021 A 
ATOM      2  C   UNL     1      19.126 -12.262  67.678  1.00  0.00     0.062 A 
ATOM      3  C   UNL     1      19.551 -11.434  68.736  1.00  0.00     0.161 A 
ATOM      4  C   UNL     1      19.091 -10.112  68.801  1.00  0.00     0.157 A 
ATOM      5  C   UNL     1      18.218  -9.624  67.823  1.00  0.00     0.051 A 
ATOM      6  C   UNL     1      17.798 -10.447  66.776  1.00  0.00     0.016 A 
ENDROOT
BRANCH   1   7
ATOM      7  C   UNL     1      17.809 -12.670  65.580  1.00  0.00     0.159 C 
ATOM      8  C   UNL     1      17.076 -12.143  64.383  1.00  0.00     0.093 C 
ATOM      9  O   UNL     1      18.053 -13.906  65.637  1.00  0.00    -0.295 OA
ENDBRANCH   1   7
BRANCH   3  10
ATOM     10  O   UNL     1      20.426 -11.886  69.736  1.00  0.00    -0.493 OA
ATOM     11  C   UNL     1      21.100 -13.140  69.714  1.00  0.00     0.278 C 
ENDBRANCH   3  10
BRANCH   4  12
ATOM     12  O   UNL     1      19.509  -9.287  69.845  1.00  0.00    -0.504 OA
ATOM     13  H   UNL     1      19.407  -8.280  69.799  1.00  0.00     0.293 HD
ENDBRANCH   4  12
TORSDOF 3
ENDMDL
MODEL 2
REMARK VINA RESULT:    -5.123      2.674      4.668
REMARK INTER + INTRA:          -5.987
REMARK INTER:                  -5.883
REMARK INTRA:                  -0.104
REMARK UNBOUND:                -0.116
REMARK SMILES COc1cc(C(C)=O)ccc1O
REMARK SMILES IDX 5 1 4 2 3 3 11 4 10 5 9 6 6 7 7 8 8 9 2 10 1 11 12 12
REMARK H PARENT 12 13
REMARK Flexibility Score: inf
ROOT
ATOM      1  C   UNL     1      18.810 -10.359  67.547  1.00  0.00     0.021 A 
ATOM      2  C   UNL     1      19.630  -9.973  66.469  1.00  0.00     0.062 A 
ATOM      3  C   UNL     1      19.079  -9.708  65.199  1.00  0.00     0.161 A 
ATOM      4  C   UNL     1      17.696  -9.831  65.012  1.00  0.00     0.157 A 
ATOM      5  C   UNL     1      16.874 -10.214  66.077  1.00  0.00     0.051 A 
ATOM      6  C   UNL     1      17.423 -10.476  67.334  1.00  0.00     0.016 A 
ENDROOT
BRANCH   1   7
ATOM      7  C   UNL     1      19.411 -10.635  68.881  1.00  0.00     0.159 C 
ATOM      8  C   UNL     1      20.041 -11.955  69.209  1.00  0.00     0.093 C 
ATOM      9  O   UNL     1      19.396  -9.741  69.771  1.00  0.00    -0.295 OA
ENDBRANCH   1   7
BRANCH   3  10
ATOM     10  O   UNL     1      19.869  -9.322  64.105  1.00  0.00    -0.493 OA
ATOM     11  C   UNL     1      21.026 -10.021  63.658  1.00  0.00     0.278 C 
ENDBRANCH   3  10
BRANCH   4  12
ATOM     12  O   UNL     1      17.144  -9.570  63.758  1.00  0.00    -0.504 OA
ATOM     13  H   UNL     1      16.151  -9.672  63.583  1.00  0.00     0.293 HD
ENDBRANCH   4  12
TORSDOF 3
ENDMDL
MODEL 3
REMARK VINA RESULT:    -5.099      2.365      2.898
REMARK INTER + INTRA:          -5.960
REMARK INTER:                  -5.860
REMARK INTRA:                  -0.100
REMARK UNBOUND:                -0.116
REMARK SMILES COc1cc(C(C)=O)ccc1O
REMARK SMILES IDX 5 1 4 2 3 3 11 4 10 5 9 6 6 7 7 8 8 9 2 10 1 11 12 12
REMARK H PARENT 12 13
REMARK Flexibility Score: inf
ROOT
ATOM      1  C   UNL     1      18.317 -11.140  65.453  1.00  0.00     0.021 A 
ATOM      2  C   UNL     1      19.096 -11.812  66.414  1.00  0.00     0.062 A 
ATOM      3  C   UNL     1      18.494 -12.440  67.523  1.00  0.00     0.161 A 
ATOM      4  C   UNL     1      17.101 -12.391  67.666  1.00  0.00     0.157 A 
ATOM      5  C   UNL     1      16.320 -11.725  66.716  1.00  0.00     0.051 A 
ATOM      6  C   UNL     1      16.920 -11.104  65.619  1.00  0.00     0.016 A 
ENDROOT
BRANCH   1   7
ATOM      7  C   UNL     1      18.972 -10.482  64.288  1.00  0.00     0.159 C 
ATOM      8  C   UNL     1      20.294  -9.787  64.410  1.00  0.00     0.093 C 
ATOM      9  O   UNL     1      18.408 -10.502  63.160  1.00  0.00    -0.295 OA
ENDBRANCH   1   7
BRANCH   3  10
ATOM     10  O   UNL     1      19.242 -13.118  68.498  1.00  0.00    -0.493 OA
ATOM     11  C   UNL     1      20.418 -12.604  69.115  1.00  0.00     0.278 C 
ENDBRANCH   3  10
BRANCH   4  12
ATOM     12  O   UNL     1      16.499 -13.010  68.762  1.00  0.00    -0.504 OA
ATOM     13  H   UNL     1      16.253 -13.993  68.746  1.00  0.00     0.293 HD
ENDBRANCH   4  12
TORSDOF 3
ENDMDL
MODEL 4
REMARK VINA RESULT:    -5.082      2.645      4.965
REMARK INTER + INTRA:          -5.940
REMARK INTER:                  -5.819
REMARK INTRA:                  -0.121
REMARK UNBOUND:                -0.116
REMARK SMILES COc1cc(C(C)=O)ccc1O
REMARK SMILES IDX 5 1 4 2 3 3 11 4 10 5 9 6 6 7 7 8 8 9 2 10 1 11 12 12
REMARK H PARENT 12 13
REMARK Flexibility Score: inf
ROOT
ATOM      1  C   UNL     1      19.599 -10.500  67.245  1.00  0.00     0.021 A 
ATOM      2  C   UNL     1      18.330 -10.217  66.706  1.00  0.00     0.062 A 
ATOM      3  C   UNL     1      18.178  -9.903  65.340  1.00  0.00     0.161 A 
ATOM      4  C   UNL     1      19.308  -9.870  64.513  1.00  0.00     0.157 A 
ATOM      5  C   UNL     1      20.573 -10.149  65.042  1.00  0.00     0.051 A 
ATOM      6  C   UNL     1      20.720 -10.461  66.395  1.00  0.00     0.016 A 
ENDROOT
BRANCH   1   7
ATOM      7  C   UNL     1      19.739 -10.830  68.690  1.00  0.00     0.159 C 
ATOM      8  C   UNL     1      20.081 -12.213  69.158  1.00  0.00     0.093 C 
ATOM      9  O   UNL     1      19.566  -9.931  69.558  1.00  0.00    -0.295 OA
ENDBRANCH   1   7
BRANCH   3  10
ATOM     10  O   UNL     1      16.926  -9.616  64.772  1.00  0.00    -0.493 OA
ATOM     11  C   UNL     1      15.947 -10.595  64.441  1.00  0.00     0.278 C 
ENDBRANCH   3  10
BRANCH   4  12
ATOM     12  O   UNL     1      19.164  -9.558  63.161  1.00  0.00    -0.504 OA
ATOM     13  H   UNL     1      18.274  -9.266  62.776  1.00  0.00     0.293 HD
ENDBRANCH   4  12
TORSDOF 3
ENDMDL
MODEL 5
REMARK VINA RESULT:    -4.918      2.369      3.133
REMARK INTER + INTRA:          -5.752
REMARK INTER:                  -5.633
REMARK INTRA:                  -0.119
REMARK UNBOUND:                -0.116
REMARK SMILES COc1cc(C(C)=O)ccc1O
REMARK SMILES IDX 5 1 4 2 3 3 11 4 10 5 9 6 6 7 7 8 8 9 2 10 1 11 12 12
REMARK H PARENT 12 13
REMARK Flexibility Score: inf
ROOT
ATOM      1  C   UNL     1      16.796 -10.468  65.182  1.00  0.00     0.021 A 
ATOM      2  C   UNL     1      17.168 -10.275  66.526  1.00  0.00     0.062 A 
ATOM      3  C   UNL     1      18.466  -9.837  66.862  1.00  0.00     0.161 A 
ATOM      4  C   UNL     1      19.394  -9.593  65.841  1.00  0.00     0.157 A 
ATOM      5  C   UNL     1      19.032  -9.784  64.503  1.00  0.00     0.051 A 
ATOM      6  C   UNL     1      17.746 -10.216  64.174  1.00  0.00     0.016 A 
ENDROOT
BRANCH   1   7
ATOM      7  C   UNL     1      15.421 -10.931  64.847  1.00  0.00     0.159 C 
ATOM      8  C   UNL     1      14.664 -10.385  63.674  1.00  0.00     0.093 C 
ATOM      9  O   UNL     1      14.864 -11.806  65.564  1.00  0.00    -0.295 OA
ENDBRANCH   1   7
BRANCH   3  10
ATOM     10  O   UNL     1      18.867  -9.636  68.191  1.00  0.00    -0.493 OA
ATOM     11  C   UNL     1      19.376 -10.656  69.045  1.00  0.00     0.278 C 
ENDBRANCH   3  10
BRANCH   4  12
ATOM     12  O   UNL     1      20.679  -9.161  66.167  1.00  0.00    -0.504 OA
ATOM     13  H   UNL     1      21.422  -9.817  66.374  1.00  0.00     0.293 HD
ENDBRANCH   4  12
TORSDOF 3
ENDMDL
MODEL 6
REMARK VINA RESULT:    -4.858      2.368      2.662
REMARK INTER + INTRA:          -5.684
REMARK INTER:                  -5.561
REMARK INTRA:                  -0.123
REMARK UNBOUND:                -0.116
REMARK SMILES COc1cc(C(C)=O)ccc1O
REMARK SMILES IDX 5 1 4 2 3 3 11 4 10 5 9 6 6 7 7 8 8 9 2 10 1 11 12 12
REMARK H PARENT 12 13
REMARK Flexibility Score: inf
ROOT
ATOM      1  C   UNL     1      17.590 -10.623  65.015  1.00  0.00     0.021 A 
ATOM      2  C   UNL     1      18.988 -10.504  65.135  1.00  0.00     0.062 A 
ATOM      3  C   UNL     1      19.576 -10.062  66.338  1.00  0.00     0.161 A 
ATOM      4  C   UNL     1      18.754  -9.737  67.425  1.00  0.00     0.157 A 
ATOM      5  C   UNL     1      17.365  -9.853  67.314  1.00  0.00     0.051 A 
ATOM      6  C   UNL     1      16.785 -10.291  66.122  1.00  0.00     0.016 A 
ENDROOT
BRANCH   1   7
ATOM      7  C   UNL     1      16.988 -11.092  63.737  1.00  0.00     0.159 C 
ATOM      8  C   UNL     1      15.562 -10.799  63.377  1.00  0.00     0.093 C 
ATOM      9  O   UNL     1      17.686 -11.757  62.923  1.00  0.00    -0.295 OA
ENDBRANCH   1   7
BRANCH   3  10
ATOM     10  O   UNL     1      20.965  -9.932  66.489  1.00  0.00    -0.493 OA
ATOM     11  C   UNL     1      21.916 -10.922  66.109  1.00  0.00     0.278 C 
ENDBRANCH   3  10
BRANCH   4  12
ATOM     12  O   UNL     1      19.330  -9.299  68.617  1.00  0.00    -0.504 OA
ATOM     13  H   UNL     1      19.964  -8.510  68.641  1.00  0.00     0.293 HD
ENDBRANCH   4  12
TORSDOF 3
ENDMDL
MODEL 7
REMARK VINA RESULT:    -4.824      2.463      3.432
REMARK INTER + INTRA:          -5.645
REMARK INTER:                  -5.530
REMARK INTRA:                  -0.115
REMARK UNBOUND:                -0.116
REMARK SMILES COc1cc(C(C)=O)ccc1O
REMARK SMILES IDX 5 1 4 2 3 3 11 4 10 5 9 6 6 7 7 8 8 9 2 10 1 11 12 12
REMARK H PARENT 12 13
REMARK Flexibility Score: inf
ROOT
ATOM      1  C   UNL     1      17.337 -10.994  63.642  1.00  0.00     0.021 A 
ATOM      2  C   UNL     1      17.110 -11.339  64.988  1.00  0.00     0.062 A 
ATOM      3  C   UNL     1      17.798 -10.684  66.029  1.00  0.00     0.161 A 
ATOM      4  C   UNL     1      18.720  -9.676  65.715  1.00  0.00     0.157 A 
ATOM      5  C   UNL     1      18.951  -9.328  64.380  1.00  0.00     0.051 A 
ATOM      6  C   UNL     1      18.268  -9.979  63.352  1.00  0.00     0.016 A 
ENDROOT
BRANCH   1   7
ATOM      7  C   UNL     1      16.600 -11.698  62.556  1.00  0.00     0.159 C 
ATOM      8  C   UNL     1      15.244 -11.251  62.099  1.00  0.00     0.093 C 
ATOM      9  O   UNL     1      17.120 -12.702  61.997  1.00  0.00    -0.295 OA
ENDBRANCH   1   7
BRANCH   3  10
ATOM     10  O   UNL     1      17.595 -11.005  67.380  1.00  0.00    -0.493 OA
ATOM     11  C   UNL     1      18.160 -12.135  68.036  1.00  0.00     0.278 C 
ENDBRANCH   3  10
BRANCH   4  12
ATOM     12  O   UNL     1      19.404  -9.025  66.741  1.00  0.00    -0.504 OA
ATOM     13  H   UNL     1      20.415  -9.055  66.807  1.00  0.00     0.293 HD
ENDBRANCH   4  12
TORSDOF 3
ENDMDL
MODEL 8
REMARK VINA RESULT:    -4.693      1.708      4.168
REMARK INTER + INTRA:          -5.495
REMARK INTER:                  -5.380
REMARK INTRA:                  -0.115
REMARK UNBOUND:                -0.116
REMARK SMILES COc1cc(C(C)=O)ccc1O
REMARK SMILES IDX 5 1 4 2 3 3 11 4 10 5 9 6 6 7 7 8 8 9 2 10 1 11 12 12
REMARK H PARENT 12 13
REMARK Flexibility Score: inf
ROOT
ATOM      1  C   UNL     1      19.496 -11.789  68.001  1.00  0.00     0.021 A 
ATOM      2  C   UNL     1      19.060 -12.235  66.738  1.00  0.00     0.062 A 
ATOM      3  C   UNL     1      18.268 -11.410  65.914  1.00  0.00     0.161 A 
ATOM      4  C   UNL     1      17.910 -10.132  66.363  1.00  0.00     0.157 A 
ATOM      5  C   UNL     1      18.339  -9.682  67.616  1.00  0.00     0.051 A 
ATOM      6  C   UNL     1      19.124 -10.501  68.429  1.00  0.00     0.016 A 
ENDROOT
BRANCH   1   7
ATOM      7  C   UNL     1      20.334 -12.674  68.857  1.00  0.00     0.159 C 
ATOM      8  C   UNL     1      20.677 -14.076  68.451  1.00  0.00     0.093 C 
ATOM      9  O   UNL     1      20.773 -12.245  69.959  1.00  0.00    -0.295 OA
ENDBRANCH   1   7
BRANCH   3  10
ATOM     10  O   UNL     1      17.817 -11.825  64.652  1.00  0.00    -0.493 OA
ATOM     11  C   UNL     1      16.765 -12.760  64.436  1.00  0.00     0.278 C 
ENDBRANCH   3  10
BRANCH   4  12
ATOM     12  O   UNL     1      17.125  -9.312  65.552  1.00  0.00    -0.504 OA
ATOM     13  H   UNL     1      16.241  -8.937  65.875  1.00  0.00     0.293 HD
ENDBRANCH   4  12
TORSDOF 3
ENDMDL
