MODEL 1
REMARK VINA RESULT:    -4.908      0.000      0.000
REMARK INTER + INTRA:          -8.487
REMARK INTER:                  -7.491
REMARK INTRA:                  -0.996
REMARK UNBOUND:                -0.996
REMARK SMILES OC[C@@H]1O[C@](CO)(O[C@H]2O[C@H](CO)[C@H](O)[C@@H](O)[C@H]2O)[C@H](O)[C@@H]1O
REMARK SMILES IDX 8 1 9 2 11 3 14 4 10 5 16 6 18 7 12 8 13 9 15 11 17 13 19 15
REMARK SMILES IDX 5 17 20 18 4 19 22 20 3 21 6 22 7 23 21 25 23 27 2 29 1 30
REMARK H PARENT 13 10 15 12 17 14 19 16 7 24 21 26 23 28 1 31
REMARK Flexibility Score: inf
ROOT
ATOM      1  O   UNL     1      33.810 -10.330  34.428  1.00  0.00    -0.313 OA
ENDROOT
BRANCH   1   2
ATOM      2  C   UNL     1      34.700  -9.832  33.438  1.00  0.00     0.285 C 
ATOM      3  C   UNL     1      33.597  -7.821  32.934  1.00  0.00     0.178 C 
ATOM      4  C   UNL     1      34.832  -6.884  33.073  1.00  0.00     0.177 C 
ATOM      5  O   UNL     1      33.987  -9.094  32.449  1.00  0.00    -0.341 OA
ATOM      6  C   UNL     1      36.123  -7.709  33.310  1.00  0.00     0.179 C 
ATOM      7  C   UNL     1      35.850  -9.008  34.100  1.00  0.00     0.202 C 
BRANCH   3   8
ATOM      8  C   UNL     1      32.490  -7.245  32.032  1.00  0.00     0.191 C 
BRANCH   8   9
ATOM      9  O   UNL     1      32.089  -5.972  32.465  1.00  0.00    -0.394 OA
ATOM     10  H   UNL     1      32.313  -5.337  31.735  1.00  0.00     0.210 HD
ENDBRANCH   8   9
ENDBRANCH   3   8
BRANCH   4  11
ATOM     11  O   UNL     1      35.000  -6.090  31.924  1.00  0.00    -0.387 OA
ATOM     12  H   UNL     1      34.299  -5.388  31.954  1.00  0.00     0.211 HD
ENDBRANCH   4  11
BRANCH   6  13
ATOM     13  O   UNL     1      37.125  -6.935  33.922  1.00  0.00    -0.387 OA
ATOM     14  H   UNL     1      38.004  -7.269  33.608  1.00  0.00     0.211 HD
ENDBRANCH   6  13
BRANCH   7  15
ATOM     15  O   UNL     1      35.598  -8.750  35.462  1.00  0.00    -0.385 OA
ATOM     16  H   UNL     1      35.342  -7.797  35.554  1.00  0.00     0.211 HD
ENDBRANCH   7  15
ENDBRANCH   1   2
BRANCH   1  17
ATOM     17  C   UNL     1      34.120 -11.643  34.903  1.00  0.00     0.224 C 
ATOM     18  C   UNL     1      33.010 -12.163  35.861  1.00  0.00     0.208 C 
ATOM     19  O   UNL     1      35.364 -11.709  35.589  1.00  0.00    -0.337 OA
ATOM     20  C   UNL     1      33.754 -12.539  37.136  1.00  0.00     0.180 C 
ATOM     21  C   UNL     1      35.209 -12.614  36.658  1.00  0.00     0.179 C 
BRANCH  17  22
ATOM     22  C   UNL     1      34.211 -12.554  33.659  1.00  0.00     0.225 C 
BRANCH  22  23
ATOM     23  O   UNL     1      33.630 -13.805  33.917  1.00  0.00    -0.391 OA
ATOM     24  H   UNL     1      32.868 -13.645  34.531  1.00  0.00     0.210 HD
ENDBRANCH  22  23
ENDBRANCH  17  22
BRANCH  18  25
ATOM     25  O   UNL     1      31.954 -11.253  36.074  1.00  0.00    -0.385 OA
ATOM     26  H   UNL     1      31.249 -11.694  36.612  1.00  0.00     0.211 HD
ENDBRANCH  18  25
BRANCH  20  27
ATOM     27  O   UNL     1      33.557 -11.612  38.181  1.00  0.00    -0.387 OA
ATOM     28  H   UNL     1      33.268 -12.107  38.989  1.00  0.00     0.211 HD
ENDBRANCH  20  27
BRANCH  21  29
ATOM     29  C   UNL     1      36.259 -12.336  37.744  1.00  0.00     0.191 C 
BRANCH  29  30
ATOM     30  O   UNL     1      36.142 -13.255  38.798  1.00  0.00    -0.394 OA
ATOM     31  H   UNL     1      36.795 -12.976  39.490  1.00  0.00     0.210 HD
ENDBRANCH  29  30
ENDBRANCH  21  29
ENDBRANCH   1  17
TORSDOF 13
ENDMDL
MODEL 2
REMARK VINA RESULT:    -4.765      3.764      6.029
REMARK INTER + INTRA:          -8.267
REMARK INTER:                  -6.782
REMARK INTRA:                  -1.486
REMARK UNBOUND:                -0.996
REMARK SMILES OC[C@@H]1O[C@](CO)(O[C@H]2O[C@H](CO)[C@H](O)[C@@H](O)[C@H]2O)[C@H](O)[C@@H]1O
REMARK SMILES IDX 8 1 9 2 11 3 14 4 10 5 16 6 18 7 12 8 13 9 15 11 17 13 19 15
REMARK SMILES IDX 5 17 20 18 4 19 22 20 3 21 6 22 7 23 21 25 23 27 2 29 1 30
REMARK H PARENT 13 10 15 12 17 14 19 16 7 24 21 26 23 28 1 31
REMARK Flexibility Score: inf
ROOT
ATOM      1  O   UNL     1      33.387  -8.369  31.126  1.00  0.00    -0.313 OA
ENDROOT
BRANCH   1   2
ATOM      2  C   UNL     1      32.417  -7.340  31.274  1.00  0.00     0.285 C 
ATOM      3  C   UNL     1      30.650  -8.330  30.088  1.00  0.00     0.178 C 
ATOM      4  C   UNL     1      29.553  -8.131  31.175  1.00  0.00     0.177 C 
ATOM      5  O   UNL     1      31.584  -7.265  30.120  1.00  0.00    -0.341 OA
ATOM      6  C   UNL     1      30.102  -7.298  32.361  1.00  0.00     0.179 C 
ATOM      7  C   UNL     1      31.610  -7.536  32.597  1.00  0.00     0.202 C 
BRANCH   3   8
ATOM      8  C   UNL     1      30.081  -8.470  28.665  1.00  0.00     0.191 C 
BRANCH   8   9
ATOM      9  O   UNL     1      29.973  -7.222  28.031  1.00  0.00    -0.394 OA
ATOM     10  H   UNL     1      29.737  -7.400  27.084  1.00  0.00     0.210 HD
ENDBRANCH   8   9
ENDBRANCH   3   8
BRANCH   4  11
ATOM     11  O   UNL     1      28.421  -7.485  30.645  1.00  0.00    -0.387 OA
ATOM     12  H   UNL     1      28.667  -6.532  30.517  1.00  0.00     0.211 HD
ENDBRANCH   4  11
BRANCH   6  13
ATOM     13  O   UNL     1      29.357  -7.516  33.534  1.00  0.00    -0.387 OA
ATOM     14  H   UNL     1      28.468  -7.092  33.416  1.00  0.00     0.211 HD
ENDBRANCH   6  13
BRANCH   7  15
ATOM     15  O   UNL     1      31.855  -8.793  33.184  1.00  0.00    -0.385 OA
ATOM     16  H   UNL     1      31.686  -9.492  32.504  1.00  0.00     0.211 HD
ENDBRANCH   7  15
ENDBRANCH   1   2
BRANCH   1  17
ATOM     17  C   UNL     1      34.741  -7.945  31.306  1.00  0.00     0.224 C 
ATOM     18  C   UNL     1      35.457  -8.815  32.378  1.00  0.00     0.208 C 
ATOM     19  O   UNL     1      34.851  -6.581  31.696  1.00  0.00    -0.337 OA
ATOM     20  C   UNL     1      35.989  -7.809  33.391  1.00  0.00     0.180 C 
ATOM     21  C   UNL     1      35.917  -6.490  32.612  1.00  0.00     0.179 C 
BRANCH  17  22
ATOM     22  C   UNL     1      35.442  -8.109  29.940  1.00  0.00     0.225 C 
BRANCH  22  23
ATOM     23  O   UNL     1      35.627  -6.863  29.324  1.00  0.00    -0.391 OA
ATOM     24  H   UNL     1      35.159  -6.903  28.450  1.00  0.00     0.210 HD
ENDBRANCH  22  23
ENDBRANCH  17  22
BRANCH  18  25
ATOM     25  O   UNL     1      34.644  -9.815  32.952  1.00  0.00    -0.385 OA
ATOM     26  H   UNL     1      33.787  -9.410  33.240  1.00  0.00     0.211 HD
ENDBRANCH  18  25
BRANCH  20  27
ATOM     27  O   UNL     1      35.247  -7.791  34.589  1.00  0.00    -0.387 OA
ATOM     28  H   UNL     1      34.288  -7.691  34.363  1.00  0.00     0.211 HD
ENDBRANCH  20  27
BRANCH  21  29
ATOM     29  C   UNL     1      35.760  -5.235  33.484  1.00  0.00     0.191 C 
BRANCH  29  30
ATOM     30  O   UNL     1      34.513  -5.226  34.125  1.00  0.00    -0.394 OA
ATOM     31  H   UNL     1      34.305  -6.168  34.354  1.00  0.00     0.210 HD
ENDBRANCH  29  30
ENDBRANCH  21  29
ENDBRANCH   1  17
TORSDOF 13
ENDMDL
MODEL 3
REMARK VINA RESULT:    -4.668      3.313      6.648
REMARK INTER + INTRA:          -8.120
REMARK INTER:                  -6.841
REMARK INTRA:                  -1.279
REMARK UNBOUND:                -0.996
REMARK SMILES OC[C@@H]1O[C@](CO)(O[C@H]2O[C@H](CO)[C@H](O)[C@@H](O)[C@H]2O)[C@H](O)[C@@H]1O
REMARK SMILES IDX 8 1 9 2 11 3 14 4 10 5 16 6 18 7 12 8 13 9 15 11 17 13 19 15
REMARK SMILES IDX 5 17 20 18 4 19 22 20 3 21 6 22 7 23 21 25 23 27 2 29 1 30
REMARK H PARENT 13 10 15 12 17 14 19 16 7 24 21 26 23 28 1 31
REMARK Flexibility Score: inf
ROOT
ATOM      1  O   UNL     1      31.502  -7.525  33.195  1.00  0.00    -0.313 OA
ENDROOT
BRANCH   1   2
ATOM      2  C   UNL     1      30.438  -8.250  32.594  1.00  0.00     0.285 C 
ATOM      3  C   UNL     1      29.657  -9.392  34.491  1.00  0.00     0.178 C 
ATOM      4  C   UNL     1      28.153  -9.023  34.333  1.00  0.00     0.177 C 
ATOM      5  O   UNL     1      30.277  -9.519  33.223  1.00  0.00    -0.341 OA
ATOM      6  C   UNL     1      27.912  -8.261  33.005  1.00  0.00     0.179 C 
ATOM      7  C   UNL     1      29.128  -7.399  32.595  1.00  0.00     0.202 C 
BRANCH   3   8
ATOM      8  C   UNL     1      29.888 -10.678  35.306  1.00  0.00     0.191 C 
BRANCH   8   9
ATOM      9  O   UNL     1      31.249 -10.859  35.601  1.00  0.00    -0.394 OA
ATOM     10  H   UNL     1      31.678 -11.205  34.776  1.00  0.00     0.210 HD
ENDBRANCH   8   9
ENDBRANCH   3   8
BRANCH   4  11
ATOM     11  O   UNL     1      27.341 -10.172  34.356  1.00  0.00    -0.387 OA
ATOM     12  H   UNL     1      26.925 -10.249  33.459  1.00  0.00     0.211 HD
ENDBRANCH   4  11
BRANCH   6  13
ATOM     13  O   UNL     1      26.733  -7.496  33.055  1.00  0.00    -0.387 OA
ATOM     14  H   UNL     1      26.363  -7.564  33.972  1.00  0.00     0.211 HD
ENDBRANCH   6  13
BRANCH   7  15
ATOM     15  O   UNL     1      29.246  -6.247  33.397  1.00  0.00    -0.385 OA
ATOM     16  H   UNL     1      28.746  -5.512  32.960  1.00  0.00     0.211 HD
ENDBRANCH   7  15
ENDBRANCH   1   2
BRANCH   1  17
ATOM     17  C   UNL     1      32.671  -7.395  32.382  1.00  0.00     0.224 C 
ATOM     18  C   UNL     1      33.665  -8.562  32.647  1.00  0.00     0.208 C 
ATOM     19  O   UNL     1      33.361  -6.168  32.589  1.00  0.00    -0.337 OA
ATOM     20  C   UNL     1      34.975  -7.870  33.005  1.00  0.00     0.180 C 
ATOM     21  C   UNL     1      34.740  -6.441  32.501  1.00  0.00     0.179 C 
BRANCH  17  22
ATOM     22  C   UNL     1      32.195  -7.433  30.913  1.00  0.00     0.225 C 
BRANCH  22  23
ATOM     23  O   UNL     1      32.942  -8.362  30.173  1.00  0.00    -0.391 OA
ATOM     24  H   UNL     1      33.147  -9.116  30.784  1.00  0.00     0.210 HD
ENDBRANCH  22  23
ENDBRANCH  17  22
BRANCH  18  25
ATOM     25  O   UNL     1      33.232  -9.483  33.623  1.00  0.00    -0.385 OA
ATOM     26  H   UNL     1      33.634 -10.368  33.435  1.00  0.00     0.211 HD
ENDBRANCH  18  25
BRANCH  20  27
ATOM     27  O   UNL     1      35.272  -7.935  34.382  1.00  0.00    -0.387 OA
ATOM     28  H   UNL     1      34.525  -7.523  34.884  1.00  0.00     0.211 HD
ENDBRANCH  20  27
BRANCH  21  29
ATOM     29  C   UNL     1      35.542  -5.358  33.240  1.00  0.00     0.191 C 
BRANCH  29  30
ATOM     30  O   UNL     1      34.900  -4.987  34.431  1.00  0.00    -0.394 OA
ATOM     31  H   UNL     1      35.311  -5.526  35.154  1.00  0.00     0.210 HD
ENDBRANCH  29  30
ENDBRANCH  21  29
ENDBRANCH   1  17
TORSDOF 13
ENDMDL
MODEL 4
REMARK VINA RESULT:    -4.658      4.566      8.011
REMARK INTER + INTRA:          -8.105
REMARK INTER:                  -7.070
REMARK INTRA:                  -1.035
REMARK UNBOUND:                -0.996
REMARK SMILES OC[C@@H]1O[C@](CO)(O[C@H]2O[C@H](CO)[C@H](O)[C@@H](O)[C@H]2O)[C@H](O)[C@@H]1O
REMARK SMILES IDX 8 1 9 2 11 3 14 4 10 5 16 6 18 7 12 8 13 9 15 11 17 13 19 15
REMARK SMILES IDX 5 17 20 18 4 19 22 20 3 21 6 22 7 23 21 25 23 27 2 29 1 30
REMARK H PARENT 13 10 15 12 17 14 19 16 7 24 21 26 23 28 1 31
REMARK Flexibility Score: inf
ROOT
ATOM      1  O   UNL     1      34.748  -8.223  29.164  1.00  0.00    -0.313 OA
ENDROOT
BRANCH   1   2
ATOM      2  C   UNL     1      34.808  -8.857  30.435  1.00  0.00     0.285 C 
ATOM      3  C   UNL     1      35.484  -7.020  31.730  1.00  0.00     0.178 C 
ATOM      4  C   UNL     1      34.400  -7.154  32.837  1.00  0.00     0.177 C 
ATOM      5  O   UNL     1      35.849  -8.294  31.229  1.00  0.00    -0.341 OA
ATOM      6  C   UNL     1      33.560  -8.441  32.630  1.00  0.00     0.179 C 
ATOM      7  C   UNL     1      33.413  -8.809  31.136  1.00  0.00     0.202 C 
BRANCH   3   8
ATOM      8  C   UNL     1      36.747  -6.273  32.198  1.00  0.00     0.191 C 
BRANCH   8   9
ATOM      9  O   UNL     1      36.418  -5.119  32.926  1.00  0.00    -0.394 OA
ATOM     10  H   UNL     1      35.906  -5.417  33.722  1.00  0.00     0.210 HD
ENDBRANCH   8   9
ENDBRANCH   3   8
BRANCH   4  11
ATOM     11  O   UNL     1      34.981  -7.188  34.118  1.00  0.00    -0.387 OA
ATOM     12  H   UNL     1      35.624  -6.434  34.163  1.00  0.00     0.211 HD
ENDBRANCH   4  11
BRANCH   6  13
ATOM     13  O   UNL     1      32.308  -8.348  33.263  1.00  0.00    -0.387 OA
ATOM     14  H   UNL     1      31.767  -7.674  32.776  1.00  0.00     0.211 HD
ENDBRANCH   6  13
BRANCH   7  15
ATOM     15  O   UNL     1      32.516  -7.949  30.472  1.00  0.00    -0.385 OA
ATOM     16  H   UNL     1      31.624  -8.379  30.461  1.00  0.00     0.211 HD
ENDBRANCH   7  15
ENDBRANCH   1   2
BRANCH   1  17
ATOM     17  C   UNL     1      35.236  -9.014  28.077  1.00  0.00     0.224 C 
ATOM     18  C   UNL     1      36.626  -8.504  27.600  1.00  0.00     0.208 C 
ATOM     19  O   UNL     1      34.359  -9.024  26.958  1.00  0.00    -0.337 OA
ATOM     20  C   UNL     1      36.445  -8.248  26.109  1.00  0.00     0.180 C 
ATOM     21  C   UNL     1      35.157  -9.020  25.797  1.00  0.00     0.179 C 
BRANCH  17  22
ATOM     22  C   UNL     1      35.357 -10.461  28.603  1.00  0.00     0.225 C 
BRANCH  22  23
ATOM     23  O   UNL     1      36.653 -10.956  28.397  1.00  0.00    -0.391 OA
ATOM     24  H   UNL     1      36.589 -11.640  27.681  1.00  0.00     0.210 HD
ENDBRANCH  22  23
ENDBRANCH  17  22
BRANCH  18  25
ATOM     25  O   UNL     1      37.108  -7.384  28.308  1.00  0.00    -0.385 OA
ATOM     26  H   UNL     1      37.688  -6.847  27.711  1.00  0.00     0.211 HD
ENDBRANCH  18  25
BRANCH  20  27
ATOM     27  O   UNL     1      36.364  -6.876  25.793  1.00  0.00    -0.387 OA
ATOM     28  H   UNL     1      35.418  -6.592  25.870  1.00  0.00     0.211 HD
ENDBRANCH  20  27
BRANCH  21  29
ATOM     29  C   UNL     1      34.355  -8.478  24.604  1.00  0.00     0.191 C 
BRANCH  29  30
ATOM     30  O   UNL     1      32.994  -8.796  24.732  1.00  0.00    -0.394 OA
ATOM     31  H   UNL     1      32.864  -9.112  25.663  1.00  0.00     0.210 HD
ENDBRANCH  29  30
ENDBRANCH  21  29
ENDBRANCH   1  17
TORSDOF 13
ENDMDL
MODEL 5
REMARK VINA RESULT:    -4.625      4.659      6.998
REMARK INTER + INTRA:          -8.054
REMARK INTER:                  -6.772
REMARK INTRA:                  -1.282
REMARK UNBOUND:                -0.996
REMARK SMILES OC[C@@H]1O[C@](CO)(O[C@H]2O[C@H](CO)[C@H](O)[C@@H](O)[C@H]2O)[C@H](O)[C@@H]1O
REMARK SMILES IDX 8 1 9 2 11 3 14 4 10 5 16 6 18 7 12 8 13 9 15 11 17 13 19 15
REMARK SMILES IDX 5 17 20 18 4 19 22 20 3 21 6 22 7 23 21 25 23 27 2 29 1 30
REMARK H PARENT 13 10 15 12 17 14 19 16 7 24 21 26 23 28 1 31
REMARK Flexibility Score: inf
ROOT
ATOM      1  O   UNL     1      32.373  -7.421  30.792  1.00  0.00    -0.313 OA
ENDROOT
BRANCH   1   2
ATOM      2  C   UNL     1      33.266  -7.695  31.863  1.00  0.00     0.285 C 
ATOM      3  C   UNL     1      35.232  -6.810  30.934  1.00  0.00     0.178 C 
ATOM      4  C   UNL     1      35.642  -5.930  32.150  1.00  0.00     0.177 C 
ATOM      5  O   UNL     1      34.570  -7.985  31.366  1.00  0.00    -0.341 OA
ATOM      6  C   UNL     1      34.691  -6.176  33.350  1.00  0.00     0.179 C 
ATOM      7  C   UNL     1      33.256  -6.524  32.897  1.00  0.00     0.202 C 
BRANCH   3   8
ATOM      8  C   UNL     1      36.418  -7.193  30.029  1.00  0.00     0.191 C 
BRANCH   8   9
ATOM      9  O   UNL     1      36.013  -7.354  28.695  1.00  0.00    -0.394 OA
ATOM     10  H   UNL     1      35.251  -7.991  28.701  1.00  0.00     0.210 HD
ENDBRANCH   8   9
ENDBRANCH   3   8
BRANCH   4  11
ATOM     11  O   UNL     1      36.964  -6.198  32.550  1.00  0.00    -0.387 OA
ATOM     12  H   UNL     1      37.510  -5.412  32.288  1.00  0.00     0.211 HD
ENDBRANCH   4  11
BRANCH   6  13
ATOM     13  O   UNL     1      34.700  -5.093  34.247  1.00  0.00    -0.387 OA
ATOM     14  H   UNL     1      34.861  -4.265  33.725  1.00  0.00     0.211 HD
ENDBRANCH   6  13
BRANCH   7  15
ATOM     15  O   UNL     1      32.573  -5.393  32.408  1.00  0.00    -0.385 OA
ATOM     16  H   UNL     1      32.952  -5.160  31.523  1.00  0.00     0.211 HD
ENDBRANCH   7  15
ENDBRANCH   1   2
BRANCH   1  17
ATOM     17  C   UNL     1      31.484  -8.493  30.466  1.00  0.00     0.224 C 
ATOM     18  C   UNL     1      32.114  -9.429  29.394  1.00  0.00     0.208 C 
ATOM     19  O   UNL     1      30.225  -8.045  29.979  1.00  0.00    -0.337 OA
ATOM     20  C   UNL     1      31.082  -9.472  28.275  1.00  0.00     0.180 C 
ATOM     21  C   UNL     1      29.822  -8.940  28.968  1.00  0.00     0.179 C 
BRANCH  17  22
ATOM     22  C   UNL     1      31.239  -9.279  31.773  1.00  0.00     0.225 C 
BRANCH  22  23
ATOM     23  O   UNL     1      31.475 -10.648  31.580  1.00  0.00    -0.391 OA
ATOM     24  H   UNL     1      30.794 -11.133  32.113  1.00  0.00     0.210 HD
ENDBRANCH  22  23
ENDBRANCH  17  22
BRANCH  18  25
ATOM     25  O   UNL     1      33.397  -9.034  28.961  1.00  0.00    -0.385 OA
ATOM     26  H   UNL     1      33.505  -9.273  28.006  1.00  0.00     0.211 HD
ENDBRANCH  18  25
BRANCH  20  27
ATOM     27  O   UNL     1      31.461  -8.715  27.147  1.00  0.00    -0.387 OA
ATOM     28  H   UNL     1      30.641  -8.413  26.682  1.00  0.00     0.211 HD
ENDBRANCH  20  27
BRANCH  21  29
ATOM     29  C   UNL     1      28.810  -8.262  28.032  1.00  0.00     0.191 C 
BRANCH  29  30
ATOM     30  O   UNL     1      29.263  -6.993  27.643  1.00  0.00    -0.394 OA
ATOM     31  H   UNL     1      29.516  -6.515  28.475  1.00  0.00     0.210 HD
ENDBRANCH  29  30
ENDBRANCH  21  29
ENDBRANCH   1  17
TORSDOF 13
ENDMDL
MODEL 6
REMARK VINA RESULT:    -4.585      7.253      9.684
REMARK INTER + INTRA:          -7.993
REMARK INTER:                  -6.727
REMARK INTRA:                  -1.266
REMARK UNBOUND:                -0.996
REMARK SMILES OC[C@@H]1O[C@](CO)(O[C@H]2O[C@H](CO)[C@H](O)[C@@H](O)[C@H]2O)[C@H](O)[C@@H]1O
REMARK SMILES IDX 8 1 9 2 11 3 14 4 10 5 16 6 18 7 12 8 13 9 15 11 17 13 19 15
REMARK SMILES IDX 5 17 20 18 4 19 22 20 3 21 6 22 7 23 21 25 23 27 2 29 1 30
REMARK H PARENT 13 10 15 12 17 14 19 16 7 24 21 26 23 28 1 31
REMARK Flexibility Score: inf
ROOT
ATOM      1  O   UNL     1      32.380  -8.717  26.259  1.00  0.00    -0.313 OA
ENDROOT
BRANCH   1   2
ATOM      2  C   UNL     1      31.298  -9.595  26.540  1.00  0.00     0.285 C 
ATOM      3  C   UNL     1      30.136  -8.264  28.085  1.00  0.00     0.178 C 
ATOM      4  C   UNL     1      28.734  -8.375  27.420  1.00  0.00     0.177 C 
ATOM      5  O   UNL     1      30.877  -9.456  27.894  1.00  0.00    -0.341 OA
ATOM      6  C   UNL     1      28.768  -9.369  26.231  1.00  0.00     0.179 C 
ATOM      7  C   UNL     1      30.138  -9.379  25.516  1.00  0.00     0.202 C 
BRANCH   3   8
ATOM      8  C   UNL     1      30.076  -7.932  29.587  1.00  0.00     0.191 C 
BRANCH   8   9
ATOM      9  O   UNL     1      31.336  -7.557  30.080  1.00  0.00    -0.394 OA
ATOM     10  H   UNL     1      31.553  -8.182  30.819  1.00  0.00     0.210 HD
ENDBRANCH   8   9
ENDBRANCH   3   8
BRANCH   4  11
ATOM     11  O   UNL     1      27.764  -8.802  28.346  1.00  0.00    -0.387 OA
ATOM     12  H   UNL     1      27.682  -8.085  29.028  1.00  0.00     0.211 HD
ENDBRANCH   4  11
BRANCH   6  13
ATOM     13  O   UNL     1      27.718  -9.130  25.327  1.00  0.00    -0.387 OA
ATOM     14  H   UNL     1      27.876  -9.684  24.519  1.00  0.00     0.211 HD
ENDBRANCH   6  13
BRANCH   7  15
ATOM     15  O   UNL     1      30.330  -8.222  24.736  1.00  0.00    -0.385 OA
ATOM     16  H   UNL     1      31.122  -7.740  25.086  1.00  0.00     0.211 HD
ENDBRANCH   7  15
ENDBRANCH   1   2
BRANCH   1  17
ATOM     17  C   UNL     1      33.647  -9.360  26.102  1.00  0.00     0.224 C 
ATOM     18  C   UNL     1      34.379  -9.486  27.469  1.00  0.00     0.208 C 
ATOM     19  O   UNL     1      34.509  -8.679  25.198  1.00  0.00    -0.337 OA
ATOM     20  C   UNL     1      35.733  -8.828  27.237  1.00  0.00     0.180 C 
ATOM     21  C   UNL     1      35.819  -8.784  25.706  1.00  0.00     0.179 C 
BRANCH  17  22
ATOM     22  C   UNL     1      33.363 -10.764  25.525  1.00  0.00     0.225 C 
BRANCH  22  23
ATOM     23  O   UNL     1      34.017 -11.751  26.276  1.00  0.00    -0.391 OA
ATOM     24  H   UNL     1      34.991 -11.591  26.172  1.00  0.00     0.210 HD
ENDBRANCH  22  23
ENDBRANCH  17  22
BRANCH  18  25
ATOM     25  O   UNL     1      33.669  -8.943  28.560  1.00  0.00    -0.385 OA
ATOM     26  H   UNL     1      34.016  -8.036  28.753  1.00  0.00     0.211 HD
ENDBRANCH  18  25
BRANCH  20  27
ATOM     27  O   UNL     1      35.836  -7.557  27.839  1.00  0.00    -0.387 OA
ATOM     28  H   UNL     1      36.459  -7.005  27.302  1.00  0.00     0.211 HD
ENDBRANCH  20  27
BRANCH  21  29
ATOM     29  C   UNL     1      36.698  -7.656  25.143  1.00  0.00     0.191 C 
BRANCH  29  30
ATOM     30  O   UNL     1      35.998  -6.440  25.125  1.00  0.00    -0.394 OA
ATOM     31  H   UNL     1      35.997  -6.128  24.183  1.00  0.00     0.210 HD
ENDBRANCH  29  30
ENDBRANCH  21  29
ENDBRANCH   1  17
TORSDOF 13
ENDMDL
MODEL 7
REMARK VINA RESULT:    -4.548      7.327      9.951
REMARK INTER + INTRA:          -7.938
REMARK INTER:                  -6.571
REMARK INTRA:                  -1.367
REMARK UNBOUND:                -0.996
REMARK SMILES OC[C@@H]1O[C@](CO)(O[C@H]2O[C@H](CO)[C@H](O)[C@@H](O)[C@H]2O)[C@H](O)[C@@H]1O
REMARK SMILES IDX 8 1 9 2 11 3 14 4 10 5 16 6 18 7 12 8 13 9 15 11 17 13 19 15
REMARK SMILES IDX 5 17 20 18 4 19 22 20 3 21 6 22 7 23 21 25 23 27 2 29 1 30
REMARK H PARENT 13 10 15 12 17 14 19 16 7 24 21 26 23 28 1 31
REMARK Flexibility Score: inf
ROOT
ATOM      1  O   UNL     1      34.364 -10.738  26.583  1.00  0.00    -0.313 OA
ENDROOT
BRANCH   1   2
ATOM      2  C   UNL     1      33.612 -10.231  25.488  1.00  0.00     0.285 C 
ATOM      3  C   UNL     1      31.883 -11.819  25.467  1.00  0.00     0.178 C 
ATOM      4  C   UNL     1      30.696 -10.812  25.444  1.00  0.00     0.177 C 
ATOM      5  O   UNL     1      32.997 -11.295  24.766  1.00  0.00    -0.341 OA
ATOM      6  C   UNL     1      31.214  -9.358  25.302  1.00  0.00     0.179 C 
ATOM      7  C   UNL     1      32.589  -9.157  25.978  1.00  0.00     0.202 C 
BRANCH   3   8
ATOM      8  C   UNL     1      31.521 -13.202  24.896  1.00  0.00     0.191 C 
BRANCH   8   9
ATOM      9  O   UNL     1      32.596 -14.099  25.008  1.00  0.00    -0.394 OA
ATOM     10  H   UNL     1      33.082 -14.075  24.143  1.00  0.00     0.210 HD
ENDBRANCH   8   9
ENDBRANCH   3   8
BRANCH   4  11
ATOM     11  O   UNL     1      29.813 -11.089  24.384  1.00  0.00    -0.387 OA
ATOM     12  H   UNL     1      29.116 -10.384  24.398  1.00  0.00     0.211 HD
ENDBRANCH   4  11
BRANCH   6  13
ATOM     13  O   UNL     1      30.270  -8.425  25.769  1.00  0.00    -0.387 OA
ATOM     14  H   UNL     1      29.961  -7.888  24.995  1.00  0.00     0.211 HD
ENDBRANCH   6  13
BRANCH   7  15
ATOM     15  O   UNL     1      32.483  -9.131  27.383  1.00  0.00    -0.385 OA
ATOM     16  H   UNL     1      31.632  -8.683  27.621  1.00  0.00     0.211 HD
ENDBRANCH   7  15
ENDBRANCH   1   2
BRANCH   1  17
ATOM     17  C   UNL     1      35.746 -10.369  26.580  1.00  0.00     0.224 C 
ATOM     18  C   UNL     1      36.138  -9.677  27.917  1.00  0.00     0.208 C 
ATOM     19  O   UNL     1      36.087  -9.495  25.511  1.00  0.00    -0.337 OA
ATOM     20  C   UNL     1      36.744  -8.345  27.491  1.00  0.00     0.180 C 
ATOM     21  C   UNL     1      37.036  -8.577  26.004  1.00  0.00     0.179 C 
BRANCH  17  22
ATOM     22  C   UNL     1      36.553 -11.674  26.406  1.00  0.00     0.225 C 
BRANCH  22  23
ATOM     23  O   UNL     1      35.738 -12.794  26.629  1.00  0.00    -0.391 OA
ATOM     24  H   UNL     1      35.691 -13.289  25.771  1.00  0.00     0.210 HD
ENDBRANCH  22  23
ENDBRANCH  17  22
BRANCH  18  25
ATOM     25  O   UNL     1      35.076  -9.543  28.835  1.00  0.00    -0.385 OA
ATOM     26  H   UNL     1      34.635  -8.668  28.696  1.00  0.00     0.211 HD
ENDBRANCH  18  25
BRANCH  20  27
ATOM     27  O   UNL     1      35.886  -7.251  27.728  1.00  0.00    -0.387 OA
ATOM     28  H   UNL     1      35.767  -7.152  28.707  1.00  0.00     0.211 HD
ENDBRANCH  20  27
BRANCH  21  29
ATOM     29  C   UNL     1      37.040  -7.305  25.142  1.00  0.00     0.191 C 
BRANCH  29  30
ATOM     30  O   UNL     1      35.753  -6.751  25.065  1.00  0.00    -0.394 OA
ATOM     31  H   UNL     1      35.795  -6.033  24.381  1.00  0.00     0.210 HD
ENDBRANCH  29  30
ENDBRANCH  21  29
ENDBRANCH   1  17
TORSDOF 13
ENDMDL
MODEL 8
REMARK VINA RESULT:    -4.530     13.876     17.016
REMARK INTER + INTRA:          -7.910
REMARK INTER:                  -6.397
REMARK INTRA:                  -1.513
REMARK UNBOUND:                -0.996
REMARK SMILES OC[C@@H]1O[C@](CO)(O[C@H]2O[C@H](CO)[C@H](O)[C@@H](O)[C@H]2O)[C@H](O)[C@@H]1O
REMARK SMILES IDX 8 1 9 2 11 3 14 4 10 5 16 6 18 7 12 8 13 9 15 11 17 13 19 15
REMARK SMILES IDX 5 17 20 18 4 19 22 20 3 21 6 22 7 23 21 25 23 27 2 29 1 30
REMARK H PARENT 13 10 15 12 17 14 19 16 7 24 21 26 23 28 1 31
REMARK Flexibility Score: inf
ROOT
ATOM      1  O   UNL     1      28.197 -19.444  22.959  1.00  0.00    -0.313 OA
ENDROOT
BRANCH   1   2
ATOM      2  C   UNL     1      29.297 -20.205  23.441  1.00  0.00     0.285 C 
ATOM      3  C   UNL     1      28.450 -22.360  23.052  1.00  0.00     0.178 C 
ATOM      4  C   UNL     1      29.690 -22.921  22.297  1.00  0.00     0.177 C 
ATOM      5  O   UNL     1      28.846 -21.419  24.035  1.00  0.00    -0.341 OA
ATOM      6  C   UNL     1      30.851 -21.894  22.309  1.00  0.00     0.179 C 
ATOM      7  C   UNL     1      30.342 -20.435  22.303  1.00  0.00     0.202 C 
BRANCH   3   8
ATOM      8  C   UNL     1      27.586 -23.453  23.706  1.00  0.00     0.191 C 
BRANCH   8   9
ATOM      9  O   UNL     1      28.040 -23.758  24.999  1.00  0.00    -0.394 OA
ATOM     10  H   UNL     1      27.242 -24.015  25.530  1.00  0.00     0.210 HD
ENDBRANCH   8   9
ENDBRANCH   3   8
BRANCH   4  11
ATOM     11  O   UNL     1      30.136 -24.124  22.874  1.00  0.00    -0.387 OA
ATOM     12  H   UNL     1      30.044 -24.828  22.181  1.00  0.00     0.211 HD
ENDBRANCH   4  11
BRANCH   6  13
ATOM     13  O   UNL     1      31.758 -22.128  21.261  1.00  0.00    -0.387 OA
ATOM     14  H   UNL     1      31.519 -21.527  20.509  1.00  0.00     0.211 HD
ENDBRANCH   6  13
BRANCH   7  15
ATOM     15  O   UNL     1      29.840 -20.062  21.040  1.00  0.00    -0.385 OA
ATOM     16  H   UNL     1      30.595 -19.726  20.493  1.00  0.00     0.211 HD
ENDBRANCH   7  15
ENDBRANCH   1   2
BRANCH   1  17
ATOM     17  C   UNL     1      28.167 -18.087  23.409  1.00  0.00     0.224 C 
ATOM     18  C   UNL     1      27.895 -17.116  22.223  1.00  0.00     0.208 C 
ATOM     19  O   UNL     1      29.374 -17.683  24.044  1.00  0.00    -0.337 OA
ATOM     20  C   UNL     1      29.053 -16.126  22.270  1.00  0.00     0.180 C 
ATOM     21  C   UNL     1      29.614 -16.344  23.680  1.00  0.00     0.179 C 
BRANCH  17  22
ATOM     22  C   UNL     1      27.025 -17.988  24.444  1.00  0.00     0.225 C 
BRANCH  22  23
ATOM     23  O   UNL     1      25.783 -18.224  23.836  1.00  0.00    -0.391 OA
ATOM     24  H   UNL     1      25.671 -17.532  23.135  1.00  0.00     0.210 HD
ENDBRANCH  22  23
ENDBRANCH  17  22
BRANCH  18  25
ATOM     25  O   UNL     1      27.749 -17.752  20.973  1.00  0.00    -0.385 OA
ATOM     26  H   UNL     1      28.646 -17.964  20.610  1.00  0.00     0.211 HD
ENDBRANCH  18  25
BRANCH  20  27
ATOM     27  O   UNL     1      30.003 -16.344  21.251  1.00  0.00    -0.387 OA
ATOM     28  H   UNL     1      30.100 -17.321  21.117  1.00  0.00     0.211 HD
ENDBRANCH  20  27
BRANCH  21  29
ATOM     29  C   UNL     1      31.106 -16.011  23.838  1.00  0.00     0.191 C 
BRANCH  29  30
ATOM     30  O   UNL     1      31.900 -17.130  23.543  1.00  0.00    -0.394 OA
ATOM     31  H   UNL     1      32.318 -16.956  22.661  1.00  0.00     0.210 HD
ENDBRANCH  29  30
ENDBRANCH  21  29
ENDBRANCH   1  17
TORSDOF 13
ENDMDL
MODEL 9
REMARK VINA RESULT:    -4.527      2.942      6.027
REMARK INTER + INTRA:          -7.905
REMARK INTER:                  -6.694
REMARK INTRA:                  -1.211
REMARK UNBOUND:                -0.996
REMARK SMILES OC[C@@H]1O[C@](CO)(O[C@H]2O[C@H](CO)[C@H](O)[C@@H](O)[C@H]2O)[C@H](O)[C@@H]1O
REMARK SMILES IDX 8 1 9 2 11 3 14 4 10 5 16 6 18 7 12 8 13 9 15 11 17 13 19 15
REMARK SMILES IDX 5 17 20 18 4 19 22 20 3 21 6 22 7 23 21 25 23 27 2 29 1 30
REMARK H PARENT 13 10 15 12 17 14 19 16 7 24 21 26 23 28 1 31
REMARK Flexibility Score: inf
ROOT
ATOM      1  O   UNL     1      33.284  -8.168  33.041  1.00  0.00    -0.313 OA
ENDROOT
BRANCH   1   2
ATOM      2  C   UNL     1      32.427  -8.904  32.177  1.00  0.00     0.285 C 
ATOM      3  C   UNL     1      30.371  -7.967  32.816  1.00  0.00     0.178 C 
ATOM      4  C   UNL     1      29.859  -7.632  31.385  1.00  0.00     0.177 C 
ATOM      5  O   UNL     1      31.168  -9.139  32.801  1.00  0.00    -0.341 OA
ATOM      6  C   UNL     1      30.831  -8.185  30.311  1.00  0.00     0.179 C 
ATOM      7  C   UNL     1      32.298  -8.187  30.796  1.00  0.00     0.202 C 
BRANCH   3   8
ATOM      8  C   UNL     1      29.240  -8.129  33.848  1.00  0.00     0.191 C 
BRANCH   8   9
ATOM      9  O   UNL     1      28.449  -6.973  33.925  1.00  0.00    -0.394 OA
ATOM     10  H   UNL     1      27.542  -7.263  34.206  1.00  0.00     0.210 HD
ENDBRANCH   8   9
ENDBRANCH   3   8
BRANCH   4  11
ATOM     11  O   UNL     1      28.578  -8.170  31.164  1.00  0.00    -0.387 OA
ATOM     12  H   UNL     1      28.657  -9.154  31.266  1.00  0.00     0.211 HD
ENDBRANCH   4  11
BRANCH   6  13
ATOM     13  O   UNL     1      30.693  -7.503  29.090  1.00  0.00    -0.387 OA
ATOM     14  H   UNL     1      31.116  -8.054  28.381  1.00  0.00     0.211 HD
ENDBRANCH   6  13
BRANCH   7  15
ATOM     15  O   UNL     1      32.843  -6.888  30.820  1.00  0.00    -0.385 OA
ATOM     16  H   UNL     1      33.497  -6.812  30.080  1.00  0.00     0.211 HD
ENDBRANCH   7  15
ENDBRANCH   1   2
BRANCH   1  17
ATOM     17  C   UNL     1      34.672  -8.487  32.920  1.00  0.00     0.224 C 
ATOM     18  C   UNL     1      35.554  -7.385  33.574  1.00  0.00     0.208 C 
ATOM     19  O   UNL     1      35.091  -8.648  31.570  1.00  0.00    -0.337 OA
ATOM     20  C   UNL     1      36.512  -6.960  32.468  1.00  0.00     0.180 C 
ATOM     21  C   UNL     1      36.391  -8.115  31.466  1.00  0.00     0.179 C 
BRANCH  17  22
ATOM     22  C   UNL     1      34.884  -9.832  33.649  1.00  0.00     0.225 C 
BRANCH  22  23
ATOM     23  O   UNL     1      35.161  -9.621  35.008  1.00  0.00    -0.391 OA
ATOM     24  H   UNL     1      35.555 -10.463  35.354  1.00  0.00     0.210 HD
ENDBRANCH  22  23
ENDBRANCH  17  22
BRANCH  18  25
ATOM     25  O   UNL     1      34.826  -6.312  34.129  1.00  0.00    -0.385 OA
ATOM     26  H   UNL     1      33.907  -6.318  33.760  1.00  0.00     0.211 HD
ENDBRANCH  18  25
BRANCH  20  27
ATOM     27  O   UNL     1      36.190  -5.704  31.914  1.00  0.00    -0.387 OA
ATOM     28  H   UNL     1      35.483  -5.288  32.470  1.00  0.00     0.211 HD
ENDBRANCH  20  27
BRANCH  21  29
ATOM     29  C   UNL     1      36.694  -7.736  30.008  1.00  0.00     0.191 C 
BRANCH  29  30
ATOM     30  O   UNL     1      35.658  -6.959  29.469  1.00  0.00    -0.394 OA
ATOM     31  H   UNL     1      35.075  -7.579  28.960  1.00  0.00     0.210 HD
ENDBRANCH  29  30
ENDBRANCH  21  29
ENDBRANCH   1  17
TORSDOF 13
ENDMDL
