MODEL 1
REMARK VINA RESULT:    -3.954      0.000      0.000
REMARK INTER + INTRA:          -3.954
REMARK INTER:                  -3.954
REMARK INTRA:                   0.000
REMARK UNBOUND:                 0.000
REMARK SMILES C=C1[C@@H]2CC[C@@H](C2)C1(C)C
REMARK SMILES IDX 9 1 8 2 6 3 5 4 4 5 3 6 7 7 2 8 1 9 10 10
REMARK H PARENT
REMARK Flexibility Score: inf
ROOT
ATOM      1  C   UNL     1     135.812 136.653 132.259  1.00  0.00     0.016 C 
ATOM      2  C   UNL     1     134.382 136.064 132.267  1.00  0.00    -0.012 C 
ATOM      3  C   UNL     1     133.392 136.785 131.286  1.00  0.00    -0.001 C 
ATOM      4  C   UNL     1     134.017 136.945 129.879  1.00  0.00     0.005 C 
ATOM      5  C   UNL     1     134.094 135.491 129.369  1.00  0.00     0.008 C 
ATOM      6  C   UNL     1     133.407 134.695 130.492  1.00  0.00     0.015 C 
ATOM      7  C   UNL     1     132.377 135.688 130.978  1.00  0.00     0.012 C 
ATOM      8  C   UNL     1     134.344 134.677 131.671  1.00  0.00    -0.068 C 
ATOM      9  C   UNL     1     135.056 133.618 132.073  1.00  0.00     0.008 C 
ATOM     10  C   UNL     1     133.844 136.072 133.715  1.00  0.00     0.016 C 
ENDROOT
TORSDOF 0
ENDMDL
MODEL 2
REMARK VINA RESULT:    -3.924      4.544      6.626
REMARK INTER + INTRA:          -3.924
REMARK INTER:                  -3.924
REMARK INTRA:                   0.000
REMARK UNBOUND:                 0.000
REMARK SMILES C=C1[C@@H]2CC[C@@H](C2)C1(C)C
REMARK SMILES IDX 9 1 8 2 6 3 5 4 4 5 3 6 7 7 2 8 1 9 10 10
REMARK H PARENT
REMARK Flexibility Score: inf
ROOT
ATOM      1  C   UNL     1     137.842 137.093 132.121  1.00  0.00     0.016 C 
ATOM      2  C   UNL     1     139.270 137.683 132.189  1.00  0.00    -0.012 C 
ATOM      3  C   UNL     1     140.290 136.991 131.217  1.00  0.00    -0.001 C 
ATOM      4  C   UNL     1     139.708 136.871 129.788  1.00  0.00     0.005 C 
ATOM      5  C   UNL     1     139.644 138.339 129.318  1.00  0.00     0.008 C 
ATOM      6  C   UNL     1     140.296 139.104 130.483  1.00  0.00     0.015 C 
ATOM      7  C   UNL     1     141.313 138.097 130.972  1.00  0.00     0.012 C 
ATOM      8  C   UNL     1     139.324 139.087 131.634  1.00  0.00    -0.068 C 
ATOM      9  C   UNL     1     138.598 140.133 132.044  1.00  0.00     0.008 C 
ATOM     10  C   UNL     1     139.764 137.634 133.651  1.00  0.00     0.016 C 
ENDROOT
TORSDOF 0
ENDMDL
MODEL 3
REMARK VINA RESULT:    -3.899      3.432      4.695
REMARK INTER + INTRA:          -3.899
REMARK INTER:                  -3.899
REMARK INTRA:                   0.000
REMARK UNBOUND:                 0.000
REMARK SMILES C=C1[C@@H]2CC[C@@H](C2)C1(C)C
REMARK SMILES IDX 9 1 8 2 6 3 5 4 4 5 3 6 7 7 2 8 1 9 10 10
REMARK H PARENT
REMARK Flexibility Score: inf
ROOT
ATOM      1  C   UNL     1     137.066 135.928 131.963  1.00  0.00     0.016 C 
ATOM      2  C   UNL     1     137.634 134.496 132.093  1.00  0.00    -0.012 C 
ATOM      3  C   UNL     1     136.945 133.451 131.145  1.00  0.00    -0.001 C 
ATOM      4  C   UNL     1     136.860 133.984 129.694  1.00  0.00     0.005 C 
ATOM      5  C   UNL     1     138.338 134.010 129.250  1.00  0.00     0.008 C 
ATOM      6  C   UNL     1     139.070 133.390 130.452  1.00  0.00     0.015 C 
ATOM      7  C   UNL     1     138.040 132.405 130.957  1.00  0.00     0.012 C 
ATOM      8  C   UNL     1     139.046 134.402 131.567  1.00  0.00    -0.068 C 
ATOM      9  C   UNL     1     140.095 135.128 131.971  1.00  0.00     0.008 C 
ATOM     10  C   UNL     1     137.550 134.055 133.570  1.00  0.00     0.016 C 
ENDROOT
TORSDOF 0
ENDMDL
MODEL 4
REMARK VINA RESULT:    -3.893      3.296      4.622
REMARK INTER + INTRA:          -3.893
REMARK INTER:                  -3.893
REMARK INTRA:                   0.000
REMARK UNBOUND:                 0.000
REMARK SMILES C=C1[C@@H]2CC[C@@H](C2)C1(C)C
REMARK SMILES IDX 9 1 8 2 6 3 5 4 4 5 3 6 7 7 2 8 1 9 10 10
REMARK H PARENT
REMARK Flexibility Score: inf
ROOT
ATOM      1  C   UNL     1     136.618 137.769 131.742  1.00  0.00     0.016 C 
ATOM      2  C   UNL     1     136.066 139.202 131.918  1.00  0.00    -0.012 C 
ATOM      3  C   UNL     1     136.693 140.251 130.932  1.00  0.00    -0.001 C 
ATOM      4  C   UNL     1     136.677 139.727 129.476  1.00  0.00     0.005 C 
ATOM      5  C   UNL     1     135.173 139.708 129.133  1.00  0.00     0.008 C 
ATOM      6  C   UNL     1     134.526 140.324 130.386  1.00  0.00     0.015 C 
ATOM      7  C   UNL     1     135.592 141.301 130.826  1.00  0.00     0.012 C 
ATOM      8  C   UNL     1     134.622 139.304 131.490  1.00  0.00    -0.068 C 
ATOM      9  C   UNL     1     133.600 138.580 131.961  1.00  0.00     0.008 C 
ATOM     10  C   UNL     1     136.252 139.634 133.389  1.00  0.00     0.016 C 
ENDROOT
TORSDOF 0
ENDMDL
MODEL 5
REMARK VINA RESULT:    -3.836      0.885      2.424
REMARK INTER + INTRA:          -3.836
REMARK INTER:                  -3.836
REMARK INTRA:                   0.000
REMARK UNBOUND:                 0.000
REMARK SMILES C=C1[C@@H]2CC[C@@H](C2)C1(C)C
REMARK SMILES IDX 9 1 8 2 6 3 5 4 4 5 3 6 7 7 2 8 1 9 10 10
REMARK H PARENT
REMARK Flexibility Score: inf
ROOT
ATOM      1  C   UNL     1     134.946 133.828 132.076  1.00  0.00     0.016 C 
ATOM      2  C   UNL     1     135.010 135.371 132.026  1.00  0.00    -0.012 C 
ATOM      3  C   UNL     1     134.541 135.982 130.658  1.00  0.00    -0.001 C 
ATOM      4  C   UNL     1     133.189 135.376 130.209  1.00  0.00     0.005 C 
ATOM      5  C   UNL     1     132.199 135.932 131.253  1.00  0.00     0.008 C 
ATOM      6  C   UNL     1     133.079 136.870 132.098  1.00  0.00     0.015 C 
ATOM      7  C   UNL     1     134.062 137.372 131.065  1.00  0.00     0.012 C 
ATOM      8  C   UNL     1     133.984 136.006 132.935  1.00  0.00    -0.068 C 
ATOM      9  C   UNL     1     133.853 135.801 134.251  1.00  0.00     0.008 C 
ATOM     10  C   UNL     1     136.441 135.827 132.383  1.00  0.00     0.016 C 
ENDROOT
TORSDOF 0
ENDMDL
MODEL 6
REMARK VINA RESULT:    -3.792      3.252      4.431
REMARK INTER + INTRA:          -3.792
REMARK INTER:                  -3.792
REMARK INTRA:                   0.000
REMARK UNBOUND:                 0.000
REMARK SMILES C=C1[C@@H]2CC[C@@H](C2)C1(C)C
REMARK SMILES IDX 9 1 8 2 6 3 5 4 4 5 3 6 7 7 2 8 1 9 10 10
REMARK H PARENT
REMARK Flexibility Score: inf
ROOT
ATOM      1  C   UNL     1     139.760 134.961 132.246  1.00  0.00     0.016 C 
ATOM      2  C   UNL     1     138.216 134.959 132.161  1.00  0.00    -0.012 C 
ATOM      3  C   UNL     1     137.657 134.520 130.761  1.00  0.00    -0.001 C 
ATOM      4  C   UNL     1     138.332 133.216 130.273  1.00  0.00     0.005 C 
ATOM      5  C   UNL     1     137.798 132.160 131.263  1.00  0.00     0.008 C 
ATOM      6  C   UNL     1     136.804 132.963 132.121  1.00  0.00     0.015 C 
ATOM      7  C   UNL     1     136.281 133.965 131.117  1.00  0.00     0.012 C 
ATOM      8  C   UNL     1     137.608 133.870 133.014  1.00  0.00    -0.068 C 
ATOM      9  C   UNL     1     137.790 133.695 134.328  1.00  0.00     0.008 C 
ATOM     10  C   UNL     1     137.689 136.354 132.565  1.00  0.00     0.016 C 
ENDROOT
TORSDOF 0
ENDMDL
MODEL 7
REMARK VINA RESULT:    -3.743      1.518      2.898
REMARK INTER + INTRA:          -3.743
REMARK INTER:                  -3.743
REMARK INTRA:                   0.000
REMARK UNBOUND:                 0.000
REMARK SMILES C=C1[C@@H]2CC[C@@H](C2)C1(C)C
REMARK SMILES IDX 9 1 8 2 6 3 5 4 4 5 3 6 7 7 2 8 1 9 10 10
REMARK H PARENT
REMARK Flexibility Score: inf
ROOT
ATOM      1  C   UNL     1     135.591 135.807 131.091  1.00  0.00     0.016 C 
ATOM      2  C   UNL     1     134.710 136.136 132.318  1.00  0.00    -0.012 C 
ATOM      3  C   UNL     1     135.151 137.432 133.087  1.00  0.00    -0.001 C 
ATOM      4  C   UNL     1     135.368 138.614 132.112  1.00  0.00     0.005 C 
ATOM      5  C   UNL     1     133.940 138.915 131.612  1.00  0.00     0.008 C 
ATOM      6  C   UNL     1     133.074 137.950 132.439  1.00  0.00     0.015 C 
ATOM      7  C   UNL     1     133.848 137.888 133.737  1.00  0.00     0.012 C 
ATOM      8  C   UNL     1     133.318 136.560 131.913  1.00  0.00    -0.068 C 
ATOM      9  C   UNL     1     132.459 135.857 131.166  1.00  0.00     0.008 C 
ATOM     10  C   UNL     1     134.677 134.910 133.256  1.00  0.00     0.016 C 
ENDROOT
TORSDOF 0
ENDMDL
MODEL 8
REMARK VINA RESULT:    -3.714      1.196      3.231
REMARK INTER + INTRA:          -3.714
REMARK INTER:                  -3.714
REMARK INTRA:                   0.000
REMARK UNBOUND:                 0.000
REMARK SMILES C=C1[C@@H]2CC[C@@H](C2)C1(C)C
REMARK SMILES IDX 9 1 8 2 6 3 5 4 4 5 3 6 7 7 2 8 1 9 10 10
REMARK H PARENT
REMARK Flexibility Score: inf
ROOT
ATOM      1  C   UNL     1     136.037 136.630 130.239  1.00  0.00     0.016 C 
ATOM      2  C   UNL     1     134.495 136.717 130.181  1.00  0.00    -0.012 C 
ATOM      3  C   UNL     1     133.768 135.384 130.581  1.00  0.00    -0.001 C 
ATOM      4  C   UNL     1     134.333 134.815 131.904  1.00  0.00     0.005 C 
ATOM      5  C   UNL     1     133.870 135.850 132.950  1.00  0.00     0.008 C 
ATOM      6  C   UNL     1     133.009 136.818 132.120  1.00  0.00     0.015 C 
ATOM      7  C   UNL     1     132.418 135.885 131.087  1.00  0.00     0.012 C 
ATOM      8  C   UNL     1     133.942 137.624 131.255  1.00  0.00    -0.068 C 
ATOM      9  C   UNL     1     134.261 138.908 131.453  1.00  0.00     0.008 C 
ATOM     10  C   UNL     1     134.071 137.187 128.771  1.00  0.00     0.016 C 
ENDROOT
TORSDOF 0
ENDMDL
MODEL 9
REMARK VINA RESULT:    -3.707      4.647      6.286
REMARK INTER + INTRA:          -3.707
REMARK INTER:                  -3.707
REMARK INTRA:                   0.000
REMARK UNBOUND:                 0.000
REMARK SMILES C=C1[C@@H]2CC[C@@H](C2)C1(C)C
REMARK SMILES IDX 9 1 8 2 6 3 5 4 4 5 3 6 7 7 2 8 1 9 10 10
REMARK H PARENT
REMARK Flexibility Score: inf
ROOT
ATOM      1  C   UNL     1     138.154 137.804 131.038  1.00  0.00     0.016 C 
ATOM      2  C   UNL     1     139.051 137.583 132.277  1.00  0.00    -0.012 C 
ATOM      3  C   UNL     1     138.667 136.316 133.121  1.00  0.00    -0.001 C 
ATOM      4  C   UNL     1     138.496 135.072 132.216  1.00  0.00     0.005 C 
ATOM      5  C   UNL     1     139.934 134.802 131.726  1.00  0.00     0.008 C 
ATOM      6  C   UNL     1     140.761 135.848 132.492  1.00  0.00     0.015 C 
ATOM      7  C   UNL     1     139.990 135.952 133.788  1.00  0.00     0.012 C 
ATOM      8  C   UNL     1     140.458 137.195 131.889  1.00  0.00    -0.068 C 
ATOM      9  C   UNL     1     141.285 137.888 131.099  1.00  0.00     0.008 C 
ATOM     10  C   UNL     1     139.035 138.861 133.144  1.00  0.00     0.016 C 
ENDROOT
TORSDOF 0
ENDMDL
