MODEL 1
REMARK VINA RESULT:    -5.177      0.000      0.000
REMARK INTER + INTRA:         -11.174
REMARK INTER:                 -10.020
REMARK INTRA:                  -1.154
REMARK UNBOUND:                -1.154
REMARK SMILES CCCCCCCCCCCCCCCCCC(=O)[O-]
REMARK SMILES IDX 10 1 11 2 12 3 13 4 14 5 15 6 16 7 17 8 18 9 19 10 20 11
REMARK SMILES IDX 9 12 8 13 7 14 6 15 5 16 4 17 3 18 2 19 1 20
REMARK H PARENT
REMARK Flexibility Score: inf
ROOT
ATOM      1  C   UNL     1    -129.738 109.672  43.876  1.00  0.00     0.000 C 
ENDROOT
BRANCH   1   2
ATOM      2  C   UNL     1    -129.230 111.006  43.287  1.00  0.00     0.000 C 
BRANCH   2   3
ATOM      3  C   UNL     1    -129.490 112.221  44.195  1.00  0.00     0.000 C 
BRANCH   3   4
ATOM      4  C   UNL     1    -128.986 113.539  43.583  1.00  0.00     0.000 C 
BRANCH   4   5
ATOM      5  C   UNL     1    -130.128 114.461  43.122  1.00  0.00     0.000 C 
BRANCH   5   6
ATOM      6  C   UNL     1    -129.874 115.967  43.321  1.00  0.00     0.000 C 
BRANCH   6   7
ATOM      7  C   UNL     1    -129.448 116.320  44.756  1.00  0.00     0.006 C 
BRANCH   7   8
ATOM      8  C   UNL     1    -130.037 117.657  45.222  1.00  0.00     0.053 C 
BRANCH   8   9
ATOM      9  C   UNL     1    -130.720 117.527  46.548  1.00  0.00     0.041 C 
ATOM     10  O   UNL     1    -131.029 118.554  47.207  1.00  0.00    -0.550 OA
ATOM     11  O   UNL     1    -130.983 116.267  47.075  1.00  0.00    -0.550 OA
ENDBRANCH   8   9
ENDBRANCH   7   8
ENDBRANCH   6   7
ENDBRANCH   5   6
ENDBRANCH   4   5
ENDBRANCH   3   4
ENDBRANCH   2   3
ENDBRANCH   1   2
BRANCH   1  12
ATOM     12  C   UNL     1    -129.643 108.522  42.862  1.00  0.00     0.000 C 
BRANCH  12  13
ATOM     13  C   UNL     1    -128.182 108.232  42.491  1.00  0.00    -0.000 C 
BRANCH  13  14
ATOM     14  C   UNL     1    -128.009 106.904  41.730  1.00  0.00    -0.000 C 
BRANCH  14  15
ATOM     15  C   UNL     1    -129.311 106.301  41.174  1.00  0.00    -0.000 C 
BRANCH  15  16
ATOM     16  C   UNL     1    -129.237 105.994  39.669  1.00  0.00    -0.000 C 
BRANCH  16  17
ATOM     17  C   UNL     1    -130.053 106.999  38.829  1.00  0.00    -0.000 C 
BRANCH  17  18
ATOM     18  C   UNL     1    -129.731 108.471  39.143  1.00  0.00    -0.000 C 
BRANCH  18  19
ATOM     19  C   UNL     1    -130.981 109.302  39.458  1.00  0.00    -0.003 C 
ATOM     20  C   UNL     1    -132.184 108.814  38.653  1.00  0.00     0.004 C 
ENDBRANCH  18  19
ENDBRANCH  17  18
ENDBRANCH  16  17
ENDBRANCH  15  16
ENDBRANCH  14  15
ENDBRANCH  13  14
ENDBRANCH  12  13
ENDBRANCH   1  12
TORSDOF 16
ENDMDL
MODEL 2
REMARK VINA RESULT:    -5.142      1.072      2.898
REMARK INTER + INTRA:         -11.106
REMARK INTER:                  -9.539
REMARK INTRA:                  -1.567
REMARK UNBOUND:                -1.154
REMARK SMILES CCCCCCCCCCCCCCCCCC(=O)[O-]
REMARK SMILES IDX 10 1 11 2 12 3 13 4 14 5 15 6 16 7 17 8 18 9 19 10 20 11
REMARK SMILES IDX 9 12 8 13 7 14 6 15 5 16 4 17 3 18 2 19 1 20
REMARK H PARENT
REMARK Flexibility Score: inf
ROOT
ATOM      1  C   UNL     1    -129.768 110.178  39.812  1.00  0.00     0.000 C 
ENDROOT
BRANCH   1   2
ATOM      2  C   UNL     1    -129.777 111.695  40.099  1.00  0.00     0.000 C 
BRANCH   2   3
ATOM      3  C   UNL     1    -129.801 112.041  41.598  1.00  0.00     0.000 C 
BRANCH   3   4
ATOM      4  C   UNL     1    -130.179 113.507  41.864  1.00  0.00     0.000 C 
BRANCH   4   5
ATOM      5  C   UNL     1    -129.595 114.048  43.182  1.00  0.00     0.000 C 
BRANCH   5   6
ATOM      6  C   UNL     1    -129.820 115.551  43.428  1.00  0.00     0.000 C 
BRANCH   6   7
ATOM      7  C   UNL     1    -129.532 115.972  44.880  1.00  0.00     0.006 C 
BRANCH   7   8
ATOM      8  C   UNL     1    -130.074 117.371  45.195  1.00  0.00     0.053 C 
BRANCH   8   9
ATOM      9  C   UNL     1    -130.754 117.412  46.529  1.00  0.00     0.041 C 
ATOM     10  O   UNL     1    -130.853 118.498  47.158  1.00  0.00    -0.550 OA
ATOM     11  O   UNL     1    -131.244 116.242  47.097  1.00  0.00    -0.550 OA
ENDBRANCH   8   9
ENDBRANCH   7   8
ENDBRANCH   6   7
ENDBRANCH   5   6
ENDBRANCH   4   5
ENDBRANCH   3   4
ENDBRANCH   2   3
ENDBRANCH   1   2
BRANCH   1  12
ATOM     12  C   UNL     1    -131.170 109.646  39.479  1.00  0.00     0.000 C 
BRANCH  12  13
ATOM     13  C   UNL     1    -131.120 108.157  39.107  1.00  0.00    -0.000 C 
BRANCH  13  14
ATOM     14  C   UNL     1    -129.684 107.632  38.927  1.00  0.00    -0.000 C 
BRANCH  14  15
ATOM     15  C   UNL     1    -129.349 106.368  39.738  1.00  0.00    -0.000 C 
BRANCH  15  16
ATOM     16  C   UNL     1    -129.445 106.585  41.258  1.00  0.00    -0.000 C 
BRANCH  16  17
ATOM     17  C   UNL     1    -128.243 107.381  41.809  1.00  0.00    -0.000 C 
BRANCH  17  18
ATOM     18  C   UNL     1    -128.646 108.551  42.723  1.00  0.00    -0.000 C 
BRANCH  18  19
ATOM     19  C   UNL     1    -130.157 108.618  42.980  1.00  0.00    -0.003 C 
ATOM     20  C   UNL     1    -130.460 108.657  44.476  1.00  0.00     0.004 C 
ENDBRANCH  18  19
ENDBRANCH  17  18
ENDBRANCH  16  17
ENDBRANCH  15  16
ENDBRANCH  14  15
ENDBRANCH  13  14
ENDBRANCH  12  13
ENDBRANCH   1  12
TORSDOF 16
ENDMDL
MODEL 3
REMARK VINA RESULT:    -5.125      5.151      9.920
REMARK INTER + INTRA:         -11.072
REMARK INTER:                 -10.158
REMARK INTRA:                  -0.914
REMARK UNBOUND:                -1.154
REMARK SMILES CCCCCCCCCCCCCCCCCC(=O)[O-]
REMARK SMILES IDX 10 1 11 2 12 3 13 4 14 5 15 6 16 7 17 8 18 9 19 10 20 11
REMARK SMILES IDX 9 12 8 13 7 14 6 15 5 16 4 17 3 18 2 19 1 20
REMARK H PARENT
REMARK Flexibility Score: inf
ROOT
ATOM      1  C   UNL     1    -129.369 111.020  42.932  1.00  0.00     0.000 C 
ENDROOT
BRANCH   1   2
ATOM      2  C   UNL     1    -129.681 109.541  43.246  1.00  0.00     0.000 C 
BRANCH   2   3
ATOM      3  C   UNL     1    -129.764 108.648  41.997  1.00  0.00     0.000 C 
BRANCH   3   4
ATOM      4  C   UNL     1    -129.451 109.411  40.699  1.00  0.00     0.000 C 
BRANCH   4   5
ATOM      5  C   UNL     1    -130.663 109.515  39.756  1.00  0.00     0.000 C 
BRANCH   5   6
ATOM      6  C   UNL     1    -130.964 108.248  38.934  1.00  0.00     0.000 C 
BRANCH   6   7
ATOM      7  C   UNL     1    -129.860 107.183  39.048  1.00  0.00     0.006 C 
BRANCH   7   8
ATOM      8  C   UNL     1    -130.419 105.810  39.441  1.00  0.00     0.053 C 
BRANCH   8   9
ATOM      9  C   UNL     1    -129.760 104.705  38.674  1.00  0.00     0.041 C 
ATOM     10  O   UNL     1    -129.865 104.652  37.421  1.00  0.00    -0.550 OA
ATOM     11  O   UNL     1    -129.059 103.712  39.348  1.00  0.00    -0.550 OA
ENDBRANCH   8   9
ENDBRANCH   7   8
ENDBRANCH   6   7
ENDBRANCH   5   6
ENDBRANCH   4   5
ENDBRANCH   3   4
ENDBRANCH   2   3
ENDBRANCH   1   2
BRANCH   1  12
ATOM     12  C   UNL     1    -129.288 111.876  44.206  1.00  0.00     0.000 C 
BRANCH  12  13
ATOM     13  C   UNL     1    -129.063 113.355  43.863  1.00  0.00    -0.000 C 
BRANCH  13  14
ATOM     14  C   UNL     1    -130.001 113.862  42.752  1.00  0.00    -0.000 C 
BRANCH  14  15
ATOM     15  C   UNL     1    -129.547 115.159  42.061  1.00  0.00    -0.000 C 
BRANCH  15  16
ATOM     16  C   UNL     1    -130.201 116.418  42.655  1.00  0.00    -0.000 C 
BRANCH  16  17
ATOM     17  C   UNL     1    -129.156 117.449  43.130  1.00  0.00    -0.000 C 
BRANCH  17  18
ATOM     18  C   UNL     1    -129.342 117.888  44.593  1.00  0.00    -0.000 C 
BRANCH  18  19
ATOM     19  C   UNL     1    -130.046 116.828  45.451  1.00  0.00    -0.003 C 
ATOM     20  C   UNL     1    -130.757 117.467  46.642  1.00  0.00     0.004 C 
ENDBRANCH  18  19
ENDBRANCH  17  18
ENDBRANCH  16  17
ENDBRANCH  15  16
ENDBRANCH  14  15
ENDBRANCH  13  14
ENDBRANCH  12  13
ENDBRANCH   1  12
TORSDOF 16
ENDMDL
MODEL 4
REMARK VINA RESULT:    -5.118      3.073      7.805
REMARK INTER + INTRA:         -11.059
REMARK INTER:                  -9.434
REMARK INTRA:                  -1.625
REMARK UNBOUND:                -1.154
REMARK SMILES CCCCCCCCCCCCCCCCCC(=O)[O-]
REMARK SMILES IDX 10 1 11 2 12 3 13 4 14 5 15 6 16 7 17 8 18 9 19 10 20 11
REMARK SMILES IDX 9 12 8 13 7 14 6 15 5 16 4 17 3 18 2 19 1 20
REMARK H PARENT
REMARK Flexibility Score: inf
ROOT
ATOM      1  C   UNL     1    -130.901 109.605  39.495  1.00  0.00     0.000 C 
ENDROOT
BRANCH   1   2
ATOM      2  C   UNL     1    -130.969 108.160  38.956  1.00  0.00     0.000 C 
BRANCH   2   3
ATOM      3  C   UNL     1    -129.652 107.380  39.113  1.00  0.00     0.000 C 
BRANCH   3   4
ATOM      4  C   UNL     1    -129.671 106.419  40.313  1.00  0.00     0.000 C 
BRANCH   4   5
ATOM      5  C   UNL     1    -128.620 106.773  41.382  1.00  0.00     0.000 C 
BRANCH   5   6
ATOM      6  C   UNL     1    -128.809 108.145  42.055  1.00  0.00     0.000 C 
BRANCH   6   7
ATOM      7  C   UNL     1    -130.142 108.264  42.812  1.00  0.00     0.006 C 
BRANCH   7   8
ATOM      8  C   UNL     1    -130.004 109.082  44.102  1.00  0.00     0.053 C 
BRANCH   8   9
ATOM      9  C   UNL     1    -130.984 108.637  45.145  1.00  0.00     0.041 C 
ATOM     10  O   UNL     1    -132.200 108.495  44.853  1.00  0.00    -0.550 OA
ATOM     11  O   UNL     1    -130.559 108.416  46.450  1.00  0.00    -0.550 OA
ENDBRANCH   8   9
ENDBRANCH   7   8
ENDBRANCH   6   7
ENDBRANCH   5   6
ENDBRANCH   4   5
ENDBRANCH   3   4
ENDBRANCH   2   3
ENDBRANCH   1   2
BRANCH   1  12
ATOM     12  C   UNL     1    -129.530 110.251  39.243  1.00  0.00     0.000 C 
BRANCH  12  13
ATOM     13  C   UNL     1    -129.492 111.691  39.775  1.00  0.00    -0.000 C 
BRANCH  13  14
ATOM     14  C   UNL     1    -129.771 111.779  41.287  1.00  0.00    -0.000 C 
BRANCH  14  15
ATOM     15  C   UNL     1    -130.114 113.187  41.802  1.00  0.00    -0.000 C 
BRANCH  15  16
ATOM     16  C   UNL     1    -129.586 113.453  43.223  1.00  0.00    -0.000 C 
BRANCH  16  17
ATOM     17  C   UNL     1    -129.861 114.899  43.685  1.00  0.00    -0.000 C 
BRANCH  17  18
ATOM     18  C   UNL     1    -129.616 115.954  42.592  1.00  0.00    -0.000 C 
BRANCH  18  19
ATOM     19  C   UNL     1    -129.393 117.363  43.159  1.00  0.00    -0.003 C 
ATOM     20  C   UNL     1    -129.422 117.352  44.685  1.00  0.00     0.004 C 
ENDBRANCH  18  19
ENDBRANCH  17  18
ENDBRANCH  16  17
ENDBRANCH  15  16
ENDBRANCH  14  15
ENDBRANCH  13  14
ENDBRANCH  12  13
ENDBRANCH   1  12
TORSDOF 16
ENDMDL
MODEL 5
REMARK VINA RESULT:    -5.048      1.289      2.155
REMARK INTER + INTRA:         -10.924
REMARK INTER:                  -9.104
REMARK INTRA:                  -1.820
REMARK UNBOUND:                -1.154
REMARK SMILES CCCCCCCCCCCCCCCCCC(=O)[O-]
REMARK SMILES IDX 10 1 11 2 12 3 13 4 14 5 15 6 16 7 17 8 18 9 19 10 20 11
REMARK SMILES IDX 9 12 8 13 7 14 6 15 5 16 4 17 3 18 2 19 1 20
REMARK H PARENT
REMARK Flexibility Score: inf
ROOT
ATOM      1  C   UNL     1    -129.630 108.244  42.703  1.00  0.00     0.000 C 
ENDROOT
BRANCH   1   2
ATOM      2  C   UNL     1    -129.775 109.398  43.718  1.00  0.00     0.000 C 
BRANCH   2   3
ATOM      3  C   UNL     1    -129.378 110.772  43.152  1.00  0.00     0.000 C 
BRANCH   3   4
ATOM      4  C   UNL     1    -129.411 111.884  44.214  1.00  0.00     0.000 C 
BRANCH   4   5
ATOM      5  C   UNL     1    -128.888 113.233  43.687  1.00  0.00     0.000 C 
BRANCH   5   6
ATOM      6  C   UNL     1    -129.820 113.954  42.697  1.00  0.00     0.000 C 
BRANCH   6   7
ATOM      7  C   UNL     1    -130.091 115.418  43.084  1.00  0.00     0.006 C 
BRANCH   7   8
ATOM      8  C   UNL     1    -129.408 115.803  44.402  1.00  0.00     0.053 C 
BRANCH   8   9
ATOM      9  C   UNL     1    -129.675 117.232  44.764  1.00  0.00     0.041 C 
ATOM     10  O   UNL     1    -130.554 117.516  45.620  1.00  0.00    -0.550 OA
ATOM     11  O   UNL     1    -128.979 118.253  44.128  1.00  0.00    -0.550 OA
ENDBRANCH   8   9
ENDBRANCH   7   8
ENDBRANCH   6   7
ENDBRANCH   5   6
ENDBRANCH   4   5
ENDBRANCH   3   4
ENDBRANCH   2   3
ENDBRANCH   1   2
BRANCH   1  12
ATOM     12  C   UNL     1    -128.170 108.031  42.276  1.00  0.00     0.000 C 
BRANCH  12  13
ATOM     13  C   UNL     1    -128.014 106.734  41.470  1.00  0.00    -0.000 C 
BRANCH  13  14
ATOM     14  C   UNL     1    -129.364 106.137  41.031  1.00  0.00    -0.000 C 
BRANCH  14  15
ATOM     15  C   UNL     1    -129.531 105.960  39.511  1.00  0.00    -0.000 C 
BRANCH  15  16
ATOM     16  C   UNL     1    -129.572 107.297  38.751  1.00  0.00    -0.000 C 
BRANCH  16  17
ATOM     17  C   UNL     1    -130.874 108.080  39.019  1.00  0.00    -0.000 C 
BRANCH  17  18
ATOM     18  C   UNL     1    -130.638 109.513  39.528  1.00  0.00    -0.000 C 
BRANCH  18  19
ATOM     19  C   UNL     1    -129.178 109.964  39.390  1.00  0.00    -0.003 C 
ATOM     20  C   UNL     1    -129.092 111.433  38.982  1.00  0.00     0.004 C 
ENDBRANCH  18  19
ENDBRANCH  17  18
ENDBRANCH  16  17
ENDBRANCH  15  16
ENDBRANCH  14  15
ENDBRANCH  13  14
ENDBRANCH  12  13
ENDBRANCH   1  12
TORSDOF 16
ENDMDL
MODEL 6
REMARK VINA RESULT:    -4.945      1.330      3.018
REMARK INTER + INTRA:         -10.724
REMARK INTER:                  -9.398
REMARK INTRA:                  -1.326
REMARK UNBOUND:                -1.154
REMARK SMILES CCCCCCCCCCCCCCCCCC(=O)[O-]
REMARK SMILES IDX 10 1 11 2 12 3 13 4 14 5 15 6 16 7 17 8 18 9 19 10 20 11
REMARK SMILES IDX 9 12 8 13 7 14 6 15 5 16 4 17 3 18 2 19 1 20
REMARK H PARENT
REMARK Flexibility Score: inf
ROOT
ATOM      1  C   UNL     1    -130.105 111.636  40.982  1.00  0.00     0.000 C 
ENDROOT
BRANCH   1   2
ATOM      2  C   UNL     1    -130.036 113.021  41.662  1.00  0.00     0.000 C 
BRANCH   2   3
ATOM      3  C   UNL     1    -129.494 112.976  43.101  1.00  0.00     0.000 C 
BRANCH   3   4
ATOM      4  C   UNL     1    -129.623 114.326  43.826  1.00  0.00     0.000 C 
BRANCH   4   5
ATOM      5  C   UNL     1    -130.054 115.471  42.892  1.00  0.00     0.000 C 
BRANCH   5   6
ATOM      6  C   UNL     1    -129.644 116.881  43.353  1.00  0.00     0.000 C 
BRANCH   6   7
ATOM      7  C   UNL     1    -129.264 116.939  44.843  1.00  0.00     0.006 C 
BRANCH   7   8
ATOM      8  C   UNL     1    -130.047 118.020  45.598  1.00  0.00     0.053 C 
BRANCH   8   9
ATOM      9  C   UNL     1    -131.005 117.421  46.581  1.00  0.00     0.041 C 
ATOM     10  O   UNL     1    -130.839 116.243  46.993  1.00  0.00    -0.550 OA
ATOM     11  O   UNL     1    -132.106 118.152  47.013  1.00  0.00    -0.550 OA
ENDBRANCH   8   9
ENDBRANCH   7   8
ENDBRANCH   6   7
ENDBRANCH   5   6
ENDBRANCH   4   5
ENDBRANCH   3   4
ENDBRANCH   2   3
ENDBRANCH   1   2
BRANCH   1  12
ATOM     12  C   UNL     1    -129.385 111.623  39.625  1.00  0.00     0.000 C 
BRANCH  12  13
ATOM     13  C   UNL     1    -129.073 110.187  39.179  1.00  0.00    -0.000 C 
BRANCH  13  14
ATOM     14  C   UNL     1    -130.184 109.189  39.556  1.00  0.00    -0.000 C 
BRANCH  14  15
ATOM     15  C   UNL     1    -129.719 107.730  39.711  1.00  0.00    -0.000 C 
BRANCH  15  16
ATOM     16  C   UNL     1    -129.376 107.358  41.164  1.00  0.00    -0.000 C 
BRANCH  16  17
ATOM     17  C   UNL     1    -128.488 108.422  41.843  1.00  0.00    -0.000 C 
BRANCH  17  18
ATOM     18  C   UNL     1    -129.082 108.980  43.148  1.00  0.00    -0.000 C 
BRANCH  18  19
ATOM     19  C   UNL     1    -130.497 108.459  43.432  1.00  0.00    -0.003 C 
ATOM     20  C   UNL     1    -130.877 108.668  44.896  1.00  0.00     0.004 C 
ENDBRANCH  18  19
ENDBRANCH  17  18
ENDBRANCH  16  17
ENDBRANCH  15  16
ENDBRANCH  14  15
ENDBRANCH  13  14
ENDBRANCH  12  13
ENDBRANCH   1  12
TORSDOF 16
ENDMDL
MODEL 7
REMARK VINA RESULT:    -4.940      3.024      8.280
REMARK INTER + INTRA:         -10.714
REMARK INTER:                  -9.256
REMARK INTRA:                  -1.458
REMARK UNBOUND:                -1.154
REMARK SMILES CCCCCCCCCCCCCCCCCC(=O)[O-]
REMARK SMILES IDX 10 1 11 2 12 3 13 4 14 5 15 6 16 7 17 8 18 9 19 10 20 11
REMARK SMILES IDX 9 12 8 13 7 14 6 15 5 16 4 17 3 18 2 19 1 20
REMARK H PARENT
REMARK Flexibility Score: inf
ROOT
ATOM      1  C   UNL     1    -129.656 111.838  39.767  1.00  0.00     0.000 C 
ENDROOT
BRANCH   1   2
ATOM      2  C   UNL     1    -129.567 110.440  39.117  1.00  0.00     0.000 C 
BRANCH   2   3
ATOM      3  C   UNL     1    -130.326 109.349  39.892  1.00  0.00     0.000 C 
BRANCH   3   4
ATOM      4  C   UNL     1    -129.600 107.993  39.874  1.00  0.00     0.000 C 
BRANCH   4   5
ATOM      5  C   UNL     1    -129.271 107.470  41.284  1.00  0.00     0.000 C 
BRANCH   5   6
ATOM      6  C   UNL     1    -128.525 108.463  42.193  1.00  0.00     0.000 C 
BRANCH   6   7
ATOM      7  C   UNL     1    -129.397 108.995  43.344  1.00  0.00     0.006 C 
BRANCH   7   8
ATOM      8  C   UNL     1    -130.681 108.176  43.524  1.00  0.00     0.053 C 
BRANCH   8   9
ATOM      9  C   UNL     1    -131.343 108.469  44.835  1.00  0.00     0.041 C 
ATOM     10  O   UNL     1    -132.599 108.477  44.924  1.00  0.00    -0.550 OA
ATOM     11  O   UNL     1    -130.572 108.771  45.951  1.00  0.00    -0.550 OA
ENDBRANCH   8   9
ENDBRANCH   7   8
ENDBRANCH   6   7
ENDBRANCH   5   6
ENDBRANCH   4   5
ENDBRANCH   3   4
ENDBRANCH   2   3
ENDBRANCH   1   2
BRANCH   1  12
ATOM     12  C   UNL     1    -130.049 111.760  41.251  1.00  0.00     0.000 C 
BRANCH  12  13
ATOM     13  C   UNL     1    -130.124 113.160  41.875  1.00  0.00    -0.000 C 
BRANCH  13  14
ATOM     14  C   UNL     1    -129.507 113.221  43.285  1.00  0.00    -0.000 C 
BRANCH  14  15
ATOM     15  C   UNL     1    -129.463 114.625  43.913  1.00  0.00    -0.000 C 
BRANCH  15  16
ATOM     16  C   UNL     1    -129.884 115.736  42.936  1.00  0.00    -0.000 C 
BRANCH  16  17
ATOM     17  C   UNL     1    -129.742 117.142  43.555  1.00  0.00    -0.000 C 
BRANCH  17  18
ATOM     18  C   UNL     1    -129.393 117.123  45.054  1.00  0.00    -0.000 C 
BRANCH  18  19
ATOM     19  C   UNL     1    -130.545 117.610  45.942  1.00  0.00    -0.003 C 
ATOM     20  C   UNL     1    -130.939 116.547  46.965  1.00  0.00     0.004 C 
ENDBRANCH  18  19
ENDBRANCH  17  18
ENDBRANCH  16  17
ENDBRANCH  15  16
ENDBRANCH  14  15
ENDBRANCH  13  14
ENDBRANCH  12  13
ENDBRANCH   1  12
TORSDOF 16
ENDMDL
MODEL 8
REMARK VINA RESULT:    -4.844      3.668      9.078
REMARK INTER + INTRA:         -10.528
REMARK INTER:                  -9.158
REMARK INTRA:                  -1.370
REMARK UNBOUND:                -1.154
REMARK SMILES CCCCCCCCCCCCCCCCCC(=O)[O-]
REMARK SMILES IDX 10 1 11 2 12 3 13 4 14 5 15 6 16 7 17 8 18 9 19 10 20 11
REMARK SMILES IDX 9 12 8 13 7 14 6 15 5 16 4 17 3 18 2 19 1 20
REMARK H PARENT
REMARK Flexibility Score: inf
ROOT
ATOM      1  C   UNL     1    -129.381 111.073  43.043  1.00  0.00     0.000 C 
ENDROOT
BRANCH   1   2
ATOM      2  C   UNL     1    -129.746 109.714  43.678  1.00  0.00     0.000 C 
BRANCH   2   3
ATOM      3  C   UNL     1    -129.609 108.524  42.713  1.00  0.00     0.000 C 
BRANCH   3   4
ATOM      4  C   UNL     1    -128.144 108.196  42.379  1.00  0.00     0.000 C 
BRANCH   4   5
ATOM      5  C   UNL     1    -127.984 106.859  41.632  1.00  0.00     0.000 C 
BRANCH   5   6
ATOM      6  C   UNL     1    -129.271 106.311  40.990  1.00  0.00     0.000 C 
BRANCH   6   7
ATOM      7  C   UNL     1    -129.235 106.339  39.452  1.00  0.00     0.006 C 
BRANCH   7   8
ATOM      8  C   UNL     1    -130.447 107.067  38.858  1.00  0.00     0.053 C 
BRANCH   8   9
ATOM      9  C   UNL     1    -130.420 108.531  39.173  1.00  0.00     0.041 C 
ATOM     10  O   UNL     1    -131.490 109.145  39.426  1.00  0.00    -0.550 OA
ATOM     11  O   UNL     1    -129.217 109.226  39.150  1.00  0.00    -0.550 OA
ENDBRANCH   8   9
ENDBRANCH   7   8
ENDBRANCH   6   7
ENDBRANCH   5   6
ENDBRANCH   4   5
ENDBRANCH   3   4
ENDBRANCH   2   3
ENDBRANCH   1   2
BRANCH   1  12
ATOM     12  C   UNL     1    -128.807 112.057  44.075  1.00  0.00     0.000 C 
BRANCH  12  13
ATOM     13  C   UNL     1    -129.409 113.458  43.896  1.00  0.00    -0.000 C 
BRANCH  13  14
ATOM     14  C   UNL     1    -130.184 113.612  42.574  1.00  0.00    -0.000 C 
BRANCH  14  15
ATOM     15  C   UNL     1    -130.083 115.002  41.922  1.00  0.00    -0.000 C 
BRANCH  15  16
ATOM     16  C   UNL     1    -129.101 115.938  42.647  1.00  0.00    -0.000 C 
BRANCH  16  17
ATOM     17  C   UNL     1    -129.751 117.285  43.024  1.00  0.00    -0.000 C 
BRANCH  17  18
ATOM     18  C   UNL     1    -129.474 117.719  44.475  1.00  0.00    -0.000 C 
BRANCH  18  19
ATOM     19  C   UNL     1    -130.038 116.738  45.511  1.00  0.00    -0.003 C 
ATOM     20  C   UNL     1    -130.719 117.480  46.658  1.00  0.00     0.004 C 
ENDBRANCH  18  19
ENDBRANCH  17  18
ENDBRANCH  16  17
ENDBRANCH  15  16
ENDBRANCH  14  15
ENDBRANCH  13  14
ENDBRANCH  12  13
ENDBRANCH   1  12
TORSDOF 16
ENDMDL
MODEL 9
REMARK VINA RESULT:    -4.797      4.945     10.092
REMARK INTER + INTRA:         -10.439
REMARK INTER:                  -9.344
REMARK INTRA:                  -1.095
REMARK UNBOUND:                -1.154
REMARK SMILES CCCCCCCCCCCCCCCCCC(=O)[O-]
REMARK SMILES IDX 10 1 11 2 12 3 13 4 14 5 15 6 16 7 17 8 18 9 19 10 20 11
REMARK SMILES IDX 9 12 8 13 7 14 6 15 5 16 4 17 3 18 2 19 1 20
REMARK H PARENT
REMARK Flexibility Score: inf
ROOT
ATOM      1  C   UNL     1    -129.466 113.500  43.843  1.00  0.00     0.000 C 
ENDROOT
BRANCH   1   2
ATOM      2  C   UNL     1    -128.992 112.077  44.208  1.00  0.00     0.000 C 
BRANCH   2   3
ATOM      3  C   UNL     1    -129.392 111.009  43.175  1.00  0.00     0.000 C 
BRANCH   3   4
ATOM      4  C   UNL     1    -129.632 109.629  43.810  1.00  0.00     0.000 C 
BRANCH   4   5
ATOM      5  C   UNL     1    -130.070 108.566  42.787  1.00  0.00     0.000 C 
BRANCH   5   6
ATOM      6  C   UNL     1    -129.019 108.214  41.718  1.00  0.00     0.000 C 
BRANCH   6   7
ATOM      7  C   UNL     1    -129.079 106.741  41.278  1.00  0.00     0.006 C 
BRANCH   7   8
ATOM      8  C   UNL     1    -129.418 106.595  39.790  1.00  0.00     0.053 C 
BRANCH   8   9
ATOM      9  C   UNL     1    -129.488 105.156  39.379  1.00  0.00     0.041 C 
ATOM     10  O   UNL     1    -129.215 104.246  40.205  1.00  0.00    -0.550 OA
ATOM     11  O   UNL     1    -129.817 104.821  38.071  1.00  0.00    -0.550 OA
ENDBRANCH   8   9
ENDBRANCH   7   8
ENDBRANCH   6   7
ENDBRANCH   5   6
ENDBRANCH   4   5
ENDBRANCH   3   4
ENDBRANCH   2   3
ENDBRANCH   1   2
BRANCH   1  12
ATOM     12  C   UNL     1    -130.023 113.574  42.412  1.00  0.00     0.000 C 
BRANCH  12  13
ATOM     13  C   UNL     1    -129.748 114.947  41.784  1.00  0.00    -0.000 C 
BRANCH  13  14
ATOM     14  C   UNL     1    -130.118 116.117  42.715  1.00  0.00    -0.000 C 
BRANCH  14  15
ATOM     15  C   UNL     1    -129.306 117.405  42.493  1.00  0.00    -0.000 C 
BRANCH  15  16
ATOM     16  C   UNL     1    -128.985 118.147  43.801  1.00  0.00    -0.000 C 
BRANCH  16  17
ATOM     17  C   UNL     1    -129.400 117.337  45.048  1.00  0.00    -0.000 C 
BRANCH  17  18
ATOM     18  C   UNL     1    -130.342 118.101  45.995  1.00  0.00    -0.000 C 
BRANCH  18  19
ATOM     19  C   UNL     1    -131.172 117.172  46.890  1.00  0.00    -0.003 C 
ATOM     20  C   UNL     1    -130.791 115.710  46.669  1.00  0.00     0.004 C 
ENDBRANCH  18  19
ENDBRANCH  17  18
ENDBRANCH  16  17
ENDBRANCH  15  16
ENDBRANCH  14  15
ENDBRANCH  13  14
ENDBRANCH  12  13
ENDBRANCH   1  12
TORSDOF 16
ENDMDL
