MODEL 1
REMARK VINA RESULT:    87.640      0.000      0.000
REMARK INTER + INTRA:         132.819
REMARK INTER:                 128.627
REMARK INTRA:                   4.192
REMARK UNBOUND:                 4.192
REMARK SMILES Cc1cc2c(C(C)C)c(O)c(O)c(C=O)c2c(O)c1-c1c(C)cc2c(C(C)C)c(O)c(O)c(C=O)c2c1O
REMARK SMILES IDX 1 1 2 2 3 3 4 4 16 5 13 6 11 7 9 8 5 9 17 10 19 11 20 12
REMARK SMILES IDX 37 13 21 14 36 15 23 16 22 17 24 18 33 19 25 20 31 21 29 22
REMARK SMILES IDX 38 23 34 25 35 26 26 27 27 28 28 29 32 30 30 32 18 34 6 36
REMARK SMILES IDX 7 37 8 38 14 39 15 40 10 41 12 43
REMARK H PARENT 38 24 32 31 30 33 18 35 10 42 12 44
REMARK Flexibility Score: inf
ROOT
ATOM      1  C   UNL     1       3.823  10.745  -8.906  1.00  0.00     0.045 C 
ATOM      2  C   UNL     1       2.723   9.926  -9.538  1.00  0.00    -0.039 A 
ATOM      3  C   UNL     1       2.417  10.119 -10.887  1.00  0.00     0.013 A 
ATOM      4  C   UNL     1       1.413   9.369 -11.537  1.00  0.00    -0.006 A 
ATOM      5  C   UNL     1       0.609   8.484 -10.760  1.00  0.00     0.039 A 
ATOM      6  C   UNL     1      -0.549   7.901 -11.355  1.00  0.00     0.072 A 
ATOM      7  C   UNL     1      -0.873   8.203 -12.695  1.00  0.00     0.169 A 
ATOM      8  C   UNL     1      -0.017   8.985 -13.477  1.00  0.00     0.162 A 
ATOM      9  C   UNL     1       1.179   9.506 -12.938  1.00  0.00     0.008 A 
ATOM     10  C   UNL     1       1.002   8.202  -9.416  1.00  0.00     0.132 A 
ATOM     11  C   UNL     1       2.047   8.934  -8.811  1.00  0.00     0.031 A 
ENDROOT
BRANCH  11  12
ATOM     12  C   UNL     1       2.428   8.663  -7.399  1.00  0.00     0.031 A 
ATOM     13  C   UNL     1       1.433   8.445  -6.424  1.00  0.00     0.132 A 
ATOM     14  C   UNL     1       3.784   8.596  -7.044  1.00  0.00    -0.039 A 
ATOM     15  C   UNL     1       1.793   8.205  -5.064  1.00  0.00     0.039 A 
ATOM     16  C   UNL     1       4.137   8.260  -5.736  1.00  0.00     0.013 A 
ATOM     17  C   UNL     1       4.868   8.831  -8.067  1.00  0.00     0.045 C 
ATOM     18  C   UNL     1       3.173   8.049  -4.728  1.00  0.00    -0.006 A 
ATOM     19  C   UNL     1       0.811   8.084  -4.038  1.00  0.00     0.072 A 
ATOM     20  C   UNL     1       3.551   7.669  -3.398  1.00  0.00     0.008 A 
ATOM     21  C   UNL     1       1.188   7.659  -2.753  1.00  0.00     0.169 A 
ATOM     22  C   UNL     1       2.534   7.380  -2.459  1.00  0.00     0.162 A 
BRANCH  13  23
ATOM     23  O   UNL     1       0.088   8.424  -6.813  1.00  0.00    -0.507 OA
ATOM     24  H   UNL     1      -0.390   7.598  -7.152  1.00  0.00     0.293 HD
ENDBRANCH  13  23
BRANCH  19  25
ATOM     25  C   UNL     1      -0.596   8.506  -4.240  1.00  0.00     0.264 C 
ATOM     26  O   UNL     1      -1.074   9.492  -3.621  1.00  0.00    -0.298 OA
ENDBRANCH  19  25
BRANCH  20  27
ATOM     27  C   UNL     1       5.014   7.507  -2.935  1.00  0.00     0.017 C 
ATOM     28  C   UNL     1       5.294   8.270  -1.631  1.00  0.00     0.012 C 
ATOM     29  C   UNL     1       5.509   6.045  -2.904  1.00  0.00     0.012 C 
ENDBRANCH  20  27
BRANCH  21  30
ATOM     30  O   UNL     1       0.202   7.563  -1.763  1.00  0.00    -0.504 OA
ATOM     31  H   UNL     1      -0.435   6.785  -1.667  1.00  0.00     0.293 HD
ENDBRANCH  21  30
BRANCH  22  32
ATOM     32  O   UNL     1       2.885   6.808  -1.229  1.00  0.00    -0.504 OA
ATOM     33  H   UNL     1       2.402   6.986  -0.359  1.00  0.00     0.293 HD
ENDBRANCH  22  32
ENDBRANCH  11  12
BRANCH  10  34
ATOM     34  O   UNL     1       0.377   7.177  -8.696  1.00  0.00    -0.507 OA
ATOM     35  H   UNL     1       0.556   6.192  -8.846  1.00  0.00     0.293 HD
ENDBRANCH  10  34
BRANCH   9  36
ATOM     36  C   UNL     1       2.188  10.216 -13.858  1.00  0.00     0.017 C 
ATOM     37  C   UNL     1       3.516   9.452 -13.908  1.00  0.00     0.012 C 
ATOM     38  C   UNL     1       2.408  11.699 -13.507  1.00  0.00     0.012 C 
ENDBRANCH   9  36
BRANCH   6  39
ATOM     39  C   UNL     1      -1.488   7.066 -10.577  1.00  0.00     0.264 C 
ATOM     40  O   UNL     1      -2.479   6.525 -11.135  1.00  0.00    -0.298 OA
ENDBRANCH   6  39
BRANCH   8  41
ATOM     41  O   UNL     1      -0.369   9.274 -14.797  1.00  0.00    -0.504 OA
ATOM     42  H   UNL     1       0.297   9.278 -15.560  1.00  0.00     0.293 HD
ENDBRANCH   8  41
BRANCH   7  43
ATOM     43  O   UNL     1      -2.065   7.755 -13.279  1.00  0.00    -0.504 OA
ATOM     44  H   UNL     1      -2.753   8.365 -13.700  1.00  0.00     0.293 HD
ENDBRANCH   7  43
TORSDOF 11
ENDMDL
MODEL 2
REMARK VINA RESULT:    87.974      1.633      3.066
REMARK INTER + INTRA:         133.310
REMARK INTER:                 128.135
REMARK INTRA:                   5.176
REMARK UNBOUND:                 4.192
REMARK SMILES Cc1cc2c(C(C)C)c(O)c(O)c(C=O)c2c(O)c1-c1c(C)cc2c(C(C)C)c(O)c(O)c(C=O)c2c1O
REMARK SMILES IDX 1 1 2 2 3 3 4 4 16 5 13 6 11 7 9 8 5 9 17 10 19 11 20 12
REMARK SMILES IDX 37 13 21 14 36 15 23 16 22 17 24 18 33 19 25 20 31 21 29 22
REMARK SMILES IDX 38 23 34 25 35 26 26 27 27 28 28 29 32 30 30 32 18 34 6 36
REMARK SMILES IDX 7 37 8 38 14 39 15 40 10 41 12 43
REMARK H PARENT 38 24 32 31 30 33 18 35 10 42 12 44
REMARK Flexibility Score: inf
ROOT
ATOM      1  C   UNL     1       0.406   6.725  -8.525  1.00  0.00     0.045 C 
ATOM      2  C   UNL     1       0.975   7.892  -9.296  1.00  0.00    -0.039 A 
ATOM      3  C   UNL     1       0.514   8.146 -10.589  1.00  0.00     0.013 A 
ATOM      4  C   UNL     1       0.995   9.234 -11.350  1.00  0.00    -0.006 A 
ATOM      5  C   UNL     1       2.069  10.014 -10.828  1.00  0.00     0.039 A 
ATOM      6  C   UNL     1       2.712  10.961 -11.679  1.00  0.00     0.072 A 
ATOM      7  C   UNL     1       2.274  11.114 -13.012  1.00  0.00     0.169 A 
ATOM      8  C   UNL     1       1.151  10.422 -13.477  1.00  0.00     0.162 A 
ATOM      9  C   UNL     1       0.443   9.541 -12.631  1.00  0.00     0.008 A 
ATOM     10  C   UNL     1       2.451   9.827  -9.465  1.00  0.00     0.132 A 
ATOM     11  C   UNL     1       1.912   8.760  -8.713  1.00  0.00     0.031 A 
ENDROOT
BRANCH  11  12
ATOM     12  C   UNL     1       2.341   8.546  -7.305  1.00  0.00     0.031 A 
ATOM     13  C   UNL     1       1.382   8.317  -6.298  1.00  0.00     0.132 A 
ATOM     14  C   UNL     1       3.708   8.545  -6.986  1.00  0.00    -0.039 A 
ATOM     15  C   UNL     1       1.787   8.131  -4.941  1.00  0.00     0.039 A 
ATOM     16  C   UNL     1       4.109   8.261  -5.680  1.00  0.00     0.013 A 
ATOM     17  C   UNL     1       4.754   8.793  -8.045  1.00  0.00     0.045 C 
ATOM     18  C   UNL     1       3.182   8.041  -4.639  1.00  0.00    -0.006 A 
ATOM     19  C   UNL     1       0.839   8.000  -3.886  1.00  0.00     0.072 A 
ATOM     20  C   UNL     1       3.609   7.714  -3.311  1.00  0.00     0.008 A 
ATOM     21  C   UNL     1       1.267   7.628  -2.600  1.00  0.00     0.169 A 
ATOM     22  C   UNL     1       2.630   7.412  -2.336  1.00  0.00     0.162 A 
BRANCH  13  23
ATOM     23  O   UNL     1       0.030   8.230  -6.648  1.00  0.00    -0.507 OA
ATOM     24  H   UNL     1      -0.316   7.712  -7.446  1.00  0.00     0.293 HD
ENDBRANCH  13  23
BRANCH  19  25
ATOM     25  C   UNL     1      -0.589   8.359  -4.061  1.00  0.00     0.264 C 
ATOM     26  O   UNL     1      -1.084   9.360  -3.479  1.00  0.00    -0.298 OA
ENDBRANCH  19  25
BRANCH  20  27
ATOM     27  C   UNL     1       5.090   7.626  -2.883  1.00  0.00     0.017 C 
ATOM     28  C   UNL     1       5.367   8.414  -1.595  1.00  0.00     0.012 C 
ATOM     29  C   UNL     1       5.652   6.188  -2.852  1.00  0.00     0.012 C 
ENDBRANCH  20  27
BRANCH  21  30
ATOM     30  O   UNL     1       0.312   7.521  -1.581  1.00  0.00    -0.504 OA
ATOM     31  H   UNL     1      -0.357   6.769  -1.505  1.00  0.00     0.293 HD
ENDBRANCH  21  30
BRANCH  22  32
ATOM     32  O   UNL     1       3.037   6.891  -1.101  1.00  0.00    -0.504 OA
ATOM     33  H   UNL     1       3.997   6.698  -0.852  1.00  0.00     0.293 HD
ENDBRANCH  22  32
ENDBRANCH  11  12
BRANCH  10  34
ATOM     34  O   UNL     1       3.340  10.717  -8.851  1.00  0.00    -0.507 OA
ATOM     35  H   UNL     1       3.983  11.311  -9.358  1.00  0.00     0.293 HD
ENDBRANCH  10  34
BRANCH   9  36
ATOM     36  C   UNL     1      -0.884   8.924 -13.106  1.00  0.00     0.017 C 
ATOM     37  C   UNL     1      -1.014   7.473 -12.631  1.00  0.00     0.012 C 
ATOM     38  C   UNL     1      -1.112   9.040 -14.624  1.00  0.00     0.012 C 
ENDBRANCH   9  36
BRANCH   6  39
ATOM     39  C   UNL     1       3.902  11.720 -11.239  1.00  0.00     0.264 C 
ATOM     40  O   UNL     1       4.246  12.774 -11.836  1.00  0.00    -0.298 OA
ENDBRANCH   6  39
BRANCH   8  41
ATOM     41  O   UNL     1       0.747  10.588 -14.803  1.00  0.00    -0.504 OA
ATOM     42  H   UNL     1       0.239  11.401 -15.129  1.00  0.00     0.293 HD
ENDBRANCH   8  41
BRANCH   7  43
ATOM     43  O   UNL     1       2.956  11.937 -13.916  1.00  0.00    -0.504 OA
ATOM     44  H   UNL     1       2.552  12.296 -14.771  1.00  0.00     0.293 HD
ENDBRANCH   7  43
TORSDOF 11
ENDMDL
MODEL 3
REMARK VINA RESULT:    89.389      1.744      9.055
REMARK INTER + INTRA:         135.386
REMARK INTER:                 128.656
REMARK INTRA:                   6.730
REMARK UNBOUND:                 4.192
REMARK SMILES Cc1cc2c(C(C)C)c(O)c(O)c(C=O)c2c(O)c1-c1c(C)cc2c(C(C)C)c(O)c(O)c(C=O)c2c1O
REMARK SMILES IDX 1 1 2 2 3 3 4 4 16 5 13 6 11 7 9 8 5 9 17 10 19 11 20 12
REMARK SMILES IDX 37 13 21 14 36 15 23 16 22 17 24 18 33 19 25 20 31 21 29 22
REMARK SMILES IDX 38 23 34 25 35 26 26 27 27 28 28 29 32 30 30 32 18 34 6 36
REMARK SMILES IDX 7 37 8 38 14 39 15 40 10 41 12 43
REMARK H PARENT 38 24 32 31 30 33 18 35 10 42 12 44
REMARK Flexibility Score: inf
ROOT
ATOM      1  C   UNL     1       4.763   8.418  -8.001  1.00  0.00     0.045 C 
ATOM      2  C   UNL     1       3.765   8.310  -6.873  1.00  0.00    -0.039 A 
ATOM      3  C   UNL     1       4.225   8.102  -5.571  1.00  0.00     0.013 A 
ATOM      4  C   UNL     1       3.340   8.012  -4.475  1.00  0.00    -0.006 A 
ATOM      5  C   UNL     1       1.936   8.008  -4.727  1.00  0.00     0.039 A 
ATOM      6  C   UNL     1       1.045   7.686  -3.660  1.00  0.00     0.072 A 
ATOM      7  C   UNL     1       1.563   7.387  -2.382  1.00  0.00     0.169 A 
ATOM      8  C   UNL     1       2.933   7.502  -2.123  1.00  0.00     0.162 A 
ATOM      9  C   UNL     1       3.829   7.901  -3.138  1.00  0.00     0.008 A 
ATOM     10  C   UNL     1       1.474   8.340  -6.036  1.00  0.00     0.132 A 
ATOM     11  C   UNL     1       2.389   8.475  -7.102  1.00  0.00     0.031 A 
ENDROOT
BRANCH  11  12
ATOM     12  C   UNL     1       1.900   8.784  -8.473  1.00  0.00     0.031 A 
ATOM     13  C   UNL     1       2.627   9.660  -9.305  1.00  0.00     0.132 A 
ATOM     14  C   UNL     1       0.727   8.177  -8.946  1.00  0.00    -0.039 A 
ATOM     15  C   UNL     1       2.152   9.975 -10.614  1.00  0.00     0.039 A 
ATOM     16  C   UNL     1       0.318   8.405 -10.261  1.00  0.00     0.013 A 
ATOM     17  C   UNL     1      -0.072   7.241  -8.073  1.00  0.00     0.045 C 
ATOM     18  C   UNL     1       1.007   9.285 -11.122  1.00  0.00    -0.006 A 
ATOM     19  C   UNL     1       2.806  10.934 -11.439  1.00  0.00     0.072 A 
ATOM     20  C   UNL     1       0.595   9.481 -12.481  1.00  0.00     0.008 A 
ATOM     21  C   UNL     1       2.427  11.078 -12.785  1.00  0.00     0.169 A 
ATOM     22  C   UNL     1       1.384  10.303 -13.319  1.00  0.00     0.162 A 
BRANCH  13  23
ATOM     23  O   UNL     1       3.843  10.183  -8.850  1.00  0.00    -0.507 OA
ATOM     24  H   UNL     1       4.568  10.542  -9.460  1.00  0.00     0.293 HD
ENDBRANCH  13  23
BRANCH  19  25
ATOM     25  C   UNL     1       3.809  11.885 -10.900  1.00  0.00     0.264 C 
ATOM     26  O   UNL     1       4.217  12.858 -11.586  1.00  0.00    -0.298 OA
ENDBRANCH  19  25
BRANCH  20  27
ATOM     27  C   UNL     1      -0.643   8.806 -13.107  1.00  0.00     0.017 C 
ATOM     28  C   UNL     1      -0.944   9.344 -14.514  1.00  0.00     0.012 C 
ATOM     29  C   UNL     1      -0.626   7.263 -13.035  1.00  0.00     0.012 C 
ENDBRANCH  20  27
BRANCH  21  30
ATOM     30  O   UNL     1       3.081  12.038 -13.566  1.00  0.00    -0.504 OA
ATOM     31  H   UNL     1       3.967  11.890 -14.027  1.00  0.00     0.293 HD
ENDBRANCH  21  30
BRANCH  22  32
ATOM     32  O   UNL     1       1.113  10.333 -14.693  1.00  0.00    -0.504 OA
ATOM     33  H   UNL     1       1.820  10.322 -15.414  1.00  0.00     0.293 HD
ENDBRANCH  22  32
ENDBRANCH  11  12
BRANCH  10  34
ATOM     34  O   UNL     1       0.113   8.565  -6.270  1.00  0.00    -0.507 OA
ATOM     35  H   UNL     1      -0.629   8.190  -5.691  1.00  0.00     0.293 HD
ENDBRANCH  10  34
BRANCH   9  36
ATOM     36  C   UNL     1       5.301   8.187  -2.792  1.00  0.00     0.017 C 
ATOM     37  C   UNL     1       6.056   6.887  -2.493  1.00  0.00     0.012 C 
ATOM     38  C   UNL     1       5.481   9.213  -1.657  1.00  0.00     0.012 C 
ENDBRANCH   9  36
BRANCH   6  39
ATOM     39  C   UNL     1      -0.411   7.553  -3.876  1.00  0.00     0.264 C 
ATOM     40  O   UNL     1      -1.155   8.569  -3.876  1.00  0.00    -0.298 OA
ENDBRANCH   6  39
BRANCH   8  41
ATOM     41  O   UNL     1       3.416   7.191  -0.851  1.00  0.00    -0.504 OA
ATOM     42  H   UNL     1       4.198   7.672  -0.422  1.00  0.00     0.293 HD
ENDBRANCH   8  41
BRANCH   7  43
ATOM     43  O   UNL     1       0.736   6.945  -1.342  1.00  0.00    -0.504 OA
ATOM     44  H   UNL     1      -0.225   6.654  -1.467  1.00  0.00     0.293 HD
ENDBRANCH   7  43
TORSDOF 11
ENDMDL
MODEL 4
REMARK VINA RESULT:    89.758      0.884      8.698
REMARK INTER + INTRA:         135.928
REMARK INTER:                 130.875
REMARK INTRA:                   5.053
REMARK UNBOUND:                 4.192
REMARK SMILES Cc1cc2c(C(C)C)c(O)c(O)c(C=O)c2c(O)c1-c1c(C)cc2c(C(C)C)c(O)c(O)c(C=O)c2c1O
REMARK SMILES IDX 1 1 2 2 3 3 4 4 16 5 13 6 11 7 9 8 5 9 17 10 19 11 20 12
REMARK SMILES IDX 37 13 21 14 36 15 23 16 22 17 24 18 33 19 25 20 31 21 29 22
REMARK SMILES IDX 38 23 34 25 35 26 26 27 27 28 28 29 32 30 30 32 18 34 6 36
REMARK SMILES IDX 7 37 8 38 14 39 15 40 10 41 12 43
REMARK H PARENT 38 24 32 31 30 33 18 35 10 42 12 44
REMARK Flexibility Score: inf
ROOT
ATOM      1  C   UNL     1       5.006   8.353  -8.208  1.00  0.00     0.045 C 
ATOM      2  C   UNL     1       3.873   8.343  -7.210  1.00  0.00    -0.039 A 
ATOM      3  C   UNL     1       4.147   8.072  -5.868  1.00  0.00     0.013 A 
ATOM      4  C   UNL     1       3.131   8.068  -4.887  1.00  0.00    -0.006 A 
ATOM      5  C   UNL     1       1.776   8.221  -5.305  1.00  0.00     0.039 A 
ATOM      6  C   UNL     1       0.732   7.988  -4.361  1.00  0.00     0.072 A 
ATOM      7  C   UNL     1       1.057   7.620  -3.037  1.00  0.00     0.169 A 
ATOM      8  C   UNL     1       2.389   7.580  -2.614  1.00  0.00     0.162 A 
ATOM      9  C   UNL     1       3.439   7.888  -3.505  1.00  0.00     0.008 A 
ATOM     10  C   UNL     1       1.515   8.617  -6.652  1.00  0.00     0.132 A 
ATOM     11  C   UNL     1       2.562   8.662  -7.598  1.00  0.00     0.031 A 
ENDROOT
BRANCH  11  12
ATOM     12  C   UNL     1       2.279   9.037  -9.009  1.00  0.00     0.031 A 
ATOM     13  C   UNL     1       1.158   8.500  -9.675  1.00  0.00     0.132 A 
ATOM     14  C   UNL     1       3.115   9.952  -9.667  1.00  0.00    -0.039 A 
ATOM     15  C   UNL     1       0.893   8.842 -11.036  1.00  0.00     0.039 A 
ATOM     16  C   UNL     1       2.798  10.365 -10.962  1.00  0.00     0.013 A 
ATOM     17  C   UNL     1       4.323  10.537  -8.978  1.00  0.00     0.045 C 
ATOM     18  C   UNL     1       1.695   9.841 -11.670  1.00  0.00    -0.006 A 
ATOM     19  C   UNL     1      -0.169   8.238 -11.768  1.00  0.00     0.072 A 
ATOM     20  C   UNL     1       1.362  10.302 -12.986  1.00  0.00     0.008 A 
ATOM     21  C   UNL     1      -0.520   8.734 -13.035  1.00  0.00     0.169 A 
ATOM     22  C   UNL     1       0.190   9.806 -13.603  1.00  0.00     0.162 A 
BRANCH  13  23
ATOM     23  O   UNL     1       0.284   7.661  -8.975  1.00  0.00    -0.507 OA
ATOM     24  H   UNL     1      -0.247   7.949  -8.162  1.00  0.00     0.293 HD
ENDBRANCH  13  23
BRANCH  19  25
ATOM     25  C   UNL     1      -0.857   7.013 -11.293  1.00  0.00     0.264 C 
ATOM     26  O   UNL     1      -0.735   5.920 -11.907  1.00  0.00    -0.298 OA
ENDBRANCH  19  25
BRANCH  20  27
ATOM     27  C   UNL     1       2.185  11.352 -13.761  1.00  0.00     0.017 C 
ATOM     28  C   UNL     1       1.374  12.000 -14.893  1.00  0.00     0.012 C 
ATOM     29  C   UNL     1       2.905  12.379 -12.861  1.00  0.00     0.012 C 
ENDBRANCH  20  27
BRANCH  21  30
ATOM     30  O   UNL     1      -1.560   8.110 -13.735  1.00  0.00    -0.504 OA
ATOM     31  H   UNL     1      -2.459   7.885 -13.336  1.00  0.00     0.293 HD
ENDBRANCH  21  30
BRANCH  22  32
ATOM     32  O   UNL     1      -0.258  10.400 -14.790  1.00  0.00    -0.504 OA
ATOM     33  H   UNL     1      -1.025  10.052 -15.348  1.00  0.00     0.293 HD
ENDBRANCH  22  32
ENDBRANCH  11  12
BRANCH  10  34
ATOM     34  O   UNL     1       0.224   8.993  -7.041  1.00  0.00    -0.507 OA
ATOM     35  H   UNL     1      -0.546   9.119  -6.395  1.00  0.00     0.293 HD
ENDBRANCH  10  34
BRANCH   9  36
ATOM     36  C   UNL     1       4.880   8.007  -2.979  1.00  0.00     0.017 C 
ATOM     37  C   UNL     1       5.520   6.624  -2.820  1.00  0.00     0.012 C 
ATOM     38  C   UNL     1       5.000   8.832  -1.684  1.00  0.00     0.012 C 
ENDBRANCH   9  36
BRANCH   6  39
ATOM     39  C   UNL     1      -0.693   8.018  -4.752  1.00  0.00     0.264 C 
ATOM     40  O   UNL     1      -1.192   7.080  -5.428  1.00  0.00    -0.298 OA
ENDBRANCH   6  39
BRANCH   8  41
ATOM     41  O   UNL     1       2.678   7.204  -1.301  1.00  0.00    -0.504 OA
ATOM     42  H   UNL     1       2.818   6.241  -1.019  1.00  0.00     0.293 HD
ENDBRANCH   8  41
BRANCH   7  43
ATOM     43  O   UNL     1       0.066   7.260  -2.115  1.00  0.00    -0.504 OA
ATOM     44  H   UNL     1      -0.744   6.700  -2.344  1.00  0.00     0.293 HD
ENDBRANCH   7  43
TORSDOF 11
ENDMDL
