MODEL 1
REMARK VINA RESULT:    -6.108      0.000      0.000
REMARK INTER + INTRA:         -11.779
REMARK INTER:                 -10.751
REMARK INTRA:                  -1.029
REMARK UNBOUND:                -1.029
REMARK SMILES CCCCCCC=CCCCCCCCC(=O)[O-]
REMARK SMILES IDX 10 1 11 2 12 3 13 4 14 5 15 6 16 7 17 8 18 9 9 10 8 11 7 12
REMARK SMILES IDX 6 13 5 14 4 15 3 16 2 17 1 18
REMARK H PARENT
REMARK Flexibility Score: inf
ROOT
ATOM      1  C   UNL     1       4.711  44.294   9.709  1.00  0.00     0.004 C 
ENDROOT
BRANCH   1   2
ATOM      2  C   UNL     1       4.416  45.009  11.037  1.00  0.00     0.000 C 
BRANCH   2   3
ATOM      3  C   UNL     1       3.194  45.936  10.949  1.00  0.00     0.000 C 
BRANCH   3   4
ATOM      4  C   UNL     1       2.483  46.116  12.302  1.00  0.00     0.000 C 
BRANCH   4   5
ATOM      5  C   UNL     1       1.078  45.479  12.350  1.00  0.00     0.006 C 
BRANCH   5   6
ATOM      6  C   UNL     1       0.440  45.375  10.959  1.00  0.00     0.053 C 
BRANCH   6   7
ATOM      7  C   UNL     1      -0.430  46.563  10.692  1.00  0.00     0.041 C 
ATOM      8  O   UNL     1       0.042  47.579  10.119  1.00  0.00    -0.550 OA
ATOM      9  O   UNL     1      -1.778  46.528  11.032  1.00  0.00    -0.550 OA
ENDBRANCH   6   7
ENDBRANCH   5   6
ENDBRANCH   4   5
ENDBRANCH   3   4
ENDBRANCH   2   3
ENDBRANCH   1   2
BRANCH   1  10
ATOM     10  C   UNL     1       3.679  43.207   9.382  1.00  0.00     0.027 C 
BRANCH  10  11
ATOM     11  C   UNL     1       4.267  42.203   8.421  1.00  0.00    -0.031 C 
ATOM     12  C   UNL     1       4.331  42.351   7.084  1.00  0.00    -0.031 C 
BRANCH  12  13
ATOM     13  C   UNL     1       3.847  43.559   6.322  1.00  0.00     0.027 C 
BRANCH  13  14
ATOM     14  C   UNL     1       5.009  44.501   5.967  1.00  0.00     0.004 C 
BRANCH  14  15
ATOM     15  C   UNL     1       4.990  44.937   4.491  1.00  0.00     0.000 C 
BRANCH  15  16
ATOM     16  C   UNL     1       3.617  44.834   3.798  1.00  0.00    -0.000 C 
BRANCH  16  17
ATOM     17  C   UNL     1       3.145  46.121   3.097  1.00  0.00    -0.003 C 
ATOM     18  C   UNL     1       4.296  46.930   2.500  1.00  0.00     0.004 C 
ENDBRANCH  16  17
ENDBRANCH  15  16
ENDBRANCH  14  15
ENDBRANCH  13  14
ENDBRANCH  12  13
ENDBRANCH  10  11
ENDBRANCH   1  10
TORSDOF 13
ENDMDL
MODEL 2
REMARK VINA RESULT:    -5.935      7.266      9.933
REMARK INTER + INTRA:         -11.474
REMARK INTER:                 -10.657
REMARK INTRA:                  -0.817
REMARK UNBOUND:                -1.029
REMARK SMILES CCCCCCC=CCCCCCCCC(=O)[O-]
REMARK SMILES IDX 10 1 11 2 12 3 13 4 14 5 15 6 16 7 17 8 18 9 9 10 8 11 7 12
REMARK SMILES IDX 6 13 5 14 4 15 3 16 2 17 1 18
REMARK H PARENT
REMARK Flexibility Score: inf
ROOT
ATOM      1  C   UNL     1       5.274  47.343   2.518  1.00  0.00     0.004 C 
ENDROOT
BRANCH   1   2
ATOM      2  C   UNL     1       3.979  46.713   1.981  1.00  0.00     0.000 C 
BRANCH   2   3
ATOM      3  C   UNL     1       3.286  45.815   3.017  1.00  0.00     0.000 C 
BRANCH   3   4
ATOM      4  C   UNL     1       1.944  45.253   2.518  1.00  0.00     0.000 C 
BRANCH   4   5
ATOM      5  C   UNL     1       1.969  44.821   1.037  1.00  0.00     0.006 C 
BRANCH   5   6
ATOM      6  C   UNL     1       0.597  44.341   0.548  1.00  0.00     0.053 C 
BRANCH   6   7
ATOM      7  C   UNL     1       0.348  44.805  -0.853  1.00  0.00     0.041 C 
ATOM      8  O   UNL     1       1.295  44.860  -1.680  1.00  0.00    -0.550 OA
ATOM      9  O   UNL     1      -0.941  45.130  -1.259  1.00  0.00    -0.550 OA
ENDBRANCH   6   7
ENDBRANCH   5   6
ENDBRANCH   4   5
ENDBRANCH   3   4
ENDBRANCH   2   3
ENDBRANCH   1   2
BRANCH   1  10
ATOM     10  C   UNL     1       6.088  48.044   1.422  1.00  0.00     0.027 C 
BRANCH  10  11
ATOM     11  C   UNL     1       5.182  48.481   0.298  1.00  0.00    -0.031 C 
ATOM     12  C   UNL     1       5.566  48.691  -0.975  1.00  0.00    -0.031 C 
BRANCH  12  13
ATOM     13  C   UNL     1       6.968  48.502  -1.499  1.00  0.00     0.027 C 
BRANCH  13  14
ATOM     14  C   UNL     1       6.962  47.913  -2.918  1.00  0.00     0.004 C 
BRANCH  14  15
ATOM     15  C   UNL     1       7.860  46.670  -3.049  1.00  0.00     0.000 C 
BRANCH  15  16
ATOM     16  C   UNL     1       7.655  45.851  -4.340  1.00  0.00    -0.000 C 
BRANCH  16  17
ATOM     17  C   UNL     1       6.476  46.306  -5.218  1.00  0.00    -0.003 C 
ATOM     18  C   UNL     1       5.370  45.258  -5.321  1.00  0.00     0.004 C 
ENDBRANCH  16  17
ENDBRANCH  15  16
ENDBRANCH  14  15
ENDBRANCH  13  14
ENDBRANCH  12  13
ENDBRANCH  10  11
ENDBRANCH   1  10
TORSDOF 13
ENDMDL
MODEL 3
REMARK VINA RESULT:    -5.889      1.455      2.136
REMARK INTER + INTRA:         -11.394
REMARK INTER:                 -10.452
REMARK INTRA:                  -0.941
REMARK UNBOUND:                -1.029
REMARK SMILES CCCCCCC=CCCCCCCCC(=O)[O-]
REMARK SMILES IDX 10 1 11 2 12 3 13 4 14 5 15 6 16 7 17 8 18 9 9 10 8 11 7 12
REMARK SMILES IDX 6 13 5 14 4 15 3 16 2 17 1 18
REMARK H PARENT
REMARK Flexibility Score: inf
ROOT
ATOM      1  C   UNL     1       4.722  44.904   9.683  1.00  0.00     0.004 C 
ENDROOT
BRANCH   1   2
ATOM      2  C   UNL     1       3.249  44.471   9.751  1.00  0.00     0.000 C 
BRANCH   2   3
ATOM      3  C   UNL     1       2.664  44.587  11.167  1.00  0.00     0.000 C 
BRANCH   3   4
ATOM      4  C   UNL     1       3.271  45.751  11.969  1.00  0.00     0.000 C 
BRANCH   4   5
ATOM      5  C   UNL     1       2.218  46.739  12.514  1.00  0.00     0.006 C 
BRANCH   5   6
ATOM      6  C   UNL     1       1.927  47.880  11.531  1.00  0.00     0.053 C 
BRANCH   6   7
ATOM      7  C   UNL     1       0.571  47.712  10.921  1.00  0.00     0.041 C 
ATOM      8  O   UNL     1      -0.282  46.966  11.468  1.00  0.00    -0.550 OA
ATOM      9  O   UNL     1       0.232  48.421   9.774  1.00  0.00    -0.550 OA
ENDBRANCH   6   7
ENDBRANCH   5   6
ENDBRANCH   4   5
ENDBRANCH   3   4
ENDBRANCH   2   3
ENDBRANCH   1   2
BRANCH   1  10
ATOM     10  C   UNL     1       5.406  44.469   8.380  1.00  0.00     0.027 C 
BRANCH  10  11
ATOM     11  C   UNL     1       4.419  43.762   7.484  1.00  0.00    -0.031 C 
ATOM     12  C   UNL     1       4.384  43.854   6.142  1.00  0.00    -0.031 C 
BRANCH  12  13
ATOM     13  C   UNL     1       5.341  44.662   5.302  1.00  0.00     0.027 C 
BRANCH  13  14
ATOM     14  C   UNL     1       4.628  45.310   4.105  1.00  0.00     0.004 C 
BRANCH  14  15
ATOM     15  C   UNL     1       3.132  44.954   4.041  1.00  0.00     0.000 C 
BRANCH  15  16
ATOM     16  C   UNL     1       2.367  45.562   2.848  1.00  0.00    -0.000 C 
BRANCH  16  17
ATOM     17  C   UNL     1       2.470  44.764   1.536  1.00  0.00    -0.003 C 
ATOM     18  C   UNL     1       1.165  44.752   0.742  1.00  0.00     0.004 C 
ENDBRANCH  16  17
ENDBRANCH  15  16
ENDBRANCH  14  15
ENDBRANCH  13  14
ENDBRANCH  12  13
ENDBRANCH  10  11
ENDBRANCH   1  10
TORSDOF 13
ENDMDL
MODEL 4
REMARK VINA RESULT:    -5.849      3.923      7.674
REMARK INTER + INTRA:         -11.323
REMARK INTER:                 -10.481
REMARK INTRA:                  -0.842
REMARK UNBOUND:                -1.029
REMARK SMILES CCCCCCC=CCCCCCCCC(=O)[O-]
REMARK SMILES IDX 10 1 11 2 12 3 13 4 14 5 15 6 16 7 17 8 18 9 9 10 8 11 7 12
REMARK SMILES IDX 6 13 5 14 4 15 3 16 2 17 1 18
REMARK H PARENT
REMARK Flexibility Score: inf
ROOT
ATOM      1  C   UNL     1       1.265  44.558   0.632  1.00  0.00     0.004 C 
ENDROOT
BRANCH   1   2
ATOM      2  C   UNL     1      -0.212  44.174   0.458  1.00  0.00     0.000 C 
BRANCH   2   3
ATOM      3  C   UNL     1      -1.160  45.366   0.662  1.00  0.00     0.000 C 
BRANCH   3   4
ATOM      4  C   UNL     1      -2.598  44.935   0.997  1.00  0.00     0.000 C 
BRANCH   4   5
ATOM      5  C   UNL     1      -2.797  44.549   2.478  1.00  0.00     0.006 C 
BRANCH   5   6
ATOM      6  C   UNL     1      -1.968  45.428   3.424  1.00  0.00     0.053 C 
BRANCH   6   7
ATOM      7  C   UNL     1      -2.522  45.370   4.813  1.00  0.00     0.041 C 
ATOM      8  O   UNL     1      -1.965  46.007   5.744  1.00  0.00    -0.550 OA
ATOM      9  O   UNL     1      -3.684  44.652   5.068  1.00  0.00    -0.550 OA
ENDBRANCH   6   7
ENDBRANCH   5   6
ENDBRANCH   4   5
ENDBRANCH   3   4
ENDBRANCH   2   3
ENDBRANCH   1   2
BRANCH   1  10
ATOM     10  C   UNL     1       1.590  45.022   2.059  1.00  0.00     0.027 C 
BRANCH  10  11
ATOM     11  C   UNL     1       2.891  45.786   2.074  1.00  0.00    -0.031 C 
ATOM     12  C   UNL     1       3.829  45.705   3.037  1.00  0.00    -0.031 C 
BRANCH  12  13
ATOM     13  C   UNL     1       3.748  44.817   4.253  1.00  0.00     0.027 C 
BRANCH  13  14
ATOM     14  C   UNL     1       5.118  44.675   4.935  1.00  0.00     0.004 C 
BRANCH  14  15
ATOM     15  C   UNL     1       5.006  44.263   6.414  1.00  0.00     0.000 C 
BRANCH  15  16
ATOM     16  C   UNL     1       4.204  42.971   6.672  1.00  0.00    -0.000 C 
BRANCH  16  17
ATOM     17  C   UNL     1       3.333  42.990   7.940  1.00  0.00    -0.003 C 
ATOM     18  C   UNL     1       3.918  42.155   9.078  1.00  0.00     0.004 C 
ENDBRANCH  16  17
ENDBRANCH  15  16
ENDBRANCH  14  15
ENDBRANCH  13  14
ENDBRANCH  12  13
ENDBRANCH  10  11
ENDBRANCH   1  10
TORSDOF 13
ENDMDL
MODEL 5
REMARK VINA RESULT:    -5.844      7.697     12.655
REMARK INTER + INTRA:         -11.315
REMARK INTER:                 -10.540
REMARK INTRA:                  -0.775
REMARK UNBOUND:                -1.029
REMARK SMILES CCCCCCC=CCCCCCCCC(=O)[O-]
REMARK SMILES IDX 10 1 11 2 12 3 13 4 14 5 15 6 16 7 17 8 18 9 9 10 8 11 7 12
REMARK SMILES IDX 6 13 5 14 4 15 3 16 2 17 1 18
REMARK H PARENT
REMARK Flexibility Score: inf
ROOT
ATOM      1  C   UNL     1       7.078  47.538  -2.772  1.00  0.00     0.004 C 
ENDROOT
BRANCH   1   2
ATOM      2  C   UNL     1       8.430  46.933  -3.179  1.00  0.00     0.000 C 
BRANCH   2   3
ATOM      3  C   UNL     1       8.392  46.285  -4.572  1.00  0.00     0.000 C 
BRANCH   3   4
ATOM      4  C   UNL     1       8.463  44.749  -4.518  1.00  0.00     0.000 C 
BRANCH   4   5
ATOM      5  C   UNL     1       7.408  44.115  -3.588  1.00  0.00     0.006 C 
BRANCH   5   6
ATOM      6  C   UNL     1       6.291  43.413  -4.370  1.00  0.00     0.053 C 
BRANCH   6   7
ATOM      7  C   UNL     1       5.407  44.419  -5.037  1.00  0.00     0.041 C 
ATOM      8  O   UNL     1       5.504  44.626  -6.275  1.00  0.00    -0.550 OA
ATOM      9  O   UNL     1       4.441  45.094  -4.299  1.00  0.00    -0.550 OA
ENDBRANCH   6   7
ENDBRANCH   5   6
ENDBRANCH   4   5
ENDBRANCH   3   4
ENDBRANCH   2   3
ENDBRANCH   1   2
BRANCH   1  10
ATOM     10  C   UNL     1       7.181  48.430  -1.527  1.00  0.00     0.027 C 
BRANCH  10  11
ATOM     11  C   UNL     1       5.821  48.604  -0.897  1.00  0.00    -0.031 C 
ATOM     12  C   UNL     1       5.498  48.260   0.364  1.00  0.00    -0.031 C 
BRANCH  12  13
ATOM     13  C   UNL     1       6.449  47.661   1.369  1.00  0.00     0.027 C 
BRANCH  13  14
ATOM     14  C   UNL     1       5.701  47.126   2.600  1.00  0.00     0.004 C 
BRANCH  14  15
ATOM     15  C   UNL     1       4.173  47.131   2.414  1.00  0.00     0.000 C 
BRANCH  15  16
ATOM     16  C   UNL     1       3.501  45.746   2.500  1.00  0.00    -0.000 C 
BRANCH  16  17
ATOM     17  C   UNL     1       2.519  45.572   3.672  1.00  0.00    -0.003 C 
ATOM     18  C   UNL     1       1.114  46.082   3.354  1.00  0.00     0.004 C 
ENDBRANCH  16  17
ENDBRANCH  15  16
ENDBRANCH  14  15
ENDBRANCH  13  14
ENDBRANCH  12  13
ENDBRANCH  10  11
ENDBRANCH   1  10
TORSDOF 13
ENDMDL
MODEL 6
REMARK VINA RESULT:    -5.752      4.554      8.255
REMARK INTER + INTRA:         -11.153
REMARK INTER:                 -10.415
REMARK INTRA:                  -0.738
REMARK UNBOUND:                -1.029
REMARK SMILES CCCCCCC=CCCCCCCCC(=O)[O-]
REMARK SMILES IDX 10 1 11 2 12 3 13 4 14 5 15 6 16 7 17 8 18 9 9 10 8 11 7 12
REMARK SMILES IDX 6 13 5 14 4 15 3 16 2 17 1 18
REMARK H PARENT
REMARK Flexibility Score: inf
ROOT
ATOM      1  C   UNL     1       4.962  47.151   2.807  1.00  0.00     0.004 C 
ENDROOT
BRANCH   1   2
ATOM      2  C   UNL     1       3.694  46.503   2.229  1.00  0.00     0.000 C 
BRANCH   2   3
ATOM      3  C   UNL     1       3.168  45.353   3.103  1.00  0.00     0.000 C 
BRANCH   3   4
ATOM      4  C   UNL     1       4.205  44.862   4.129  1.00  0.00     0.000 C 
BRANCH   4   5
ATOM      5  C   UNL     1       3.578  44.145   5.344  1.00  0.00     0.006 C 
BRANCH   5   6
ATOM      6  C   UNL     1       4.626  43.759   6.395  1.00  0.00     0.053 C 
BRANCH   6   7
ATOM      7  C   UNL     1       3.993  43.633   7.745  1.00  0.00     0.041 C 
ATOM      8  O   UNL     1       4.548  44.138   8.755  1.00  0.00    -0.550 OA
ATOM      9  O   UNL     1       2.762  43.001   7.879  1.00  0.00    -0.550 OA
ENDBRANCH   6   7
ENDBRANCH   5   6
ENDBRANCH   4   5
ENDBRANCH   3   4
ENDBRANCH   2   3
ENDBRANCH   1   2
BRANCH   1  10
ATOM     10  C   UNL     1       5.909  47.670   1.717  1.00  0.00     0.027 C 
BRANCH  10  11
ATOM     11  C   UNL     1       5.119  48.137   0.519  1.00  0.00    -0.031 C 
ATOM     12  C   UNL     1       5.641  48.708  -0.582  1.00  0.00    -0.031 C 
BRANCH  12  13
ATOM     13  C   UNL     1       7.110  48.958  -0.816  1.00  0.00     0.027 C 
BRANCH  13  14
ATOM     14  C   UNL     1       7.732  47.860  -1.693  1.00  0.00     0.004 C 
BRANCH  14  15
ATOM     15  C   UNL     1       6.961  47.641  -3.007  1.00  0.00     0.000 C 
BRANCH  15  16
ATOM     16  C   UNL     1       7.687  46.771  -4.053  1.00  0.00    -0.000 C 
BRANCH  16  17
ATOM     17  C   UNL     1       7.891  45.301  -3.645  1.00  0.00    -0.003 C 
ATOM     18  C   UNL     1       8.383  44.426  -4.798  1.00  0.00     0.004 C 
ENDBRANCH  16  17
ENDBRANCH  15  16
ENDBRANCH  14  15
ENDBRANCH  13  14
ENDBRANCH  12  13
ENDBRANCH  10  11
ENDBRANCH   1  10
TORSDOF 13
ENDMDL
MODEL 7
REMARK VINA RESULT:    -5.731      1.663      2.717
REMARK INTER + INTRA:         -11.115
REMARK INTER:                  -9.126
REMARK INTRA:                  -1.989
REMARK UNBOUND:                -1.029
REMARK SMILES CCCCCCC=CCCCCCCCC(=O)[O-]
REMARK SMILES IDX 10 1 11 2 12 3 13 4 14 5 15 6 16 7 17 8 18 9 9 10 8 11 7 12
REMARK SMILES IDX 6 13 5 14 4 15 3 16 2 17 1 18
REMARK H PARENT
REMARK Flexibility Score: inf
ROOT
ATOM      1  C   UNL     1       6.026  45.182   9.825  1.00  0.00     0.004 C 
ENDROOT
BRANCH   1   2
ATOM      2  C   UNL     1       4.589  45.726   9.854  1.00  0.00     0.000 C 
BRANCH   2   3
ATOM      3  C   UNL     1       3.809  45.265  11.096  1.00  0.00     0.000 C 
BRANCH   3   4
ATOM      4  C   UNL     1       2.286  45.398  10.926  1.00  0.00     0.000 C 
BRANCH   4   5
ATOM      5  C   UNL     1       1.570  45.933  12.185  1.00  0.00     0.006 C 
BRANCH   5   6
ATOM      6  C   UNL     1       1.676  47.458  12.309  1.00  0.00     0.053 C 
BRANCH   6   7
ATOM      7  C   UNL     1       1.278  48.118  11.026  1.00  0.00     0.041 C 
ATOM      8  O   UNL     1       0.104  47.999  10.589  1.00  0.00    -0.550 OA
ATOM      9  O   UNL     1       2.194  48.905  10.337  1.00  0.00    -0.550 OA
ENDBRANCH   6   7
ENDBRANCH   5   6
ENDBRANCH   4   5
ENDBRANCH   3   4
ENDBRANCH   2   3
ENDBRANCH   1   2
BRANCH   1  10
ATOM     10  C   UNL     1       6.173  43.861  10.592  1.00  0.00     0.027 C 
BRANCH  10  11
ATOM     11  C   UNL     1       6.539  42.746   9.643  1.00  0.00    -0.031 C 
ATOM     12  C   UNL     1       5.669  41.885   9.081  1.00  0.00    -0.031 C 
BRANCH  12  13
ATOM     13  C   UNL     1       4.175  41.905   9.287  1.00  0.00     0.027 C 
BRANCH  13  14
ATOM     14  C   UNL     1       3.476  42.784   8.238  1.00  0.00     0.004 C 
BRANCH  14  15
ATOM     15  C   UNL     1       4.164  42.727   6.862  1.00  0.00     0.000 C 
BRANCH  15  16
ATOM     16  C   UNL     1       3.708  43.806   5.859  1.00  0.00    -0.000 C 
BRANCH  16  17
ATOM     17  C   UNL     1       4.849  44.578   5.173  1.00  0.00    -0.003 C 
ATOM     18  C   UNL     1       5.974  44.958   6.134  1.00  0.00     0.004 C 
ENDBRANCH  16  17
ENDBRANCH  15  16
ENDBRANCH  14  15
ENDBRANCH  13  14
ENDBRANCH  12  13
ENDBRANCH  10  11
ENDBRANCH   1  10
TORSDOF 13
ENDMDL
MODEL 8
REMARK VINA RESULT:    -5.715      1.939      4.082
REMARK INTER + INTRA:         -11.087
REMARK INTER:                  -9.386
REMARK INTRA:                  -1.700
REMARK UNBOUND:                -1.029
REMARK SMILES CCCCCCC=CCCCCCCCC(=O)[O-]
REMARK SMILES IDX 10 1 11 2 12 3 13 4 14 5 15 6 16 7 17 8 18 9 9 10 8 11 7 12
REMARK SMILES IDX 6 13 5 14 4 15 3 16 2 17 1 18
REMARK H PARENT
REMARK Flexibility Score: inf
ROOT
ATOM      1  C   UNL     1       5.906  45.599   9.343  1.00  0.00     0.004 C 
ENDROOT
BRANCH   1   2
ATOM      2  C   UNL     1       5.083  44.886  10.426  1.00  0.00     0.000 C 
BRANCH   2   3
ATOM      3  C   UNL     1       3.838  45.685  10.844  1.00  0.00     0.000 C 
BRANCH   3   4
ATOM      4  C   UNL     1       2.595  44.799  11.033  1.00  0.00     0.000 C 
BRANCH   4   5
ATOM      5  C   UNL     1       1.393  45.545  11.650  1.00  0.00     0.006 C 
BRANCH   5   6
ATOM      6  C   UNL     1       1.443  47.053  11.376  1.00  0.00     0.053 C 
BRANCH   6   7
ATOM      7  C   UNL     1       0.204  47.498  10.664  1.00  0.00     0.041 C 
ATOM      8  O   UNL     1       0.258  48.432   9.822  1.00  0.00    -0.550 OA
ATOM      9  O   UNL     1      -1.001  46.846  10.894  1.00  0.00    -0.550 OA
ENDBRANCH   6   7
ENDBRANCH   5   6
ENDBRANCH   4   5
ENDBRANCH   3   4
ENDBRANCH   2   3
ENDBRANCH   1   2
BRANCH   1  10
ATOM     10  C   UNL     1       6.339  44.655   8.213  1.00  0.00     0.027 C 
BRANCH  10  11
ATOM     11  C   UNL     1       5.521  44.919   6.972  1.00  0.00    -0.031 C 
ATOM     12  C   UNL     1       4.695  44.035   6.383  1.00  0.00    -0.031 C 
BRANCH  12  13
ATOM     13  C   UNL     1       4.428  42.635   6.878  1.00  0.00     0.027 C 
BRANCH  13  14
ATOM     14  C   UNL     1       3.415  42.633   8.034  1.00  0.00     0.004 C 
BRANCH  14  15
ATOM     15  C   UNL     1       3.912  41.844   9.258  1.00  0.00     0.000 C 
BRANCH  15  16
ATOM     16  C   UNL     1       5.344  41.287   9.137  1.00  0.00    -0.000 C 
BRANCH  16  17
ATOM     17  C   UNL     1       5.437  39.756   9.010  1.00  0.00    -0.003 C 
ATOM     18  C   UNL     1       6.190  39.306   7.759  1.00  0.00     0.004 C 
ENDBRANCH  16  17
ENDBRANCH  15  16
ENDBRANCH  14  15
ENDBRANCH  13  14
ENDBRANCH  12  13
ENDBRANCH  10  11
ENDBRANCH   1  10
TORSDOF 13
ENDMDL
MODEL 9
REMARK VINA RESULT:    -5.700      5.894      7.848
REMARK INTER + INTRA:         -11.061
REMARK INTER:                 -10.187
REMARK INTRA:                  -0.874
REMARK UNBOUND:                -1.029
REMARK SMILES CCCCCCC=CCCCCCCCC(=O)[O-]
REMARK SMILES IDX 10 1 11 2 12 3 13 4 14 5 15 6 16 7 17 8 18 9 9 10 8 11 7 12
REMARK SMILES IDX 6 13 5 14 4 15 3 16 2 17 1 18
REMARK H PARENT
REMARK Flexibility Score: inf
ROOT
ATOM      1  C   UNL     1       1.748  44.860   1.051  1.00  0.00     0.004 C 
ENDROOT
BRANCH   1   2
ATOM      2  C   UNL     1       0.420  44.128   0.801  1.00  0.00     0.000 C 
BRANCH   2   3
ATOM      3  C   UNL     1      -0.560  44.956  -0.046  1.00  0.00     0.000 C 
BRANCH   3   4
ATOM      4  C   UNL     1      -1.929  45.138   0.632  1.00  0.00     0.000 C 
BRANCH   4   5
ATOM      5  C   UNL     1      -1.994  44.548   2.057  1.00  0.00     0.006 C 
BRANCH   5   6
ATOM      6  C   UNL     1      -1.758  45.611   3.137  1.00  0.00     0.053 C 
BRANCH   6   7
ATOM      7  C   UNL     1      -2.411  45.206   4.421  1.00  0.00     0.041 C 
ATOM      8  O   UNL     1      -2.069  45.749   5.504  1.00  0.00    -0.550 OA
ATOM      9  O   UNL     1      -3.432  44.264   4.415  1.00  0.00    -0.550 OA
ENDBRANCH   6   7
ENDBRANCH   5   6
ENDBRANCH   4   5
ENDBRANCH   3   4
ENDBRANCH   2   3
ENDBRANCH   1   2
BRANCH   1  10
ATOM     10  C   UNL     1       1.755  45.631   2.378  1.00  0.00     0.027 C 
BRANCH  10  11
ATOM     11  C   UNL     1       2.991  45.288   3.173  1.00  0.00    -0.031 C 
ATOM     12  C   UNL     1       4.181  45.910   3.068  1.00  0.00    -0.031 C 
BRANCH  12  13
ATOM     13  C   UNL     1       4.473  47.072   2.153  1.00  0.00     0.027 C 
BRANCH  13  14
ATOM     14  C   UNL     1       5.971  47.418   2.148  1.00  0.00     0.004 C 
BRANCH  14  15
ATOM     15  C   UNL     1       6.358  48.364   0.997  1.00  0.00     0.000 C 
BRANCH  15  16
ATOM     16  C   UNL     1       5.259  48.588  -0.061  1.00  0.00    -0.000 C 
BRANCH  16  17
ATOM     17  C   UNL     1       5.768  49.060  -1.435  1.00  0.00    -0.003 C 
ATOM     18  C   UNL     1       6.918  48.208  -1.969  1.00  0.00     0.004 C 
ENDBRANCH  16  17
ENDBRANCH  15  16
ENDBRANCH  14  15
ENDBRANCH  13  14
ENDBRANCH  12  13
ENDBRANCH  10  11
ENDBRANCH   1  10
TORSDOF 13
ENDMDL
