MODEL 1
REMARK VINA RESULT:    -6.167      0.000      0.000
REMARK INTER + INTRA:          -6.641
REMARK INTER:                  -6.528
REMARK INTRA:                  -0.113
REMARK UNBOUND:                -0.113
REMARK SMILES C=C(C)[C@H]1CC=C(C)CC1
REMARK SMILES IDX 8 1 7 2 6 3 5 4 4 5 10 6 9 7 2 8 1 9 3 10
REMARK H PARENT
REMARK Flexibility Score: inf
ROOT
ATOM      1  C   UNL     1       7.770   5.898  12.128  1.00  0.00     0.039 C 
ATOM      2  C   UNL     1       6.560   6.361  12.891  1.00  0.00    -0.077 C 
ATOM      3  C   UNL     1       5.339   6.275  12.337  1.00  0.00    -0.027 C 
ATOM      4  C   UNL     1       4.128   6.755  13.096  1.00  0.00     0.035 C 
ATOM      5  C   UNL     1       4.387   8.082  13.870  1.00  0.00     0.018 C 
ATOM      6  C   UNL     1       5.877   8.309  14.265  1.00  0.00     0.013 C 
ATOM      7  C   UNL     1       6.692   7.010  14.248  1.00  0.00     0.031 C 
ENDROOT
BRANCH   5   8
ATOM      8  C   UNL     1       3.844   9.280  13.103  1.00  0.00    -0.077 C 
ATOM      9  C   UNL     1       3.223  10.278  13.751  1.00  0.00     0.008 C 
ATOM     10  C   UNL     1       4.013   9.380  11.608  1.00  0.00     0.039 C 
ENDBRANCH   5   8
TORSDOF 1
ENDMDL
MODEL 2
REMARK VINA RESULT:    -6.051      1.135      4.156
REMARK INTER + INTRA:          -6.518
REMARK INTER:                  -6.394
REMARK INTRA:                  -0.124
REMARK UNBOUND:                -0.113
REMARK SMILES C=C(C)[C@H]1CC=C(C)CC1
REMARK SMILES IDX 8 1 7 2 6 3 5 4 4 5 10 6 9 7 2 8 1 9 3 10
REMARK H PARENT
REMARK Flexibility Score: inf
ROOT
ATOM      1  C   UNL     1       3.669  11.653  11.731  1.00  0.00     0.039 C 
ATOM      2  C   UNL     1       3.696  10.204  12.133  1.00  0.00    -0.077 C 
ATOM      3  C   UNL     1       3.776   9.867  13.431  1.00  0.00    -0.027 C 
ATOM      4  C   UNL     1       3.821   8.415  13.834  1.00  0.00     0.035 C 
ATOM      5  C   UNL     1       4.714   7.554  12.893  1.00  0.00     0.018 C 
ATOM      6  C   UNL     1       4.845   8.118  11.447  1.00  0.00     0.013 C 
ATOM      7  C   UNL     1       3.724   9.105  11.100  1.00  0.00     0.031 C 
ENDROOT
BRANCH   5   8
ATOM      8  C   UNL     1       6.089   7.318  13.506  1.00  0.00    -0.077 C 
ATOM      9  C   UNL     1       6.438   7.927  14.649  1.00  0.00     0.008 C 
ATOM     10  C   UNL     1       7.073   6.380  12.853  1.00  0.00     0.039 C 
ENDBRANCH   5   8
TORSDOF 1
ENDMDL
MODEL 3
REMARK VINA RESULT:    -5.295      1.736      3.097
REMARK INTER + INTRA:          -5.718
REMARK INTER:                  -5.551
REMARK INTRA:                  -0.167
REMARK UNBOUND:                -0.113
REMARK SMILES C=C(C)[C@H]1CC=C(C)CC1
REMARK SMILES IDX 8 1 7 2 6 3 5 4 4 5 10 6 9 7 2 8 1 9 3 10
REMARK H PARENT
REMARK Flexibility Score: inf
ROOT
ATOM      1  C   UNL     1       4.611   5.931  12.490  1.00  0.00     0.039 C 
ATOM      2  C   UNL     1       4.547   7.433  12.491  1.00  0.00    -0.077 C 
ATOM      3  C   UNL     1       3.962   8.082  13.512  1.00  0.00    -0.027 C 
ATOM      4  C   UNL     1       3.884   9.587  13.506  1.00  0.00     0.035 C 
ATOM      5  C   UNL     1       3.545  10.169  12.101  1.00  0.00     0.018 C 
ATOM      6  C   UNL     1       3.981   9.259  10.913  1.00  0.00     0.013 C 
ATOM      7  C   UNL     1       5.051   8.239  11.319  1.00  0.00     0.031 C 
ENDROOT
BRANCH   5   8
ATOM      8  C   UNL     1       2.068  10.523  11.994  1.00  0.00    -0.077 C 
ATOM      9  C   UNL     1       1.582  11.082  10.875  1.00  0.00     0.008 C 
ATOM     10  C   UNL     1       1.120  10.233  13.131  1.00  0.00     0.039 C 
ENDBRANCH   5   8
TORSDOF 1
ENDMDL
MODEL 4
REMARK VINA RESULT:    -4.955      2.147      5.227
REMARK INTER + INTRA:          -5.358
REMARK INTER:                  -5.283
REMARK INTRA:                  -0.075
REMARK UNBOUND:                -0.113
REMARK SMILES C=C(C)[C@H]1CC=C(C)CC1
REMARK SMILES IDX 8 1 7 2 6 3 5 4 4 5 10 6 9 7 2 8 1 9 3 10
REMARK H PARENT
REMARK Flexibility Score: inf
ROOT
ATOM      1  C   UNL     1      -0.124  10.699  10.877  1.00  0.00     0.039 C 
ATOM      2  C   UNL     1       1.142  10.750  11.686  1.00  0.00    -0.077 C 
ATOM      3  C   UNL     1       2.329  10.885  11.072  1.00  0.00    -0.027 C 
ATOM      4  C   UNL     1       3.600  10.920  11.881  1.00  0.00     0.035 C 
ATOM      5  C   UNL     1       3.600   9.892  13.052  1.00  0.00     0.018 C 
ATOM      6  C   UNL     1       2.179   9.522  13.574  1.00  0.00     0.013 C 
ATOM      7  C   UNL     1       1.123  10.563  13.184  1.00  0.00     0.031 C 
ENDROOT
BRANCH   5   8
ATOM      8  C   UNL     1       4.381   8.637  12.682  1.00  0.00    -0.077 C 
ATOM      9  C   UNL     1       4.503   8.266  11.398  1.00  0.00     0.008 C 
ATOM     10  C   UNL     1       5.049   7.803  13.746  1.00  0.00     0.039 C 
ENDBRANCH   5   8
TORSDOF 1
ENDMDL
MODEL 5
REMARK VINA RESULT:    -4.867      0.979      1.491
REMARK INTER + INTRA:          -5.265
REMARK INTER:                  -5.163
REMARK INTRA:                  -0.102
REMARK UNBOUND:                -0.113
REMARK SMILES C=C(C)[C@H]1CC=C(C)CC1
REMARK SMILES IDX 8 1 7 2 6 3 5 4 4 5 10 6 9 7 2 8 1 9 3 10
REMARK H PARENT
REMARK Flexibility Score: inf
ROOT
ATOM      1  C   UNL     1       8.142   6.934  13.314  1.00  0.00     0.039 C 
ATOM      2  C   UNL     1       6.653   7.130  13.389  1.00  0.00    -0.077 C 
ATOM      3  C   UNL     1       5.883   6.863  12.320  1.00  0.00    -0.027 C 
ATOM      4  C   UNL     1       4.393   7.076  12.389  1.00  0.00     0.035 C 
ATOM      5  C   UNL     1       4.003   8.380  13.147  1.00  0.00     0.018 C 
ATOM      6  C   UNL     1       5.054   8.843  14.200  1.00  0.00     0.013 C 
ATOM      7  C   UNL     1       6.000   7.711  14.619  1.00  0.00     0.031 C 
ENDROOT
BRANCH   5   8
ATOM      8  C   UNL     1       3.683   9.507  12.174  1.00  0.00    -0.077 C 
ATOM      9  C   UNL     1       4.001   9.394  10.875  1.00  0.00     0.008 C 
ATOM     10  C   UNL     1       2.985  10.758  12.645  1.00  0.00     0.039 C 
ENDBRANCH   5   8
TORSDOF 1
ENDMDL
MODEL 6
REMARK VINA RESULT:    -4.671      1.343      4.120
REMARK INTER + INTRA:          -5.057
REMARK INTER:                  -4.868
REMARK INTRA:                  -0.189
REMARK UNBOUND:                -0.113
REMARK SMILES C=C(C)[C@H]1CC=C(C)CC1
REMARK SMILES IDX 8 1 7 2 6 3 5 4 4 5 10 6 9 7 2 8 1 9 3 10
REMARK H PARENT
REMARK Flexibility Score: inf
ROOT
ATOM      1  C   UNL     1       2.186  10.409  11.912  1.00  0.00     0.039 C 
ATOM      2  C   UNL     1       3.441   9.640  12.221  1.00  0.00    -0.077 C 
ATOM      3  C   UNL     1       4.083   8.977  11.245  1.00  0.00    -0.027 C 
ATOM      4  C   UNL     1       5.331   8.192  11.558  1.00  0.00     0.035 C 
ATOM      5  C   UNL     1       5.233   7.413  12.903  1.00  0.00     0.018 C 
ATOM      6  C   UNL     1       4.254   8.046  13.937  1.00  0.00     0.013 C 
ATOM      7  C   UNL     1       3.956   9.520  13.634  1.00  0.00     0.031 C 
ENDROOT
BRANCH   5   8
ATOM      8  C   UNL     1       4.893   5.948  12.666  1.00  0.00    -0.077 C 
ATOM      9  C   UNL     1       3.657   5.590  12.284  1.00  0.00     0.008 C 
ATOM     10  C   UNL     1       5.940   4.875  12.834  1.00  0.00     0.039 C 
ENDBRANCH   5   8
TORSDOF 1
ENDMDL
MODEL 7
REMARK VINA RESULT:    -4.290      1.284      2.048
REMARK INTER + INTRA:          -4.654
REMARK INTER:                  -4.407
REMARK INTRA:                  -0.246
REMARK UNBOUND:                -0.113
REMARK SMILES C=C(C)[C@H]1CC=C(C)CC1
REMARK SMILES IDX 8 1 7 2 6 3 5 4 4 5 10 6 9 7 2 8 1 9 3 10
REMARK H PARENT
REMARK Flexibility Score: inf
ROOT
ATOM      1  C   UNL     1       7.409   4.896  12.813  1.00  0.00     0.039 C 
ATOM      2  C   UNL     1       6.240   5.746  12.398  1.00  0.00    -0.077 C 
ATOM      3  C   UNL     1       6.441   6.997  11.951  1.00  0.00    -0.027 C 
ATOM      4  C   UNL     1       5.268   7.855  11.552  1.00  0.00     0.035 C 
ATOM      5  C   UNL     1       4.055   7.709  12.518  1.00  0.00     0.018 C 
ATOM      6  C   UNL     1       3.991   6.338  13.256  1.00  0.00     0.013 C 
ATOM      7  C   UNL     1       4.821   5.256  12.555  1.00  0.00     0.031 C 
ENDROOT
BRANCH   5   8
ATOM      8  C   UNL     1       4.004   8.860  13.513  1.00  0.00    -0.077 C 
ATOM      9  C   UNL     1       3.604  10.080  13.122  1.00  0.00     0.008 C 
ATOM     10  C   UNL     1       4.378   8.647  14.959  1.00  0.00     0.039 C 
ENDBRANCH   5   8
TORSDOF 1
ENDMDL
