MODEL 1
REMARK VINA RESULT:    -4.058      0.000      0.000
REMARK INTER + INTRA:          -5.495
REMARK INTER:                  -5.245
REMARK INTRA:                  -0.251
REMARK UNBOUND:                -0.251
REMARK SMILES C=CC(=O)CCCCC
REMARK SMILES IDX 6 1 7 2 8 3 9 4 5 5 3 6 4 7 2 8 1 9
REMARK H PARENT
REMARK Flexibility Score: inf
ROOT
ATOM      1  C   UNL     1      48.045  22.984  21.237  1.00  0.00     0.008 C 
ENDROOT
BRANCH   1   2
ATOM      2  C   UNL     1      49.496  22.910  21.747  1.00  0.00     0.000 C 
BRANCH   2   3
ATOM      3  C   UNL     1      50.406  23.971  21.110  1.00  0.00    -0.003 C 
ATOM      4  C   UNL     1      51.010  23.463  19.804  1.00  0.00     0.004 C 
ENDBRANCH   2   3
ENDBRANCH   1   2
BRANCH   1   5
ATOM      5  C   UNL     1      47.695  21.920  20.180  1.00  0.00     0.080 C 
BRANCH   5   6
ATOM      6  C   UNL     1      46.925  20.744  20.739  1.00  0.00     0.155 C 
ATOM      7  O   UNL     1      45.672  20.820  20.856  1.00  0.00    -0.295 OA
BRANCH   6   8
ATOM      8  C   UNL     1      47.579  19.470  21.103  1.00  0.00     0.039 C 
ATOM      9  C   UNL     1      48.509  18.875  20.357  1.00  0.00     0.012 C 
ENDBRANCH   6   8
ENDBRANCH   5   6
ENDBRANCH   1   5
TORSDOF 5
ENDMDL
MODEL 2
REMARK VINA RESULT:    -4.030      0.928      1.632
REMARK INTER + INTRA:          -5.459
REMARK INTER:                  -5.018
REMARK INTRA:                  -0.441
REMARK UNBOUND:                -0.251
REMARK SMILES C=CC(=O)CCCCC
REMARK SMILES IDX 6 1 7 2 8 3 9 4 5 5 3 6 4 7 2 8 1 9
REMARK H PARENT
REMARK Flexibility Score: inf
ROOT
ATOM      1  C   UNL     1      49.557  23.032  21.734  1.00  0.00     0.008 C 
ENDROOT
BRANCH   1   2
ATOM      2  C   UNL     1      50.540  23.913  20.941  1.00  0.00     0.000 C 
BRANCH   2   3
ATOM      3  C   UNL     1      51.072  23.222  19.677  1.00  0.00    -0.003 C 
ATOM      4  C   UNL     1      50.511  23.873  18.417  1.00  0.00     0.004 C 
ENDBRANCH   2   3
ENDBRANCH   1   2
BRANCH   1   5
ATOM      5  C   UNL     1      48.078  23.251  21.363  1.00  0.00     0.080 C 
BRANCH   5   6
ATOM      6  C   UNL     1      47.491  22.130  20.534  1.00  0.00     0.155 C 
ATOM      7  O   UNL     1      46.359  22.279  19.998  1.00  0.00    -0.295 OA
BRANCH   6   8
ATOM      8  C   UNL     1      48.221  20.872  20.272  1.00  0.00     0.039 C 
ATOM      9  C   UNL     1      47.935  19.713  20.863  1.00  0.00     0.012 C 
ENDBRANCH   6   8
ENDBRANCH   5   6
ENDBRANCH   1   5
TORSDOF 5
ENDMDL
MODEL 3
REMARK VINA RESULT:    -4.006      2.320      4.510
REMARK INTER + INTRA:          -5.428
REMARK INTER:                  -4.969
REMARK INTRA:                  -0.459
REMARK UNBOUND:                -0.251
REMARK SMILES C=CC(=O)CCCCC
REMARK SMILES IDX 6 1 7 2 8 3 9 4 5 5 3 6 4 7 2 8 1 9
REMARK H PARENT
REMARK Flexibility Score: inf
ROOT
ATOM      1  C   UNL     1      48.068  23.136  21.401  1.00  0.00     0.008 C 
ENDROOT
BRANCH   1   2
ATOM      2  C   UNL     1      47.544  22.078  20.413  1.00  0.00     0.000 C 
BRANCH   2   3
ATOM      3  C   UNL     1      48.389  20.795  20.412  1.00  0.00    -0.003 C 
ATOM      4  C   UNL     1      47.625  19.634  21.042  1.00  0.00     0.004 C 
ENDBRANCH   2   3
ENDBRANCH   1   2
BRANCH   1   5
ATOM      5  C   UNL     1      49.534  22.929  21.825  1.00  0.00     0.080 C 
BRANCH   5   6
ATOM      6  C   UNL     1      50.515  23.773  21.041  1.00  0.00     0.155 C 
ATOM      7  O   UNL     1      50.947  24.848  21.539  1.00  0.00    -0.295 OA
BRANCH   6   8
ATOM      8  C   UNL     1      51.041  23.358  19.725  1.00  0.00     0.039 C 
ATOM      9  C   UNL     1      50.562  23.798  18.563  1.00  0.00     0.012 C 
ENDBRANCH   6   8
ENDBRANCH   5   6
ENDBRANCH   1   5
TORSDOF 5
ENDMDL
MODEL 4
REMARK VINA RESULT:    -3.898      1.738      2.816
REMARK INTER + INTRA:          -5.288
REMARK INTER:                  -4.823
REMARK INTRA:                  -0.466
REMARK UNBOUND:                -0.251
REMARK SMILES C=CC(=O)CCCCC
REMARK SMILES IDX 6 1 7 2 8 3 9 4 5 5 3 6 4 7 2 8 1 9
REMARK H PARENT
REMARK Flexibility Score: inf
ROOT
ATOM      1  C   UNL     1      49.070  22.091  20.515  1.00  0.00     0.008 C 
ENDROOT
BRANCH   1   2
ATOM      2  C   UNL     1      49.169  22.994  21.758  1.00  0.00     0.000 C 
BRANCH   2   3
ATOM      3  C   UNL     1      48.539  24.378  21.541  1.00  0.00    -0.003 C 
ATOM      4  C   UNL     1      47.136  24.443  22.137  1.00  0.00     0.004 C 
ENDBRANCH   2   3
ENDBRANCH   1   2
BRANCH   1   5
ATOM      5  C   UNL     1      47.977  21.010  20.608  1.00  0.00     0.080 C 
BRANCH   5   6
ATOM      6  C   UNL     1      46.649  21.443  20.028  1.00  0.00     0.155 C 
ATOM      7  O   UNL     1      46.617  22.005  18.900  1.00  0.00    -0.295 OA
BRANCH   6   8
ATOM      8  C   UNL     1      45.364  21.178  20.708  1.00  0.00     0.039 C 
ATOM      9  C   UNL     1      44.437  22.109  20.927  1.00  0.00     0.012 C 
ENDBRANCH   6   8
ENDBRANCH   5   6
ENDBRANCH   1   5
TORSDOF 5
ENDMDL
MODEL 5
REMARK VINA RESULT:    -3.893      2.442      4.731
REMARK INTER + INTRA:          -5.282
REMARK INTER:                  -5.080
REMARK INTRA:                  -0.202
REMARK UNBOUND:                -0.251
REMARK SMILES C=CC(=O)CCCCC
REMARK SMILES IDX 6 1 7 2 8 3 9 4 5 5 3 6 4 7 2 8 1 9
REMARK H PARENT
REMARK Flexibility Score: inf
ROOT
ATOM      1  C   UNL     1      48.273  22.543  21.032  1.00  0.00     0.008 C 
ENDROOT
BRANCH   1   2
ATOM      2  C   UNL     1      48.273  21.059  20.621  1.00  0.00     0.000 C 
BRANCH   2   3
ATOM      3  C   UNL     1      46.911  20.382  20.834  1.00  0.00    -0.003 C 
ATOM      4  C   UNL     1      45.769  21.379  20.661  1.00  0.00     0.004 C 
ENDBRANCH   2   3
ENDBRANCH   1   2
BRANCH   1   5
ATOM      5  C   UNL     1      49.528  22.979  21.812  1.00  0.00     0.080 C 
BRANCH   5   6
ATOM      6  C   UNL     1      50.564  23.668  20.952  1.00  0.00     0.155 C 
ATOM      7  O   UNL     1      51.179  24.672  21.404  1.00  0.00    -0.295 OA
BRANCH   6   8
ATOM      8  C   UNL     1      50.936  23.172  19.611  1.00  0.00     0.039 C 
ATOM      9  C   UNL     1      51.062  23.955  18.541  1.00  0.00     0.012 C 
ENDBRANCH   6   8
ENDBRANCH   5   6
ENDBRANCH   1   5
TORSDOF 5
ENDMDL
MODEL 6
REMARK VINA RESULT:    -3.875      1.292      2.052
REMARK INTER + INTRA:          -5.258
REMARK INTER:                  -4.981
REMARK INTRA:                  -0.278
REMARK UNBOUND:                -0.251
REMARK SMILES C=CC(=O)CCCCC
REMARK SMILES IDX 6 1 7 2 8 3 9 4 5 5 3 6 4 7 2 8 1 9
REMARK H PARENT
REMARK Flexibility Score: inf
ROOT
ATOM      1  C   UNL     1      48.768  22.229  20.156  1.00  0.00     0.008 C 
ENDROOT
BRANCH   1   2
ATOM      2  C   UNL     1      49.123  22.673  21.588  1.00  0.00     0.000 C 
BRANCH   2   3
ATOM      3  C   UNL     1      49.886  24.005  21.626  1.00  0.00    -0.003 C 
ATOM      4  C   UNL     1      51.094  23.974  20.694  1.00  0.00     0.004 C 
ENDBRANCH   2   3
ENDBRANCH   1   2
BRANCH   1   5
ATOM      5  C   UNL     1      48.345  20.753  20.043  1.00  0.00     0.080 C 
BRANCH   5   6
ATOM      6  C   UNL     1      46.980  20.469  20.629  1.00  0.00     0.155 C 
ATOM      7  O   UNL     1      46.854  19.570  21.504  1.00  0.00    -0.295 OA
BRANCH   6   8
ATOM      8  C   UNL     1      45.781  21.251  20.261  1.00  0.00     0.039 C 
ATOM      9  C   UNL     1      44.789  21.528  21.106  1.00  0.00     0.012 C 
ENDBRANCH   6   8
ENDBRANCH   5   6
ENDBRANCH   1   5
TORSDOF 5
ENDMDL
MODEL 7
REMARK VINA RESULT:    -3.868      1.979      3.398
REMARK INTER + INTRA:          -5.248
REMARK INTER:                  -4.766
REMARK INTRA:                  -0.482
REMARK UNBOUND:                -0.251
REMARK SMILES C=CC(=O)CCCCC
REMARK SMILES IDX 6 1 7 2 8 3 9 4 5 5 3 6 4 7 2 8 1 9
REMARK H PARENT
REMARK Flexibility Score: inf
ROOT
ATOM      1  C   UNL     1      46.857  21.396  19.844  1.00  0.00     0.008 C 
ENDROOT
BRANCH   1   2
ATOM      2  C   UNL     1      48.251  21.326  20.495  1.00  0.00     0.000 C 
BRANCH   2   3
ATOM      3  C   UNL     1      48.966  22.685  20.518  1.00  0.00    -0.003 C 
ATOM      4  C   UNL     1      49.475  23.015  21.919  1.00  0.00     0.004 C 
ENDBRANCH   2   3
ENDBRANCH   1   2
BRANCH   1   5
ATOM      5  C   UNL     1      45.696  21.090  20.809  1.00  0.00     0.080 C 
BRANCH   5   6
ATOM      6  C   UNL     1      44.684  22.210  20.910  1.00  0.00     0.155 C 
ATOM      7  O   UNL     1      43.475  21.936  21.143  1.00  0.00    -0.295 OA
BRANCH   6   8
ATOM      8  C   UNL     1      45.065  23.633  20.806  1.00  0.00     0.039 C 
ATOM      9  C   UNL     1      45.717  24.297  21.759  1.00  0.00     0.012 C 
ENDBRANCH   6   8
ENDBRANCH   5   6
ENDBRANCH   1   5
TORSDOF 5
ENDMDL
MODEL 8
REMARK VINA RESULT:    -3.818      2.248      3.967
REMARK INTER + INTRA:          -5.185
REMARK INTER:                  -4.782
REMARK INTRA:                  -0.403
REMARK UNBOUND:                -0.251
REMARK SMILES C=CC(=O)CCCCC
REMARK SMILES IDX 6 1 7 2 8 3 9 4 5 5 3 6 4 7 2 8 1 9
REMARK H PARENT
REMARK Flexibility Score: inf
ROOT
ATOM      1  C   UNL     1      45.703  21.732  20.133  1.00  0.00     0.008 C 
ENDROOT
BRANCH   1   2
ATOM      2  C   UNL     1      44.466  22.144  20.953  1.00  0.00     0.000 C 
BRANCH   2   3
ATOM      3  C   UNL     1      44.380  23.661  21.177  1.00  0.00    -0.003 C 
ATOM      4  C   UNL     1      45.732  24.232  21.595  1.00  0.00     0.004 C 
ENDBRANCH   2   3
ENDBRANCH   1   2
BRANCH   1   5
ATOM      5  C   UNL     1      46.561  20.638  20.796  1.00  0.00     0.080 C 
BRANCH   5   6
ATOM      6  C   UNL     1      48.016  20.681  20.387  1.00  0.00     0.155 C 
ATOM      7  O   UNL     1      48.574  19.632  19.962  1.00  0.00    -0.295 OA
BRANCH   6   8
ATOM      8  C   UNL     1      48.808  21.928  20.405  1.00  0.00     0.039 C 
ATOM      9  C   UNL     1      49.125  22.587  21.518  1.00  0.00     0.012 C 
ENDBRANCH   6   8
ENDBRANCH   5   6
ENDBRANCH   1   5
TORSDOF 5
ENDMDL
MODEL 9
REMARK VINA RESULT:    -3.817      2.327      5.076
REMARK INTER + INTRA:          -5.183
REMARK INTER:                  -5.045
REMARK INTRA:                  -0.138
REMARK UNBOUND:                -0.251
REMARK SMILES C=CC(=O)CCCCC
REMARK SMILES IDX 6 1 7 2 8 3 9 4 5 5 3 6 4 7 2 8 1 9
REMARK H PARENT
REMARK Flexibility Score: inf
ROOT
ATOM      1  C   UNL     1      48.338  22.782  21.156  1.00  0.00     0.008 C 
ENDROOT
BRANCH   1   2
ATOM      2  C   UNL     1      48.320  21.584  20.189  1.00  0.00     0.000 C 
BRANCH   2   3
ATOM      3  C   UNL     1      47.574  20.369  20.759  1.00  0.00    -0.003 C 
ATOM      4  C   UNL     1      48.308  19.071  20.434  1.00  0.00     0.004 C 
ENDBRANCH   2   3
ENDBRANCH   1   2
BRANCH   1   5
ATOM      5  C   UNL     1      49.676  22.973  21.896  1.00  0.00     0.080 C 
BRANCH   5   6
ATOM      6  C   UNL     1      50.636  23.896  21.179  1.00  0.00     0.155 C 
ATOM      7  O   UNL     1      51.216  23.498  20.132  1.00  0.00    -0.295 OA
BRANCH   6   8
ATOM      8  C   UNL     1      50.881  25.283  21.623  1.00  0.00     0.039 C 
ATOM      9  C   UNL     1      52.093  25.778  21.869  1.00  0.00     0.012 C 
ENDBRANCH   6   8
ENDBRANCH   5   6
ENDBRANCH   1   5
TORSDOF 5
ENDMDL
