MODEL 1
REMARK VINA RESULT:    -4.799      0.000      0.000
REMARK INTER + INTRA:          -9.495
REMARK INTER:                  -8.727
REMARK INTRA:                  -0.768
REMARK UNBOUND:                -0.768
REMARK SMILES CCCCCCCCCCCCCCCC(=O)[O-]
REMARK SMILES IDX 9 1 10 2 11 3 12 4 13 5 14 6 15 7 16 8 17 9 18 10 8 11 7 12
REMARK SMILES IDX 6 13 5 14 4 15 3 16 2 17 1 18
REMARK H PARENT
REMARK Flexibility Score: inf
ROOT
ATOM      1  C   UNL     1      39.591  -6.697   7.684  1.00  0.00     0.000 C 
ENDROOT
BRANCH   1   2
ATOM      2  C   UNL     1      39.335  -6.239   9.128  1.00  0.00     0.000 C 
BRANCH   2   3
ATOM      3  C   UNL     1      40.160  -7.031  10.155  1.00  0.00     0.000 C 
BRANCH   3   4
ATOM      4  C   UNL     1      39.286  -7.928  11.048  1.00  0.00     0.000 C 
BRANCH   4   5
ATOM      5  C   UNL     1      37.799  -7.531  11.023  1.00  0.00     0.000 C 
BRANCH   5   6
ATOM      6  C   UNL     1      37.199  -7.157  12.391  1.00  0.00     0.006 C 
BRANCH   6   7
ATOM      7  C   UNL     1      35.666  -7.188  12.402  1.00  0.00     0.053 C 
BRANCH   7   8
ATOM      8  C   UNL     1      35.156  -7.310  13.803  1.00  0.00     0.041 C 
ATOM      9  O   UNL     1      34.068  -7.900  14.033  1.00  0.00    -0.550 OA
ATOM     10  O   UNL     1      35.860  -6.729  14.851  1.00  0.00    -0.550 OA
ENDBRANCH   7   8
ENDBRANCH   6   7
ENDBRANCH   5   6
ENDBRANCH   4   5
ENDBRANCH   3   4
ENDBRANCH   2   3
ENDBRANCH   1   2
BRANCH   1  11
ATOM     11  C   UNL     1      40.901  -7.489   7.584  1.00  0.00     0.000 C 
BRANCH  11  12
ATOM     12  C   UNL     1      41.489  -7.405   6.171  1.00  0.00    -0.000 C 
BRANCH  12  13
ATOM     13  C   UNL     1      40.597  -6.565   5.251  1.00  0.00    -0.000 C 
BRANCH  13  14
ATOM     14  C   UNL     1      40.812  -6.946   3.778  1.00  0.00    -0.000 C 
BRANCH  14  15
ATOM     15  C   UNL     1      41.123  -5.729   2.891  1.00  0.00    -0.000 C 
BRANCH  15  16
ATOM     16  C   UNL     1      39.892  -4.834   2.662  1.00  0.00    -0.000 C 
BRANCH  16  17
ATOM     17  C   UNL     1      40.143  -3.375   3.070  1.00  0.00    -0.003 C 
ATOM     18  C   UNL     1      39.000  -2.445   2.668  1.00  0.00     0.004 C 
ENDBRANCH  16  17
ENDBRANCH  15  16
ENDBRANCH  14  15
ENDBRANCH  13  14
ENDBRANCH  12  13
ENDBRANCH  11  12
ENDBRANCH   1  11
TORSDOF 14
ENDMDL
MODEL 2
REMARK VINA RESULT:    -4.678      4.679     11.290
REMARK INTER + INTRA:          -9.274
REMARK INTER:                  -8.320
REMARK INTRA:                  -0.954
REMARK UNBOUND:                -0.768
REMARK SMILES CCCCCCCCCCCCCCCC(=O)[O-]
REMARK SMILES IDX 9 1 10 2 11 3 12 4 13 5 14 6 15 7 16 8 17 9 18 10 8 11 7 12
REMARK SMILES IDX 6 13 5 14 4 15 3 16 2 17 1 18
REMARK H PARENT
REMARK Flexibility Score: inf
ROOT
ATOM      1  C   UNL     1      35.769  -6.628  15.143  1.00  0.00     0.000 C 
ENDROOT
BRANCH   1   2
ATOM      2  C   UNL     1      36.333  -6.479  13.721  1.00  0.00     0.000 C 
BRANCH   2   3
ATOM      3  C   UNL     1      35.440  -7.140  12.658  1.00  0.00     0.000 C 
BRANCH   3   4
ATOM      4  C   UNL     1      36.205  -8.157  11.795  1.00  0.00     0.000 C 
BRANCH   4   5
ATOM      5  C   UNL     1      37.658  -8.365  12.261  1.00  0.00     0.000 C 
BRANCH   5   6
ATOM      6  C   UNL     1      38.735  -7.972  11.233  1.00  0.00     0.006 C 
BRANCH   6   7
ATOM      7  C   UNL     1      38.198  -7.064  10.120  1.00  0.00     0.053 C 
BRANCH   7   8
ATOM      8  C   UNL     1      39.324  -6.530   9.293  1.00  0.00     0.041 C 
ATOM      9  O   UNL     1      39.122  -6.165   8.105  1.00  0.00    -0.550 OA
ATOM     10  O   UNL     1      40.610  -6.478   9.820  1.00  0.00    -0.550 OA
ENDBRANCH   7   8
ENDBRANCH   6   7
ENDBRANCH   5   6
ENDBRANCH   4   5
ENDBRANCH   3   4
ENDBRANCH   2   3
ENDBRANCH   1   2
BRANCH   1  11
ATOM     11  C   UNL     1      34.679  -7.707  15.190  1.00  0.00     0.000 C 
BRANCH  11  12
ATOM     12  C   UNL     1      33.927  -7.673  16.526  1.00  0.00    -0.000 C 
BRANCH  12  13
ATOM     13  C   UNL     1      34.527  -6.624  17.469  1.00  0.00    -0.000 C 
BRANCH  13  14
ATOM     14  C   UNL     1      34.649  -7.176  18.898  1.00  0.00    -0.000 C 
BRANCH  14  15
ATOM     15  C   UNL     1      34.581  -6.073  19.967  1.00  0.00    -0.000 C 
BRANCH  15  16
ATOM     16  C   UNL     1      35.121  -4.724  19.459  1.00  0.00    -0.000 C 
BRANCH  16  17
ATOM     17  C   UNL     1      35.812  -3.914  20.566  1.00  0.00    -0.003 C 
ATOM     18  C   UNL     1      36.452  -2.628  20.045  1.00  0.00     0.004 C 
ENDBRANCH  16  17
ENDBRANCH  15  16
ENDBRANCH  14  15
ENDBRANCH  13  14
ENDBRANCH  12  13
ENDBRANCH  11  12
ENDBRANCH   1  11
TORSDOF 14
ENDMDL
MODEL 3
REMARK VINA RESULT:    -4.659      4.176      9.087
REMARK INTER + INTRA:          -9.241
REMARK INTER:                  -7.137
REMARK INTRA:                  -2.104
REMARK UNBOUND:                -0.768
REMARK SMILES CCCCCCCCCCCCCCCC(=O)[O-]
REMARK SMILES IDX 9 1 10 2 11 3 12 4 13 5 14 6 15 7 16 8 17 9 18 10 8 11 7 12
REMARK SMILES IDX 6 13 5 14 4 15 3 16 2 17 1 18
REMARK H PARENT
REMARK Flexibility Score: inf
ROOT
ATOM      1  C   UNL     1      37.621  -7.753  12.267  1.00  0.00     0.000 C 
ENDROOT
BRANCH   1   2
ATOM      2  C   UNL     1      38.189  -9.088  11.758  1.00  0.00     0.000 C 
BRANCH   2   3
ATOM      3  C   UNL     1      37.613  -9.493  10.392  1.00  0.00     0.000 C 
BRANCH   3   4
ATOM      4  C   UNL     1      38.624 -10.273   9.535  1.00  0.00     0.000 C 
BRANCH   4   5
ATOM      5  C   UNL     1      40.087  -9.960   9.898  1.00  0.00     0.000 C 
BRANCH   5   6
ATOM      6  C   UNL     1      40.797  -8.975   8.952  1.00  0.00     0.006 C 
BRANCH   6   7
ATOM      7  C   UNL     1      40.636  -7.511   9.380  1.00  0.00     0.053 C 
BRANCH   7   8
ATOM      8  C   UNL     1      39.612  -6.828   8.530  1.00  0.00     0.041 C 
ATOM      9  O   UNL     1      39.798  -6.699   7.292  1.00  0.00    -0.550 OA
ATOM     10  O   UNL     1      38.471  -6.291   9.114  1.00  0.00    -0.550 OA
ENDBRANCH   7   8
ENDBRANCH   6   7
ENDBRANCH   5   6
ENDBRANCH   4   5
ENDBRANCH   3   4
ENDBRANCH   2   3
ENDBRANCH   1   2
BRANCH   1  11
ATOM     11  C   UNL     1      36.216  -7.505  11.705  1.00  0.00     0.000 C 
BRANCH  11  12
ATOM     12  C   UNL     1      35.360  -6.704  12.693  1.00  0.00    -0.000 C 
BRANCH  12  13
ATOM     13  C   UNL     1      36.100  -6.494  14.019  1.00  0.00    -0.000 C 
BRANCH  13  14
ATOM     14  C   UNL     1      35.380  -7.211  15.171  1.00  0.00    -0.000 C 
BRANCH  14  15
ATOM     15  C   UNL     1      34.073  -7.886  14.723  1.00  0.00    -0.000 C 
BRANCH  15  16
ATOM     16  C   UNL     1      34.060  -9.398  15.010  1.00  0.00    -0.000 C 
BRANCH  16  17
ATOM     17  C   UNL     1      34.640 -10.221  13.850  1.00  0.00    -0.003 C 
ATOM     18  C   UNL     1      36.032 -10.771  14.156  1.00  0.00     0.004 C 
ENDBRANCH  16  17
ENDBRANCH  15  16
ENDBRANCH  14  15
ENDBRANCH  13  14
ENDBRANCH  12  13
ENDBRANCH  11  12
ENDBRANCH   1  11
TORSDOF 14
ENDMDL
MODEL 4
REMARK VINA RESULT:    -4.604      2.571      4.020
REMARK INTER + INTRA:          -9.140
REMARK INTER:                  -7.355
REMARK INTRA:                  -1.784
REMARK UNBOUND:                -0.768
REMARK SMILES CCCCCCCCCCCCCCCC(=O)[O-]
REMARK SMILES IDX 9 1 10 2 11 3 12 4 13 5 14 6 15 7 16 8 17 9 18 10 8 11 7 12
REMARK SMILES IDX 6 13 5 14 4 15 3 16 2 17 1 18
REMARK H PARENT
REMARK Flexibility Score: inf
ROOT
ATOM      1  C   UNL     1      43.643  -7.750   7.241  1.00  0.00     0.000 C 
ENDROOT
BRANCH   1   2
ATOM      2  C   UNL     1      42.137  -7.660   7.536  1.00  0.00     0.000 C 
BRANCH   2   3
ATOM      3  C   UNL     1      41.560  -8.979   8.075  1.00  0.00     0.000 C 
BRANCH   3   4
ATOM      4  C   UNL     1      40.198  -8.789   8.763  1.00  0.00     0.000 C 
BRANCH   4   5
ATOM      5  C   UNL     1      39.480  -7.499   8.326  1.00  0.00     0.000 C 
BRANCH   5   6
ATOM      6  C   UNL     1      38.790  -6.719   9.460  1.00  0.00     0.006 C 
BRANCH   6   7
ATOM      7  C   UNL     1      39.029  -7.338  10.843  1.00  0.00     0.053 C 
BRANCH   7   8
ATOM      8  C   UNL     1      37.753  -7.381  11.623  1.00  0.00     0.041 C 
ATOM      9  O   UNL     1      37.759  -7.159  12.862  1.00  0.00    -0.550 OA
ATOM     10  O   UNL     1      36.562  -7.714  10.988  1.00  0.00    -0.550 OA
ENDBRANCH   7   8
ENDBRANCH   6   7
ENDBRANCH   5   6
ENDBRANCH   4   5
ENDBRANCH   3   4
ENDBRANCH   2   3
ENDBRANCH   1   2
BRANCH   1  11
ATOM     11  C   UNL     1      44.264  -8.973   7.925  1.00  0.00     0.000 C 
BRANCH  11  12
ATOM     12  C   UNL     1      44.871  -9.933   6.895  1.00  0.00    -0.000 C 
BRANCH  12  13
ATOM     13  C   UNL     1      44.523  -9.500   5.467  1.00  0.00    -0.000 C 
BRANCH  13  14
ATOM     14  C   UNL     1      43.636 -10.547   4.776  1.00  0.00    -0.000 C 
BRANCH  14  15
ATOM     15  C   UNL     1      42.291  -9.968   4.309  1.00  0.00    -0.000 C 
BRANCH  15  16
ATOM     16  C   UNL     1      42.411  -8.515   3.816  1.00  0.00    -0.000 C 
BRANCH  16  17
ATOM     17  C   UNL     1      41.046  -7.887   3.500  1.00  0.00    -0.003 C 
ATOM     18  C   UNL     1      40.772  -6.627   4.319  1.00  0.00     0.004 C 
ENDBRANCH  16  17
ENDBRANCH  15  16
ENDBRANCH  14  15
ENDBRANCH  13  14
ENDBRANCH  12  13
ENDBRANCH  11  12
ENDBRANCH   1  11
TORSDOF 14
ENDMDL
MODEL 5
REMARK VINA RESULT:    -4.564      4.609      9.310
REMARK INTER + INTRA:          -9.067
REMARK INTER:                  -8.170
REMARK INTRA:                  -0.897
REMARK UNBOUND:                -0.768
REMARK SMILES CCCCCCCCCCCCCCCC(=O)[O-]
REMARK SMILES IDX 9 1 10 2 11 3 12 4 13 5 14 6 15 7 16 8 17 9 18 10 8 11 7 12
REMARK SMILES IDX 6 13 5 14 4 15 3 16 2 17 1 18
REMARK H PARENT
REMARK Flexibility Score: inf
ROOT
ATOM      1  C   UNL     1      39.639  -6.651   7.662  1.00  0.00     0.000 C 
ENDROOT
BRANCH   1   2
ATOM      2  C   UNL     1      40.988  -7.372   7.514  1.00  0.00     0.000 C 
BRANCH   2   3
ATOM      3  C   UNL     1      41.427  -7.511   6.047  1.00  0.00     0.000 C 
BRANCH   3   4
ATOM      4  C   UNL     1      40.649  -6.574   5.108  1.00  0.00     0.000 C 
BRANCH   4   5
ATOM      5  C   UNL     1      40.928  -6.849   3.620  1.00  0.00     0.000 C 
BRANCH   5   6
ATOM      6  C   UNL     1      41.077  -5.594   2.740  1.00  0.00     0.006 C 
BRANCH   6   7
ATOM      7  C   UNL     1      40.616  -4.312   3.444  1.00  0.00     0.053 C 
BRANCH   7   8
ATOM      8  C   UNL     1      39.613  -3.586   2.605  1.00  0.00     0.041 C 
ATOM      9  O   UNL     1      39.131  -2.491   2.996  1.00  0.00    -0.550 OA
ATOM     10  O   UNL     1      39.174  -4.144   1.409  1.00  0.00    -0.550 OA
ENDBRANCH   7   8
ENDBRANCH   6   7
ENDBRANCH   5   6
ENDBRANCH   4   5
ENDBRANCH   3   4
ENDBRANCH   2   3
ENDBRANCH   1   2
BRANCH   1  11
ATOM     11  C   UNL     1      38.916  -7.096   8.939  1.00  0.00     0.000 C 
BRANCH  11  12
ATOM     12  C   UNL     1      39.908  -7.305  10.090  1.00  0.00    -0.000 C 
BRANCH  12  13
ATOM     13  C   UNL     1      39.183  -7.729  11.372  1.00  0.00    -0.000 C 
BRANCH  13  14
ATOM     14  C   UNL     1      38.089  -8.765  11.069  1.00  0.00    -0.000 C 
BRANCH  14  15
ATOM     15  C   UNL     1      36.746  -8.420  11.733  1.00  0.00    -0.000 C 
BRANCH  15  16
ATOM     16  C   UNL     1      36.754  -8.682  13.250  1.00  0.00    -0.000 C 
BRANCH  16  17
ATOM     17  C   UNL     1      36.037  -7.576  14.040  1.00  0.00    -0.003 C 
ATOM     18  C   UNL     1      36.802  -6.254  14.031  1.00  0.00     0.004 C 
ENDBRANCH  16  17
ENDBRANCH  15  16
ENDBRANCH  14  15
ENDBRANCH  13  14
ENDBRANCH  12  13
ENDBRANCH  11  12
ENDBRANCH   1  11
TORSDOF 14
ENDMDL
MODEL 6
REMARK VINA RESULT:    -4.561      2.303      3.628
REMARK INTER + INTRA:          -9.062
REMARK INTER:                  -7.471
REMARK INTRA:                  -1.591
REMARK UNBOUND:                -0.768
REMARK SMILES CCCCCCCCCCCCCCCC(=O)[O-]
REMARK SMILES IDX 9 1 10 2 11 3 12 4 13 5 14 6 15 7 16 8 17 9 18 10 8 11 7 12
REMARK SMILES IDX 6 13 5 14 4 15 3 16 2 17 1 18
REMARK H PARENT
REMARK Flexibility Score: inf
ROOT
ATOM      1  C   UNL     1      43.337  -7.806   6.414  1.00  0.00     0.000 C 
ENDROOT
BRANCH   1   2
ATOM      2  C   UNL     1      43.066  -8.310   7.841  1.00  0.00     0.000 C 
BRANCH   2   3
ATOM      3  C   UNL     1      41.699  -7.857   8.378  1.00  0.00     0.000 C 
BRANCH   3   4
ATOM      4  C   UNL     1      40.705  -7.520   7.254  1.00  0.00     0.000 C 
BRANCH   4   5
ATOM      5  C   UNL     1      39.581  -6.573   7.710  1.00  0.00     0.000 C 
BRANCH   5   6
ATOM      6  C   UNL     1      39.500  -6.340   9.230  1.00  0.00     0.006 C 
BRANCH   6   7
ATOM      7  C   UNL     1      38.285  -7.016   9.876  1.00  0.00     0.053 C 
BRANCH   7   8
ATOM      8  C   UNL     1      38.707  -7.835  11.054  1.00  0.00     0.041 C 
ATOM      9  O   UNL     1      38.427  -7.458  12.222  1.00  0.00    -0.550 OA
ATOM     10  O   UNL     1      39.452  -8.993  10.864  1.00  0.00    -0.550 OA
ENDBRANCH   7   8
ENDBRANCH   6   7
ENDBRANCH   5   6
ENDBRANCH   4   5
ENDBRANCH   3   4
ENDBRANCH   2   3
ENDBRANCH   1   2
BRANCH   1  11
ATOM     11  C   UNL     1      44.162  -8.826   5.620  1.00  0.00     0.000 C 
BRANCH  11  12
ATOM     12  C   UNL     1      43.508  -9.132   4.267  1.00  0.00    -0.000 C 
BRANCH  12  13
ATOM     13  C   UNL     1      42.007  -9.399   4.429  1.00  0.00    -0.000 C 
BRANCH  13  14
ATOM     14  C   UNL     1      41.216  -8.827   3.243  1.00  0.00    -0.000 C 
BRANCH  14  15
ATOM     15  C   UNL     1      41.522  -7.342   2.988  1.00  0.00    -0.000 C 
BRANCH  15  16
ATOM     16  C   UNL     1      40.643  -6.404   3.835  1.00  0.00    -0.000 C 
BRANCH  16  17
ATOM     17  C   UNL     1      40.989  -4.923   3.620  1.00  0.00    -0.003 C 
ATOM     18  C   UNL     1      39.962  -4.196   2.753  1.00  0.00     0.004 C 
ENDBRANCH  16  17
ENDBRANCH  15  16
ENDBRANCH  14  15
ENDBRANCH  13  14
ENDBRANCH  12  13
ENDBRANCH  11  12
ENDBRANCH   1  11
TORSDOF 14
ENDMDL
MODEL 7
REMARK VINA RESULT:    -4.545      4.081      6.306
REMARK INTER + INTRA:          -9.033
REMARK INTER:                  -7.543
REMARK INTRA:                  -1.490
REMARK UNBOUND:                -0.768
REMARK SMILES CCCCCCCCCCCCCCCC(=O)[O-]
REMARK SMILES IDX 9 1 10 2 11 3 12 4 13 5 14 6 15 7 16 8 17 9 18 10 8 11 7 12
REMARK SMILES IDX 6 13 5 14 4 15 3 16 2 17 1 18
REMARK H PARENT
REMARK Flexibility Score: inf
ROOT
ATOM      1  C   UNL     1      37.526  -6.708  13.283  1.00  0.00     0.000 C 
ENDROOT
BRANCH   1   2
ATOM      2  C   UNL     1      36.135  -6.182  13.672  1.00  0.00     0.000 C 
BRANCH   2   3
ATOM      3  C   UNL     1      34.996  -6.992  13.031  1.00  0.00     0.000 C 
BRANCH   3   4
ATOM      4  C   UNL     1      34.385  -8.017  14.001  1.00  0.00     0.000 C 
BRANCH   4   5
ATOM      5  C   UNL     1      34.567  -7.627  15.479  1.00  0.00     0.000 C 
BRANCH   5   6
ATOM      6  C   UNL     1      33.304  -7.756  16.350  1.00  0.00     0.006 C 
BRANCH   6   7
ATOM      7  C   UNL     1      32.018  -7.879  15.523  1.00  0.00     0.053 C 
BRANCH   7   8
ATOM      8  C   UNL     1      31.409  -9.233  15.702  1.00  0.00     0.041 C 
ATOM      9  O   UNL     1      30.980  -9.592  16.830  1.00  0.00    -0.550 OA
ATOM     10  O   UNL     1      31.358 -10.119  14.632  1.00  0.00    -0.550 OA
ENDBRANCH   7   8
ENDBRANCH   6   7
ENDBRANCH   5   6
ENDBRANCH   4   5
ENDBRANCH   3   4
ENDBRANCH   2   3
ENDBRANCH   1   2
BRANCH   1  11
ATOM     11  C   UNL     1      37.495  -7.372  11.900  1.00  0.00     0.000 C 
BRANCH  11  12
ATOM     12  C   UNL     1      38.098  -8.780  11.950  1.00  0.00    -0.000 C 
BRANCH  12  13
ATOM     13  C   UNL     1      37.308  -9.750  11.064  1.00  0.00    -0.000 C 
BRANCH  13  14
ATOM     14  C   UNL     1      38.027  -9.983   9.727  1.00  0.00    -0.000 C 
BRANCH  14  15
ATOM     15  C   UNL     1      39.549  -9.790   9.832  1.00  0.00    -0.000 C 
BRANCH  15  16
ATOM     16  C   UNL     1      40.122  -8.968   8.664  1.00  0.00    -0.000 C 
BRANCH  16  17
ATOM     17  C   UNL     1      39.662  -7.503   8.695  1.00  0.00    -0.003 C 
ATOM     18  C   UNL     1      40.412  -6.671   9.732  1.00  0.00     0.004 C 
ENDBRANCH  16  17
ENDBRANCH  15  16
ENDBRANCH  14  15
ENDBRANCH  13  14
ENDBRANCH  12  13
ENDBRANCH  11  12
ENDBRANCH   1  11
TORSDOF 14
ENDMDL
MODEL 8
REMARK VINA RESULT:    -4.520      4.861      8.955
REMARK INTER + INTRA:          -8.987
REMARK INTER:                  -7.444
REMARK INTRA:                  -1.543
REMARK UNBOUND:                -0.768
REMARK SMILES CCCCCCCCCCCCCCCC(=O)[O-]
REMARK SMILES IDX 9 1 10 2 11 3 12 4 13 5 14 6 15 7 16 8 17 9 18 10 8 11 7 12
REMARK SMILES IDX 6 13 5 14 4 15 3 16 2 17 1 18
REMARK H PARENT
REMARK Flexibility Score: inf
ROOT
ATOM      1  C   UNL     1      38.009  -7.695  10.353  1.00  0.00     0.000 C 
ENDROOT
BRANCH   1   2
ATOM      2  C   UNL     1      39.411  -7.372  10.894  1.00  0.00     0.000 C 
BRANCH   2   3
ATOM      3  C   UNL     1      40.266  -6.584   9.888  1.00  0.00     0.000 C 
BRANCH   3   4
ATOM      4  C   UNL     1      39.553  -6.382   8.540  1.00  0.00     0.000 C 
BRANCH   4   5
ATOM      5  C   UNL     1      40.282  -7.063   7.368  1.00  0.00     0.000 C 
BRANCH   5   6
ATOM      6  C   UNL     1      41.444  -7.990   7.771  1.00  0.00     0.006 C 
BRANCH   6   7
ATOM      7  C   UNL     1      42.727  -7.723   6.975  1.00  0.00     0.053 C 
BRANCH   7   8
ATOM      8  C   UNL     1      43.680  -8.867   7.120  1.00  0.00     0.041 C 
ATOM      9  O   UNL     1      43.627  -9.842   6.325  1.00  0.00    -0.550 OA
ATOM     10  O   UNL     1      44.597  -8.879   8.165  1.00  0.00    -0.550 OA
ENDBRANCH   7   8
ENDBRANCH   6   7
ENDBRANCH   5   6
ENDBRANCH   4   5
ENDBRANCH   3   4
ENDBRANCH   2   3
ENDBRANCH   1   2
BRANCH   1  11
ATOM     11  C   UNL     1      37.744  -9.205  10.383  1.00  0.00     0.000 C 
BRANCH  11  12
ATOM     12  C   UNL     1      38.072  -9.796  11.759  1.00  0.00    -0.000 C 
BRANCH  12  13
ATOM     13  C   UNL     1      36.852 -10.503  12.360  1.00  0.00    -0.000 C 
BRANCH  13  14
ATOM     14  C   UNL     1      36.458  -9.871  13.704  1.00  0.00    -0.000 C 
BRANCH  14  15
ATOM     15  C   UNL     1      34.997  -9.393  13.727  1.00  0.00    -0.000 C 
BRANCH  15  16
ATOM     16  C   UNL     1      34.870  -7.896  14.062  1.00  0.00    -0.000 C 
BRANCH  16  17
ATOM     17  C   UNL     1      35.552  -7.001  13.017  1.00  0.00    -0.003 C 
ATOM     18  C   UNL     1      36.752  -6.242  13.583  1.00  0.00     0.004 C 
ENDBRANCH  16  17
ENDBRANCH  15  16
ENDBRANCH  14  15
ENDBRANCH  13  14
ENDBRANCH  12  13
ENDBRANCH  11  12
ENDBRANCH   1  11
TORSDOF 14
ENDMDL
MODEL 9
REMARK VINA RESULT:    -4.510      2.669      3.837
REMARK INTER + INTRA:          -8.969
REMARK INTER:                  -7.459
REMARK INTRA:                  -1.510
REMARK UNBOUND:                -0.768
REMARK SMILES CCCCCCCCCCCCCCCC(=O)[O-]
REMARK SMILES IDX 9 1 10 2 11 3 12 4 13 5 14 6 15 7 16 8 17 9 18 10 8 11 7 12
REMARK SMILES IDX 6 13 5 14 4 15 3 16 2 17 1 18
REMARK H PARENT
REMARK Flexibility Score: inf
ROOT
ATOM      1  C   UNL     1      40.608  -7.318   7.641  1.00  0.00     0.000 C 
ENDROOT
BRANCH   1   2
ATOM      2  C   UNL     1      39.739  -6.656   8.722  1.00  0.00     0.000 C 
BRANCH   2   3
ATOM      3  C   UNL     1      40.199  -7.007  10.147  1.00  0.00     0.000 C 
BRANCH   3   4
ATOM      4  C   UNL     1      39.166  -7.854  10.908  1.00  0.00     0.000 C 
BRANCH   4   5
ATOM      5  C   UNL     1      37.734  -7.682  10.368  1.00  0.00     0.000 C 
BRANCH   5   6
ATOM      6  C   UNL     1      36.614  -8.060  11.355  1.00  0.00     0.006 C 
BRANCH   6   7
ATOM      7  C   UNL     1      37.136  -8.364  12.764  1.00  0.00     0.053 C 
BRANCH   7   8
ATOM      8  C   UNL     1      36.585  -7.382  13.749  1.00  0.00     0.041 C 
ATOM      9  O   UNL     1      35.480  -7.600  14.312  1.00  0.00    -0.550 OA
ATOM     10  O   UNL     1      37.269  -6.201  14.009  1.00  0.00    -0.550 OA
ENDBRANCH   7   8
ENDBRANCH   6   7
ENDBRANCH   5   6
ENDBRANCH   4   5
ENDBRANCH   3   4
ENDBRANCH   2   3
ENDBRANCH   1   2
BRANCH   1  11
ATOM     11  C   UNL     1      41.771  -8.093   8.270  1.00  0.00     0.000 C 
BRANCH  11  12
ATOM     12  C   UNL     1      41.676  -9.589   7.946  1.00  0.00    -0.000 C 
BRANCH  12  13
ATOM     13  C   UNL     1      43.000 -10.302   8.245  1.00  0.00    -0.000 C 
BRANCH  13  14
ATOM     14  C   UNL     1      44.198  -9.421   7.860  1.00  0.00    -0.000 C 
BRANCH  14  15
ATOM     15  C   UNL     1      44.756  -9.756   6.467  1.00  0.00    -0.000 C 
BRANCH  15  16
ATOM     16  C   UNL     1      44.287  -8.765   5.388  1.00  0.00    -0.000 C 
BRANCH  16  17
ATOM     17  C   UNL     1      43.138  -9.325   4.536  1.00  0.00    -0.003 C 
ATOM     18  C   UNL     1      42.041  -8.294   4.273  1.00  0.00     0.004 C 
ENDBRANCH  16  17
ENDBRANCH  15  16
ENDBRANCH  14  15
ENDBRANCH  13  14
ENDBRANCH  12  13
ENDBRANCH  11  12
ENDBRANCH   1  11
TORSDOF 14
ENDMDL
