MODEL 1
REMARK VINA RESULT:    -6.212      0.000      0.000
REMARK INTER + INTRA:          -9.264
REMARK INTER:                  -8.391
REMARK INTRA:                  -0.873
REMARK UNBOUND:                -0.873
REMARK SMILES CC(=O)CCC=C(C)CCC=C(C)C
REMARK SMILES IDX 7 1 6 2 8 3 9 4 10 5 11 6 13 7 12 8 14 9 5 10 4 11 2 12 3 13
REMARK SMILES IDX 1 14
REMARK H PARENT
REMARK Flexibility Score: inf
ROOT
ATOM      1  C   UNL     1      -4.035 -12.497  28.322  1.00  0.00    -0.077 C 
ATOM      2  C   UNL     1      -4.798 -13.614  28.281  1.00  0.00    -0.028 C 
ATOM      3  C   UNL     1      -4.561 -11.190  28.869  1.00  0.00     0.039 C 
ENDROOT
BRANCH   1   4
ATOM      4  C   UNL     1      -2.626 -12.548  27.770  1.00  0.00     0.034 C 
BRANCH   4   5
ATOM      5  C   UNL     1      -1.812 -13.690  28.394  1.00  0.00     0.032 C 
BRANCH   5   6
ATOM      6  C   UNL     1      -0.819 -13.160  29.402  1.00  0.00    -0.028 C 
ATOM      7  C   UNL     1       0.094 -12.606  31.614  1.00  0.00     0.039 C 
ATOM      8  C   UNL     1      -1.024 -13.107  30.737  1.00  0.00    -0.080 C 
ATOM      9  C   UNL     1      -2.329 -13.531  31.367  1.00  0.00     0.039 C 
ENDBRANCH   5   6
ENDBRANCH   4   5
ENDBRANCH   1   4
BRANCH   2  10
ATOM     10  C   UNL     1      -6.211 -13.705  28.804  1.00  0.00     0.035 C 
BRANCH  10  11
ATOM     11  C   UNL     1      -6.401 -14.899  29.749  1.00  0.00     0.079 C 
BRANCH  11  12
ATOM     12  C   UNL     1      -7.432 -15.867  29.225  1.00  0.00     0.130 C 
ATOM     13  O   UNL     1      -7.234 -17.069  29.319  1.00  0.00    -0.300 OA
ATOM     14  C   UNL     1      -8.709 -15.385  28.601  1.00  0.00     0.087 C 
ENDBRANCH  11  12
ENDBRANCH  10  11
ENDBRANCH   2  10
TORSDOF 6
ENDMDL
MODEL 2
REMARK VINA RESULT:    -6.119      2.842      5.428
REMARK INTER + INTRA:          -9.138
REMARK INTER:                  -8.003
REMARK INTRA:                  -1.135
REMARK UNBOUND:                -0.873
REMARK SMILES CC(=O)CCC=C(C)CCC=C(C)C
REMARK SMILES IDX 7 1 6 2 8 3 9 4 10 5 11 6 13 7 12 8 14 9 5 10 4 11 2 12 3 13
REMARK SMILES IDX 1 14
REMARK H PARENT
REMARK Flexibility Score: inf
ROOT
ATOM      1  C   UNL     1      -3.622 -13.358  27.913  1.00  0.00    -0.077 C 
ATOM      2  C   UNL     1      -2.529 -14.000  28.387  1.00  0.00    -0.028 C 
ATOM      3  C   UNL     1      -3.594 -11.889  27.556  1.00  0.00     0.039 C 
ENDROOT
BRANCH   1   4
ATOM      4  C   UNL     1      -4.920 -14.124  27.772  1.00  0.00     0.034 C 
BRANCH   4   5
ATOM      5  C   UNL     1      -5.985 -13.624  28.757  1.00  0.00     0.032 C 
BRANCH   5   6
ATOM      6  C   UNL     1      -6.028 -14.489  29.996  1.00  0.00    -0.028 C 
ATOM      7  C   UNL     1      -5.629 -15.124  32.334  1.00  0.00     0.039 C 
ATOM      8  C   UNL     1      -5.441 -14.181  31.174  1.00  0.00    -0.080 C 
ATOM      9  C   UNL     1      -4.612 -12.934  31.359  1.00  0.00     0.039 C 
ENDBRANCH   5   6
ENDBRANCH   4   5
ENDBRANCH   1   4
BRANCH   2  10
ATOM     10  C   UNL     1      -1.173 -13.362  28.568  1.00  0.00     0.035 C 
BRANCH  10  11
ATOM     11  C   UNL     1      -0.539 -13.723  29.918  1.00  0.00     0.079 C 
BRANCH  11  12
ATOM     12  C   UNL     1      -0.461 -12.528  30.835  1.00  0.00     0.130 C 
ATOM     13  O   UNL     1       0.373 -12.506  31.728  1.00  0.00    -0.300 OA
ATOM     14  C   UNL     1      -1.379 -11.353  30.666  1.00  0.00     0.087 C 
ENDBRANCH  11  12
ENDBRANCH  10  11
ENDBRANCH   2  10
TORSDOF 6
ENDMDL
MODEL 3
REMARK VINA RESULT:    -6.013      2.179      5.525
REMARK INTER + INTRA:          -8.996
REMARK INTER:                  -8.199
REMARK INTRA:                  -0.797
REMARK UNBOUND:                -0.873
REMARK SMILES CC(=O)CCC=C(C)CCC=C(C)C
REMARK SMILES IDX 7 1 6 2 8 3 9 4 10 5 11 6 13 7 12 8 14 9 5 10 4 11 2 12 3 13
REMARK SMILES IDX 1 14
REMARK H PARENT
REMARK Flexibility Score: inf
ROOT
ATOM      1  C   UNL     1      -3.925 -11.592  28.834  1.00  0.00    -0.077 C 
ATOM      2  C   UNL     1      -2.670 -11.402  29.301  1.00  0.00    -0.028 C 
ATOM      3  C   UNL     1      -5.128 -10.953  29.489  1.00  0.00     0.039 C 
ENDROOT
BRANCH   1   4
ATOM      4  C   UNL     1      -4.136 -12.502  27.642  1.00  0.00     0.034 C 
BRANCH   4   5
ATOM      5  C   UNL     1      -4.300 -13.967  28.066  1.00  0.00     0.032 C 
BRANCH   5   6
ATOM      6  C   UNL     1      -5.743 -14.404  27.964  1.00  0.00    -0.028 C 
ATOM      7  C   UNL     1      -7.976 -15.063  28.747  1.00  0.00     0.039 C 
ATOM      8  C   UNL     1      -6.538 -14.701  29.016  1.00  0.00    -0.080 C 
ATOM      9  C   UNL     1      -6.031 -14.683  30.438  1.00  0.00     0.039 C 
ENDBRANCH   5   6
ENDBRANCH   4   5
ENDBRANCH   1   4
BRANCH   2  10
ATOM     10  C   UNL     1      -2.318 -10.517  30.472  1.00  0.00     0.035 C 
BRANCH  10  11
ATOM     11  C   UNL     1      -2.219 -11.305  31.785  1.00  0.00     0.079 C 
BRANCH  11  12
ATOM     12  C   UNL     1      -1.503 -12.619  31.594  1.00  0.00     0.130 C 
ATOM     13  O   UNL     1      -2.141 -13.660  31.604  1.00  0.00    -0.300 OA
ATOM     14  C   UNL     1      -0.019 -12.675  31.377  1.00  0.00     0.087 C 
ENDBRANCH  11  12
ENDBRANCH  10  11
ENDBRANCH   2  10
TORSDOF 6
ENDMDL
MODEL 4
REMARK VINA RESULT:    -6.007      2.491      4.251
REMARK INTER + INTRA:          -8.988
REMARK INTER:                  -7.942
REMARK INTRA:                  -1.046
REMARK UNBOUND:                -0.873
REMARK SMILES CC(=O)CCC=C(C)CCC=C(C)C
REMARK SMILES IDX 7 1 6 2 8 3 9 4 10 5 11 6 13 7 12 8 14 9 5 10 4 11 2 12 3 13
REMARK SMILES IDX 1 14
REMARK H PARENT
REMARK Flexibility Score: inf
ROOT
ATOM      1  C   UNL     1      -5.180 -13.226  29.920  1.00  0.00    -0.077 C 
ATOM      2  C   UNL     1      -4.884 -11.912  30.044  1.00  0.00    -0.028 C 
ATOM      3  C   UNL     1      -5.594 -13.831  28.598  1.00  0.00     0.039 C 
ENDROOT
BRANCH   1   4
ATOM      4  C   UNL     1      -5.131 -14.110  31.149  1.00  0.00     0.034 C 
BRANCH   4   5
ATOM      5  C   UNL     1      -4.055 -13.646  32.140  1.00  0.00     0.032 C 
BRANCH   5   6
ATOM      6  C   UNL     1      -2.670 -13.822  31.561  1.00  0.00    -0.028 C 
ATOM      7  C   UNL     1      -0.371 -13.211  30.949  1.00  0.00     0.039 C 
ATOM      8  C   UNL     1      -1.727 -12.855  31.503  1.00  0.00    -0.080 C 
ATOM      9  C   UNL     1      -1.990 -11.445  31.972  1.00  0.00     0.039 C 
ENDBRANCH   5   6
ENDBRANCH   4   5
ENDBRANCH   1   4
BRANCH   2  10
ATOM     10  C   UNL     1      -4.884 -10.923  28.903  1.00  0.00     0.035 C 
BRANCH  10  11
ATOM     11  C   UNL     1      -3.463 -10.573  28.442  1.00  0.00     0.079 C 
BRANCH  11  12
ATOM     12  C   UNL     1      -2.923 -11.595  27.473  1.00  0.00     0.130 C 
ATOM     13  O   UNL     1      -2.241 -12.519  27.888  1.00  0.00    -0.300 OA
ATOM     14  C   UNL     1      -3.221 -11.511  26.004  1.00  0.00     0.087 C 
ENDBRANCH  11  12
ENDBRANCH  10  11
ENDBRANCH   2  10
TORSDOF 6
ENDMDL
MODEL 5
REMARK VINA RESULT:    -5.967      2.561      5.871
REMARK INTER + INTRA:          -8.933
REMARK INTER:                  -8.058
REMARK INTRA:                  -0.875
REMARK UNBOUND:                -0.873
REMARK SMILES CC(=O)CCC=C(C)CCC=C(C)C
REMARK SMILES IDX 7 1 6 2 8 3 9 4 10 5 11 6 13 7 12 8 14 9 5 10 4 11 2 12 3 13
REMARK SMILES IDX 1 14
REMARK H PARENT
REMARK Flexibility Score: inf
ROOT
ATOM      1  C   UNL     1      -3.783 -12.280  32.071  1.00  0.00    -0.077 C 
ATOM      2  C   UNL     1      -2.567 -12.819  31.829  1.00  0.00    -0.028 C 
ATOM      3  C   UNL     1      -4.042 -10.797  31.937  1.00  0.00     0.039 C 
ENDROOT
BRANCH   1   4
ATOM      4  C   UNL     1      -4.910 -13.184  32.526  1.00  0.00     0.034 C 
BRANCH   4   5
ATOM      5  C   UNL     1      -4.858 -14.551  31.831  1.00  0.00     0.032 C 
BRANCH   5   6
ATOM      6  C   UNL     1      -6.032 -14.731  30.897  1.00  0.00    -0.028 C 
ATOM      7  C   UNL     1      -7.255 -14.749  28.767  1.00  0.00     0.039 C 
ATOM      8  C   UNL     1      -6.016 -14.456  29.573  1.00  0.00    -0.080 C 
ATOM      9  C   UNL     1      -4.805 -13.871  28.887  1.00  0.00     0.039 C 
ENDBRANCH   5   6
ENDBRANCH   4   5
ENDBRANCH   1   4
BRANCH   2  10
ATOM     10  C   UNL     1      -1.362 -12.039  31.362  1.00  0.00     0.035 C 
BRANCH  10  11
ATOM     11  C   UNL     1      -0.347 -12.925  30.627  1.00  0.00     0.079 C 
BRANCH  11  12
ATOM     12  C   UNL     1      -0.786 -13.225  29.216  1.00  0.00     0.130 C 
ATOM     13  O   UNL     1      -1.586 -12.485  28.663  1.00  0.00    -0.300 OA
ATOM     14  C   UNL     1      -0.249 -14.408  28.466  1.00  0.00     0.087 C 
ENDBRANCH  11  12
ENDBRANCH  10  11
ENDBRANCH   2  10
TORSDOF 6
ENDMDL
MODEL 6
REMARK VINA RESULT:    -5.955      2.322      4.615
REMARK INTER + INTRA:          -8.917
REMARK INTER:                  -8.000
REMARK INTRA:                  -0.917
REMARK UNBOUND:                -0.873
REMARK SMILES CC(=O)CCC=C(C)CCC=C(C)C
REMARK SMILES IDX 7 1 6 2 8 3 9 4 10 5 11 6 13 7 12 8 14 9 5 10 4 11 2 12 3 13
REMARK SMILES IDX 1 14
REMARK H PARENT
REMARK Flexibility Score: inf
ROOT
ATOM      1  C   UNL     1      -6.329 -14.704  28.862  1.00  0.00    -0.077 C 
ATOM      2  C   UNL     1      -5.504 -14.444  29.902  1.00  0.00    -0.028 C 
ATOM      3  C   UNL     1      -7.766 -15.125  29.066  1.00  0.00     0.039 C 
ENDROOT
BRANCH   1   4
ATOM      4  C   UNL     1      -5.787 -14.605  27.451  1.00  0.00     0.034 C 
BRANCH   4   5
ATOM      5  C   UNL     1      -4.256 -14.501  27.437  1.00  0.00     0.032 C 
BRANCH   5   6
ATOM      6  C   UNL     1      -3.795 -13.404  26.505  1.00  0.00    -0.028 C 
ATOM      7  C   UNL     1      -3.000 -11.177  25.839  1.00  0.00     0.039 C 
ATOM      8  C   UNL     1      -3.507 -12.138  26.883  1.00  0.00    -0.080 C 
ATOM      9  C   UNL     1      -3.679 -11.664  28.306  1.00  0.00     0.039 C 
ENDBRANCH   5   6
ENDBRANCH   4   5
ENDBRANCH   1   4
BRANCH   2  10
ATOM     10  C   UNL     1      -5.916 -14.494  31.353  1.00  0.00     0.035 C 
BRANCH  10  11
ATOM     11  C   UNL     1      -4.714 -14.371  32.300  1.00  0.00     0.079 C 
BRANCH  11  12
ATOM     12  C   UNL     1      -3.865 -13.169  31.970  1.00  0.00     0.130 C 
ATOM     13  O   UNL     1      -4.308 -12.046  32.160  1.00  0.00    -0.300 OA
ATOM     14  C   UNL     1      -2.475 -13.321  31.426  1.00  0.00     0.087 C 
ENDBRANCH  11  12
ENDBRANCH  10  11
ENDBRANCH   2  10
TORSDOF 6
ENDMDL
MODEL 7
REMARK VINA RESULT:    -5.905      2.666      5.465
REMARK INTER + INTRA:          -8.850
REMARK INTER:                  -8.134
REMARK INTRA:                  -0.716
REMARK UNBOUND:                -0.873
REMARK SMILES CC(=O)CCC=C(C)CCC=C(C)C
REMARK SMILES IDX 7 1 6 2 8 3 9 4 10 5 11 6 13 7 12 8 14 9 5 10 4 11 2 12 3 13
REMARK SMILES IDX 1 14
REMARK H PARENT
REMARK Flexibility Score: inf
ROOT
ATOM      1  C   UNL     1      -3.643 -12.180  27.053  1.00  0.00    -0.077 C 
ATOM      2  C   UNL     1      -3.827 -11.788  28.335  1.00  0.00    -0.028 C 
ATOM      3  C   UNL     1      -3.016 -11.271  26.021  1.00  0.00     0.039 C 
ENDROOT
BRANCH   1   4
ATOM      4  C   UNL     1      -4.113 -13.556  26.631  1.00  0.00     0.034 C 
BRANCH   4   5
ATOM      5  C   UNL     1      -4.502 -14.419  27.839  1.00  0.00     0.032 C 
BRANCH   5   6
ATOM      6  C   UNL     1      -5.975 -14.755  27.814  1.00  0.00    -0.028 C 
ATOM      7  C   UNL     1      -8.225 -15.166  28.711  1.00  0.00     0.039 C 
ATOM      8  C   UNL     1      -6.757 -14.888  28.909  1.00  0.00    -0.080 C 
ATOM      9  C   UNL     1      -6.206 -14.769  30.310  1.00  0.00     0.039 C 
ENDBRANCH   5   6
ENDBRANCH   4   5
ENDBRANCH   1   4
BRANCH   2  10
ATOM     10  C   UNL     1      -3.398 -10.451  28.890  1.00  0.00     0.035 C 
BRANCH  10  11
ATOM     11  C   UNL     1      -2.998 -10.541  30.369  1.00  0.00     0.079 C 
BRANCH  11  12
ATOM     12  C   UNL     1      -2.122 -11.739  30.638  1.00  0.00     0.130 C 
ATOM     13  O   UNL     1      -0.964 -11.740  30.247  1.00  0.00    -0.300 OA
ATOM     14  C   UNL     1      -2.637 -12.929  31.393  1.00  0.00     0.087 C 
ENDBRANCH  11  12
ENDBRANCH  10  11
ENDBRANCH   2  10
TORSDOF 6
ENDMDL
MODEL 8
REMARK VINA RESULT:    -5.892      2.526      5.594
REMARK INTER + INTRA:          -8.832
REMARK INTER:                  -7.710
REMARK INTRA:                  -1.123
REMARK UNBOUND:                -0.873
REMARK SMILES CC(=O)CCC=C(C)CCC=C(C)C
REMARK SMILES IDX 7 1 6 2 8 3 9 4 10 5 11 6 13 7 12 8 14 9 5 10 4 11 2 12 3 13
REMARK SMILES IDX 1 14
REMARK H PARENT
REMARK Flexibility Score: inf
ROOT
ATOM      1  C   UNL     1      -4.015 -13.411  31.881  1.00  0.00    -0.077 C 
ATOM      2  C   UNL     1      -2.718 -13.620  31.558  1.00  0.00    -0.028 C 
ATOM      3  C   UNL     1      -4.487 -12.114  32.496  1.00  0.00     0.039 C 
ENDROOT
BRANCH   1   4
ATOM      4  C   UNL     1      -5.017 -14.524  31.655  1.00  0.00     0.034 C 
BRANCH   4   5
ATOM      5  C   UNL     1      -5.985 -14.193  30.512  1.00  0.00     0.032 C 
BRANCH   5   6
ATOM      6  C   UNL     1      -5.328 -14.395  29.167  1.00  0.00    -0.028 C 
ATOM      7  C   UNL     1      -4.151 -13.780  27.100  1.00  0.00     0.039 C 
ATOM      8  C   UNL     1      -4.833 -13.405  28.390  1.00  0.00    -0.080 C 
ATOM      9  C   UNL     1      -4.945 -11.949  28.775  1.00  0.00     0.039 C 
ENDBRANCH   5   6
ENDBRANCH   4   5
ENDBRANCH   1   4
BRANCH   2  10
ATOM     10  C   UNL     1      -1.620 -12.597  31.721  1.00  0.00     0.035 C 
BRANCH  10  11
ATOM     11  C   UNL     1      -0.413 -12.896  30.822  1.00  0.00     0.079 C 
BRANCH  11  12
ATOM     12  C   UNL     1      -0.818 -13.056  29.378  1.00  0.00     0.130 C 
ATOM     13  O   UNL     1      -1.473 -12.180  28.835  1.00  0.00    -0.300 OA
ATOM     14  C   UNL     1      -0.419 -14.266  28.586  1.00  0.00     0.087 C 
ENDBRANCH  11  12
ENDBRANCH  10  11
ENDBRANCH   2  10
TORSDOF 6
ENDMDL
MODEL 9
REMARK VINA RESULT:    -5.809      1.463      2.247
REMARK INTER + INTRA:          -8.720
REMARK INTER:                  -7.682
REMARK INTRA:                  -1.038
REMARK UNBOUND:                -0.873
REMARK SMILES CC(=O)CCC=C(C)CCC=C(C)C
REMARK SMILES IDX 7 1 6 2 8 3 9 4 10 5 11 6 13 7 12 8 14 9 5 10 4 11 2 12 3 13
REMARK SMILES IDX 1 14
REMARK H PARENT
REMARK Flexibility Score: inf
ROOT
ATOM      1  C   UNL     1      -2.705 -12.885  28.350  1.00  0.00    -0.077 C 
ATOM      2  C   UNL     1      -3.512 -13.967  28.441  1.00  0.00    -0.028 C 
ATOM      3  C   UNL     1      -3.068 -11.687  27.503  1.00  0.00     0.039 C 
ENDROOT
BRANCH   1   4
ATOM      4  C   UNL     1      -1.384 -12.889  29.089  1.00  0.00     0.034 C 
BRANCH   4   5
ATOM      5  C   UNL     1      -1.572 -13.150  30.589  1.00  0.00     0.032 C 
BRANCH   5   6
ATOM      6  C   UNL     1      -2.439 -12.085  31.221  1.00  0.00    -0.028 C 
ATOM      7  C   UNL     1      -4.299 -11.153  32.527  1.00  0.00     0.039 C 
ATOM      8  C   UNL     1      -3.581 -12.323  31.905  1.00  0.00    -0.080 C 
ATOM      9  C   UNL     1      -4.152 -13.712  32.060  1.00  0.00     0.039 C 
ENDBRANCH   5   6
ENDBRANCH   4   5
ENDBRANCH   1   4
BRANCH   2  10
ATOM     10  C   UNL     1      -4.857 -14.091  27.767  1.00  0.00     0.035 C 
BRANCH  10  11
ATOM     11  C   UNL     1      -6.003 -13.620  28.671  1.00  0.00     0.079 C 
BRANCH  11  12
ATOM     12  C   UNL     1      -6.789 -14.781  29.228  1.00  0.00     0.130 C 
ATOM     13  O   UNL     1      -6.355 -15.397  30.189  1.00  0.00    -0.300 OA
ATOM     14  C   UNL     1      -8.105 -15.188  28.635  1.00  0.00     0.087 C 
ENDBRANCH  11  12
ENDBRANCH  10  11
ENDBRANCH   2  10
TORSDOF 6
ENDMDL
