MODEL 1
REMARK VINA RESULT:    63.686      0.000      0.000
REMARK INTER + INTRA:          88.786
REMARK INTER:                  89.748
REMARK INTRA:                  -0.962
REMARK UNBOUND:                -0.962
REMARK SMILES COc1c(O[C@H]2O[C@H](C(=O)[O-])[C@@H](O)[C@@H](O)[C@@H]2O)cc(O)c2c(=O)cc(-c3ccccc3)oc12
REMARK SMILES IDX 5 1 6 2 8 3 12 4 7 5 14 6 16 7 9 8 10 9 11 10 13 11 15 13
REMARK SMILES IDX 17 15 4 17 3 18 18 19 33 20 19 21 21 22 32 23 22 24 25 25
REMARK SMILES IDX 24 26 23 27 2 28 1 29 20 30 26 32 27 33 31 34 28 35 30 36
REMARK SMILES IDX 29 37
REMARK H PARENT 13 12 15 14 17 16 20 31
REMARK Flexibility Score: inf
ROOT
ATOM      1  O   UNL     1      17.155  53.748  21.849  1.00  0.00    -0.458 OA
ENDROOT
BRANCH   1   2
ATOM      2  C   UNL     1      16.383  52.542  21.869  1.00  0.00     0.339 C 
ATOM      3  C   UNL     1      16.562  52.208  19.546  1.00  0.00     0.199 C 
ATOM      4  C   UNL     1      17.428  50.937  19.694  1.00  0.00     0.180 C 
ATOM      5  O   UNL     1      15.678  52.358  20.648  1.00  0.00    -0.328 OA
ATOM      6  C   UNL     1      18.220  50.991  21.011  1.00  0.00     0.181 C 
ATOM      7  C   UNL     1      17.289  51.331  22.193  1.00  0.00     0.214 C 
BRANCH   3   8
ATOM      8  C   UNL     1      15.743  52.137  18.290  1.00  0.00     0.073 C 
ATOM      9  O   UNL     1      14.721  51.402  18.236  1.00  0.00    -0.547 OA
ATOM     10  O   UNL     1      16.138  52.849  17.163  1.00  0.00    -0.547 OA
ENDBRANCH   3   8
BRANCH   4  11
ATOM     11  O   UNL     1      18.332  50.829  18.621  1.00  0.00    -0.387 OA
ATOM     12  H   UNL     1      18.355  49.875  18.350  1.00  0.00     0.211 HD
ENDBRANCH   4  11
BRANCH   6  13
ATOM     13  O   UNL     1      19.241  51.954  20.908  1.00  0.00    -0.387 OA
ATOM     14  H   UNL     1      20.055  51.557  21.316  1.00  0.00     0.211 HD
ENDBRANCH   6  13
BRANCH   7  15
ATOM     15  O   UNL     1      16.525  50.209  22.565  1.00  0.00    -0.384 OA
ATOM     16  H   UNL     1      16.005  50.441  23.376  1.00  0.00     0.211 HD
ENDBRANCH   7  15
ENDBRANCH   1   2
BRANCH   1  17
ATOM     17  C   UNL     1      16.830  54.918  22.556  1.00  0.00     0.172 A 
ATOM     18  C   UNL     1      16.463  56.119  21.913  1.00  0.00     0.205 A 
ATOM     19  C   UNL     1      16.859  54.850  23.949  1.00  0.00     0.097 A 
ATOM     20  C   UNL     1      16.177  57.265  22.701  1.00  0.00     0.188 A 
ATOM     21  C   UNL     1      16.585  55.971  24.735  1.00  0.00     0.134 A 
ATOM     22  C   UNL     1      16.243  57.192  24.117  1.00  0.00     0.111 A 
ATOM     23  O   UNL     1      15.827  58.410  22.119  1.00  0.00    -0.452 OA
ATOM     24  C   UNL     1      15.945  58.357  24.855  1.00  0.00     0.197 A 
ATOM     25  C   UNL     1      15.518  59.518  22.787  1.00  0.00     0.138 A 
ATOM     26  C   UNL     1      15.580  59.522  24.185  1.00  0.00     0.100 A 
ATOM     27  O   UNL     1      16.000  58.372  26.114  1.00  0.00    -0.289 OA
BRANCH  18  28
ATOM     28  O   UNL     1      16.356  56.104  20.510  1.00  0.00    -0.490 OA
ATOM     29  C   UNL     1      17.375  55.762  19.578  1.00  0.00     0.278 C 
ENDBRANCH  18  28
BRANCH  21  30
ATOM     30  O   UNL     1      16.656  55.861  26.124  1.00  0.00    -0.507 OA
ATOM     31  H   UNL     1      16.995  55.021  26.578  1.00  0.00     0.293 HD
ENDBRANCH  21  30
BRANCH  25  32
ATOM     32  C   UNL     1      15.115  60.726  22.028  1.00  0.00     0.017 A 
ATOM     33  C   UNL     1      15.096  61.998  22.633  1.00  0.00     0.012 A 
ATOM     34  C   UNL     1      14.704  60.606  20.689  1.00  0.00     0.012 A 
ATOM     35  C   UNL     1      14.688  63.121  21.906  1.00  0.00     0.001 A 
ATOM     36  C   UNL     1      14.298  61.732  19.966  1.00  0.00     0.001 A 
ATOM     37  C   UNL     1      14.291  62.988  20.575  1.00  0.00     0.000 A 
ENDBRANCH  25  32
ENDBRANCH   1  17
TORSDOF 9
ENDMDL
MODEL 2
REMARK VINA RESULT:    64.190      1.253      2.921
REMARK INTER + INTRA:          89.496
REMARK INTER:                  81.495
REMARK INTRA:                   8.001
REMARK UNBOUND:                -0.962
REMARK SMILES COc1c(O[C@H]2O[C@H](C(=O)[O-])[C@@H](O)[C@@H](O)[C@@H]2O)cc(O)c2c(=O)cc(-c3ccccc3)oc12
REMARK SMILES IDX 5 1 6 2 8 3 12 4 7 5 14 6 16 7 9 8 10 9 11 10 13 11 15 13
REMARK SMILES IDX 17 15 4 17 3 18 18 19 33 20 19 21 21 22 32 23 22 24 25 25
REMARK SMILES IDX 24 26 23 27 2 28 1 29 20 30 26 32 27 33 31 34 28 35 30 36
REMARK SMILES IDX 29 37
REMARK H PARENT 13 12 15 14 17 16 20 31
REMARK Flexibility Score: inf
ROOT
ATOM      1  O   UNL     1      18.546  53.564  20.938  1.00  0.00    -0.458 OA
ENDROOT
BRANCH   1   2
ATOM      2  C   UNL     1      17.818  52.541  20.249  1.00  0.00     0.339 C 
ATOM      3  C   UNL     1      17.126  51.484  22.234  1.00  0.00     0.199 C 
ATOM      4  C   UNL     1      15.637  51.838  22.023  1.00  0.00     0.180 C 
ATOM      5  O   UNL     1      17.799  51.330  20.993  1.00  0.00    -0.328 OA
ATOM      6  C   UNL     1      15.515  53.122  21.186  1.00  0.00     0.181 C 
ATOM      7  C   UNL     1      16.389  53.030  19.917  1.00  0.00     0.214 C 
BRANCH   3   8
ATOM      8  C   UNL     1      17.252  50.201  23.003  1.00  0.00     0.073 C 
ATOM      9  O   UNL     1      16.240  49.679  23.542  1.00  0.00    -0.547 OA
ATOM     10  O   UNL     1      18.499  49.605  23.162  1.00  0.00    -0.547 OA
ENDBRANCH   3   8
BRANCH   4  11
ATOM     11  O   UNL     1      14.997  52.036  23.260  1.00  0.00    -0.387 OA
ATOM     12  H   UNL     1      15.522  51.548  23.945  1.00  0.00     0.211 HD
ENDBRANCH   4  11
BRANCH   6  13
ATOM     13  O   UNL     1      15.907  54.229  21.961  1.00  0.00    -0.387 OA
ATOM     14  H   UNL     1      16.489  54.793  21.387  1.00  0.00     0.211 HD
ENDBRANCH   6  13
BRANCH   7  15
ATOM     15  O   UNL     1      15.780  52.207  18.951  1.00  0.00    -0.384 OA
ATOM     16  H   UNL     1      16.358  51.414  18.809  1.00  0.00     0.211 HD
ENDBRANCH   7  15
ENDBRANCH   1   2
BRANCH   1  17
ATOM     17  C   UNL     1      17.967  54.535  21.771  1.00  0.00     0.172 A 
ATOM     18  C   UNL     1      17.413  55.733  21.274  1.00  0.00     0.205 A 
ATOM     19  C   UNL     1      17.933  54.264  23.139  1.00  0.00     0.097 A 
ATOM     20  C   UNL     1      16.871  56.676  22.186  1.00  0.00     0.188 A 
ATOM     21  C   UNL     1      17.409  55.185  24.048  1.00  0.00     0.134 A 
ATOM     22  C   UNL     1      16.873  56.403  23.579  1.00  0.00     0.111 A 
ATOM     23  O   UNL     1      16.341  57.813  21.741  1.00  0.00    -0.452 OA
ATOM     24  C   UNL     1      16.319  57.370  24.445  1.00  0.00     0.197 A 
ATOM     25  C   UNL     1      15.791  58.733  22.529  1.00  0.00     0.138 A 
ATOM     26  C   UNL     1      15.776  58.538  23.915  1.00  0.00     0.100 A 
ATOM     27  O   UNL     1      16.303  57.204  25.694  1.00  0.00    -0.289 OA
BRANCH  18  28
ATOM     28  O   UNL     1      17.386  55.911  19.878  1.00  0.00    -0.490 OA
ATOM     29  C   UNL     1      18.452  55.675  18.964  1.00  0.00     0.278 C 
ENDBRANCH  18  28
BRANCH  21  30
ATOM     30  O   UNL     1      17.424  54.881  25.410  1.00  0.00    -0.507 OA
ATOM     31  H   UNL     1      16.804  55.339  26.068  1.00  0.00     0.293 HD
ENDBRANCH  21  30
BRANCH  25  32
ATOM     32  C   UNL     1      15.206  59.949  21.915  1.00  0.00     0.017 A 
ATOM     33  C   UNL     1      14.748  59.948  20.583  1.00  0.00     0.012 A 
ATOM     34  C   UNL     1      15.139  61.143  22.655  1.00  0.00     0.012 A 
ATOM     35  C   UNL     1      14.223  61.114  20.015  1.00  0.00     0.001 A 
ATOM     36  C   UNL     1      14.612  62.305  22.083  1.00  0.00     0.001 A 
ATOM     37  C   UNL     1      14.155  62.290  20.764  1.00  0.00     0.000 A 
ENDBRANCH  25  32
ENDBRANCH   1  17
TORSDOF 9
ENDMDL
