MODEL 1
REMARK VINA RESULT:    -3.901      0.000      0.000
REMARK INTER + INTRA:          -3.901
REMARK INTER:                  -3.901
REMARK INTRA:                   0.000
REMARK UNBOUND:                 0.000
REMARK SMILES C=C1[C@@H]2CC[C@@H](C2)C1(C)C
REMARK SMILES IDX 9 1 8 2 6 3 5 4 4 5 3 6 7 7 2 8 1 9 10 10
REMARK H PARENT
REMARK Flexibility Score: inf
ROOT
ATOM      1  C   UNL     1       9.408  21.533  24.765  1.00  0.00     0.016 C 
ATOM      2  C   UNL     1       9.131  20.108  24.237  1.00  0.00    -0.012 C 
ATOM      3  C   UNL     1       8.598  20.142  22.761  1.00  0.00    -0.001 C 
ATOM      4  C   UNL     1       8.503  18.714  22.169  1.00  0.00     0.005 C 
ATOM      5  C   UNL     1       7.361  18.077  22.989  1.00  0.00     0.008 C 
ATOM      6  C   UNL     1       6.874  19.243  23.866  1.00  0.00     0.015 C 
ATOM      7  C   UNL     1       7.112  20.425  22.953  1.00  0.00     0.012 C 
ATOM      8  C   UNL     1       7.927  19.493  24.912  1.00  0.00    -0.068 C 
ATOM      9  C   UNL     1       7.822  19.168  26.206  1.00  0.00     0.008 C 
ATOM     10  C   UNL     1      10.399  19.245  24.425  1.00  0.00     0.016 C 
ENDROOT
TORSDOF 0
ENDMDL
MODEL 2
REMARK VINA RESULT:    -3.797     13.297     14.756
REMARK INTER + INTRA:          -3.797
REMARK INTER:                  -3.797
REMARK INTRA:                   0.000
REMARK UNBOUND:                 0.000
REMARK SMILES C=C1[C@@H]2CC[C@@H](C2)C1(C)C
REMARK SMILES IDX 9 1 8 2 6 3 5 4 4 5 3 6 7 7 2 8 1 9 10 10
REMARK H PARENT
REMARK Flexibility Score: inf
ROOT
ATOM      1  C   UNL     1      16.690  15.289  37.167  1.00  0.00     0.016 C 
ATOM      2  C   UNL     1      15.411  15.650  36.381  1.00  0.00    -0.012 C 
ATOM      3  C   UNL     1      14.979  17.135  36.649  1.00  0.00    -0.001 C 
ATOM      4  C   UNL     1      13.814  17.554  35.718  1.00  0.00     0.005 C 
ATOM      5  C   UNL     1      12.637  16.699  36.233  1.00  0.00     0.008 C 
ATOM      6  C   UNL     1      13.240  15.983  37.455  1.00  0.00     0.015 C 
ATOM      7  C   UNL     1      14.213  17.024  37.963  1.00  0.00     0.012 C 
ATOM      8  C   UNL     1      14.199  14.944  36.942  1.00  0.00    -0.068 C 
ATOM      9  C   UNL     1      13.977  13.624  36.939  1.00  0.00     0.008 C 
ATOM     10  C   UNL     1      15.628  15.321  34.886  1.00  0.00     0.016 C 
ENDROOT
TORSDOF 0
ENDMDL
MODEL 3
REMARK VINA RESULT:    -3.683      0.965      2.756
REMARK INTER + INTRA:          -3.683
REMARK INTER:                  -3.683
REMARK INTRA:                   0.000
REMARK UNBOUND:                 0.000
REMARK SMILES C=C1[C@@H]2CC[C@@H](C2)C1(C)C
REMARK SMILES IDX 9 1 8 2 6 3 5 4 4 5 3 6 7 7 2 8 1 9 10 10
REMARK H PARENT
REMARK Flexibility Score: inf
ROOT
ATOM      1  C   UNL     1       6.446  20.828  24.307  1.00  0.00     0.016 C 
ATOM      2  C   UNL     1       7.740  20.006  24.497  1.00  0.00    -0.012 C 
ATOM      3  C   UNL     1       9.011  20.925  24.444  1.00  0.00    -0.001 C 
ATOM      4  C   UNL     1      10.287  20.135  24.824  1.00  0.00     0.005 C 
ATOM      5  C   UNL     1      10.453  19.160  23.638  1.00  0.00     0.008 C 
ATOM      6  C   UNL     1       9.324  19.584  22.683  1.00  0.00     0.015 C 
ATOM      7  C   UNL     1       9.251  21.071  22.945  1.00  0.00     0.012 C 
ATOM      8  C   UNL     1       8.023  19.137  23.294  1.00  0.00    -0.068 C 
ATOM      9  C   UNL     1       7.284  18.107  22.866  1.00  0.00     0.008 C 
ATOM     10  C   UNL     1       7.622  19.173  25.794  1.00  0.00     0.016 C 
ENDROOT
TORSDOF 0
ENDMDL
MODEL 4
REMARK VINA RESULT:    -3.657     13.544     14.944
REMARK INTER + INTRA:          -3.657
REMARK INTER:                  -3.657
REMARK INTRA:                   0.000
REMARK UNBOUND:                 0.000
REMARK SMILES C=C1[C@@H]2CC[C@@H](C2)C1(C)C
REMARK SMILES IDX 9 1 8 2 6 3 5 4 4 5 3 6 7 7 2 8 1 9 10 10
REMARK H PARENT
REMARK Flexibility Score: inf
ROOT
ATOM      1  C   UNL     1      11.937  17.192  36.735  1.00  0.00     0.016 C 
ATOM      2  C   UNL     1      13.292  16.811  37.370  1.00  0.00    -0.012 C 
ATOM      3  C   UNL     1      14.484  17.517  36.635  1.00  0.00    -0.001 C 
ATOM      4  C   UNL     1      15.819  17.289  37.387  1.00  0.00     0.005 C 
ATOM      5  C   UNL     1      16.070  15.779  37.189  1.00  0.00     0.008 C 
ATOM      6  C   UNL     1      14.916  15.355  36.264  1.00  0.00     0.015 C 
ATOM      7  C   UNL     1      14.721  16.605  35.435  1.00  0.00     0.012 C 
ATOM      8  C   UNL     1      13.652  15.372  37.081  1.00  0.00    -0.068 C 
ATOM      9  C   UNL     1      13.001  14.287  37.518  1.00  0.00     0.008 C 
ATOM     10  C   UNL     1      13.235  17.096  38.888  1.00  0.00     0.016 C 
ENDROOT
TORSDOF 0
ENDMDL
MODEL 5
REMARK VINA RESULT:    -3.657      1.535      3.663
REMARK INTER + INTRA:          -3.657
REMARK INTER:                  -3.657
REMARK INTRA:                   0.000
REMARK UNBOUND:                 0.000
REMARK SMILES C=C1[C@@H]2CC[C@@H](C2)C1(C)C
REMARK SMILES IDX 9 1 8 2 6 3 5 4 4 5 3 6 7 7 2 8 1 9 10 10
REMARK H PARENT
REMARK Flexibility Score: inf
ROOT
ATOM      1  C   UNL     1       6.985  20.808  26.847  1.00  0.00     0.016 C 
ATOM      2  C   UNL     1       8.102  19.767  26.618  1.00  0.00    -0.012 C 
ATOM      3  C   UNL     1       9.486  20.294  27.136  1.00  0.00    -0.001 C 
ATOM      4  C   UNL     1      10.563  19.182  27.084  1.00  0.00     0.005 C 
ATOM      5  C   UNL     1      10.762  18.968  25.568  1.00  0.00     0.008 C 
ATOM      6  C   UNL     1       9.863  20.051  24.946  1.00  0.00     0.015 C 
ATOM      7  C   UNL     1       9.968  21.155  25.974  1.00  0.00     0.012 C 
ATOM      8  C   UNL     1       8.434  19.625  25.152  1.00  0.00    -0.068 C 
ATOM      9  C   UNL     1       7.626  19.151  24.196  1.00  0.00     0.008 C 
ATOM     10  C   UNL     1       7.671  18.420  27.243  1.00  0.00     0.016 C 
ENDROOT
TORSDOF 0
ENDMDL
MODEL 6
REMARK VINA RESULT:    -3.639      1.097      2.677
REMARK INTER + INTRA:          -3.639
REMARK INTER:                  -3.639
REMARK INTRA:                   0.000
REMARK UNBOUND:                 0.000
REMARK SMILES C=C1[C@@H]2CC[C@@H](C2)C1(C)C
REMARK SMILES IDX 9 1 8 2 6 3 5 4 4 5 3 6 7 7 2 8 1 9 10 10
REMARK H PARENT
REMARK Flexibility Score: inf
ROOT
ATOM      1  C   UNL     1      10.618  19.301  24.299  1.00  0.00     0.016 C 
ATOM      2  C   UNL     1       9.332  20.062  23.905  1.00  0.00    -0.012 C 
ATOM      3  C   UNL     1       8.544  20.542  25.175  1.00  0.00    -0.001 C 
ATOM      4  C   UNL     1       7.364  21.466  24.783  1.00  0.00     0.005 C 
ATOM      5  C   UNL     1       6.400  20.503  24.058  1.00  0.00     0.008 C 
ATOM      6  C   UNL     1       7.091  19.137  24.219  1.00  0.00     0.015 C 
ATOM      7  C   UNL     1       7.758  19.295  25.567  1.00  0.00     0.012 C 
ATOM      8  C   UNL     1       8.297  19.132  23.319  1.00  0.00    -0.068 C 
ATOM      9  C   UNL     1       8.398  18.456  22.168  1.00  0.00     0.008 C 
ATOM     10  C   UNL     1       9.701  21.202  22.929  1.00  0.00     0.016 C 
ENDROOT
TORSDOF 0
ENDMDL
MODEL 7
REMARK VINA RESULT:    -3.591     13.167     15.007
REMARK INTER + INTRA:          -3.591
REMARK INTER:                  -3.591
REMARK INTRA:                   0.000
REMARK UNBOUND:                 0.000
REMARK SMILES C=C1[C@@H]2CC[C@@H](C2)C1(C)C
REMARK SMILES IDX 9 1 8 2 6 3 5 4 4 5 3 6 7 7 2 8 1 9 10 10
REMARK H PARENT
REMARK Flexibility Score: inf
ROOT
ATOM      1  C   UNL     1      13.981  17.947  39.128  1.00  0.00     0.016 C 
ATOM      2  C   UNL     1      14.451  17.782  37.666  1.00  0.00    -0.012 C 
ATOM      3  C   UNL     1      13.398  16.988  36.816  1.00  0.00    -0.001 C 
ATOM      4  C   UNL     1      13.777  16.989  35.314  1.00  0.00     0.005 C 
ATOM      5  C   UNL     1      15.051  16.119  35.281  1.00  0.00     0.008 C 
ATOM      6  C   UNL     1      15.181  15.641  36.738  1.00  0.00     0.015 C 
ATOM      7  C   UNL     1      13.729  15.537  37.150  1.00  0.00     0.012 C 
ATOM      8  C   UNL     1      15.613  16.822  37.564  1.00  0.00    -0.068 C 
ATOM      9  C   UNL     1      16.840  17.003  38.068  1.00  0.00     0.008 C 
ATOM     10  C   UNL     1      14.802  19.173  37.090  1.00  0.00     0.016 C 
ENDROOT
TORSDOF 0
ENDMDL
MODEL 8
REMARK VINA RESULT:    -3.585      1.783      2.842
REMARK INTER + INTRA:          -3.585
REMARK INTER:                  -3.585
REMARK INTRA:                   0.000
REMARK UNBOUND:                 0.000
REMARK SMILES C=C1[C@@H]2CC[C@@H](C2)C1(C)C
REMARK SMILES IDX 9 1 8 2 6 3 5 4 4 5 3 6 7 7 2 8 1 9 10 10
REMARK H PARENT
REMARK Flexibility Score: inf
ROOT
ATOM      1  C   UNL     1      10.245  20.807  27.810  1.00  0.00     0.016 C 
ATOM      2  C   UNL     1      10.294  19.830  26.615  1.00  0.00    -0.012 C 
ATOM      3  C   UNL     1      11.093  20.443  25.411  1.00  0.00    -0.001 C 
ATOM      4  C   UNL     1      11.307  19.395  24.291  1.00  0.00     0.005 C 
ATOM      5  C   UNL     1       9.878  19.177  23.749  1.00  0.00     0.008 C 
ATOM      6  C   UNL     1       9.047  20.198  24.544  1.00  0.00     0.015 C 
ATOM      7  C   UNL     1      10.046  21.318  24.731  1.00  0.00     0.012 C 
ATOM      8  C   UNL     1       8.941  19.692  25.958  1.00  0.00    -0.068 C 
ATOM      9  C   UNL     1       7.842  19.161  26.507  1.00  0.00     0.008 C 
ATOM     10  C   UNL     1      10.839  18.467  27.100  1.00  0.00     0.016 C 
ENDROOT
TORSDOF 0
ENDMDL
MODEL 9
REMARK VINA RESULT:    -3.543      2.154      4.229
REMARK INTER + INTRA:          -3.543
REMARK INTER:                  -3.543
REMARK INTRA:                   0.000
REMARK UNBOUND:                 0.000
REMARK SMILES C=C1[C@@H]2CC[C@@H](C2)C1(C)C
REMARK SMILES IDX 9 1 8 2 6 3 5 4 4 5 3 6 7 7 2 8 1 9 10 10
REMARK H PARENT
REMARK Flexibility Score: inf
ROOT
ATOM      1  C   UNL     1      11.358  18.873  23.897  1.00  0.00     0.016 C 
ATOM      2  C   UNL     1      10.975  19.896  24.989  1.00  0.00    -0.012 C 
ATOM      3  C   UNL     1      11.806  19.666  26.300  1.00  0.00    -0.001 C 
ATOM      4  C   UNL     1      11.562  20.804  27.323  1.00  0.00     0.005 C 
ATOM      5  C   UNL     1      10.093  20.582  27.740  1.00  0.00     0.008 C 
ATOM      6  C   UNL     1       9.714  19.290  26.995  1.00  0.00     0.015 C 
ATOM      7  C   UNL     1      11.032  18.548  26.991  1.00  0.00     0.012 C 
ATOM      8  C   UNL     1       9.591  19.631  25.534  1.00  0.00    -0.068 C 
ATOM      9  C   UNL     1       8.439  19.733  24.860  1.00  0.00     0.008 C 
ATOM     10  C   UNL     1      11.101  21.324  24.409  1.00  0.00     0.016 C 
ENDROOT
TORSDOF 0
ENDMDL
