MODEL 1
REMARK VINA RESULT:    -5.183      0.000      0.000
REMARK INTER + INTRA:          -5.821
REMARK INTER:                  -5.486
REMARK INTRA:                  -0.335
REMARK UNBOUND:                -0.335
REMARK SMILES CC1=C[C@@H]2C(=C(C)CC[C@H]2C(C)C)CC1
REMARK SMILES IDX 1 1 2 2 3 3 4 4 10 5 9 6 8 7 6 8 5 9 14 10 15 11 7 12 11 13
REMARK SMILES IDX 12 14 13 15
REMARK H PARENT
REMARK Flexibility Score: inf
ROOT
ATOM      1  C   UNL     1      32.125  21.576  10.754  1.00  0.00     0.039 C 
ATOM      2  C   UNL     1      31.327  22.498  11.637  1.00  0.00    -0.076 C 
ATOM      3  C   UNL     1      31.348  23.827  11.383  1.00  0.00    -0.020 C 
ATOM      4  C   UNL     1      30.617  24.848  12.246  1.00  0.00     0.041 C 
ATOM      5  C   UNL     1      30.291  26.161  11.445  1.00  0.00     0.003 C 
ATOM      6  C   UNL     1      28.924  26.739  11.875  1.00  0.00     0.009 C 
ATOM      7  C   UNL     1      27.837  25.677  11.789  1.00  0.00     0.031 C 
ATOM      8  C   UNL     1      28.147  24.514  12.692  1.00  0.00    -0.073 C 
ATOM      9  C   UNL     1      29.438  24.149  12.908  1.00  0.00    -0.064 C 
ATOM     10  C   UNL     1      29.834  22.907  13.671  1.00  0.00     0.036 C 
ATOM     11  C   UNL     1      30.411  21.885  12.685  1.00  0.00     0.035 C 
ATOM     12  C   UNL     1      26.990  23.735  13.271  1.00  0.00     0.039 C 
ENDROOT
BRANCH   5  13
ATOM     13  C   UNL     1      31.418  27.246  11.601  1.00  0.00    -0.013 C 
ATOM     14  C   UNL     1      32.068  27.218  12.999  1.00  0.00     0.007 C 
ATOM     15  C   UNL     1      30.908  28.672  11.331  1.00  0.00     0.007 C 
ENDBRANCH   5  13
TORSDOF 1
ENDMDL
MODEL 2
REMARK VINA RESULT:    -5.181      1.353      4.447
REMARK INTER + INTRA:          -5.820
REMARK INTER:                  -5.518
REMARK INTRA:                  -0.302
REMARK UNBOUND:                -0.335
REMARK SMILES CC1=C[C@@H]2C(=C(C)CC[C@H]2C(C)C)CC1
REMARK SMILES IDX 1 1 2 2 3 3 4 4 10 5 9 6 8 7 6 8 5 9 14 10 15 11 7 12 11 13
REMARK SMILES IDX 12 14 13 15
REMARK H PARENT
REMARK Flexibility Score: inf
ROOT
ATOM      1  C   UNL     1      32.066  27.654  12.614  1.00  0.00     0.039 C 
ATOM      2  C   UNL     1      31.265  26.436  12.243  1.00  0.00    -0.076 C 
ATOM      3  C   UNL     1      31.521  25.266  12.876  1.00  0.00    -0.020 C 
ATOM      4  C   UNL     1      30.803  23.966  12.539  1.00  0.00     0.041 C 
ATOM      5  C   UNL     1      30.816  22.963  13.750  1.00  0.00     0.003 C 
ATOM      6  C   UNL     1      29.493  22.169  13.818  1.00  0.00     0.009 C 
ATOM      7  C   UNL     1      28.297  23.111  13.811  1.00  0.00     0.031 C 
ATOM      8  C   UNL     1      28.270  23.940  12.555  1.00  0.00    -0.073 C 
ATOM      9  C   UNL     1      29.436  24.316  11.967  1.00  0.00    -0.064 C 
ATOM     10  C   UNL     1      29.507  25.270  10.799  1.00  0.00     0.036 C 
ATOM     11  C   UNL     1      30.097  26.600  11.282  1.00  0.00     0.035 C 
ATOM     12  C   UNL     1      26.929  24.393  12.031  1.00  0.00     0.039 C 
ENDROOT
BRANCH   5  13
ATOM     13  C   UNL     1      32.042  21.980  13.690  1.00  0.00    -0.013 C 
ATOM     14  C   UNL     1      32.124  21.227  12.347  1.00  0.00     0.007 C 
ATOM     15  C   UNL     1      32.024  20.944  14.828  1.00  0.00     0.007 C 
ENDBRANCH   5  13
TORSDOF 1
ENDMDL
MODEL 3
REMARK VINA RESULT:    -5.039      1.658      5.533
REMARK INTER + INTRA:          -5.669
REMARK INTER:                  -5.397
REMARK INTRA:                  -0.272
REMARK UNBOUND:                -0.335
REMARK SMILES CC1=C[C@@H]2C(=C(C)CC[C@H]2C(C)C)CC1
REMARK SMILES IDX 1 1 2 2 3 3 4 4 10 5 9 6 8 7 6 8 5 9 14 10 15 11 7 12 11 13
REMARK SMILES IDX 12 14 13 15
REMARK H PARENT
REMARK Flexibility Score: inf
ROOT
ATOM      1  C   UNL     1      26.712  24.171  12.670  1.00  0.00     0.039 C 
ATOM      2  C   UNL     1      28.207  24.011  12.612  1.00  0.00    -0.076 C 
ATOM      3  C   UNL     1      28.759  22.855  13.049  1.00  0.00    -0.020 C 
ATOM      4  C   UNL     1      30.263  22.614  13.082  1.00  0.00     0.041 C 
ATOM      5  C   UNL     1      30.608  21.081  13.034  1.00  0.00     0.003 C 
ATOM      6  C   UNL     1      31.889  20.833  12.207  1.00  0.00     0.009 C 
ATOM      7  C   UNL     1      31.781  21.484  10.835  1.00  0.00     0.031 C 
ATOM      8  C   UNL     1      31.595  22.973  10.958  1.00  0.00    -0.073 C 
ATOM      9  C   UNL     1      30.904  23.484  12.010  1.00  0.00    -0.064 C 
ATOM     10  C   UNL     1      30.538  24.945  12.132  1.00  0.00     0.036 C 
ATOM     11  C   UNL     1      29.027  25.094  11.926  1.00  0.00     0.035 C 
ATOM     12  C   UNL     1      32.125  23.849   9.848  1.00  0.00     0.039 C 
ENDROOT
BRANCH   5  13
ATOM     13  C   UNL     1      30.757  20.462  14.472  1.00  0.00    -0.013 C 
ATOM     14  C   UNL     1      32.125  20.780  15.108  1.00  0.00     0.007 C 
ATOM     15  C   UNL     1      30.558  18.937  14.483  1.00  0.00     0.007 C 
ENDBRANCH   5  13
TORSDOF 1
ENDMDL
MODEL 4
REMARK VINA RESULT:    -4.596      1.010      4.226
REMARK INTER + INTRA:          -5.200
REMARK INTER:                  -5.026
REMARK INTRA:                  -0.174
REMARK UNBOUND:                -0.335
REMARK SMILES CC1=C[C@@H]2C(=C(C)CC[C@H]2C(C)C)CC1
REMARK SMILES IDX 1 1 2 2 3 3 4 4 10 5 9 6 8 7 6 8 5 9 14 10 15 11 7 12 11 13
REMARK SMILES IDX 12 14 13 15
REMARK H PARENT
REMARK Flexibility Score: inf
ROOT
ATOM      1  C   UNL     1      30.162  28.644  12.154  1.00  0.00     0.039 C 
ATOM      2  C   UNL     1      29.616  27.259  11.932  1.00  0.00    -0.076 C 
ATOM      3  C   UNL     1      30.481  26.221  11.844  1.00  0.00    -0.020 C 
ATOM      4  C   UNL     1      30.035  24.791  11.569  1.00  0.00     0.041 C 
ATOM      5  C   UNL     1      31.077  23.743  12.104  1.00  0.00     0.003 C 
ATOM      6  C   UNL     1      30.361  22.490  12.656  1.00  0.00     0.009 C 
ATOM      7  C   UNL     1      29.299  22.880  13.676  1.00  0.00     0.031 C 
ATOM      8  C   UNL     1      28.256  23.769  13.054  1.00  0.00    -0.073 C 
ATOM      9  C   UNL     1      28.605  24.638  12.070  1.00  0.00    -0.064 C 
ATOM     10  C   UNL     1      27.661  25.670  11.499  1.00  0.00     0.036 C 
ATOM     11  C   UNL     1      28.108  27.060  11.966  1.00  0.00     0.035 C 
ATOM     12  C   UNL     1      26.853  23.715  13.610  1.00  0.00     0.039 C 
ENDROOT
BRANCH   5  13
ATOM     13  C   UNL     1      32.124  23.335  11.005  1.00  0.00    -0.013 C 
ATOM     14  C   UNL     1      31.905  24.090   9.679  1.00  0.00     0.007 C 
ATOM     15  C   UNL     1      32.115  21.825  10.711  1.00  0.00     0.007 C 
ENDBRANCH   5  13
TORSDOF 1
ENDMDL
MODEL 5
REMARK VINA RESULT:    -4.237      1.400      5.359
REMARK INTER + INTRA:          -4.820
REMARK INTER:                  -4.585
REMARK INTRA:                  -0.235
REMARK UNBOUND:                -0.335
REMARK SMILES CC1=C[C@@H]2C(=C(C)CC[C@H]2C(C)C)CC1
REMARK SMILES IDX 1 1 2 2 3 3 4 4 10 5 9 6 8 7 6 8 5 9 14 10 15 11 7 12 11 13
REMARK SMILES IDX 12 14 13 15
REMARK H PARENT
REMARK Flexibility Score: inf
ROOT
ATOM      1  C   UNL     1      26.607  28.625  11.609  1.00  0.00     0.039 C 
ATOM      2  C   UNL     1      27.987  28.038  11.730  1.00  0.00    -0.076 C 
ATOM      3  C   UNL     1      28.117  26.731  12.056  1.00  0.00    -0.020 C 
ATOM      4  C   UNL     1      29.467  26.054  12.253  1.00  0.00     0.041 C 
ATOM      5  C   UNL     1      29.381  24.502  12.019  1.00  0.00     0.003 C 
ATOM      6  C   UNL     1      30.667  23.978  11.344  1.00  0.00     0.009 C 
ATOM      7  C   UNL     1      30.981  24.775  10.085  1.00  0.00     0.031 C 
ATOM      8  C   UNL     1      31.192  26.230  10.406  1.00  0.00    -0.073 C 
ATOM      9  C   UNL     1      30.497  26.806  11.422  1.00  0.00    -0.064 C 
ATOM     10  C   UNL     1      30.531  28.288  11.714  1.00  0.00     0.036 C 
ATOM     11  C   UNL     1      29.178  28.898  11.333  1.00  0.00     0.035 C 
ATOM     12  C   UNL     1      32.125  27.024   9.525  1.00  0.00     0.039 C 
ENDROOT
BRANCH   5  13
ATOM     13  C   UNL     1      29.104  23.717  13.353  1.00  0.00    -0.013 C 
ATOM     14  C   UNL     1      29.865  22.378  13.413  1.00  0.00     0.007 C 
ATOM     15  C   UNL     1      27.607  23.436  13.572  1.00  0.00     0.007 C 
ENDBRANCH   5  13
TORSDOF 1
ENDMDL
MODEL 6
REMARK VINA RESULT:    -3.948      1.237      3.855
REMARK INTER + INTRA:          -4.515
REMARK INTER:                  -4.266
REMARK INTRA:                  -0.249
REMARK UNBOUND:                -0.335
REMARK SMILES CC1=C[C@@H]2C(=C(C)CC[C@H]2C(C)C)CC1
REMARK SMILES IDX 1 1 2 2 3 3 4 4 10 5 9 6 8 7 6 8 5 9 14 10 15 11 7 12 11 13
REMARK SMILES IDX 12 14 13 15
REMARK H PARENT
REMARK Flexibility Score: inf
ROOT
ATOM      1  C   UNL     1      31.790  21.153  13.889  1.00  0.00     0.039 C 
ATOM      2  C   UNL     1      31.270  22.059  12.806  1.00  0.00    -0.076 C 
ATOM      3  C   UNL     1      30.130  22.756  13.027  1.00  0.00    -0.020 C 
ATOM      4  C   UNL     1      29.493  23.659  11.979  1.00  0.00     0.041 C 
ATOM      5  C   UNL     1      28.595  24.770  12.635  1.00  0.00     0.003 C 
ATOM      6  C   UNL     1      28.697  26.094  11.845  1.00  0.00     0.009 C 
ATOM      7  C   UNL     1      30.151  26.504  11.663  1.00  0.00     0.031 C 
ATOM      8  C   UNL     1      30.916  25.456  10.900  1.00  0.00    -0.073 C 
ATOM      9  C   UNL     1      30.592  24.144  11.043  1.00  0.00    -0.064 C 
ATOM     10  C   UNL     1      31.400  23.019  10.440  1.00  0.00     0.036 C 
ATOM     11  C   UNL     1      32.125  22.273  11.566  1.00  0.00     0.035 C 
ATOM     12  C   UNL     1      32.082  25.903  10.053  1.00  0.00     0.039 C 
ENDROOT
BRANCH   5  13
ATOM     13  C   UNL     1      27.094  24.320  12.760  1.00  0.00    -0.013 C 
ATOM     14  C   UNL     1      26.862  23.381  13.960  1.00  0.00     0.007 C 
ATOM     15  C   UNL     1      26.579  23.621  11.490  1.00  0.00     0.007 C 
ENDBRANCH   5  13
TORSDOF 1
ENDMDL
MODEL 7
REMARK VINA RESULT:    -3.824      1.335      3.369
REMARK INTER + INTRA:          -4.383
REMARK INTER:                  -4.111
REMARK INTRA:                  -0.272
REMARK UNBOUND:                -0.335
REMARK SMILES CC1=C[C@@H]2C(=C(C)CC[C@H]2C(C)C)CC1
REMARK SMILES IDX 1 1 2 2 3 3 4 4 10 5 9 6 8 7 6 8 5 9 14 10 15 11 7 12 11 13
REMARK SMILES IDX 12 14 13 15
REMARK H PARENT
REMARK Flexibility Score: inf
ROOT
ATOM      1  C   UNL     1      26.502  24.593  11.926  1.00  0.00     0.039 C 
ATOM      2  C   UNL     1      28.006  24.606  11.866  1.00  0.00    -0.076 C 
ATOM      3  C   UNL     1      28.641  25.778  11.629  1.00  0.00    -0.020 C 
ATOM      4  C   UNL     1      30.155  25.890  11.498  1.00  0.00     0.041 C 
ATOM      5  C   UNL     1      30.663  27.339  11.833  1.00  0.00     0.003 C 
ATOM      6  C   UNL     1      32.025  27.287  12.561  1.00  0.00     0.009 C 
ATOM      7  C   UNL     1      31.957  26.362  13.769  1.00  0.00     0.031 C 
ATOM      8  C   UNL     1      31.605  24.959  13.354  1.00  0.00    -0.073 C 
ATOM      9  C   UNL     1      30.782  24.753  12.292  1.00  0.00    -0.064 C 
ATOM     10  C   UNL     1      30.255  23.392  11.902  1.00  0.00     0.036 C 
ATOM     11  C   UNL     1      28.758  23.333  12.222  1.00  0.00     0.035 C 
ATOM     12  C   UNL     1      32.125  23.818  14.195  1.00  0.00     0.039 C 
ENDROOT
BRANCH   5  13
ATOM     13  C   UNL     1      30.762  28.243  10.551  1.00  0.00    -0.013 C 
ATOM     14  C   UNL     1      32.018  27.934   9.711  1.00  0.00     0.007 C 
ATOM     15  C   UNL     1      30.759  29.745  10.885  1.00  0.00     0.007 C 
ENDBRANCH   5  13
TORSDOF 1
ENDMDL
MODEL 8
REMARK VINA RESULT:    -3.480      1.456      4.447
REMARK INTER + INTRA:          -4.019
REMARK INTER:                  -3.683
REMARK INTRA:                  -0.337
REMARK UNBOUND:                -0.335
REMARK SMILES CC1=C[C@@H]2C(=C(C)CC[C@H]2C(C)C)CC1
REMARK SMILES IDX 1 1 2 2 3 3 4 4 10 5 9 6 8 7 6 8 5 9 14 10 15 11 7 12 11 13
REMARK SMILES IDX 12 14 13 15
REMARK H PARENT
REMARK Flexibility Score: inf
ROOT
ATOM      1  C   UNL     1      26.129  23.296  11.751  1.00  0.00     0.039 C 
ATOM      2  C   UNL     1      27.342  24.168  11.928  1.00  0.00    -0.076 C 
ATOM      3  C   UNL     1      28.563  23.586  11.989  1.00  0.00    -0.020 C 
ATOM      4  C   UNL     1      29.847  24.373  12.217  1.00  0.00     0.041 C 
ATOM      5  C   UNL     1      31.104  23.613  11.655  1.00  0.00     0.003 C 
ATOM      6  C   UNL     1      32.125  24.608  11.061  1.00  0.00     0.009 C 
ATOM      7  C   UNL     1      31.457  25.528  10.048  1.00  0.00     0.031 C 
ATOM      8  C   UNL     1      30.357  26.329  10.691  1.00  0.00    -0.073 C 
ATOM      9  C   UNL     1      29.629  25.789  11.704  1.00  0.00    -0.064 C 
ATOM     10  C   UNL     1      28.414  26.458  12.301  1.00  0.00     0.036 C 
ATOM     11  C   UNL     1      27.164  25.678  11.880  1.00  0.00     0.035 C 
ATOM     12  C   UNL     1      30.049  27.694  10.126  1.00  0.00     0.039 C 
ENDROOT
BRANCH   5  13
ATOM     13  C   UNL     1      31.788  22.712  12.748  1.00  0.00    -0.013 C 
ATOM     14  C   UNL     1      31.351  21.237  12.648  1.00  0.00     0.007 C 
ATOM     15  C   UNL     1      31.510  23.205  14.178  1.00  0.00     0.007 C 
ENDBRANCH   5  13
TORSDOF 1
ENDMDL
MODEL 9
REMARK VINA RESULT:    -2.748      1.678      3.928
REMARK INTER + INTRA:          -3.244
REMARK INTER:                  -3.150
REMARK INTRA:                  -0.094
REMARK UNBOUND:                -0.335
REMARK SMILES CC1=C[C@@H]2C(=C(C)CC[C@H]2C(C)C)CC1
REMARK SMILES IDX 1 1 2 2 3 3 4 4 10 5 9 6 8 7 6 8 5 9 14 10 15 11 7 12 11 13
REMARK SMILES IDX 12 14 13 15
REMARK H PARENT
REMARK Flexibility Score: inf
ROOT
ATOM      1  C   UNL     1      27.140  28.043  11.843  1.00  0.00     0.039 C 
ATOM      2  C   UNL     1      27.734  26.661  11.827  1.00  0.00    -0.076 C 
ATOM      3  C   UNL     1      29.055  26.519  11.566  1.00  0.00    -0.020 C 
ATOM      4  C   UNL     1      29.742  25.162  11.476  1.00  0.00     0.041 C 
ATOM      5  C   UNL     1      31.282  25.269  11.773  1.00  0.00     0.003 C 
ATOM      6  C   UNL     1      31.779  24.025  12.543  1.00  0.00     0.009 C 
ATOM      7  C   UNL     1      30.927  23.780  13.781  1.00  0.00     0.031 C 
ATOM      8  C   UNL     1      29.488  23.544  13.408  1.00  0.00    -0.073 C 
ATOM      9  C   UNL     1      28.956  24.178  12.331  1.00  0.00    -0.064 C 
ATOM     10  C   UNL     1      27.489  24.121  11.975  1.00  0.00     0.036 C 
ATOM     11  C   UNL     1      26.860  25.490  12.252  1.00  0.00     0.035 C 
ATOM     12  C   UNL     1      28.658  22.659  14.305  1.00  0.00     0.039 C 
ENDROOT
BRANCH   5  13
ATOM     13  C   UNL     1      32.125  25.474  10.462  1.00  0.00    -0.013 C 
ATOM     14  C   UNL     1      31.734  26.761   9.710  1.00  0.00     0.007 C 
ATOM     15  C   UNL     1      32.004  24.287   9.490  1.00  0.00     0.007 C 
ENDBRANCH   5  13
TORSDOF 1
ENDMDL
