MODEL 1
REMARK VINA RESULT:    -5.576      0.000      0.000
REMARK INTER + INTRA:          -6.809
REMARK INTER:                  -6.716
REMARK INTRA:                  -0.093
REMARK UNBOUND:                -0.093
REMARK SMILES OCCc1ccc(O)c(O)c1
REMARK SMILES IDX 3 1 4 2 5 3 6 4 7 5 11 6 9 7 8 8 10 10 2 12 1 13
REMARK H PARENT 8 9 10 11 1 14
REMARK Flexibility Score: inf
ROOT
ATOM      1  C   UNL     1       6.308   5.810   9.403  1.00  0.00     0.064 C 
ENDROOT
BRANCH   1   2
ATOM      2  C   UNL     1       6.907   4.583  10.042  1.00  0.00    -0.042 A 
ATOM      3  C   UNL     1       7.811   4.711  11.108  1.00  0.00     0.008 A 
ATOM      4  C   UNL     1       8.388   3.577  11.683  1.00  0.00     0.050 A 
ATOM      5  C   UNL     1       8.078   2.302  11.198  1.00  0.00     0.157 A 
ATOM      6  C   UNL     1       6.605   3.304   9.547  1.00  0.00     0.054 A 
ATOM      7  C   UNL     1       7.184   2.163  10.123  1.00  0.00     0.157 A 
BRANCH   5   8
ATOM      8  O   UNL     1       8.669   1.189  11.792  1.00  0.00    -0.504 OA
ATOM      9  H   UNL     1       8.296   0.766  12.634  1.00  0.00     0.293 HD
ENDBRANCH   5   8
BRANCH   7  10
ATOM     10  O   UNL     1       6.875   0.897   9.631  1.00  0.00    -0.504 OA
ATOM     11  H   UNL     1       6.448   0.771   8.719  1.00  0.00     0.293 HD
ENDBRANCH   7  10
ENDBRANCH   1   2
BRANCH   1  12
ATOM     12  C   UNL     1       6.291   6.989  10.376  1.00  0.00     0.161 C 
BRANCH  12  13
ATOM     13  O   UNL     1       7.039   8.054   9.855  1.00  0.00    -0.396 OA
ATOM     14  H   UNL     1       6.844   8.075   8.882  1.00  0.00     0.210 HD
ENDBRANCH  12  13
ENDBRANCH   1  12
TORSDOF 5
ENDMDL
MODEL 2
REMARK VINA RESULT:    -5.151      1.296      4.526
REMARK INTER + INTRA:          -6.297
REMARK INTER:                  -6.313
REMARK INTRA:                   0.016
REMARK UNBOUND:                -0.093
REMARK SMILES OCCc1ccc(O)c(O)c1
REMARK SMILES IDX 3 1 4 2 5 3 6 4 7 5 11 6 9 7 8 8 10 10 2 12 1 13
REMARK H PARENT 8 9 10 11 1 14
REMARK Flexibility Score: inf
ROOT
ATOM      1  C   UNL     1       7.607   1.846  10.331  1.00  0.00     0.064 C 
ENDROOT
BRANCH   1   2
ATOM      2  C   UNL     1       7.589   3.348  10.466  1.00  0.00    -0.042 A 
ATOM      3  C   UNL     1       8.379   3.979  11.439  1.00  0.00     0.008 A 
ATOM      4  C   UNL     1       8.343   5.368  11.584  1.00  0.00     0.050 A 
ATOM      5  C   UNL     1       7.513   6.143  10.767  1.00  0.00     0.157 A 
ATOM      6  C   UNL     1       6.748   4.124   9.653  1.00  0.00     0.054 A 
ATOM      7  C   UNL     1       6.709   5.519   9.798  1.00  0.00     0.157 A 
BRANCH   5   8
ATOM      8  O   UNL     1       7.499   7.526  10.935  1.00  0.00    -0.504 OA
ATOM      9  H   UNL     1       6.675   8.020  11.258  1.00  0.00     0.293 HD
ENDBRANCH   5   8
BRANCH   7  10
ATOM     10  O   UNL     1       5.876   6.285   8.984  1.00  0.00    -0.504 OA
ATOM     11  H   UNL     1       5.947   6.255   7.973  1.00  0.00     0.293 HD
ENDBRANCH   7  10
ENDBRANCH   1   2
BRANCH   1  12
ATOM     12  C   UNL     1       8.885   1.252  10.924  1.00  0.00     0.161 C 
BRANCH  12  13
ATOM     13  O   UNL     1       8.653   0.829  12.240  1.00  0.00    -0.396 OA
ATOM     14  H   UNL     1       8.483  -0.147  12.188  1.00  0.00     0.210 HD
ENDBRANCH  12  13
ENDBRANCH   1  12
TORSDOF 5
ENDMDL
MODEL 3
REMARK VINA RESULT:    -5.105      2.074      5.108
REMARK INTER + INTRA:          -6.242
REMARK INTER:                  -6.191
REMARK INTRA:                  -0.052
REMARK UNBOUND:                -0.093
REMARK SMILES OCCc1ccc(O)c(O)c1
REMARK SMILES IDX 3 1 4 2 5 3 6 4 7 5 11 6 9 7 8 8 10 10 2 12 1 13
REMARK H PARENT 8 9 10 11 1 14
REMARK Flexibility Score: inf
ROOT
ATOM      1  C   UNL     1       8.747   1.005  11.953  1.00  0.00     0.064 C 
ENDROOT
BRANCH   1   2
ATOM      2  C   UNL     1       8.186   2.177  11.189  1.00  0.00    -0.042 A 
ATOM      3  C   UNL     1       7.356   1.964  10.078  1.00  0.00     0.008 A 
ATOM      4  C   UNL     1       6.858   3.050   9.352  1.00  0.00     0.050 A 
ATOM      5  C   UNL     1       7.189   4.358   9.720  1.00  0.00     0.157 A 
ATOM      6  C   UNL     1       8.527   3.490  11.552  1.00  0.00     0.054 A 
ATOM      7  C   UNL     1       8.029   4.581  10.824  1.00  0.00     0.157 A 
BRANCH   5   8
ATOM      8  O   UNL     1       6.677   5.420   8.977  1.00  0.00    -0.504 OA
ATOM      9  H   UNL     1       6.070   5.275   8.179  1.00  0.00     0.293 HD
ENDBRANCH   5   8
BRANCH   7  10
ATOM     10  O   UNL     1       8.367   5.882  11.192  1.00  0.00    -0.504 OA
ATOM     11  H   UNL     1       7.760   6.442  11.782  1.00  0.00     0.293 HD
ENDBRANCH   7  10
ENDBRANCH   1   2
BRANCH   1  12
ATOM     12  C   UNL     1      10.062   0.521  11.341  1.00  0.00     0.161 C 
BRANCH  12  13
ATOM     13  O   UNL     1      10.830  -0.139  12.309  1.00  0.00    -0.396 OA
ATOM     14  H   UNL     1      11.157  -0.972  11.879  1.00  0.00     0.210 HD
ENDBRANCH  12  13
ENDBRANCH   1  12
TORSDOF 5
ENDMDL
MODEL 4
REMARK VINA RESULT:    -4.544      9.075     11.606
REMARK INTER + INTRA:          -5.566
REMARK INTER:                  -5.514
REMARK INTRA:                  -0.052
REMARK UNBOUND:                -0.093
REMARK SMILES OCCc1ccc(O)c(O)c1
REMARK SMILES IDX 3 1 4 2 5 3 6 4 7 5 11 6 9 7 8 8 10 10 2 12 1 13
REMARK H PARENT 8 9 10 11 1 14
REMARK Flexibility Score: inf
ROOT
ATOM      1  C   UNL     1       8.235  -5.019  19.364  1.00  0.00     0.064 C 
ENDROOT
BRANCH   1   2
ATOM      2  C   UNL     1       8.868  -4.004  18.447  1.00  0.00    -0.042 A 
ATOM      3  C   UNL     1      10.141  -3.489  18.735  1.00  0.00     0.008 A 
ATOM      4  C   UNL     1      10.718  -2.528  17.901  1.00  0.00     0.050 A 
ATOM      5  C   UNL     1      10.030  -2.063  16.776  1.00  0.00     0.157 A 
ATOM      6  C   UNL     1       8.172  -3.529  17.324  1.00  0.00     0.054 A 
ATOM      7  C   UNL     1       8.749  -2.564  16.485  1.00  0.00     0.157 A 
BRANCH   5   8
ATOM      8  O   UNL     1      10.631  -1.105  15.962  1.00  0.00    -0.504 OA
ATOM      9  H   UNL     1      10.110  -0.588  15.264  1.00  0.00     0.293 HD
ENDBRANCH   5   8
BRANCH   7  10
ATOM     10  O   UNL     1       8.055  -2.101  15.369  1.00  0.00    -0.504 OA
ATOM     11  H   UNL     1       8.530  -1.890  14.497  1.00  0.00     0.293 HD
ENDBRANCH   7  10
ENDBRANCH   1   2
BRANCH   1  12
ATOM     12  C   UNL     1       9.005  -6.339  19.346  1.00  0.00     0.161 C 
BRANCH  12  13
ATOM     13  O   UNL     1       8.155  -7.398  19.697  1.00  0.00    -0.396 OA
ATOM     14  H   UNL     1       8.327  -8.117  19.035  1.00  0.00     0.210 HD
ENDBRANCH  12  13
ENDBRANCH   1  12
TORSDOF 5
ENDMDL
MODEL 5
REMARK VINA RESULT:    -4.531      1.010      2.141
REMARK INTER + INTRA:          -5.551
REMARK INTER:                  -5.483
REMARK INTRA:                  -0.068
REMARK UNBOUND:                -0.093
REMARK SMILES OCCc1ccc(O)c(O)c1
REMARK SMILES IDX 3 1 4 2 5 3 6 4 7 5 11 6 9 7 8 8 10 10 2 12 1 13
REMARK H PARENT 8 9 10 11 1 14
REMARK Flexibility Score: inf
ROOT
ATOM      1  C   UNL     1       6.836   6.588  10.568  1.00  0.00     0.064 C 
ENDROOT
BRANCH   1   2
ATOM      2  C   UNL     1       7.059   5.106  10.410  1.00  0.00    -0.042 A 
ATOM      3  C   UNL     1       6.410   4.399   9.386  1.00  0.00     0.008 A 
ATOM      4  C   UNL     1       6.593   3.021   9.255  1.00  0.00     0.050 A 
ATOM      5  C   UNL     1       7.418   2.329  10.149  1.00  0.00     0.157 A 
ATOM      6  C   UNL     1       7.877   4.410  11.314  1.00  0.00     0.054 A 
ATOM      7  C   UNL     1       8.062   3.025  11.185  1.00  0.00     0.157 A 
BRANCH   5   8
ATOM      8  O   UNL     1       7.582   0.954   9.992  1.00  0.00    -0.504 OA
ATOM      9  H   UNL     1       7.879   0.543   9.115  1.00  0.00     0.293 HD
ENDBRANCH   5   8
BRANCH   7  10
ATOM     10  O   UNL     1       8.880   2.341  12.082  1.00  0.00    -0.504 OA
ATOM     11  H   UNL     1       9.229   1.410  11.880  1.00  0.00     0.293 HD
ENDBRANCH   7  10
ENDBRANCH   1   2
BRANCH   1  12
ATOM     12  C   UNL     1       7.954   7.232  11.389  1.00  0.00     0.161 C 
BRANCH  12  13
ATOM     13  O   UNL     1       8.235   8.515  10.898  1.00  0.00    -0.396 OA
ATOM     14  H   UNL     1       8.441   8.399   9.934  1.00  0.00     0.210 HD
ENDBRANCH  12  13
ENDBRANCH   1  12
TORSDOF 5
ENDMDL
MODEL 6
REMARK VINA RESULT:    -4.389      1.311      4.749
REMARK INTER + INTRA:          -5.380
REMARK INTER:                  -5.300
REMARK INTRA:                  -0.080
REMARK UNBOUND:                -0.093
REMARK SMILES OCCc1ccc(O)c(O)c1
REMARK SMILES IDX 3 1 4 2 5 3 6 4 7 5 11 6 9 7 8 8 10 10 2 12 1 13
REMARK H PARENT 8 9 10 11 1 14
REMARK Flexibility Score: inf
ROOT
ATOM      1  C   UNL     1       6.602   2.901   9.299  1.00  0.00     0.064 C 
ENDROOT
BRANCH   1   2
ATOM      2  C   UNL     1       6.755   4.309   9.814  1.00  0.00    -0.042 A 
ATOM      3  C   UNL     1       5.986   5.349   9.269  1.00  0.00     0.008 A 
ATOM      4  C   UNL     1       6.147   6.659   9.727  1.00  0.00     0.050 A 
ATOM      5  C   UNL     1       7.081   6.949  10.727  1.00  0.00     0.157 A 
ATOM      6  C   UNL     1       7.700   4.602  10.810  1.00  0.00     0.054 A 
ATOM      7  C   UNL     1       7.864   5.918  11.271  1.00  0.00     0.157 A 
BRANCH   5   8
ATOM      8  O   UNL     1       7.218   8.266  11.163  1.00  0.00    -0.504 OA
ATOM      9  H   UNL     1       6.600   9.004  10.849  1.00  0.00     0.293 HD
ENDBRANCH   5   8
BRANCH   7  10
ATOM     10  O   UNL     1       8.800   6.201  12.263  1.00  0.00    -0.504 OA
ATOM     11  H   UNL     1       9.793   6.250  12.059  1.00  0.00     0.293 HD
ENDBRANCH   7  10
ENDBRANCH   1   2
BRANCH   1  12
ATOM     12  C   UNL     1       7.323   1.899  10.200  1.00  0.00     0.161 C 
BRANCH  12  13
ATOM     13  O   UNL     1       6.445   0.876  10.582  1.00  0.00    -0.396 OA
ATOM     14  H   UNL     1       6.694   0.635  11.512  1.00  0.00     0.210 HD
ENDBRANCH  12  13
ENDBRANCH   1  12
TORSDOF 5
ENDMDL
MODEL 7
REMARK VINA RESULT:    -4.361      8.899     11.659
REMARK INTER + INTRA:          -5.346
REMARK INTER:                  -5.290
REMARK INTRA:                  -0.057
REMARK UNBOUND:                -0.093
REMARK SMILES OCCc1ccc(O)c(O)c1
REMARK SMILES IDX 3 1 4 2 5 3 6 4 7 5 11 6 9 7 8 8 10 10 2 12 1 13
REMARK H PARENT 8 9 10 11 1 14
REMARK Flexibility Score: inf
ROOT
ATOM      1  C   UNL     1       8.331  -4.836  19.282  1.00  0.00     0.064 C 
ENDROOT
BRANCH   1   2
ATOM      2  C   UNL     1       8.867  -3.836  18.290  1.00  0.00    -0.042 A 
ATOM      3  C   UNL     1       8.046  -3.356  17.258  1.00  0.00     0.008 A 
ATOM      4  C   UNL     1       8.549  -2.450  16.321  1.00  0.00     0.050 A 
ATOM      5  C   UNL     1       9.877  -2.018  16.397  1.00  0.00     0.157 A 
ATOM      6  C   UNL     1      10.203  -3.412  18.359  1.00  0.00     0.054 A 
ATOM      7  C   UNL     1      10.711  -2.503  17.419  1.00  0.00     0.157 A 
BRANCH   5   8
ATOM      8  O   UNL     1      10.351  -1.113  15.448  1.00  0.00    -0.504 OA
ATOM      9  H   UNL     1      10.202  -1.248  14.455  1.00  0.00     0.293 HD
ENDBRANCH   5   8
BRANCH   7  10
ATOM     10  O   UNL     1      12.037  -2.082  17.497  1.00  0.00    -0.504 OA
ATOM     11  H   UNL     1      12.723  -2.585  18.049  1.00  0.00     0.293 HD
ENDBRANCH   7  10
ENDBRANCH   1   2
BRANCH   1  12
ATOM     12  C   UNL     1       9.200  -6.093  19.326  1.00  0.00     0.161 C 
BRANCH  12  13
ATOM     13  O   UNL     1       8.391  -7.238  19.360  1.00  0.00    -0.396 OA
ATOM     14  H   UNL     1       8.793  -7.837  20.041  1.00  0.00     0.210 HD
ENDBRANCH  12  13
ENDBRANCH   1  12
TORSDOF 5
ENDMDL
MODEL 8
REMARK VINA RESULT:    -4.341      8.141     10.202
REMARK INTER + INTRA:          -5.322
REMARK INTER:                  -5.222
REMARK INTRA:                  -0.100
REMARK UNBOUND:                -0.093
REMARK SMILES OCCc1ccc(O)c(O)c1
REMARK SMILES IDX 3 1 4 2 5 3 6 4 7 5 11 6 9 7 8 8 10 10 2 12 1 13
REMARK H PARENT 8 9 10 11 1 14
REMARK Flexibility Score: inf
ROOT
ATOM      1  C   UNL     1      12.050  -1.558  18.104  1.00  0.00     0.064 C 
ENDROOT
BRANCH   1   2
ATOM      2  C   UNL     1      10.749  -1.988  17.477  1.00  0.00    -0.042 A 
ATOM      3  C   UNL     1       9.937  -2.938  18.115  1.00  0.00     0.008 A 
ATOM      4  C   UNL     1       8.744  -3.358  17.521  1.00  0.00     0.050 A 
ATOM      5  C   UNL     1       8.351  -2.842  16.282  1.00  0.00     0.157 A 
ATOM      6  C   UNL     1      10.360  -1.478  16.227  1.00  0.00     0.054 A 
ATOM      7  C   UNL     1       9.163  -1.900  15.629  1.00  0.00     0.157 A 
BRANCH   5   8
ATOM      8  O   UNL     1       7.155  -3.280  15.715  1.00  0.00    -0.504 OA
ATOM      9  H   UNL     1       6.521  -3.899  16.206  1.00  0.00     0.293 HD
ENDBRANCH   5   8
BRANCH   7  10
ATOM     10  O   UNL     1       8.780  -1.386  14.391  1.00  0.00    -0.504 OA
ATOM     11  H   UNL     1       8.236  -1.934  13.734  1.00  0.00     0.293 HD
ENDBRANCH   7  10
ENDBRANCH   1   2
BRANCH   1  12
ATOM     12  C   UNL     1      13.001  -2.742  18.275  1.00  0.00     0.161 C 
BRANCH  12  13
ATOM     13  O   UNL     1      13.737  -2.943  17.099  1.00  0.00    -0.396 OA
ATOM     14  H   UNL     1      13.070  -3.112  16.384  1.00  0.00     0.210 HD
ENDBRANCH  12  13
ENDBRANCH   1  12
TORSDOF 5
ENDMDL
