MODEL 1
REMARK VINA RESULT:    -4.060      0.000      0.000
REMARK INTER + INTRA:          -4.843
REMARK INTER:                  -4.772
REMARK INTRA:                  -0.070
REMARK UNBOUND:                -0.070
REMARK SMILES O=C([O-])CCC(=O)[O-]
REMARK SMILES IDX 4 1 2 2 1 3 3 4 5 5 6 6 7 7 8 8
REMARK H PARENT
REMARK Flexibility Score: inf
ROOT
ATOM      1  C   UNL     1     -16.255  -0.523  -0.079  1.00  0.00     0.059 C 
ENDROOT
BRANCH   1   2
ATOM      2  C   UNL     1     -16.702   0.514  -1.060  1.00  0.00     0.042 C 
ATOM      3  O   UNL     1     -16.671   1.735  -0.749  1.00  0.00    -0.550 OA
ATOM      4  O   UNL     1     -17.106   0.139  -2.334  1.00  0.00    -0.550 OA
ENDBRANCH   1   2
BRANCH   1   5
ATOM      5  C   UNL     1     -16.886  -0.273   1.291  1.00  0.00     0.059 C 
BRANCH   5   6
ATOM      6  C   UNL     1     -15.880  -0.487   2.378  1.00  0.00     0.042 C 
ATOM      7  O   UNL     1     -16.258  -0.774   3.544  1.00  0.00    -0.550 OA
ATOM      8  O   UNL     1     -14.527  -0.322   2.114  1.00  0.00    -0.550 OA
ENDBRANCH   5   6
ENDBRANCH   1   5
TORSDOF 3
ENDMDL
MODEL 2
REMARK VINA RESULT:    -3.878      1.329      3.986
REMARK INTER + INTRA:          -4.629
REMARK INTER:                  -4.524
REMARK INTRA:                  -0.104
REMARK UNBOUND:                -0.070
REMARK SMILES O=C([O-])CCC(=O)[O-]
REMARK SMILES IDX 4 1 2 2 1 3 3 4 5 5 6 6 7 7 8 8
REMARK H PARENT
REMARK Flexibility Score: inf
ROOT
ATOM      1  C   UNL     1     -15.773  -0.486   1.694  1.00  0.00     0.059 C 
ENDROOT
BRANCH   1   2
ATOM      2  C   UNL     1     -16.517  -0.325   2.981  1.00  0.00     0.042 C 
ATOM      3  O   UNL     1     -16.664   0.818   3.490  1.00  0.00    -0.550 OA
ATOM      4  O   UNL     1     -17.092  -1.430   3.595  1.00  0.00    -0.550 OA
ENDBRANCH   1   2
BRANCH   1   5
ATOM      5  C   UNL     1     -16.729  -0.375   0.505  1.00  0.00     0.059 C 
BRANCH   5   6
ATOM      6  C   UNL     1     -16.393   0.821  -0.328  1.00  0.00     0.042 C 
ATOM      7  O   UNL     1     -15.477   1.607   0.031  1.00  0.00    -0.550 OA
ATOM      8  O   UNL     1     -17.125   1.094  -1.477  1.00  0.00    -0.550 OA
ENDBRANCH   5   6
ENDBRANCH   1   5
TORSDOF 3
ENDMDL
MODEL 3
REMARK VINA RESULT:    -3.782     14.887     15.910
REMARK INTER + INTRA:          -4.515
REMARK INTER:                  -4.478
REMARK INTRA:                  -0.037
REMARK UNBOUND:                -0.070
REMARK SMILES O=C([O-])CCC(=O)[O-]
REMARK SMILES IDX 4 1 2 2 1 3 3 4 5 5 6 6 7 7 8 8
REMARK H PARENT
REMARK Flexibility Score: inf
ROOT
ATOM      1  C   UNL     1     -12.868  11.638   9.739  1.00  0.00     0.059 C 
ENDROOT
BRANCH   1   2
ATOM      2  C   UNL     1     -13.001  10.150   9.674  1.00  0.00     0.042 C 
ATOM      3  O   UNL     1     -12.026   9.442   9.303  1.00  0.00    -0.550 OA
ATOM      4  O   UNL     1     -14.183   9.539  10.071  1.00  0.00    -0.550 OA
ENDBRANCH   1   2
BRANCH   1   5
ATOM      5  C   UNL     1     -11.419  12.036  10.023  1.00  0.00     0.059 C 
BRANCH   5   6
ATOM      6  C   UNL     1     -11.272  13.524  10.011  1.00  0.00     0.042 C 
ATOM      7  O   UNL     1     -10.128  14.049  10.044  1.00  0.00    -0.550 OA
ATOM      8  O   UNL     1     -12.401  14.334  10.014  1.00  0.00    -0.550 OA
ENDBRANCH   5   6
ENDBRANCH   1   5
TORSDOF 3
ENDMDL
MODEL 4
REMARK VINA RESULT:    -3.744     14.932     15.898
REMARK INTER + INTRA:          -4.472
REMARK INTER:                  -4.432
REMARK INTRA:                  -0.039
REMARK UNBOUND:                -0.070
REMARK SMILES O=C([O-])CCC(=O)[O-]
REMARK SMILES IDX 4 1 2 2 1 3 3 4 5 5 6 6 7 7 8 8
REMARK H PARENT
REMARK Flexibility Score: inf
ROOT
ATOM      1  C   UNL     1     -11.495  12.142  10.006  1.00  0.00     0.059 C 
ENDROOT
BRANCH   1   2
ATOM      2  C   UNL     1     -11.415  13.636   9.985  1.00  0.00     0.042 C 
ATOM      3  O   UNL     1     -12.465  14.325   9.888  1.00  0.00    -0.550 OA
ATOM      4  O   UNL     1     -10.187  14.268  10.125  1.00  0.00    -0.550 OA
ENDBRANCH   1   2
BRANCH   1   5
ATOM      5  C   UNL     1     -12.925  11.678   9.726  1.00  0.00     0.059 C 
BRANCH   5   6
ATOM      6  C   UNL     1     -12.995  10.184   9.699  1.00  0.00     0.042 C 
ATOM      7  O   UNL     1     -12.004   9.509   9.314  1.00  0.00    -0.550 OA
ATOM      8  O   UNL     1     -14.173   9.538  10.053  1.00  0.00    -0.550 OA
ENDBRANCH   5   6
ENDBRANCH   1   5
TORSDOF 3
ENDMDL
MODEL 5
REMARK VINA RESULT:    -3.258     19.862     20.919
REMARK INTER + INTRA:          -3.900
REMARK INTER:                  -3.898
REMARK INTRA:                  -0.002
REMARK UNBOUND:                -0.070
REMARK SMILES O=C([O-])CCC(=O)[O-]
REMARK SMILES IDX 4 1 2 2 1 3 3 4 5 5 6 6 7 7 8 8
REMARK H PARENT
REMARK Flexibility Score: inf
ROOT
ATOM      1  C   UNL     1       2.208   8.517   4.408  1.00  0.00     0.059 C 
ENDROOT
BRANCH   1   2
ATOM      2  C   UNL     1       0.719   8.513   4.266  1.00  0.00     0.042 C 
ATOM      3  O   UNL     1      -0.014   8.369   5.280  1.00  0.00    -0.550 OA
ATOM      4  O   UNL     1       0.139   8.719   3.021  1.00  0.00    -0.550 OA
ENDBRANCH   1   2
BRANCH   1   5
ATOM      5  C   UNL     1       2.750   9.945   4.340  1.00  0.00     0.059 C 
BRANCH   5   6
ATOM      6  C   UNL     1       2.997  10.345   2.920  1.00  0.00     0.042 C 
ATOM      7  O   UNL     1       3.046  11.563   2.603  1.00  0.00    -0.550 OA
ATOM      8  O   UNL     1       3.125   9.372   1.937  1.00  0.00    -0.550 OA
ENDBRANCH   5   6
ENDBRANCH   1   5
TORSDOF 3
ENDMDL
MODEL 6
REMARK VINA RESULT:    -3.250     20.339     21.275
REMARK INTER + INTRA:          -3.891
REMARK INTER:                  -3.774
REMARK INTRA:                  -0.117
REMARK UNBOUND:                -0.070
REMARK SMILES O=C([O-])CCC(=O)[O-]
REMARK SMILES IDX 4 1 2 2 1 3 3 4 5 5 6 6 7 7 8 8
REMARK H PARENT
REMARK Flexibility Score: inf
ROOT
ATOM      1  C   UNL     1       3.079  10.278   4.253  1.00  0.00     0.059 C 
ENDROOT
BRANCH   1   2
ATOM      2  C   UNL     1       3.102  10.828   2.862  1.00  0.00     0.042 C 
ATOM      3  O   UNL     1       3.125  10.048   1.873  1.00  0.00    -0.550 OA
ATOM      4  O   UNL     1       3.046  12.200   2.656  1.00  0.00    -0.550 OA
ENDBRANCH   1   2
BRANCH   1   5
ATOM      5  C   UNL     1       2.828   8.770   4.230  1.00  0.00     0.059 C 
BRANCH   5   6
ATOM      6  C   UNL     1       1.410   8.469   4.602  1.00  0.00     0.042 C 
ATOM      7  O   UNL     1       1.145   7.936   5.711  1.00  0.00    -0.550 OA
ATOM      8  O   UNL     1       0.385   8.733   3.702  1.00  0.00    -0.550 OA
ENDBRANCH   5   6
ENDBRANCH   1   5
TORSDOF 3
ENDMDL
MODEL 7
REMARK VINA RESULT:    -3.220     19.920     21.146
REMARK INTER + INTRA:          -3.855
REMARK INTER:                  -3.821
REMARK INTRA:                  -0.034
REMARK UNBOUND:                -0.070
REMARK SMILES O=C([O-])CCC(=O)[O-]
REMARK SMILES IDX 4 1 2 2 1 3 3 4 5 5 6 6 7 7 8 8
REMARK H PARENT
REMARK Flexibility Score: inf
ROOT
ATOM      1  C   UNL     1       1.833   8.007   5.229  1.00  0.00     0.059 C 
ENDROOT
BRANCH   1   2
ATOM      2  C   UNL     1       2.612   7.333   6.313  1.00  0.00     0.042 C 
ATOM      3  O   UNL     1       3.104   8.010   7.255  1.00  0.00    -0.550 OA
ATOM      4  O   UNL     1       2.752   5.951   6.313  1.00  0.00    -0.550 OA
ENDBRANCH   1   2
BRANCH   1   5
ATOM      5  C   UNL     1       2.767   8.787   4.304  1.00  0.00     0.059 C 
BRANCH   5   6
ATOM      6  C   UNL     1       2.213   8.832   2.915  1.00  0.00     0.042 C 
ATOM      7  O   UNL     1       2.911   9.278   1.967  1.00  0.00    -0.550 OA
ATOM      8  O   UNL     1       0.906   8.425   2.675  1.00  0.00    -0.550 OA
ENDBRANCH   5   6
ENDBRANCH   1   5
TORSDOF 3
ENDMDL
MODEL 8
REMARK VINA RESULT:    -3.180     16.223     17.156
REMARK INTER + INTRA:          -3.808
REMARK INTER:                  -3.753
REMARK INTRA:                  -0.055
REMARK UNBOUND:                -0.070
REMARK SMILES O=C([O-])CCC(=O)[O-]
REMARK SMILES IDX 4 1 2 2 1 3 3 4 5 5 6 6 7 7 8 8
REMARK H PARENT
REMARK Flexibility Score: inf
ROOT
ATOM      1  C   UNL     1     -10.052  12.745  10.085  1.00  0.00     0.059 C 
ENDROOT
BRANCH   1   2
ATOM      2  C   UNL     1      -8.876  13.279   9.331  1.00  0.00     0.042 C 
ATOM      3  O   UNL     1      -8.532  14.484   9.465  1.00  0.00    -0.550 OA
ATOM      4  O   UNL     1      -8.129  12.436   8.520  1.00  0.00    -0.550 OA
ENDBRANCH   1   2
BRANCH   1   5
ATOM      5  C   UNL     1     -11.179  13.777  10.123  1.00  0.00     0.059 C 
BRANCH   5   6
ATOM      6  C   UNL     1     -12.393  13.253   9.424  1.00  0.00     0.042 C 
ATOM      7  O   UNL     1     -13.219  14.049   8.905  1.00  0.00    -0.550 OA
ATOM      8  O   UNL     1     -12.638  11.886   9.388  1.00  0.00    -0.550 OA
ENDBRANCH   5   6
ENDBRANCH   1   5
TORSDOF 3
ENDMDL
MODEL 9
REMARK VINA RESULT:    -3.166     20.090     20.708
REMARK INTER + INTRA:          -3.792
REMARK INTER:                  -3.669
REMARK INTRA:                  -0.123
REMARK UNBOUND:                -0.070
REMARK SMILES O=C([O-])CCC(=O)[O-]
REMARK SMILES IDX 4 1 2 2 1 3 3 4 5 5 6 6 7 7 8 8
REMARK H PARENT
REMARK Flexibility Score: inf
ROOT
ATOM      1  C   UNL     1       2.414   9.512   4.224  1.00  0.00     0.059 C 
ENDROOT
BRANCH   1   2
ATOM      2  C   UNL     1       2.307   9.169   2.772  1.00  0.00     0.042 C 
ATOM      3  O   UNL     1       3.125   9.655   1.945  1.00  0.00    -0.550 OA
ATOM      4  O   UNL     1       1.338   8.275   2.338  1.00  0.00    -0.550 OA
ENDBRANCH   1   2
BRANCH   1   5
ATOM      5  C   UNL     1       3.123   8.394   4.989  1.00  0.00     0.059 C 
BRANCH   5   6
ATOM      6  C   UNL     1       2.138   7.591   5.777  1.00  0.00     0.042 C 
ATOM      7  O   UNL     1       2.509   6.555   6.389  1.00  0.00    -0.550 OA
ATOM      8  O   UNL     1       0.799   7.960   5.797  1.00  0.00    -0.550 OA
ENDBRANCH   5   6
ENDBRANCH   1   5
TORSDOF 3
ENDMDL
