MODEL 1
REMARK VINA RESULT:    -6.397      0.000      0.000
REMARK INTER + INTRA:         -11.422
REMARK INTER:                  -8.640
REMARK INTRA:                  -2.782
REMARK UNBOUND:                -2.782
REMARK SMILES CC[C@H](CC[C@H](C)[C@H]1CC[C@@H]2[C@@H]3CC(=O)C4=CC(=O)CC[C@]4(C)[C@@H]3CC[C@@]21C)C(C)C
REMARK SMILES IDX 4 1 3 2 2 3 1 4 29 5 30 6 31 7 5 8 6 9 7 10 8 11 9 12 27 13
REMARK SMILES IDX 10 14 11 15 26 16 28 17 12 18 25 19 24 20 13 21 22 22 14 23
REMARK SMILES IDX 16 24 21 25 23 26 15 27 17 28 20 29 18 30 19 31
REMARK H PARENT
REMARK Flexibility Score: inf
ROOT
ATOM      1  C   UNL     1     122.796 123.618 105.825  1.00  0.00     0.004 C 
ENDROOT
BRANCH   1   2
ATOM      2  C   UNL     1     121.323 123.173 105.602  1.00  0.00    -0.009 C 
BRANCH   2   3
ATOM      3  C   UNL     1     121.034 123.107 104.075  1.00  0.00     0.000 C 
ATOM      4  C   UNL     1     119.632 123.567 103.677  1.00  0.00     0.004 C 
ENDBRANCH   2   3
BRANCH   2   5
ATOM      5  C   UNL     1     121.011 121.853 106.397  1.00  0.00    -0.014 C 
ATOM      6  C   UNL     1     122.248 121.279 107.106  1.00  0.00     0.007 C 
ATOM      7  C   UNL     1     119.829 121.970 107.373  1.00  0.00     0.007 C 
ENDBRANCH   2   5
ENDBRANCH   1   2
BRANCH   1   8
ATOM      8  C   UNL     1     122.921 125.106 106.216  1.00  0.00     0.004 C 
BRANCH   8   9
ATOM      9  C   UNL     1     122.552 125.352 107.705  1.00  0.00    -0.011 C 
ATOM     10  C   UNL     1     123.393 124.468 108.644  1.00  0.00     0.008 C 
BRANCH   9  11
ATOM     11  C   UNL     1     121.027 125.295 108.064  1.00  0.00    -0.002 C 
ATOM     12  C   UNL     1     120.767 124.930 109.527  1.00  0.00     0.005 C 
ATOM     13  C   UNL     1     120.033 126.471 107.714  1.00  0.00    -0.026 C 
ATOM     14  C   UNL     1     119.306 125.251 109.752  1.00  0.00     0.005 C 
ATOM     15  C   UNL     1     119.050 126.519 108.932  1.00  0.00    -0.001 C 
ATOM     16  C   UNL     1     119.280 126.159 106.386  1.00  0.00     0.007 C 
ATOM     17  C   UNL     1     120.697 127.861 107.571  1.00  0.00     0.012 C 
ATOM     18  C   UNL     1     117.548 126.784 108.573  1.00  0.00     0.004 C 
ATOM     19  C   UNL     1     118.103 125.203 106.604  1.00  0.00     0.005 C 
ATOM     20  C   UNL     1     116.965 125.902 107.385  1.00  0.00     0.003 C 
ATOM     21  C   UNL     1     116.677 126.836 109.859  1.00  0.00     0.085 C 
ATOM     22  C   UNL     1     115.747 124.956 107.773  1.00  0.00    -0.000 C 
ATOM     23  C   UNL     1     116.160 125.486 110.249  1.00  0.00     0.159 C 
ATOM     24  C   UNL     1     115.937 124.464 109.209  1.00  0.00     0.005 C 
ATOM     25  C   UNL     1     115.485 123.771 106.765  1.00  0.00     0.020 C 
ATOM     26  C   UNL     1     114.437 125.799 107.724  1.00  0.00     0.017 C 
ATOM     27  O   UNL     1     115.916 125.238 111.462  1.00  0.00    -0.295 OA
ATOM     28  C   UNL     1     116.012 123.163 109.535  1.00  0.00     0.055 C 
ATOM     29  C   UNL     1     116.210 122.460 107.079  1.00  0.00     0.081 C 
ATOM     30  C   UNL     1     116.042 122.108 108.518  1.00  0.00     0.156 C 
ATOM     31  O   UNL     1     116.013 120.899 108.871  1.00  0.00    -0.295 OA
ENDBRANCH   9  11
ENDBRANCH   8   9
ENDBRANCH   1   8
TORSDOF 6
ENDMDL
MODEL 2
REMARK VINA RESULT:    -6.373      2.505      5.995
REMARK INTER + INTRA:         -11.390
REMARK INTER:                  -9.245
REMARK INTRA:                  -2.144
REMARK UNBOUND:                -2.782
REMARK SMILES CC[C@H](CC[C@H](C)[C@H]1CC[C@@H]2[C@@H]3CC(=O)C4=CC(=O)CC[C@]4(C)[C@@H]3CC[C@@]21C)C(C)C
REMARK SMILES IDX 4 1 3 2 2 3 1 4 29 5 30 6 31 7 5 8 6 9 7 10 8 11 9 12 27 13
REMARK SMILES IDX 10 14 11 15 26 16 28 17 12 18 25 19 24 20 13 21 22 22 14 23
REMARK SMILES IDX 16 24 21 25 23 26 15 27 17 28 20 29 18 30 19 31
REMARK H PARENT
REMARK Flexibility Score: inf
ROOT
ATOM      1  C   UNL     1     117.892 119.555 107.108  1.00  0.00     0.004 C 
ENDROOT
BRANCH   1   2
ATOM      2  C   UNL     1     116.555 119.960 107.793  1.00  0.00    -0.009 C 
BRANCH   2   3
ATOM      3  C   UNL     1     116.837 121.068 108.848  1.00  0.00     0.000 C 
ATOM      4  C   UNL     1     118.214 121.718 108.727  1.00  0.00     0.004 C 
ENDBRANCH   2   3
BRANCH   2   5
ATOM      5  C   UNL     1     115.465 120.322 106.720  1.00  0.00    -0.014 C 
ATOM      6  C   UNL     1     114.271 119.354 106.734  1.00  0.00     0.007 C 
ATOM      7  C   UNL     1     114.984 121.781 106.779  1.00  0.00     0.007 C 
ENDBRANCH   2   5
ENDBRANCH   1   2
BRANCH   1   8
ATOM      8  C   UNL     1     117.759 119.398 105.578  1.00  0.00     0.004 C 
BRANCH   8   9
ATOM      9  C   UNL     1     118.991 119.970 104.824  1.00  0.00    -0.011 C 
ATOM     10  C   UNL     1     120.047 118.879 104.567  1.00  0.00     0.008 C 
BRANCH   9  11
ATOM     11  C   UNL     1     119.633 121.270 105.420  1.00  0.00    -0.002 C 
ATOM     12  C   UNL     1     120.940 121.005 106.170  1.00  0.00     0.005 C 
ATOM     13  C   UNL     1     119.870 122.569 104.554  1.00  0.00    -0.026 C 
ATOM     14  C   UNL     1     121.556 122.373 106.368  1.00  0.00     0.005 C 
ATOM     15  C   UNL     1     121.226 123.143 105.085  1.00  0.00    -0.001 C 
ATOM     16  C   UNL     1     118.701 123.576 104.768  1.00  0.00     0.007 C 
ATOM     17  C   UNL     1     120.011 122.317 103.034  1.00  0.00     0.012 C 
ATOM     18  C   UNL     1     121.290 124.703 105.213  1.00  0.00     0.004 C 
ATOM     19  C   UNL     1     118.869 124.384 106.060  1.00  0.00     0.005 C 
ATOM     20  C   UNL     1     120.045 125.380 105.935  1.00  0.00     0.003 C 
ATOM     21  C   UNL     1     122.687 125.155 105.722  1.00  0.00     0.085 C 
ATOM     22  C   UNL     1     120.383 126.179 107.268  1.00  0.00    -0.000 C 
ATOM     23  C   UNL     1     122.757 125.208 107.217  1.00  0.00     0.159 C 
ATOM     24  C   UNL     1     121.531 125.476 107.993  1.00  0.00     0.005 C 
ATOM     25  C   UNL     1     119.147 126.436 108.214  1.00  0.00     0.020 C 
ATOM     26  C   UNL     1     120.867 127.606 106.874  1.00  0.00     0.017 C 
ATOM     27  O   UNL     1     123.864 125.028 107.796  1.00  0.00    -0.295 OA
ATOM     28  C   UNL     1     121.430 125.008 109.248  1.00  0.00     0.055 C 
ATOM     29  C   UNL     1     118.893 125.365 109.279  1.00  0.00     0.081 C 
ATOM     30  C   UNL     1     120.162 125.026 109.984  1.00  0.00     0.156 C 
ATOM     31  O   UNL     1     120.136 124.669 111.191  1.00  0.00    -0.295 OA
ENDBRANCH   9  11
ENDBRANCH   8   9
ENDBRANCH   1   8
TORSDOF 6
ENDMDL
MODEL 3
REMARK VINA RESULT:    -6.254      2.756      5.768
REMARK INTER + INTRA:         -11.230
REMARK INTER:                  -8.790
REMARK INTRA:                  -2.440
REMARK UNBOUND:                -2.782
REMARK SMILES CC[C@H](CC[C@H](C)[C@H]1CC[C@@H]2[C@@H]3CC(=O)C4=CC(=O)CC[C@]4(C)[C@@H]3CC[C@@]21C)C(C)C
REMARK SMILES IDX 4 1 3 2 2 3 1 4 29 5 30 6 31 7 5 8 6 9 7 10 8 11 9 12 27 13
REMARK SMILES IDX 10 14 11 15 26 16 28 17 12 18 25 19 24 20 13 21 22 22 14 23
REMARK SMILES IDX 16 24 21 25 23 26 15 27 17 28 20 29 18 30 19 31
REMARK H PARENT
REMARK Flexibility Score: inf
ROOT
ATOM      1  C   UNL     1     118.022 117.931 105.380  1.00  0.00     0.004 C 
ENDROOT
BRANCH   1   2
ATOM      2  C   UNL     1     117.189 118.361 106.620  1.00  0.00    -0.009 C 
BRANCH   2   3
ATOM      3  C   UNL     1     118.105 118.354 107.878  1.00  0.00     0.000 C 
ATOM      4  C   UNL     1     119.438 117.632 107.684  1.00  0.00     0.004 C 
ENDBRANCH   2   3
BRANCH   2   5
ATOM      5  C   UNL     1     116.442 119.718 106.348  1.00  0.00    -0.014 C 
ATOM      6  C   UNL     1     114.916 119.591 106.474  1.00  0.00     0.007 C 
ATOM      7  C   UNL     1     116.961 120.901 107.181  1.00  0.00     0.007 C 
ENDBRANCH   2   5
ENDBRANCH   1   2
BRANCH   1   8
ATOM      8  C   UNL     1     118.011 118.985 104.253  1.00  0.00     0.004 C 
BRANCH   8   9
ATOM      9  C   UNL     1     119.418 119.599 104.015  1.00  0.00    -0.011 C 
ATOM     10  C   UNL     1     120.522 118.534 104.138  1.00  0.00     0.008 C 
BRANCH   9  11
ATOM     11  C   UNL     1     119.764 120.891 104.833  1.00  0.00    -0.002 C 
ATOM     12  C   UNL     1     120.621 120.609 106.068  1.00  0.00     0.005 C 
ATOM     13  C   UNL     1     120.368 122.184 104.155  1.00  0.00    -0.026 C 
ATOM     14  C   UNL     1     121.115 121.968 106.515  1.00  0.00     0.005 C 
ATOM     15  C   UNL     1     121.376 122.738 105.217  1.00  0.00    -0.001 C 
ATOM     16  C   UNL     1     119.235 123.210 103.854  1.00  0.00     0.007 C 
ATOM     17  C   UNL     1     121.140 121.925 102.840  1.00  0.00     0.012 C 
ATOM     18  C   UNL     1     121.403 124.297 105.366  1.00  0.00     0.004 C 
ATOM     19  C   UNL     1     118.847 124.019 105.097  1.00  0.00     0.005 C 
ATOM     20  C   UNL     1     119.979 124.996 105.491  1.00  0.00     0.003 C 
ATOM     21  C   UNL     1     122.456 124.729 106.424  1.00  0.00     0.085 C 
ATOM     22  C   UNL     1     119.728 125.794 106.843  1.00  0.00    -0.000 C 
ATOM     23  C   UNL     1     121.882 124.786 107.806  1.00  0.00     0.159 C 
ATOM     24  C   UNL     1     120.446 125.075 107.986  1.00  0.00     0.005 C 
ATOM     25  C   UNL     1     118.211 126.072 107.172  1.00  0.00     0.020 C 
ATOM     26  C   UNL     1     120.356 127.212 106.699  1.00  0.00     0.017 C 
ATOM     27  O   UNL     1     122.632 124.591 108.802  1.00  0.00    -0.295 OA
ATOM     28  C   UNL     1     119.811 124.613 109.076  1.00  0.00     0.055 C 
ATOM     29  C   UNL     1     117.510 125.009 108.022  1.00  0.00     0.081 C 
ATOM     30  C   UNL     1     118.352 124.653 109.200  1.00  0.00     0.156 C 
ATOM     31  O   UNL     1     117.807 124.300 110.279  1.00  0.00    -0.295 OA
ENDBRANCH   9  11
ENDBRANCH   8   9
ENDBRANCH   1   8
TORSDOF 6
ENDMDL
MODEL 4
REMARK VINA RESULT:    -6.235      2.601      5.631
REMARK INTER + INTRA:         -11.203
REMARK INTER:                  -8.906
REMARK INTRA:                  -2.297
REMARK UNBOUND:                -2.782
REMARK SMILES CC[C@H](CC[C@H](C)[C@H]1CC[C@@H]2[C@@H]3CC(=O)C4=CC(=O)CC[C@]4(C)[C@@H]3CC[C@@]21C)C(C)C
REMARK SMILES IDX 4 1 3 2 2 3 1 4 29 5 30 6 31 7 5 8 6 9 7 10 8 11 9 12 27 13
REMARK SMILES IDX 10 14 11 15 26 16 28 17 12 18 25 19 24 20 13 21 22 22 14 23
REMARK SMILES IDX 16 24 21 25 23 26 15 27 17 28 20 29 18 30 19 31
REMARK H PARENT
REMARK Flexibility Score: inf
ROOT
ATOM      1  C   UNL     1     117.916 118.598 105.655  1.00  0.00     0.004 C 
ENDROOT
BRANCH   1   2
ATOM      2  C   UNL     1     116.842 119.439 106.401  1.00  0.00    -0.009 C 
BRANCH   2   3
ATOM      3  C   UNL     1     115.508 118.640 106.447  1.00  0.00     0.000 C 
ATOM      4  C   UNL     1     114.277 119.486 106.772  1.00  0.00     0.004 C 
ENDBRANCH   2   3
BRANCH   2   5
ATOM      5  C   UNL     1     117.380 119.919 107.798  1.00  0.00    -0.014 C 
ATOM      6  C   UNL     1     118.517 119.035 108.334  1.00  0.00     0.007 C 
ATOM      7  C   UNL     1     117.776 121.404 107.843  1.00  0.00     0.007 C 
ENDBRANCH   2   5
ENDBRANCH   1   2
BRANCH   1   8
ATOM      8  C   UNL     1     118.215 119.127 104.236  1.00  0.00     0.004 C 
BRANCH   8   9
ATOM      9  C   UNL     1     119.663 119.675 104.111  1.00  0.00    -0.011 C 
ATOM     10  C   UNL     1     120.705 118.572 104.372  1.00  0.00     0.008 C 
BRANCH   9  11
ATOM     11  C   UNL     1     119.987 120.982 104.915  1.00  0.00    -0.002 C 
ATOM     12  C   UNL     1     120.848 120.727 106.154  1.00  0.00     0.005 C 
ATOM     13  C   UNL     1     120.570 122.276 104.224  1.00  0.00    -0.026 C 
ATOM     14  C   UNL     1     121.319 122.099 106.586  1.00  0.00     0.005 C 
ATOM     15  C   UNL     1     121.568 122.859 105.281  1.00  0.00    -0.001 C 
ATOM     16  C   UNL     1     119.421 123.281 103.911  1.00  0.00     0.007 C 
ATOM     17  C   UNL     1     121.348 122.016 102.912  1.00  0.00     0.012 C 
ATOM     18  C   UNL     1     121.569 124.420 105.413  1.00  0.00     0.004 C 
ATOM     19  C   UNL     1     119.019 124.096 105.145  1.00  0.00     0.005 C 
ATOM     20  C   UNL     1     120.134 125.096 105.529  1.00  0.00     0.003 C 
ATOM     21  C   UNL     1     122.614 124.881 106.468  1.00  0.00     0.085 C 
ATOM     22  C   UNL     1     119.869 125.905 106.873  1.00  0.00    -0.000 C 
ATOM     23  C   UNL     1     122.038 124.943 107.848  1.00  0.00     0.159 C 
ATOM     24  C   UNL     1     120.598 125.210 108.023  1.00  0.00     0.005 C 
ATOM     25  C   UNL     1     118.347 126.162 107.197  1.00  0.00     0.020 C 
ATOM     26  C   UNL     1     120.474 127.331 106.714  1.00  0.00     0.017 C 
ATOM     27  O   UNL     1     122.791 124.771 108.846  1.00  0.00    -0.295 OA
ATOM     28  C   UNL     1     119.970 124.749 109.118  1.00  0.00     0.055 C 
ATOM     29  C   UNL     1     117.663 125.096 108.058  1.00  0.00     0.081 C 
ATOM     30  C   UNL     1     118.510 124.766 109.241  1.00  0.00     0.156 C 
ATOM     31  O   UNL     1     117.969 124.416 110.324  1.00  0.00    -0.295 OA
ENDBRANCH   9  11
ENDBRANCH   8   9
ENDBRANCH   1   8
TORSDOF 6
ENDMDL
MODEL 5
REMARK VINA RESULT:    -5.923      2.851      5.845
REMARK INTER + INTRA:         -10.782
REMARK INTER:                  -7.925
REMARK INTRA:                  -2.857
REMARK UNBOUND:                -2.782
REMARK SMILES CC[C@H](CC[C@H](C)[C@H]1CC[C@@H]2[C@@H]3CC(=O)C4=CC(=O)CC[C@]4(C)[C@@H]3CC[C@@]21C)C(C)C
REMARK SMILES IDX 4 1 3 2 2 3 1 4 29 5 30 6 31 7 5 8 6 9 7 10 8 11 9 12 27 13
REMARK SMILES IDX 10 14 11 15 26 16 28 17 12 18 25 19 24 20 13 21 22 22 14 23
REMARK SMILES IDX 16 24 21 25 23 26 15 27 17 28 20 29 18 30 19 31
REMARK H PARENT
REMARK Flexibility Score: inf
ROOT
ATOM      1  C   UNL     1     123.195 120.498 103.786  1.00  0.00     0.004 C 
ENDROOT
BRANCH   1   2
ATOM      2  C   UNL     1     123.840 121.821 103.285  1.00  0.00    -0.009 C 
BRANCH   2   3
ATOM      3  C   UNL     1     123.332 122.125 101.846  1.00  0.00     0.000 C 
ATOM      4  C   UNL     1     124.406 122.023 100.763  1.00  0.00     0.004 C 
ENDBRANCH   2   3
BRANCH   2   5
ATOM      5  C   UNL     1     123.624 122.979 104.326  1.00  0.00    -0.014 C 
ATOM      6  C   UNL     1     124.942 123.501 104.919  1.00  0.00     0.007 C 
ATOM      7  C   UNL     1     122.762 124.141 103.806  1.00  0.00     0.007 C 
ENDBRANCH   2   5
ENDBRANCH   1   2
BRANCH   1   8
ATOM      8  C   UNL     1     122.248 119.860 102.748  1.00  0.00     0.004 C 
BRANCH   8   9
ATOM      9  C   UNL     1     120.753 120.098 103.097  1.00  0.00    -0.011 C 
ATOM     10  C   UNL     1     119.899 120.258 101.826  1.00  0.00     0.008 C 
BRANCH   9  11
ATOM     11  C   UNL     1     120.452 121.225 104.145  1.00  0.00    -0.002 C 
ATOM     12  C   UNL     1     119.687 122.409 103.550  1.00  0.00     0.005 C 
ATOM     13  C   UNL     1     119.787 120.921 105.545  1.00  0.00    -0.026 C 
ATOM     14  C   UNL     1     119.211 123.203 104.748  1.00  0.00     0.005 C 
ATOM     15  C   UNL     1     118.850 122.150 105.800  1.00  0.00    -0.001 C 
ATOM     16  C   UNL     1     120.885 120.803 106.644  1.00  0.00     0.007 C 
ATOM     17  C   UNL     1     118.927 119.636 105.588  1.00  0.00     0.012 C 
ATOM     18  C   UNL     1     118.817 122.673 107.276  1.00  0.00     0.004 C 
ATOM     19  C   UNL     1     121.350 122.176 107.141  1.00  0.00     0.005 C 
ATOM     20  C   UNL     1     120.238 122.868 107.963  1.00  0.00     0.003 C 
ATOM     21  C   UNL     1     117.837 123.871 107.412  1.00  0.00     0.085 C 
ATOM     22  C   UNL     1     120.575 124.354 108.420  1.00  0.00    -0.000 C 
ATOM     23  C   UNL     1     118.506 125.185 107.151  1.00  0.00     0.159 C 
ATOM     24  C   UNL     1     119.947 125.334 107.427  1.00  0.00     0.005 C 
ATOM     25  C   UNL     1     122.109 124.640 108.653  1.00  0.00     0.020 C 
ATOM     26  C   UNL     1     119.923 124.599 109.813  1.00  0.00     0.017 C 
ATOM     27  O   UNL     1     117.830 126.151 106.701  1.00  0.00    -0.295 OA
ATOM     28  C   UNL     1     120.663 126.236 106.735  1.00  0.00     0.055 C 
ATOM     29  C   UNL     1     122.880 125.159 107.437  1.00  0.00     0.081 C 
ATOM     30  C   UNL     1     122.127 126.270 106.784  1.00  0.00     0.156 C 
ATOM     31  O   UNL     1     122.751 127.193 106.197  1.00  0.00    -0.295 OA
ENDBRANCH   9  11
ENDBRANCH   8   9
ENDBRANCH   1   8
TORSDOF 6
ENDMDL
MODEL 6
REMARK VINA RESULT:    -5.741      1.729      2.992
REMARK INTER + INTRA:         -10.537
REMARK INTER:                  -9.027
REMARK INTRA:                  -1.509
REMARK UNBOUND:                -2.782
REMARK SMILES CC[C@H](CC[C@H](C)[C@H]1CC[C@@H]2[C@@H]3CC(=O)C4=CC(=O)CC[C@]4(C)[C@@H]3CC[C@@]21C)C(C)C
REMARK SMILES IDX 4 1 3 2 2 3 1 4 29 5 30 6 31 7 5 8 6 9 7 10 8 11 9 12 27 13
REMARK SMILES IDX 10 14 11 15 26 16 28 17 12 18 25 19 24 20 13 21 22 22 14 23
REMARK SMILES IDX 16 24 21 25 23 26 15 27 17 28 20 29 18 30 19 31
REMARK H PARENT
REMARK Flexibility Score: inf
ROOT
ATOM      1  C   UNL     1     124.141 125.929 105.859  1.00  0.00     0.004 C 
ENDROOT
BRANCH   1   2
ATOM      2  C   UNL     1     125.664 125.636 105.970  1.00  0.00    -0.009 C 
BRANCH   2   3
ATOM      3  C   UNL     1     126.245 126.404 107.191  1.00  0.00     0.000 C 
ATOM      4  C   UNL     1     127.330 127.421 106.839  1.00  0.00     0.004 C 
ENDBRANCH   2   3
BRANCH   2   5
ATOM      5  C   UNL     1     125.937 124.087 105.965  1.00  0.00    -0.014 C 
ATOM      6  C   UNL     1     126.610 123.605 104.671  1.00  0.00     0.007 C 
ATOM      7  C   UNL     1     126.701 123.579 107.199  1.00  0.00     0.007 C 
ENDBRANCH   2   5
ENDBRANCH   1   2
BRANCH   1   8
ATOM      8  C   UNL     1     123.268 124.805 106.457  1.00  0.00     0.004 C 
BRANCH   8   9
ATOM      9  C   UNL     1     122.780 125.147 107.892  1.00  0.00    -0.011 C 
ATOM     10  C   UNL     1     123.513 124.301 108.949  1.00  0.00     0.008 C 
BRANCH   9  11
ATOM     11  C   UNL     1     121.229 125.146 108.120  1.00  0.00    -0.002 C 
ATOM     12  C   UNL     1     120.838 124.944 109.585  1.00  0.00     0.005 C 
ATOM     13  C   UNL     1     120.292 126.288 107.561  1.00  0.00    -0.026 C 
ATOM     14  C   UNL     1     119.369 125.303 109.646  1.00  0.00     0.005 C 
ATOM     15  C   UNL     1     119.210 126.478 108.676  1.00  0.00    -0.001 C 
ATOM     16  C   UNL     1     119.650 125.842 106.213  1.00  0.00     0.007 C 
ATOM     17  C   UNL     1     120.995 127.647 107.329  1.00  0.00     0.012 C 
ATOM     18  C   UNL     1     117.750 126.718 108.161  1.00  0.00     0.004 C 
ATOM     19  C   UNL     1     118.440 124.927 106.429  1.00  0.00     0.005 C 
ATOM     20  C   UNL     1     117.254 125.719 107.027  1.00  0.00     0.003 C 
ATOM     21  C   UNL     1     116.773 126.918 109.352  1.00  0.00     0.085 C 
ATOM     22  C   UNL     1     115.987 124.834 107.407  1.00  0.00    -0.000 C 
ATOM     23  C   UNL     1     116.197 125.625 109.838  1.00  0.00     0.159 C 
ATOM     24  C   UNL     1     116.044 124.499 108.897  1.00  0.00     0.005 C 
ATOM     25  C   UNL     1     115.789 123.550 106.512  1.00  0.00     0.020 C 
ATOM     26  C   UNL     1     114.704 125.680 107.153  1.00  0.00     0.017 C 
ATOM     27  O   UNL     1     115.845 125.512 111.045  1.00  0.00    -0.295 OA
ATOM     28  C   UNL     1     116.064 123.239 109.366  1.00  0.00     0.055 C 
ATOM     29  C   UNL     1     116.459 122.273 107.026  1.00  0.00     0.081 C 
ATOM     30  C   UNL     1     116.160 122.080 108.474  1.00  0.00     0.156 C 
ATOM     31  O   UNL     1     116.077 120.917 108.950  1.00  0.00    -0.295 OA
ENDBRANCH   9  11
ENDBRANCH   8   9
ENDBRANCH   1   8
TORSDOF 6
ENDMDL
MODEL 7
REMARK VINA RESULT:    -5.716      2.520      6.382
REMARK INTER + INTRA:         -10.503
REMARK INTER:                  -7.760
REMARK INTRA:                  -2.742
REMARK UNBOUND:                -2.782
REMARK SMILES CC[C@H](CC[C@H](C)[C@H]1CC[C@@H]2[C@@H]3CC(=O)C4=CC(=O)CC[C@]4(C)[C@@H]3CC[C@@]21C)C(C)C
REMARK SMILES IDX 4 1 3 2 2 3 1 4 29 5 30 6 31 7 5 8 6 9 7 10 8 11 9 12 27 13
REMARK SMILES IDX 10 14 11 15 26 16 28 17 12 18 25 19 24 20 13 21 22 22 14 23
REMARK SMILES IDX 16 24 21 25 23 26 15 27 17 28 20 29 18 30 19 31
REMARK H PARENT
REMARK Flexibility Score: inf
ROOT
ATOM      1  C   UNL     1     119.619 124.394 109.177  1.00  0.00     0.004 C 
ENDROOT
BRANCH   1   2
ATOM      2  C   UNL     1     118.066 124.368 109.092  1.00  0.00    -0.009 C 
BRANCH   2   3
ATOM      3  C   UNL     1     117.551 125.780 108.694  1.00  0.00     0.000 C 
ATOM      4  C   UNL     1     116.908 125.850 107.309  1.00  0.00     0.004 C 
ENDBRANCH   2   3
BRANCH   2   5
ATOM      5  C   UNL     1     117.577 123.195 108.165  1.00  0.00    -0.014 C 
ATOM      6  C   UNL     1     118.721 122.269 107.723  1.00  0.00     0.007 C 
ATOM      7  C   UNL     1     116.410 122.380 108.745  1.00  0.00     0.007 C 
ENDBRANCH   2   5
ENDBRANCH   1   2
BRANCH   1   8
ATOM      8  C   UNL     1     120.200 125.822 109.103  1.00  0.00     0.004 C 
BRANCH   8   9
ATOM      9  C   UNL     1     121.008 126.056 107.797  1.00  0.00    -0.011 C 
ATOM     10  C   UNL     1     120.581 127.361 107.100  1.00  0.00     0.008 C 
BRANCH   9  11
ATOM     11  C   UNL     1     121.073 124.855 106.791  1.00  0.00    -0.002 C 
ATOM     12  C   UNL     1     120.094 124.996 105.624  1.00  0.00     0.005 C 
ATOM     13  C   UNL     1     122.433 124.343 106.174  1.00  0.00    -0.026 C 
ATOM     14  C   UNL     1     120.533 123.949 104.623  1.00  0.00     0.005 C 
ATOM     15  C   UNL     1     122.063 123.941 104.707  1.00  0.00    -0.001 C 
ATOM     16  C   UNL     1     122.962 123.120 106.984  1.00  0.00     0.007 C 
ATOM     17  C   UNL     1     123.560 125.402 106.119  1.00  0.00     0.012 C 
ATOM     18  C   UNL     1     122.749 122.637 104.175  1.00  0.00     0.004 C 
ATOM     19  C   UNL     1     122.264 121.818 106.578  1.00  0.00     0.005 C 
ATOM     20  C   UNL     1     122.691 121.387 105.155  1.00  0.00     0.003 C 
ATOM     21  C   UNL     1     122.327 122.356 102.705  1.00  0.00     0.085 C 
ATOM     22  C   UNL     1     121.927 120.112 104.589  1.00  0.00    -0.000 C 
ATOM     23  C   UNL     1     121.086 121.524 102.620  1.00  0.00     0.159 C 
ATOM     24  C   UNL     1     120.769 120.577 103.706  1.00  0.00     0.005 C 
ATOM     25  C   UNL     1     121.464 119.080 105.688  1.00  0.00     0.020 C 
ATOM     26  C   UNL     1     122.916 119.304 103.697  1.00  0.00     0.017 C 
ATOM     27  O   UNL     1     120.326 121.637 101.618  1.00  0.00    -0.295 OA
ATOM     28  C   UNL     1     119.488 120.248 103.942  1.00  0.00     0.055 C 
ATOM     29  C   UNL     1     120.057 119.298 106.252  1.00  0.00     0.081 C 
ATOM     30  C   UNL     1     119.083 119.513 105.143  1.00  0.00     0.156 C 
ATOM     31  O   UNL     1     117.888 119.140 105.274  1.00  0.00    -0.295 OA
ENDBRANCH   9  11
ENDBRANCH   8   9
ENDBRANCH   1   8
TORSDOF 6
ENDMDL
MODEL 8
REMARK VINA RESULT:    -5.702      2.417      3.922
REMARK INTER + INTRA:         -10.484
REMARK INTER:                  -8.424
REMARK INTRA:                  -2.060
REMARK UNBOUND:                -2.782
REMARK SMILES CC[C@H](CC[C@H](C)[C@H]1CC[C@@H]2[C@@H]3CC(=O)C4=CC(=O)CC[C@]4(C)[C@@H]3CC[C@@]21C)C(C)C
REMARK SMILES IDX 4 1 3 2 2 3 1 4 29 5 30 6 31 7 5 8 6 9 7 10 8 11 9 12 27 13
REMARK SMILES IDX 10 14 11 15 26 16 28 17 12 18 25 19 24 20 13 21 22 22 14 23
REMARK SMILES IDX 16 24 21 25 23 26 15 27 17 28 20 29 18 30 19 31
REMARK H PARENT
REMARK Flexibility Score: inf
ROOT
ATOM      1  C   UNL     1     123.617 121.561 103.821  1.00  0.00     0.004 C 
ENDROOT
BRANCH   1   2
ATOM      2  C   UNL     1     122.958 121.820 102.437  1.00  0.00    -0.009 C 
BRANCH   2   3
ATOM      3  C   UNL     1     124.019 121.615 101.318  1.00  0.00     0.000 C 
ATOM      4  C   UNL     1     124.067 120.197 100.748  1.00  0.00     0.004 C 
ENDBRANCH   2   3
BRANCH   2   5
ATOM      5  C   UNL     1     121.645 120.969 102.275  1.00  0.00    -0.014 C 
ATOM      6  C   UNL     1     121.501 119.888 103.357  1.00  0.00     0.007 C 
ATOM      7  C   UNL     1     120.361 121.807 102.167  1.00  0.00     0.007 C 
ENDBRANCH   2   5
ENDBRANCH   1   2
BRANCH   1   8
ATOM      8  C   UNL     1     125.048 122.131 103.921  1.00  0.00     0.004 C 
BRANCH   8   9
ATOM      9  C   UNL     1     125.169 123.214 105.028  1.00  0.00    -0.011 C 
ATOM     10  C   UNL     1     126.280 122.864 106.035  1.00  0.00     0.008 C 
BRANCH   9  11
ATOM     11  C   UNL     1     123.839 123.626 105.750  1.00  0.00    -0.002 C 
ATOM     12  C   UNL     1     123.934 123.545 107.275  1.00  0.00     0.005 C 
ATOM     13  C   UNL     1     123.080 124.970 105.420  1.00  0.00    -0.026 C 
ATOM     14  C   UNL     1     122.710 124.281 107.777  1.00  0.00     0.005 C 
ATOM     15  C   UNL     1     122.525 125.448 106.803  1.00  0.00    -0.001 C 
ATOM     16  C   UNL     1     121.928 124.700 104.405  1.00  0.00     0.007 C 
ATOM     17  C   UNL     1     123.973 126.093 104.840  1.00  0.00     0.012 C 
ATOM     18  C   UNL     1     121.084 126.062 106.772  1.00  0.00     0.004 C 
ATOM     19  C   UNL     1     120.678 124.140 105.092  1.00  0.00     0.005 C 
ATOM     20  C   UNL     1     120.001 125.222 105.966  1.00  0.00     0.003 C 
ATOM     21  C   UNL     1     120.653 126.523 108.193  1.00  0.00     0.085 C 
ATOM     22  C   UNL     1     118.763 124.706 106.822  1.00  0.00    -0.000 C 
ATOM     23  C   UNL     1     119.977 125.432 108.963  1.00  0.00     0.159 C 
ATOM     24  C   UNL     1     119.240 124.379 108.238  1.00  0.00     0.005 C 
ATOM     25  C   UNL     1     117.962 123.514 106.170  1.00  0.00     0.020 C 
ATOM     26  C   UNL     1     117.722 125.860 106.921  1.00  0.00     0.017 C 
ATOM     27  O   UNL     1     120.041 125.425 110.223  1.00  0.00    -0.295 OA
ATOM     28  C   UNL     1     119.108 123.163 108.794  1.00  0.00     0.055 C 
ATOM     29  C   UNL     1     118.430 122.109 106.558  1.00  0.00     0.081 C 
ATOM     30  C   UNL     1     118.606 122.013 108.036  1.00  0.00     0.156 C 
ATOM     31  O   UNL     1     118.406 120.917 108.624  1.00  0.00    -0.295 OA
ENDBRANCH   9  11
ENDBRANCH   8   9
ENDBRANCH   1   8
TORSDOF 6
ENDMDL
