MODEL 1
REMARK VINA RESULT:    -7.756      0.000      0.000
REMARK INTER + INTRA:          -9.436
REMARK INTER:                  -9.116
REMARK INTRA:                  -0.320
REMARK UNBOUND:                -0.320
REMARK SMILES O=c1c(O)c(-c2ccc(O)c(O)c2)oc2cc(O)ccc12
REMARK SMILES IDX 5 1 3 2 2 3 1 4 21 5 15 6 14 7 16 8 17 9 19 10 20 11 6 12
REMARK SMILES IDX 7 13 8 14 9 15 13 16 11 17 10 18 12 20 4 22 18 24
REMARK H PARENT 10 19 12 21 4 23 18 25
REMARK Flexibility Score: inf
ROOT
ATOM      1  C   UNL     1       8.815   0.919  12.909  1.00  0.00     0.180 A 
ATOM      2  C   UNL     1       8.936   2.311  13.101  1.00  0.00     0.208 A 
ATOM      3  C   UNL     1       8.940   2.815  14.411  1.00  0.00     0.235 A 
ATOM      4  O   UNL     1       9.058   4.055  14.609  1.00  0.00    -0.285 OA
ATOM      5  C   UNL     1       8.805   1.930  15.493  1.00  0.00     0.069 A 
ATOM      6  C   UNL     1       8.665   0.553  15.216  1.00  0.00     0.142 A 
ATOM      7  O   UNL     1       8.673   0.115  13.961  1.00  0.00    -0.452 OA
ATOM      8  C   UNL     1       8.517  -0.361  16.266  1.00  0.00     0.094 A 
ATOM      9  C   UNL     1       8.510   0.083  17.592  1.00  0.00     0.119 A 
ATOM     10  C   UNL     1       8.650   1.450  17.870  1.00  0.00     0.047 A 
ATOM     11  C   UNL     1       8.797   2.371  16.828  1.00  0.00     0.020 A 
ENDROOT
BRANCH   1  12
ATOM     12  C   UNL     1       8.820   0.309  11.561  1.00  0.00     0.025 A 
ATOM     13  C   UNL     1       7.607   0.143  10.873  1.00  0.00     0.016 A 
ATOM     14  C   UNL     1       7.586  -0.450   9.608  1.00  0.00     0.051 A 
ATOM     15  C   UNL     1       8.771  -0.899   9.017  1.00  0.00     0.157 A 
ATOM     16  C   UNL     1      10.008  -0.163  10.974  1.00  0.00     0.062 A 
ATOM     17  C   UNL     1       9.989  -0.760   9.705  1.00  0.00     0.158 A 
BRANCH  15  18
ATOM     18  O   UNL     1       8.719  -1.483   7.753  1.00  0.00    -0.504 OA
ATOM     19  H   UNL     1       9.486  -1.412   7.094  1.00  0.00     0.293 HD
ENDBRANCH  15  18
BRANCH  17  20
ATOM     20  O   UNL     1      11.172  -1.218   9.128  1.00  0.00    -0.504 OA
ATOM     21  H   UNL     1      11.790  -1.853   9.618  1.00  0.00     0.293 HD
ENDBRANCH  17  20
ENDBRANCH   1  12
BRANCH   2  22
ATOM     22  O   UNL     1       9.019   3.172  12.004  1.00  0.00    -0.502 OA
ATOM     23  H   UNL     1       9.209   2.837  11.067  1.00  0.00     0.293 HD
ENDBRANCH   2  22
BRANCH   9  24
ATOM     24  O   UNL     1       8.362  -0.840  18.624  1.00  0.00    -0.508 OA
ATOM     25  H   UNL     1       8.639  -1.808  18.511  1.00  0.00     0.293 HD
ENDBRANCH   9  24
TORSDOF 5
ENDMDL
MODEL 2
REMARK VINA RESULT:    -7.551      1.714      6.808
REMARK INTER + INTRA:          -9.195
REMARK INTER:                  -8.871
REMARK INTRA:                  -0.323
REMARK UNBOUND:                -0.320
REMARK SMILES O=c1c(O)c(-c2ccc(O)c(O)c2)oc2cc(O)ccc12
REMARK SMILES IDX 5 1 3 2 2 3 1 4 21 5 15 6 14 7 16 8 17 9 19 10 20 11 6 12
REMARK SMILES IDX 7 13 8 14 9 15 13 16 11 17 10 18 12 20 4 22 18 24
REMARK H PARENT 10 19 12 21 4 23 18 25
REMARK Flexibility Score: inf
ROOT
ATOM      1  C   UNL     1       8.795   0.461  13.548  1.00  0.00     0.180 A 
ATOM      2  C   UNL     1       7.619   0.555  12.774  1.00  0.00     0.208 A 
ATOM      3  C   UNL     1       7.654   0.131  11.437  1.00  0.00     0.235 A 
ATOM      4  O   UNL     1       6.612   0.194  10.728  1.00  0.00    -0.285 OA
ATOM      5  C   UNL     1       8.855  -0.356  10.897  1.00  0.00     0.069 A 
ATOM      6  C   UNL     1       9.995  -0.396  11.730  1.00  0.00     0.142 A 
ATOM      7  O   UNL     1       9.918   0.009  12.993  1.00  0.00    -0.452 OA
ATOM      8  C   UNL     1      11.213  -0.864  11.226  1.00  0.00     0.094 A 
ATOM      9  C   UNL     1      11.309  -1.297   9.900  1.00  0.00     0.119 A 
ATOM     10  C   UNL     1      10.180  -1.260   9.071  1.00  0.00     0.047 A 
ATOM     11  C   UNL     1       8.958  -0.793   9.564  1.00  0.00     0.020 A 
ENDROOT
BRANCH   1  12
ATOM     12  C   UNL     1       8.835   0.871  14.969  1.00  0.00     0.025 A 
ATOM     13  C   UNL     1       9.212   2.183  15.299  1.00  0.00     0.016 A 
ATOM     14  C   UNL     1       9.277   2.586  16.635  1.00  0.00     0.051 A 
ATOM     15  C   UNL     1       8.982   1.683  17.661  1.00  0.00     0.157 A 
ATOM     16  C   UNL     1       8.559  -0.040  16.003  1.00  0.00     0.062 A 
ATOM     17  C   UNL     1       8.625   0.361  17.345  1.00  0.00     0.158 A 
BRANCH  15  18
ATOM     18  O   UNL     1       9.052   2.115  18.985  1.00  0.00    -0.504 OA
ATOM     19  H   UNL     1       9.888   2.541  19.369  1.00  0.00     0.293 HD
ENDBRANCH  15  18
BRANCH  17  20
ATOM     20  O   UNL     1       8.344  -0.548  18.364  1.00  0.00    -0.504 OA
ATOM     21  H   UNL     1       8.208  -0.246  19.322  1.00  0.00     0.293 HD
ENDBRANCH  17  20
ENDBRANCH   1  12
BRANCH   2  22
ATOM     22  O   UNL     1       6.452   1.089  13.324  1.00  0.00    -0.502 OA
ATOM     23  H   UNL     1       6.245   1.033  14.315  1.00  0.00     0.293 HD
ENDBRANCH   2  22
BRANCH   9  24
ATOM     24  O   UNL     1      12.530  -1.760   9.416  1.00  0.00    -0.508 OA
ATOM     25  H   UNL     1      13.058  -1.237   8.726  1.00  0.00     0.293 HD
ENDBRANCH   9  24
TORSDOF 5
ENDMDL
MODEL 3
REMARK VINA RESULT:    -7.398      3.473      6.740
REMARK INTER + INTRA:          -9.015
REMARK INTER:                  -8.713
REMARK INTRA:                  -0.302
REMARK UNBOUND:                -0.320
REMARK SMILES O=c1c(O)c(-c2ccc(O)c(O)c2)oc2cc(O)ccc12
REMARK SMILES IDX 5 1 3 2 2 3 1 4 21 5 15 6 14 7 16 8 17 9 19 10 20 11 6 12
REMARK SMILES IDX 7 13 8 14 9 15 13 16 11 17 10 18 12 20 4 22 18 24
REMARK H PARENT 10 19 12 21 4 23 18 25
REMARK Flexibility Score: inf
ROOT
ATOM      1  C   UNL     1      10.341  -1.779  11.163  1.00  0.00     0.180 A 
ATOM      2  C   UNL     1      10.269  -3.188  11.165  1.00  0.00     0.208 A 
ATOM      3  C   UNL     1      11.463  -3.925  11.182  1.00  0.00     0.235 A 
ATOM      4  O   UNL     1      11.425  -5.187  11.195  1.00  0.00    -0.285 OA
ATOM      5  C   UNL     1      12.693  -3.249  11.176  1.00  0.00     0.069 A 
ATOM      6  C   UNL     1      12.680  -1.838  11.150  1.00  0.00     0.142 A 
ATOM      7  O   UNL     1      11.528  -1.176  11.143  1.00  0.00    -0.452 OA
ATOM      8  C   UNL     1      13.886  -1.127  11.133  1.00  0.00     0.094 A 
ATOM      9  C   UNL     1      15.107  -1.809  11.145  1.00  0.00     0.119 A 
ATOM     10  C   UNL     1      15.124  -3.209  11.172  1.00  0.00     0.047 A 
ATOM     11  C   UNL     1      13.925  -3.929  11.188  1.00  0.00     0.020 A 
ENDROOT
BRANCH   1  12
ATOM     12  C   UNL     1       9.128  -0.931  11.164  1.00  0.00     0.025 A 
ATOM     13  C   UNL     1       8.492  -0.633   9.948  1.00  0.00     0.016 A 
ATOM     14  C   UNL     1       7.359   0.182   9.923  1.00  0.00     0.051 A 
ATOM     15  C   UNL     1       6.851   0.724  11.107  1.00  0.00     0.157 A 
ATOM     16  C   UNL     1       8.628  -0.367  12.351  1.00  0.00     0.062 A 
ATOM     17  C   UNL     1       7.491   0.453  12.329  1.00  0.00     0.158 A 
BRANCH  15  18
ATOM     18  O   UNL     1       5.716   1.533  11.051  1.00  0.00    -0.504 OA
ATOM     19  H   UNL     1       5.074   1.507  10.267  1.00  0.00     0.293 HD
ENDBRANCH  15  18
BRANCH  17  20
ATOM     20  O   UNL     1       6.998   1.002  13.511  1.00  0.00    -0.504 OA
ATOM     21  H   UNL     1       6.565   1.917  13.532  1.00  0.00     0.293 HD
ENDBRANCH  17  20
ENDBRANCH   1  12
BRANCH   2  22
ATOM     22  O   UNL     1       9.031  -3.833  11.121  1.00  0.00    -0.502 OA
ATOM     23  H   UNL     1       8.898  -4.775  11.470  1.00  0.00     0.293 HD
ENDBRANCH   2  22
BRANCH   9  24
ATOM     24  O   UNL     1      16.297  -1.085  11.128  1.00  0.00    -0.508 OA
ATOM     25  H   UNL     1      16.315  -0.092  11.331  1.00  0.00     0.293 HD
ENDBRANCH   9  24
TORSDOF 5
ENDMDL
MODEL 4
REMARK VINA RESULT:    -7.237      2.847      3.921
REMARK INTER + INTRA:          -8.826
REMARK INTER:                  -8.589
REMARK INTRA:                  -0.237
REMARK UNBOUND:                -0.320
REMARK SMILES O=c1c(O)c(-c2ccc(O)c(O)c2)oc2cc(O)ccc12
REMARK SMILES IDX 5 1 3 2 2 3 1 4 21 5 15 6 14 7 16 8 17 9 19 10 20 11 6 12
REMARK SMILES IDX 7 13 8 14 9 15 13 16 11 17 10 18 12 20 4 22 18 24
REMARK H PARENT 10 19 12 21 4 23 18 25
REMARK Flexibility Score: inf
ROOT
ATOM      1  C   UNL     1      11.009  -0.029  12.549  1.00  0.00     0.180 A 
ATOM      2  C   UNL     1       9.764   0.064  11.893  1.00  0.00     0.208 A 
ATOM      3  C   UNL     1       8.629   0.409  12.642  1.00  0.00     0.235 A 
ATOM      4  O   UNL     1       7.505   0.509  12.076  1.00  0.00    -0.285 OA
ATOM      5  C   UNL     1       8.754   0.633  14.023  1.00  0.00     0.069 A 
ATOM      6  C   UNL     1      10.030   0.497  14.609  1.00  0.00     0.142 A 
ATOM      7  O   UNL     1      11.082   0.176  13.863  1.00  0.00    -0.452 OA
ATOM      8  C   UNL     1      10.195   0.702  15.984  1.00  0.00     0.094 A 
ATOM      9  C   UNL     1       9.099   1.044  16.782  1.00  0.00     0.119 A 
ATOM     10  C   UNL     1       7.830   1.182  16.204  1.00  0.00     0.047 A 
ATOM     11  C   UNL     1       7.655   0.978  14.831  1.00  0.00     0.020 A 
ENDROOT
BRANCH   1  12
ATOM     12  C   UNL     1      12.254  -0.369  11.826  1.00  0.00     0.025 A 
ATOM     13  C   UNL     1      12.476  -1.695  11.418  1.00  0.00     0.016 A 
ATOM     14  C   UNL     1      13.653  -2.044  10.753  1.00  0.00     0.051 A 
ATOM     15  C   UNL     1      14.633  -1.080  10.497  1.00  0.00     0.157 A 
ATOM     16  C   UNL     1      13.250   0.594  11.587  1.00  0.00     0.062 A 
ATOM     17  C   UNL     1      14.434   0.246  10.920  1.00  0.00     0.158 A 
BRANCH  15  18
ATOM     18  O   UNL     1      15.797  -1.457   9.828  1.00  0.00    -0.504 OA
ATOM     19  H   UNL     1      16.093  -2.424   9.766  1.00  0.00     0.293 HD
ENDBRANCH  15  18
BRANCH  17  20
ATOM     20  O   UNL     1      15.413   1.209  10.681  1.00  0.00    -0.504 OA
ATOM     21  H   UNL     1      15.910   1.253   9.800  1.00  0.00     0.293 HD
ENDBRANCH  17  20
ENDBRANCH   1  12
BRANCH   2  22
ATOM     22  O   UNL     1       9.661  -0.213  10.528  1.00  0.00    -0.502 OA
ATOM     23  H   UNL     1       9.674  -1.159  10.165  1.00  0.00     0.293 HD
ENDBRANCH   2  22
BRANCH   9  24
ATOM     24  O   UNL     1       9.281   1.244  18.148  1.00  0.00    -0.508 OA
ATOM     25  H   UNL     1       8.969   0.561  18.829  1.00  0.00     0.293 HD
ENDBRANCH   9  24
TORSDOF 5
ENDMDL
MODEL 5
REMARK VINA RESULT:    -7.161      2.074      7.014
REMARK INTER + INTRA:          -8.737
REMARK INTER:                  -8.413
REMARK INTRA:                  -0.324
REMARK UNBOUND:                -0.320
REMARK SMILES O=c1c(O)c(-c2ccc(O)c(O)c2)oc2cc(O)ccc12
REMARK SMILES IDX 5 1 3 2 2 3 1 4 21 5 15 6 14 7 16 8 17 9 19 10 20 11 6 12
REMARK SMILES IDX 7 13 8 14 9 15 13 16 11 17 10 18 12 20 4 22 18 24
REMARK H PARENT 10 19 12 21 4 23 18 25
REMARK Flexibility Score: inf
ROOT
ATOM      1  C   UNL     1      10.466  -0.158  13.854  1.00  0.00     0.180 A 
ATOM      2  C   UNL     1      11.864  -0.334  13.785  1.00  0.00     0.208 A 
ATOM      3  C   UNL     1      12.445  -0.648  12.547  1.00  0.00     0.235 A 
ATOM      4  O   UNL     1      13.695  -0.800  12.458  1.00  0.00    -0.285 OA
ATOM      5  C   UNL     1      11.626  -0.799  11.417  1.00  0.00     0.069 A 
ATOM      6  C   UNL     1      10.234  -0.629  11.573  1.00  0.00     0.142 A 
ATOM      7  O   UNL     1       9.723  -0.325  12.761  1.00  0.00    -0.452 OA
ATOM      8  C   UNL     1       9.382  -0.781  10.473  1.00  0.00     0.094 A 
ATOM      9  C   UNL     1       9.905  -1.098   9.215  1.00  0.00     0.119 A 
ATOM     10  C   UNL     1      11.287  -1.265   9.055  1.00  0.00     0.047 A 
ATOM     11  C   UNL     1      12.146  -1.117  10.149  1.00  0.00     0.020 A 
ENDROOT
BRANCH   1  12
ATOM     12  C   UNL     1       9.779   0.192  15.117  1.00  0.00     0.025 A 
ATOM     13  C   UNL     1       9.261  -0.831  15.928  1.00  0.00     0.016 A 
ATOM     14  C   UNL     1       8.591  -0.524  17.114  1.00  0.00     0.051 A 
ATOM     15  C   UNL     1       8.415   0.808  17.502  1.00  0.00     0.157 A 
ATOM     16  C   UNL     1       9.583   1.530  15.499  1.00  0.00     0.062 A 
ATOM     17  C   UNL     1       8.909   1.842  16.689  1.00  0.00     0.158 A 
BRANCH  15  18
ATOM     18  O   UNL     1       7.745   1.084  18.693  1.00  0.00    -0.504 OA
ATOM     19  H   UNL     1       7.379   0.350  19.289  1.00  0.00     0.293 HD
ENDBRANCH  15  18
BRANCH  17  20
ATOM     20  O   UNL     1       8.725   3.172  17.063  1.00  0.00    -0.504 OA
ATOM     21  H   UNL     1       8.280   3.840  16.445  1.00  0.00     0.293 HD
ENDBRANCH  17  20
ENDBRANCH   1  12
BRANCH   2  22
ATOM     22  O   UNL     1      12.647  -0.227  14.936  1.00  0.00    -0.502 OA
ATOM     23  H   UNL     1      12.520   0.519  15.611  1.00  0.00     0.293 HD
ENDBRANCH   2  22
BRANCH   9  24
ATOM     24  O   UNL     1       9.043  -1.245   8.131  1.00  0.00    -0.508 OA
ATOM     25  H   UNL     1       9.339  -1.029   7.186  1.00  0.00     0.293 HD
ENDBRANCH   9  24
TORSDOF 5
ENDMDL
MODEL 6
REMARK VINA RESULT:    -7.156      2.510      6.896
REMARK INTER + INTRA:          -8.731
REMARK INTER:                  -8.432
REMARK INTRA:                  -0.299
REMARK UNBOUND:                -0.320
REMARK SMILES O=c1c(O)c(-c2ccc(O)c(O)c2)oc2cc(O)ccc12
REMARK SMILES IDX 5 1 3 2 2 3 1 4 21 5 15 6 14 7 16 8 17 9 19 10 20 11 6 12
REMARK SMILES IDX 7 13 8 14 9 15 13 16 11 17 10 18 12 20 4 22 18 24
REMARK H PARENT 10 19 12 21 4 23 18 25
REMARK Flexibility Score: inf
ROOT
ATOM      1  C   UNL     1      10.369  -0.220  13.442  1.00  0.00     0.180 A 
ATOM      2  C   UNL     1       9.611  -0.362  12.261  1.00  0.00     0.208 A 
ATOM      3  C   UNL     1      10.265  -0.743  11.080  1.00  0.00     0.235 A 
ATOM      4  O   UNL     1       9.608  -0.888  10.013  1.00  0.00    -0.285 OA
ATOM      5  C   UNL     1      11.654  -0.955  11.096  1.00  0.00     0.069 A 
ATOM      6  C   UNL     1      12.344  -0.769  12.313  1.00  0.00     0.142 A 
ATOM      7  O   UNL     1      11.686  -0.414  13.412  1.00  0.00    -0.452 OA
ATOM      8  C   UNL     1      13.729  -0.960  12.368  1.00  0.00     0.094 A 
ATOM      9  C   UNL     1      14.436  -1.337  11.222  1.00  0.00     0.119 A 
ATOM     10  C   UNL     1      13.754  -1.524  10.012  1.00  0.00     0.047 A 
ATOM     11  C   UNL     1      12.369  -1.334   9.946  1.00  0.00     0.020 A 
ENDROOT
BRANCH   1  12
ATOM     12  C   UNL     1       9.750   0.162  14.731  1.00  0.00     0.025 A 
ATOM     13  C   UNL     1       9.372  -0.840  15.639  1.00  0.00     0.016 A 
ATOM     14  C   UNL     1       8.768  -0.504  16.853  1.00  0.00     0.051 A 
ATOM     15  C   UNL     1       8.518   0.834  17.172  1.00  0.00     0.157 A 
ATOM     16  C   UNL     1       9.478   1.505  15.045  1.00  0.00     0.062 A 
ATOM     17  C   UNL     1       8.870   1.845  16.262  1.00  0.00     0.158 A 
BRANCH  15  18
ATOM     18  O   UNL     1       7.915   1.139  18.392  1.00  0.00    -0.504 OA
ATOM     19  H   UNL     1       7.166   1.817  18.468  1.00  0.00     0.293 HD
ENDBRANCH  15  18
BRANCH  17  20
ATOM     20  O   UNL     1       8.611   3.180  16.568  1.00  0.00    -0.504 OA
ATOM     21  H   UNL     1       9.307   3.769  17.009  1.00  0.00     0.293 HD
ENDBRANCH  17  20
ENDBRANCH   1  12
BRANCH   2  22
ATOM     22  O   UNL     1       8.240  -0.097  12.264  1.00  0.00    -0.502 OA
ATOM     23  H   UNL     1       7.760   0.287  11.458  1.00  0.00     0.293 HD
ENDBRANCH   2  22
BRANCH   9  24
ATOM     24  O   UNL     1      15.814  -1.522  11.295  1.00  0.00    -0.508 OA
ATOM     25  H   UNL     1      16.298  -1.546  12.185  1.00  0.00     0.293 HD
ENDBRANCH   9  24
TORSDOF 5
ENDMDL
MODEL 7
REMARK VINA RESULT:    -7.079      2.032      6.925
REMARK INTER + INTRA:          -8.640
REMARK INTER:                  -8.328
REMARK INTRA:                  -0.312
REMARK UNBOUND:                -0.320
REMARK SMILES O=c1c(O)c(-c2ccc(O)c(O)c2)oc2cc(O)ccc12
REMARK SMILES IDX 5 1 3 2 2 3 1 4 21 5 15 6 14 7 16 8 17 9 19 10 20 11 6 12
REMARK SMILES IDX 7 13 8 14 9 15 13 16 11 17 10 18 12 20 4 22 18 24
REMARK H PARENT 10 19 12 21 4 23 18 25
REMARK Flexibility Score: inf
ROOT
ATOM      1  C   UNL     1       9.184   1.109  14.277  1.00  0.00     0.180 A 
ATOM      2  C   UNL     1      10.244   0.429  13.643  1.00  0.00     0.208 A 
ATOM      3  C   UNL     1      10.054  -0.053  12.339  1.00  0.00     0.235 A 
ATOM      4  O   UNL     1      10.992  -0.655  11.746  1.00  0.00    -0.285 OA
ATOM      5  C   UNL     1       8.815   0.134  11.706  1.00  0.00     0.069 A 
ATOM      6  C   UNL     1       7.796   0.804  12.418  1.00  0.00     0.142 A 
ATOM      7  O   UNL     1       8.018   1.252  13.649  1.00  0.00    -0.452 OA
ATOM      8  C   UNL     1       6.543   1.002  11.826  1.00  0.00     0.094 A 
ATOM      9  C   UNL     1       6.295   0.540  10.530  1.00  0.00     0.119 A 
ATOM     10  C   UNL     1       7.304  -0.124   9.820  1.00  0.00     0.047 A 
ATOM     11  C   UNL     1       8.559  -0.327  10.403  1.00  0.00     0.020 A 
ENDROOT
BRANCH   1  12
ATOM     12  C   UNL     1       9.311   1.662  15.644  1.00  0.00     0.025 A 
ATOM     13  C   UNL     1       9.880   2.933  15.825  1.00  0.00     0.016 A 
ATOM     14  C   UNL     1      10.029   3.466  17.107  1.00  0.00     0.051 A 
ATOM     15  C   UNL     1       9.628   2.734  18.229  1.00  0.00     0.157 A 
ATOM     16  C   UNL     1       8.927   0.919  16.775  1.00  0.00     0.062 A 
ATOM     17  C   UNL     1       9.078   1.452  18.064  1.00  0.00     0.158 A 
BRANCH  15  18
ATOM     18  O   UNL     1       9.786   3.294  19.496  1.00  0.00    -0.504 OA
ATOM     19  H   UNL     1       9.333   2.907  20.316  1.00  0.00     0.293 HD
ENDBRANCH  15  18
BRANCH  17  20
ATOM     20  O   UNL     1       8.688   0.711  19.178  1.00  0.00    -0.504 OA
ATOM     21  H   UNL     1       8.213   1.142  19.962  1.00  0.00     0.293 HD
ENDBRANCH  17  20
ENDBRANCH   1  12
BRANCH   2  22
ATOM     22  O   UNL     1      11.449   0.214  14.316  1.00  0.00    -0.502 OA
ATOM     23  H   UNL     1      11.494   0.087  15.320  1.00  0.00     0.293 HD
ENDBRANCH   2  22
BRANCH   9  24
ATOM     24  O   UNL     1       5.042   0.746   9.957  1.00  0.00    -0.508 OA
ATOM     25  H   UNL     1       4.197   0.393  10.392  1.00  0.00     0.293 HD
ENDBRANCH   9  24
TORSDOF 5
ENDMDL
MODEL 8
REMARK VINA RESULT:    -6.947      3.577      6.605
REMARK INTER + INTRA:          -8.485
REMARK INTER:                  -8.205
REMARK INTRA:                  -0.281
REMARK UNBOUND:                -0.320
REMARK SMILES O=c1c(O)c(-c2ccc(O)c(O)c2)oc2cc(O)ccc12
REMARK SMILES IDX 5 1 3 2 2 3 1 4 21 5 15 6 14 7 16 8 17 9 19 10 20 11 6 12
REMARK SMILES IDX 7 13 8 14 9 15 13 16 11 17 10 18 12 20 4 22 18 24
REMARK H PARENT 10 19 12 21 4 23 18 25
REMARK Flexibility Score: inf
ROOT
ATOM      1  C   UNL     1      11.782  -1.223  11.493  1.00  0.00     0.180 A 
ATOM      2  C   UNL     1      11.116  -0.534  12.528  1.00  0.00     0.208 A 
ATOM      3  C   UNL     1       9.795  -0.112  12.317  1.00  0.00     0.235 A 
ATOM      4  O   UNL     1       9.173   0.497  13.232  1.00  0.00    -0.285 OA
ATOM      5  C   UNL     1       9.176  -0.365  11.082  1.00  0.00     0.069 A 
ATOM      6  C   UNL     1       9.919  -1.040  10.089  1.00  0.00     0.142 A 
ATOM      7  O   UNL     1      11.166  -1.430  10.331  1.00  0.00    -0.452 OA
ATOM      8  C   UNL     1       9.342  -1.302   8.842  1.00  0.00     0.094 A 
ATOM      9  C   UNL     1       8.030  -0.902   8.573  1.00  0.00     0.119 A 
ATOM     10  C   UNL     1       7.289  -0.233   9.556  1.00  0.00     0.047 A 
ATOM     11  C   UNL     1       7.857   0.035  10.806  1.00  0.00     0.020 A 
ENDROOT
BRANCH   1  12
ATOM     12  C   UNL     1      13.170  -1.716  11.645  1.00  0.00     0.025 A 
ATOM     13  C   UNL     1      13.409  -2.891  12.377  1.00  0.00     0.016 A 
ATOM     14  C   UNL     1      14.712  -3.364  12.550  1.00  0.00     0.051 A 
ATOM     15  C   UNL     1      15.795  -2.665  12.009  1.00  0.00     0.157 A 
ATOM     16  C   UNL     1      14.262  -1.005  11.120  1.00  0.00     0.062 A 
ATOM     17  C   UNL     1      15.572  -1.476  11.294  1.00  0.00     0.158 A 
BRANCH  15  18
ATOM     18  O   UNL     1      17.084  -3.163  12.196  1.00  0.00    -0.504 OA
ATOM     19  H   UNL     1      17.626  -2.957  13.027  1.00  0.00     0.293 HD
ENDBRANCH  15  18
BRANCH  17  20
ATOM     20  O   UNL     1      16.649  -0.768  10.764  1.00  0.00    -0.504 OA
ATOM     21  H   UNL     1      16.512   0.001  10.119  1.00  0.00     0.293 HD
ENDBRANCH  17  20
ENDBRANCH   1  12
BRANCH   2  22
ATOM     22  O   UNL     1      11.773  -0.253  13.728  1.00  0.00    -0.502 OA
ATOM     23  H   UNL     1      11.676   0.638  14.203  1.00  0.00     0.293 HD
ENDBRANCH   2  22
BRANCH   9  24
ATOM     24  O   UNL     1       7.472  -1.171   7.325  1.00  0.00    -0.508 OA
ATOM     25  H   UNL     1       7.541  -2.090   6.902  1.00  0.00     0.293 HD
ENDBRANCH   9  24
TORSDOF 5
ENDMDL
MODEL 9
REMARK VINA RESULT:    -6.826      1.981      3.850
REMARK INTER + INTRA:          -8.343
REMARK INTER:                  -8.026
REMARK INTRA:                  -0.317
REMARK UNBOUND:                -0.320
REMARK SMILES O=c1c(O)c(-c2ccc(O)c(O)c2)oc2cc(O)ccc12
REMARK SMILES IDX 5 1 3 2 2 3 1 4 21 5 15 6 14 7 16 8 17 9 19 10 20 11 6 12
REMARK SMILES IDX 7 13 8 14 9 15 13 16 11 17 10 18 12 20 4 22 18 24
REMARK H PARENT 10 19 12 21 4 23 18 25
REMARK Flexibility Score: inf
ROOT
ATOM      1  C   UNL     1       8.488   1.437  14.617  1.00  0.00     0.180 A 
ATOM      2  C   UNL     1       8.344   0.622  15.759  1.00  0.00     0.208 A 
ATOM      3  C   UNL     1       8.555   1.189  17.025  1.00  0.00     0.235 A 
ATOM      4  O   UNL     1       8.421   0.483  18.063  1.00  0.00    -0.285 OA
ATOM      5  C   UNL     1       8.923   2.540  17.125  1.00  0.00     0.069 A 
ATOM      6  C   UNL     1       9.070   3.282  15.933  1.00  0.00     0.142 A 
ATOM      7  O   UNL     1       8.853   2.710  14.754  1.00  0.00    -0.452 OA
ATOM      8  C   UNL     1       9.445   4.629  15.990  1.00  0.00     0.094 A 
ATOM      9  C   UNL     1       9.673   5.248  17.223  1.00  0.00     0.119 A 
ATOM     10  C   UNL     1       9.526   4.514  18.408  1.00  0.00     0.047 A 
ATOM     11  C   UNL     1       9.153   3.167  18.363  1.00  0.00     0.020 A 
ENDROOT
BRANCH   1  12
ATOM     12  C   UNL     1       8.265   0.918  13.249  1.00  0.00     0.025 A 
ATOM     13  C   UNL     1       9.334   0.339  12.547  1.00  0.00     0.016 A 
ATOM     14  C   UNL     1       9.151  -0.138  11.247  1.00  0.00     0.051 A 
ATOM     15  C   UNL     1       7.905  -0.031  10.623  1.00  0.00     0.157 A 
ATOM     16  C   UNL     1       7.018   1.045  12.612  1.00  0.00     0.062 A 
ATOM     17  C   UNL     1       6.833   0.568  11.306  1.00  0.00     0.158 A 
BRANCH  15  18
ATOM     18  O   UNL     1       7.752  -0.519   9.325  1.00  0.00    -0.504 OA
ATOM     19  H   UNL     1       7.162  -0.057   8.643  1.00  0.00     0.293 HD
ENDBRANCH  15  18
BRANCH  17  20
ATOM     20  O   UNL     1       5.591   0.691  10.684  1.00  0.00    -0.504 OA
ATOM     21  H   UNL     1       5.504   1.039   9.736  1.00  0.00     0.293 HD
ENDBRANCH  17  20
ENDBRANCH   1  12
BRANCH   2  22
ATOM     22  O   UNL     1       8.026  -0.732  15.627  1.00  0.00    -0.502 OA
ATOM     23  H   UNL     1       7.414  -1.075  14.895  1.00  0.00     0.293 HD
ENDBRANCH   2  22
BRANCH   9  24
ATOM     24  O   UNL     1      10.045   6.589  17.260  1.00  0.00    -0.508 OA
ATOM     25  H   UNL     1      10.424   7.055  16.444  1.00  0.00     0.293 HD
ENDBRANCH   9  24
TORSDOF 5
ENDMDL
