MODEL 1
REMARK VINA RESULT:    -4.740      0.000      0.000
REMARK INTER + INTRA:          -7.335
REMARK INTER:                  -6.680
REMARK INTRA:                  -0.656
REMARK UNBOUND:                -0.656
REMARK SMILES C=CCCCCCCC(=O)[O-]
REMARK SMILES IDX 6 1 7 2 8 3 9 4 10 5 11 6 5 7 4 8 3 9 2 10 1 11
REMARK H PARENT
REMARK Flexibility Score: inf
ROOT
ATOM      1  C   UNL     1      22.053 -21.531 -10.243  1.00  0.00     0.000 C 
ENDROOT
BRANCH   1   2
ATOM      2  C   UNL     1      23.512 -21.112 -10.009  1.00  0.00     0.006 C 
BRANCH   2   3
ATOM      3  C   UNL     1      24.393 -21.362 -11.239  1.00  0.00     0.053 C 
BRANCH   3   4
ATOM      4  C   UNL     1      24.227 -22.754 -11.769  1.00  0.00     0.041 C 
ATOM      5  O   UNL     1      24.550 -23.743 -11.059  1.00  0.00    -0.550 OA
ATOM      6  O   UNL     1      23.747 -22.958 -13.057  1.00  0.00    -0.550 OA
ENDBRANCH   3   4
ENDBRANCH   2   3
ENDBRANCH   1   2
BRANCH   1   7
ATOM      7  C   UNL     1      21.527 -22.369  -9.071  1.00  0.00     0.000 C 
BRANCH   7   8
ATOM      8  C   UNL     1      20.738 -23.586  -9.575  1.00  0.00     0.004 C 
BRANCH   8   9
ATOM      9  C   UNL     1      20.748 -23.688 -11.107  1.00  0.00     0.027 C 
BRANCH   9  10
ATOM     10  C   UNL     1      21.039 -25.085 -11.588  1.00  0.00    -0.035 C 
ATOM     11  C   UNL     1      20.714 -26.161 -10.865  1.00  0.00     0.004 C 
ENDBRANCH   9  10
ENDBRANCH   8   9
ENDBRANCH   7   8
ENDBRANCH   1   7
TORSDOF 7
ENDMDL
MODEL 2
REMARK VINA RESULT:    -4.621      1.687      4.041
REMARK INTER + INTRA:          -7.169
REMARK INTER:                  -6.407
REMARK INTRA:                  -0.762
REMARK UNBOUND:                -0.656
REMARK SMILES C=CCCCCCCC(=O)[O-]
REMARK SMILES IDX 6 1 7 2 8 3 9 4 10 5 11 6 5 7 4 8 3 9 2 10 1 11
REMARK H PARENT
REMARK Flexibility Score: inf
ROOT
ATOM      1  C   UNL     1      21.641 -21.341  -8.047  1.00  0.00     0.000 C 
ENDROOT
BRANCH   1   2
ATOM      2  C   UNL     1      21.149 -21.645  -9.471  1.00  0.00     0.006 C 
BRANCH   2   3
ATOM      3  C   UNL     1      20.920 -23.144  -9.699  1.00  0.00     0.053 C 
BRANCH   3   4
ATOM      4  C   UNL     1      21.445 -23.591 -11.029  1.00  0.00     0.041 C 
ATOM      5  O   UNL     1      20.890 -23.203 -12.091  1.00  0.00    -0.550 OA
ATOM      6  O   UNL     1      22.526 -24.462 -11.096  1.00  0.00    -0.550 OA
ENDBRANCH   3   4
ENDBRANCH   2   3
ENDBRANCH   1   2
BRANCH   1   7
ATOM      7  C   UNL     1      22.913 -22.133  -7.725  1.00  0.00     0.000 C 
BRANCH   7   8
ATOM      8  C   UNL     1      24.147 -21.474  -8.358  1.00  0.00     0.004 C 
BRANCH   8   9
ATOM      9  C   UNL     1      24.851 -22.402  -9.358  1.00  0.00     0.027 C 
BRANCH   9  10
ATOM     10  C   UNL     1      24.933 -21.804 -10.738  1.00  0.00    -0.035 C 
ATOM     11  C   UNL     1      24.918 -20.483 -10.935  1.00  0.00     0.004 C 
ENDBRANCH   9  10
ENDBRANCH   8   9
ENDBRANCH   7   8
ENDBRANCH   1   7
TORSDOF 7
ENDMDL
MODEL 3
REMARK VINA RESULT:    -4.618      2.210      4.377
REMARK INTER + INTRA:          -7.164
REMARK INTER:                  -6.457
REMARK INTRA:                  -0.708
REMARK UNBOUND:                -0.656
REMARK SMILES C=CCCCCCCC(=O)[O-]
REMARK SMILES IDX 6 1 7 2 8 3 9 4 10 5 11 6 5 7 4 8 3 9 2 10 1 11
REMARK H PARENT
REMARK Flexibility Score: inf
ROOT
ATOM      1  C   UNL     1      23.255 -25.238  -9.808  1.00  0.00     0.000 C 
ENDROOT
BRANCH   1   2
ATOM      2  C   UNL     1      21.977 -24.867  -9.041  1.00  0.00     0.006 C 
BRANCH   2   3
ATOM      3  C   UNL     1      20.814 -24.522  -9.980  1.00  0.00     0.053 C 
BRANCH   3   4
ATOM      4  C   UNL     1      21.086 -23.278 -10.770  1.00  0.00     0.041 C 
ATOM      5  O   UNL     1      21.252 -22.178 -10.180  1.00  0.00    -0.550 OA
ATOM      6  O   UNL     1      21.123 -23.328 -12.158  1.00  0.00    -0.550 OA
ENDBRANCH   3   4
ENDBRANCH   2   3
ENDBRANCH   1   2
BRANCH   1   7
ATOM      7  C   UNL     1      24.498 -24.676  -9.109  1.00  0.00     0.000 C 
BRANCH   7   8
ATOM      8  C   UNL     1      24.729 -23.207  -9.492  1.00  0.00     0.004 C 
BRANCH   8   9
ATOM      9  C   UNL     1      24.855 -23.018 -11.011  1.00  0.00     0.027 C 
BRANCH   9  10
ATOM     10  C   UNL     1      24.494 -21.623 -11.448  1.00  0.00    -0.035 C 
ATOM     11  C   UNL     1      24.899 -20.545 -10.772  1.00  0.00     0.004 C 
ENDBRANCH   9  10
ENDBRANCH   8   9
ENDBRANCH   7   8
ENDBRANCH   1   7
TORSDOF 7
ENDMDL
MODEL 4
REMARK VINA RESULT:    -4.586      2.076      2.521
REMARK INTER + INTRA:          -7.118
REMARK INTER:                  -6.448
REMARK INTRA:                  -0.670
REMARK UNBOUND:                -0.656
REMARK SMILES C=CCCCCCCC(=O)[O-]
REMARK SMILES IDX 6 1 7 2 8 3 9 4 10 5 11 6 5 7 4 8 3 9 2 10 1 11
REMARK H PARENT
REMARK Flexibility Score: inf
ROOT
ATOM      1  C   UNL     1      24.101 -24.962  -9.982  1.00  0.00     0.000 C 
ENDROOT
BRANCH   1   2
ATOM      2  C   UNL     1      24.430 -23.806 -10.938  1.00  0.00     0.006 C 
BRANCH   2   3
ATOM      3  C   UNL     1      24.922 -22.558 -10.192  1.00  0.00     0.053 C 
BRANCH   3   4
ATOM      4  C   UNL     1      24.235 -21.316 -10.674  1.00  0.00     0.041 C 
ATOM      5  O   UNL     1      24.864 -20.474 -11.368  1.00  0.00    -0.550 OA
ATOM      6  O   UNL     1      22.912 -21.072 -10.327  1.00  0.00    -0.550 OA
ENDBRANCH   3   4
ENDBRANCH   2   3
ENDBRANCH   1   2
BRANCH   1   7
ATOM      7  C   UNL     1      23.367 -24.453  -8.736  1.00  0.00     0.000 C 
BRANCH   7   8
ATOM      8  C   UNL     1      21.920 -24.965  -8.702  1.00  0.00     0.004 C 
BRANCH   8   9
ATOM      9  C   UNL     1      20.966 -24.055  -9.490  1.00  0.00     0.027 C 
BRANCH   9  10
ATOM     10  C   UNL     1      20.324 -24.766 -10.653  1.00  0.00    -0.035 C 
ATOM     11  C   UNL     1      20.691 -25.998 -11.015  1.00  0.00     0.004 C 
ENDBRANCH   9  10
ENDBRANCH   8   9
ENDBRANCH   7   8
ENDBRANCH   1   7
TORSDOF 7
ENDMDL
MODEL 5
REMARK VINA RESULT:    -4.548      2.226      3.662
REMARK INTER + INTRA:          -7.065
REMARK INTER:                  -6.300
REMARK INTRA:                  -0.765
REMARK UNBOUND:                -0.656
REMARK SMILES C=CCCCCCCC(=O)[O-]
REMARK SMILES IDX 6 1 7 2 8 3 9 4 10 5 11 6 5 7 4 8 3 9 2 10 1 11
REMARK H PARENT
REMARK Flexibility Score: inf
ROOT
ATOM      1  C   UNL     1      22.570 -21.538  -9.733  1.00  0.00     0.000 C 
ENDROOT
BRANCH   1   2
ATOM      2  C   UNL     1      21.407 -21.942 -10.650  1.00  0.00     0.006 C 
BRANCH   2   3
ATOM      3  C   UNL     1      21.001 -23.410 -10.463  1.00  0.00     0.053 C 
BRANCH   3   4
ATOM      4  C   UNL     1      21.208 -24.208 -11.714  1.00  0.00     0.041 C 
ATOM      5  O   UNL     1      21.716 -23.668 -12.732  1.00  0.00    -0.550 OA
ATOM      6  O   UNL     1      20.809 -25.538 -11.766  1.00  0.00    -0.550 OA
ENDBRANCH   3   4
ENDBRANCH   2   3
ENDBRANCH   1   2
BRANCH   1   7
ATOM      7  C   UNL     1      23.853 -21.306 -10.542  1.00  0.00     0.000 C 
BRANCH   7   8
ATOM      8  C   UNL     1      25.004 -22.169 -10.007  1.00  0.00     0.004 C 
BRANCH   8   9
ATOM      9  C   UNL     1      24.585 -23.000  -8.785  1.00  0.00     0.027 C 
BRANCH   9  10
ATOM     10  C   UNL     1      24.882 -24.466  -8.957  1.00  0.00    -0.035 C 
ATOM     11  C   UNL     1      24.241 -25.213  -9.860  1.00  0.00     0.004 C 
ENDBRANCH   9  10
ENDBRANCH   8   9
ENDBRANCH   7   8
ENDBRANCH   1   7
TORSDOF 7
ENDMDL
MODEL 6
REMARK VINA RESULT:    -4.539      1.623      3.148
REMARK INTER + INTRA:          -7.052
REMARK INTER:                  -6.242
REMARK INTRA:                  -0.810
REMARK UNBOUND:                -0.656
REMARK SMILES C=CCCCCCCC(=O)[O-]
REMARK SMILES IDX 6 1 7 2 8 3 9 4 10 5 11 6 5 7 4 8 3 9 2 10 1 11
REMARK H PARENT
REMARK Flexibility Score: inf
ROOT
ATOM      1  C   UNL     1      22.761 -25.263  -9.733  1.00  0.00     0.000 C 
ENDROOT
BRANCH   1   2
ATOM      2  C   UNL     1      24.168 -24.922 -10.246  1.00  0.00     0.006 C 
BRANCH   2   3
ATOM      3  C   UNL     1      24.595 -23.498  -9.870  1.00  0.00     0.053 C 
BRANCH   3   4
ATOM      4  C   UNL     1      24.684 -22.607 -11.071  1.00  0.00     0.041 C 
ATOM      5  O   UNL     1      24.262 -23.008 -12.188  1.00  0.00    -0.550 OA
ATOM      6  O   UNL     1      25.263 -21.349 -10.965  1.00  0.00    -0.550 OA
ENDBRANCH   3   4
ENDBRANCH   2   3
ENDBRANCH   1   2
BRANCH   1   7
ATOM      7  C   UNL     1      21.753 -25.320 -10.887  1.00  0.00     0.000 C 
BRANCH   7   8
ATOM      8  C   UNL     1      20.899 -24.044 -10.934  1.00  0.00     0.004 C 
BRANCH   8   9
ATOM      9  C   UNL     1      20.785 -23.373  -9.557  1.00  0.00     0.027 C 
BRANCH   9  10
ATOM     10  C   UNL     1      21.230 -21.935  -9.581  1.00  0.00    -0.035 C 
ATOM     11  C   UNL     1      21.551 -21.279  -8.463  1.00  0.00     0.004 C 
ENDBRANCH   9  10
ENDBRANCH   8   9
ENDBRANCH   7   8
ENDBRANCH   1   7
TORSDOF 7
ENDMDL
MODEL 7
REMARK VINA RESULT:    -4.527      1.640      1.912
REMARK INTER + INTRA:          -7.035
REMARK INTER:                  -6.328
REMARK INTRA:                  -0.707
REMARK UNBOUND:                -0.656
REMARK SMILES C=CCCCCCCC(=O)[O-]
REMARK SMILES IDX 6 1 7 2 8 3 9 4 10 5 11 6 5 7 4 8 3 9 2 10 1 11
REMARK H PARENT
REMARK Flexibility Score: inf
ROOT
ATOM      1  C   UNL     1      22.537 -21.516  -9.693  1.00  0.00     0.000 C 
ENDROOT
BRANCH   1   2
ATOM      2  C   UNL     1      23.720 -21.958  -8.819  1.00  0.00     0.006 C 
BRANCH   2   3
ATOM      3  C   UNL     1      24.675 -22.898  -9.565  1.00  0.00     0.053 C 
BRANCH   3   4
ATOM      4  C   UNL     1      24.379 -24.338  -9.274  1.00  0.00     0.041 C 
ATOM      5  O   UNL     1      24.270 -24.733  -8.083  1.00  0.00    -0.550 OA
ATOM      6  O   UNL     1      24.256 -25.248 -10.316  1.00  0.00    -0.550 OA
ENDBRANCH   3   4
ENDBRANCH   2   3
ENDBRANCH   1   2
BRANCH   1   7
ATOM      7  C   UNL     1      21.203 -21.948  -9.072  1.00  0.00     0.000 C 
BRANCH   7   8
ATOM      8  C   UNL     1      20.799 -23.348  -9.556  1.00  0.00     0.004 C 
BRANCH   8   9
ATOM      9  C   UNL     1      20.985 -23.513 -11.071  1.00  0.00     0.027 C 
BRANCH   9  10
ATOM     10  C   UNL     1      20.934 -24.955 -11.503  1.00  0.00    -0.035 C 
ATOM     11  C   UNL     1      20.750 -25.946 -10.627  1.00  0.00     0.004 C 
ENDBRANCH   9  10
ENDBRANCH   8   9
ENDBRANCH   7   8
ENDBRANCH   1   7
TORSDOF 7
ENDMDL
MODEL 8
REMARK VINA RESULT:    -4.515      2.487      4.480
REMARK INTER + INTRA:          -7.018
REMARK INTER:                  -6.209
REMARK INTRA:                  -0.810
REMARK UNBOUND:                -0.656
REMARK SMILES C=CCCCCCCC(=O)[O-]
REMARK SMILES IDX 6 1 7 2 8 3 9 4 10 5 11 6 5 7 4 8 3 9 2 10 1 11
REMARK H PARENT
REMARK Flexibility Score: inf
ROOT
ATOM      1  C   UNL     1      21.806 -23.982 -10.766  1.00  0.00     0.000 C 
ENDROOT
BRANCH   1   2
ATOM      2  C   UNL     1      21.033 -23.229  -9.673  1.00  0.00     0.006 C 
BRANCH   2   3
ATOM      3  C   UNL     1      21.481 -21.767  -9.545  1.00  0.00     0.053 C 
BRANCH   3   4
ATOM      4  C   UNL     1      21.931 -21.444  -8.152  1.00  0.00     0.041 C 
ATOM      5  O   UNL     1      21.088 -21.112  -7.277  1.00  0.00    -0.550 OA
ATOM      6  O   UNL     1      23.282 -21.476  -7.830  1.00  0.00    -0.550 OA
ENDBRANCH   3   4
ENDBRANCH   2   3
ENDBRANCH   1   2
BRANCH   1   7
ATOM      7  C   UNL     1      22.819 -24.955 -10.151  1.00  0.00     0.000 C 
BRANCH   7   8
ATOM      8  C   UNL     1      24.194 -24.291  -9.993  1.00  0.00     0.004 C 
BRANCH   8   9
ATOM      9  C   UNL     1      24.506 -23.325 -11.145  1.00  0.00     0.027 C 
BRANCH   9  10
ATOM     10  C   UNL     1      25.249 -22.099 -10.683  1.00  0.00    -0.035 C 
ATOM     11  C   UNL     1      24.868 -20.869 -11.038  1.00  0.00     0.004 C 
ENDBRANCH   9  10
ENDBRANCH   8   9
ENDBRANCH   7   8
ENDBRANCH   1   7
TORSDOF 7
ENDMDL
MODEL 9
REMARK VINA RESULT:    -4.494      1.949      2.623
REMARK INTER + INTRA:          -6.989
REMARK INTER:                  -6.106
REMARK INTRA:                  -0.884
REMARK UNBOUND:                -0.656
REMARK SMILES C=CCCCCCCC(=O)[O-]
REMARK SMILES IDX 6 1 7 2 8 3 9 4 10 5 11 6 5 7 4 8 3 9 2 10 1 11
REMARK H PARENT
REMARK Flexibility Score: inf
ROOT
ATOM      1  C   UNL     1      21.076 -22.852  -9.793  1.00  0.00     0.000 C 
ENDROOT
BRANCH   1   2
ATOM      2  C   UNL     1      21.752 -21.552 -10.254  1.00  0.00     0.006 C 
BRANCH   2   3
ATOM      3  C   UNL     1      23.224 -21.479  -9.829  1.00  0.00     0.053 C 
BRANCH   3   4
ATOM      4  C   UNL     1      24.143 -21.427 -11.012  1.00  0.00     0.041 C 
ATOM      5  O   UNL     1      24.974 -20.487 -11.127  1.00  0.00    -0.550 OA
ATOM      6  O   UNL     1      24.060 -22.398 -12.003  1.00  0.00    -0.550 OA
ENDBRANCH   3   4
ENDBRANCH   2   3
ENDBRANCH   1   2
BRANCH   1   7
ATOM      7  C   UNL     1      20.747 -23.754 -10.988  1.00  0.00     0.000 C 
BRANCH   7   8
ATOM      8  C   UNL     1      21.713 -24.945 -11.061  1.00  0.00     0.004 C 
BRANCH   8   9
ATOM      9  C   UNL     1      22.423 -25.197  -9.723  1.00  0.00     0.027 C 
BRANCH   9  10
ATOM     10  C   UNL     1      23.922 -25.221  -9.864  1.00  0.00    -0.035 C 
ATOM     11  C   UNL     1      24.728 -24.772  -8.898  1.00  0.00     0.004 C 
ENDBRANCH   9  10
ENDBRANCH   8   9
ENDBRANCH   7   8
ENDBRANCH   1   7
TORSDOF 7
ENDMDL
