MODEL 1
REMARK VINA RESULT:    -4.248      0.000      0.000
REMARK INTER + INTRA:          -4.514
REMARK INTER:                  -4.496
REMARK INTRA:                  -0.017
REMARK UNBOUND:                -0.017
REMARK SMILES O=C([O-])c1cccnc1
REMARK SMILES IDX 4 1 5 2 9 3 6 4 8 5 7 6 2 7 1 8 3 9
REMARK H PARENT
REMARK Flexibility Score: inf
ROOT
ATOM      1  C   UNL     1      20.285  26.214  24.001  1.00  0.00     0.016 A 
ATOM      2  C   UNL     1      21.062  25.194  24.575  1.00  0.00     0.013 A 
ATOM      3  C   UNL     1      20.624  26.668  22.715  1.00  0.00     0.120 A 
ATOM      4  C   UNL     1      22.142  24.655  23.873  1.00  0.00     0.021 A 
ATOM      5  N   UNL     1      21.681  26.125  22.052  1.00  0.00    -0.264 NA
ATOM      6  C   UNL     1      22.439  25.138  22.598  1.00  0.00     0.111 A 
ENDROOT
BRANCH   1   7
ATOM      7  C   UNL     1      19.138  26.798  24.728  1.00  0.00     0.073 C 
ATOM      8  O   UNL     1      17.965  26.664  24.287  1.00  0.00    -0.545 OA
ATOM      9  O   UNL     1      19.338  27.505  25.907  1.00  0.00    -0.545 OA
ENDBRANCH   1   7
TORSDOF 1
ENDMDL
MODEL 2
REMARK VINA RESULT:    -4.222     12.806     13.829
REMARK INTER + INTRA:          -4.486
REMARK INTER:                  -4.462
REMARK INTRA:                  -0.024
REMARK UNBOUND:                -0.017
REMARK SMILES O=C([O-])c1cccnc1
REMARK SMILES IDX 4 1 5 2 9 3 6 4 8 5 7 6 2 7 1 8 3 9
REMARK H PARENT
REMARK Flexibility Score: inf
ROOT
ATOM      1  C   UNL     1      33.427  22.726  25.201  1.00  0.00     0.016 A 
ATOM      2  C   UNL     1      33.568  21.577  25.998  1.00  0.00     0.013 A 
ATOM      3  C   UNL     1      34.542  23.565  25.036  1.00  0.00     0.120 A 
ATOM      4  C   UNL     1      34.793  21.292  26.605  1.00  0.00     0.021 A 
ATOM      5  N   UNL     1      35.723  23.264  25.639  1.00  0.00    -0.264 NA
ATOM      6  C   UNL     1      35.871  22.156  26.412  1.00  0.00     0.111 A 
ENDROOT
BRANCH   1   7
ATOM      7  C   UNL     1      32.139  23.047  24.550  1.00  0.00     0.073 C 
ATOM      8  O   UNL     1      32.040  24.041  23.782  1.00  0.00    -0.545 OA
ATOM      9  O   UNL     1      31.019  22.257  24.777  1.00  0.00    -0.545 OA
ENDBRANCH   1   7
TORSDOF 1
ENDMDL
MODEL 3
REMARK VINA RESULT:    -4.161     13.565     14.597
REMARK INTER + INTRA:          -4.422
REMARK INTER:                  -4.402
REMARK INTRA:                  -0.020
REMARK UNBOUND:                -0.017
REMARK SMILES O=C([O-])c1cccnc1
REMARK SMILES IDX 4 1 5 2 9 3 6 4 8 5 7 6 2 7 1 8 3 9
REMARK H PARENT
REMARK Flexibility Score: inf
ROOT
ATOM      1  C   UNL     1      34.124  22.788  25.926  1.00  0.00     0.016 A 
ATOM      2  C   UNL     1      34.205  21.450  26.345  1.00  0.00     0.013 A 
ATOM      3  C   UNL     1      34.944  23.738  26.559  1.00  0.00     0.120 A 
ATOM      4  C   UNL     1      35.082  21.088  27.370  1.00  0.00     0.021 A 
ATOM      5  N   UNL     1      35.790  23.358  27.554  1.00  0.00    -0.264 NA
ATOM      6  C   UNL     1      35.876  22.067  27.968  1.00  0.00     0.111 A 
ENDROOT
BRANCH   1   7
ATOM      7  C   UNL     1      33.202  23.192  24.843  1.00  0.00     0.073 C 
ATOM      8  O   UNL     1      32.016  22.765  24.819  1.00  0.00    -0.545 OA
ATOM      9  O   UNL     1      33.630  24.048  23.835  1.00  0.00    -0.545 OA
ENDBRANCH   1   7
TORSDOF 1
ENDMDL
MODEL 4
REMARK VINA RESULT:    -4.079      0.966      1.956
REMARK INTER + INTRA:          -4.334
REMARK INTER:                  -4.317
REMARK INTRA:                  -0.017
REMARK UNBOUND:                -0.017
REMARK SMILES O=C([O-])c1cccnc1
REMARK SMILES IDX 4 1 5 2 9 3 6 4 8 5 7 6 2 7 1 8 3 9
REMARK H PARENT
REMARK Flexibility Score: inf
ROOT
ATOM      1  C   UNL     1      20.529  26.004  23.947  1.00  0.00     0.016 A 
ATOM      2  C   UNL     1      20.818  26.430  22.640  1.00  0.00     0.013 A 
ATOM      3  C   UNL     1      21.317  24.984  24.507  1.00  0.00     0.120 A 
ATOM      4  C   UNL     1      21.865  25.843  21.927  1.00  0.00     0.021 A 
ATOM      5  N   UNL     1      22.332  24.429  23.790  1.00  0.00    -0.264 NA
ATOM      6  C   UNL     1      22.620  24.834  22.525  1.00  0.00     0.111 A 
ENDROOT
BRANCH   1   7
ATOM      7  C   UNL     1      19.424  26.611  24.720  1.00  0.00     0.073 C 
ATOM      8  O   UNL     1      19.660  27.258  25.775  1.00  0.00    -0.545 OA
ATOM      9  O   UNL     1      18.109  26.476  24.292  1.00  0.00    -0.545 OA
ENDBRANCH   1   7
TORSDOF 1
ENDMDL
MODEL 5
REMARK VINA RESULT:    -4.028      2.723      3.510
REMARK INTER + INTRA:          -4.281
REMARK INTER:                  -4.262
REMARK INTRA:                  -0.019
REMARK UNBOUND:                -0.017
REMARK SMILES O=C([O-])c1cccnc1
REMARK SMILES IDX 4 1 5 2 9 3 6 4 8 5 7 6 2 7 1 8 3 9
REMARK H PARENT
REMARK Flexibility Score: inf
ROOT
ATOM      1  C   UNL     1      21.834  24.583  22.798  1.00  0.00     0.016 A 
ATOM      2  C   UNL     1      22.524  25.050  21.667  1.00  0.00     0.013 A 
ATOM      3  C   UNL     1      20.740  23.722  22.605  1.00  0.00     0.120 A 
ATOM      4  C   UNL     1      22.120  24.660  20.389  1.00  0.00     0.021 A 
ATOM      5  N   UNL     1      20.367  23.358  21.348  1.00  0.00    -0.264 NA
ATOM      6  C   UNL     1      21.028  23.804  20.247  1.00  0.00     0.111 A 
ENDROOT
BRANCH   1   7
ATOM      7  C   UNL     1      22.246  24.983  24.161  1.00  0.00     0.073 C 
ATOM      8  O   UNL     1      21.400  25.434  24.979  1.00  0.00    -0.545 OA
ATOM      9  O   UNL     1      23.573  24.870  24.557  1.00  0.00    -0.545 OA
ENDBRANCH   1   7
TORSDOF 1
ENDMDL
MODEL 6
REMARK VINA RESULT:    -4.008      2.581      3.378
REMARK INTER + INTRA:          -4.260
REMARK INTER:                  -4.242
REMARK INTRA:                  -0.018
REMARK UNBOUND:                -0.017
REMARK SMILES O=C([O-])c1cccnc1
REMARK SMILES IDX 4 1 5 2 9 3 6 4 8 5 7 6 2 7 1 8 3 9
REMARK H PARENT
REMARK Flexibility Score: inf
ROOT
ATOM      1  C   UNL     1      22.151  24.782  22.690  1.00  0.00     0.016 A 
ATOM      2  C   UNL     1      22.388  23.530  22.100  1.00  0.00     0.013 A 
ATOM      3  C   UNL     1      21.584  25.797  21.901  1.00  0.00     0.120 A 
ATOM      4  C   UNL     1      22.065  23.315  20.758  1.00  0.00     0.021 A 
ATOM      5  N   UNL     1      21.279  25.561  20.596  1.00  0.00    -0.264 NA
ATOM      6  C   UNL     1      21.504  24.353  20.015  1.00  0.00     0.111 A 
ENDROOT
BRANCH   1   7
ATOM      7  C   UNL     1      22.486  25.030  24.109  1.00  0.00     0.073 C 
ATOM      8  O   UNL     1      23.660  24.851  24.531  1.00  0.00    -0.545 OA
ATOM      9  O   UNL     1      21.510  25.463  24.998  1.00  0.00    -0.545 OA
ENDBRANCH   1   7
TORSDOF 1
ENDMDL
MODEL 7
REMARK VINA RESULT:    -3.994     12.438     13.073
REMARK INTER + INTRA:          -4.245
REMARK INTER:                  -4.228
REMARK INTRA:                  -0.017
REMARK UNBOUND:                -0.017
REMARK SMILES O=C([O-])c1cccnc1
REMARK SMILES IDX 4 1 5 2 9 3 6 4 8 5 7 6 2 7 1 8 3 9
REMARK H PARENT
REMARK Flexibility Score: inf
ROOT
ATOM      1  C   UNL     1      30.135  34.708  22.057  1.00  0.00     0.016 A 
ATOM      2  C   UNL     1      31.512  34.438  22.010  1.00  0.00     0.013 A 
ATOM      3  C   UNL     1      29.247  33.746  21.547  1.00  0.00     0.120 A 
ATOM      4  C   UNL     1      31.972  33.238  21.463  1.00  0.00     0.021 A 
ATOM      5  N   UNL     1      29.721  32.585  21.020  1.00  0.00    -0.264 NA
ATOM      6  C   UNL     1      31.052  32.314  20.969  1.00  0.00     0.111 A 
ENDROOT
BRANCH   1   7
ATOM      7  C   UNL     1      29.627  35.973  22.631  1.00  0.00     0.073 C 
ATOM      8  O   UNL     1      28.899  35.963  23.660  1.00  0.00    -0.545 OA
ATOM      9  O   UNL     1      29.944  37.191  22.042  1.00  0.00    -0.545 OA
ENDBRANCH   1   7
TORSDOF 1
ENDMDL
MODEL 8
REMARK VINA RESULT:    -3.841      2.545      3.176
REMARK INTER + INTRA:          -4.082
REMARK INTER:                  -4.066
REMARK INTRA:                  -0.016
REMARK UNBOUND:                -0.017
REMARK SMILES O=C([O-])c1cccnc1
REMARK SMILES IDX 4 1 5 2 9 3 6 4 8 5 7 6 2 7 1 8 3 9
REMARK H PARENT
REMARK Flexibility Score: inf
ROOT
ATOM      1  C   UNL     1      21.243  25.962  22.360  1.00  0.00     0.016 A 
ATOM      2  C   UNL     1      22.217  25.010  22.014  1.00  0.00     0.013 A 
ATOM      3  C   UNL     1      20.855  26.062  23.707  1.00  0.00     0.120 A 
ATOM      4  C   UNL     1      22.775  24.190  22.997  1.00  0.00     0.021 A 
ATOM      5  N   UNL     1      21.415  25.251  24.644  1.00  0.00    -0.264 NA
ATOM      6  C   UNL     1      22.358  24.327  24.321  1.00  0.00     0.111 A 
ENDROOT
BRANCH   1   7
ATOM      7  C   UNL     1      20.639  26.840  21.335  1.00  0.00     0.073 C 
ATOM      8  O   UNL     1      20.983  28.048  21.243  1.00  0.00    -0.545 OA
ATOM      9  O   UNL     1      19.681  26.344  20.459  1.00  0.00    -0.545 OA
ENDBRANCH   1   7
TORSDOF 1
ENDMDL
MODEL 9
REMARK VINA RESULT:    -3.768     12.602     13.434
REMARK INTER + INTRA:          -4.005
REMARK INTER:                  -3.989
REMARK INTRA:                  -0.016
REMARK UNBOUND:                -0.017
REMARK SMILES O=C([O-])c1cccnc1
REMARK SMILES IDX 4 1 5 2 9 3 6 4 8 5 7 6 2 7 1 8 3 9
REMARK H PARENT
REMARK Flexibility Score: inf
ROOT
ATOM      1  C   UNL     1      31.289  33.010  21.574  1.00  0.00     0.016 A 
ATOM      2  C   UNL     1      31.449  34.322  22.048  1.00  0.00     0.013 A 
ATOM      3  C   UNL     1      29.991  32.561  21.276  1.00  0.00     0.120 A 
ATOM      4  C   UNL     1      30.335  35.149  22.214  1.00  0.00     0.021 A 
ATOM      5  N   UNL     1      28.923  33.386  21.447  1.00  0.00    -0.264 NA
ATOM      6  C   UNL     1      29.067  34.658  21.904  1.00  0.00     0.111 A 
ENDROOT
BRANCH   1   7
ATOM      7  C   UNL     1      32.455  32.118  21.392  1.00  0.00     0.073 C 
ATOM      8  O   UNL     1      32.796  31.316  22.302  1.00  0.00    -0.545 OA
ATOM      9  O   UNL     1      33.191  32.155  20.214  1.00  0.00    -0.545 OA
ENDBRANCH   1   7
TORSDOF 1
ENDMDL
