MODEL 1
REMARK VINA RESULT:    -7.293      0.000      0.000
REMARK INTER + INTRA:          -8.345
REMARK INTER:                  -7.933
REMARK INTRA:                  -0.412
REMARK UNBOUND:                -0.412
REMARK SMILES C=C(C)[C@@H]1CC[C@@]2(C)CC[C@@]3(C)[C@@H](CC[C@@H]4[C@]5(C)CC[C@H](O)C(C)(C)[C@H]5CC[C@]43C)[C@H]12
REMARK SMILES IDX 4 1 5 2 6 3 7 4 31 5 13 6 14 7 15 8 16 9 17 10 19 11 20 12
REMARK SMILES IDX 21 13 23 14 26 15 27 16 28 17 29 18 11 19 10 20 9 21 12 22
REMARK SMILES IDX 30 23 24 24 25 25 18 26 8 27 2 28 3 29 1 30 22 31
REMARK H PARENT 22 32
REMARK Flexibility Score: inf
ROOT
ATOM      1  C   UNL     1      11.222   8.121  46.011  1.00  0.00     0.018 C 
ATOM      2  C   UNL     1      10.090   8.381  44.984  1.00  0.00     0.009 C 
ATOM      3  C   UNL     1       8.875   7.527  45.409  1.00  0.00     0.008 C 
ATOM      4  C   UNL     1       9.060   7.307  46.917  1.00  0.00    -0.029 C 
ATOM      5  C   UNL     1      10.594   7.093  46.981  1.00  0.00     0.006 C 
ATOM      6  C   UNL     1      11.058   6.797  48.426  1.00  0.00    -0.000 C 
ATOM      7  C   UNL     1      12.538   6.961  48.816  1.00  0.00     0.005 C 
ATOM      8  C   UNL     1      12.651   7.131  50.368  1.00  0.00     0.005 C 
ATOM      9  C   UNL     1      11.473   6.449  51.157  1.00  0.00     0.002 C 
ATOM     10  C   UNL     1      11.520   6.447  52.774  1.00  0.00    -0.026 C 
ATOM     11  C   UNL     1      12.692   7.293  53.392  1.00  0.00     0.010 C 
ATOM     12  C   UNL     1      13.894   6.448  53.822  1.00  0.00     0.033 C 
ATOM     13  C   UNL     1      13.531   5.468  54.964  1.00  0.00     0.120 C 
ATOM     14  C   UNL     1      12.106   4.773  54.794  1.00  0.00    -0.006 C 
ATOM     15  C   UNL     1      11.611   4.965  53.304  1.00  0.00     0.003 C 
ATOM     16  C   UNL     1      10.427   4.090  52.817  1.00  0.00     0.005 C 
ATOM     17  C   UNL     1      10.000   4.375  51.349  1.00  0.00     0.008 C 
ATOM     18  C   UNL     1      11.065   5.094  50.448  1.00  0.00    -0.024 C 
ATOM     19  C   UNL     1      10.462   5.419  48.952  1.00  0.00    -0.024 C 
ATOM     20  C   UNL     1       8.896   5.610  48.896  1.00  0.00     0.008 C 
ATOM     21  C   UNL     1       8.331   6.061  47.500  1.00  0.00     0.007 C 
ATOM     22  C   UNL     1      10.777   4.216  47.987  1.00  0.00     0.012 C 
ATOM     23  C   UNL     1      12.347   4.157  50.356  1.00  0.00     0.012 C 
ATOM     24  C   UNL     1      11.125   5.359  55.840  1.00  0.00     0.014 C 
ATOM     25  C   UNL     1      12.209   3.252  55.107  1.00  0.00     0.014 C 
ATOM     26  C   UNL     1      10.195   7.129  53.269  1.00  0.00     0.012 C 
ATOM     27  C   UNL     1       8.509   8.572  47.642  1.00  0.00     0.011 C 
ENDROOT
BRANCH   1  28
ATOM     28  C   UNL     1      11.849   9.430  46.509  1.00  0.00    -0.077 C 
ATOM     29  C   UNL     1      13.342   9.585  46.375  1.00  0.00     0.039 C 
ATOM     30  C   UNL     1      11.164  10.478  46.996  1.00  0.00     0.008 C 
ENDBRANCH   1  28
BRANCH  13  31
ATOM     31  O   UNL     1      14.571   4.520  55.038  1.00  0.00    -0.393 OA
ATOM     32  H   UNL     1      15.428   5.020  55.084  1.00  0.00     0.210 HD
ENDBRANCH  13  31
TORSDOF 2
ENDMDL
MODEL 2
REMARK VINA RESULT:    -7.176      2.637      7.807
REMARK INTER + INTRA:          -8.217
REMARK INTER:                  -7.806
REMARK INTRA:                  -0.411
REMARK UNBOUND:                -0.412
REMARK SMILES C=C(C)[C@@H]1CC[C@@]2(C)CC[C@@]3(C)[C@@H](CC[C@@H]4[C@]5(C)CC[C@H](O)C(C)(C)[C@H]5CC[C@]43C)[C@H]12
REMARK SMILES IDX 4 1 5 2 6 3 7 4 31 5 13 6 14 7 15 8 16 9 17 10 19 11 20 12
REMARK SMILES IDX 21 13 23 14 26 15 27 16 28 17 29 18 11 19 10 20 9 21 12 22
REMARK SMILES IDX 30 23 24 24 25 25 18 26 8 27 2 28 3 29 1 30 22 31
REMARK H PARENT 22 32
REMARK Flexibility Score: inf
ROOT
ATOM      1  C   UNL     1      13.035   3.259  53.542  1.00  0.00     0.018 C 
ATOM      2  C   UNL     1      14.127   3.324  54.640  1.00  0.00     0.009 C 
ATOM      3  C   UNL     1      15.213   4.308  54.153  1.00  0.00     0.008 C 
ATOM      4  C   UNL     1      14.489   5.233  53.166  1.00  0.00    -0.029 C 
ATOM      5  C   UNL     1      13.571   4.211  52.447  1.00  0.00     0.006 C 
ATOM      6  C   UNL     1      12.737   4.891  51.337  1.00  0.00    -0.000 C 
ATOM      7  C   UNL     1      11.480   4.201  50.778  1.00  0.00     0.005 C 
ATOM      8  C   UNL     1      10.556   5.271  50.105  1.00  0.00     0.005 C 
ATOM      9  C   UNL     1      11.343   6.522  49.562  1.00  0.00     0.002 C 
ATOM     10  C   UNL     1      10.531   7.655  48.741  1.00  0.00    -0.026 C 
ATOM     11  C   UNL     1       8.973   7.449  48.719  1.00  0.00     0.010 C 
ATOM     12  C   UNL     1       8.460   6.810  47.426  1.00  0.00     0.033 C 
ATOM     13  C   UNL     1       8.712   7.716  46.195  1.00  0.00     0.120 C 
ATOM     14  C   UNL     1      10.133   8.439  46.201  1.00  0.00    -0.006 C 
ATOM     15  C   UNL     1      11.069   7.730  47.262  1.00  0.00     0.003 C 
ATOM     16  C   UNL     1      12.589   8.032  47.201  1.00  0.00     0.005 C 
ATOM     17  C   UNL     1      13.416   7.310  48.301  1.00  0.00     0.008 C 
ATOM     18  C   UNL     1      12.736   6.062  48.967  1.00  0.00    -0.024 C 
ATOM     19  C   UNL     1      13.669   5.444  50.173  1.00  0.00    -0.024 C 
ATOM     20  C   UNL     1      14.618   6.490  50.879  1.00  0.00     0.008 C 
ATOM     21  C   UNL     1      15.405   5.939  52.123  1.00  0.00     0.007 C 
ATOM     22  C   UNL     1      14.622   4.337  49.583  1.00  0.00     0.012 C 
ATOM     23  C   UNL     1      12.477   4.978  47.833  1.00  0.00     0.012 C 
ATOM     24  C   UNL     1       9.936   9.950  46.480  1.00  0.00     0.014 C 
ATOM     25  C   UNL     1      10.791   8.344  44.794  1.00  0.00     0.014 C 
ATOM     26  C   UNL     1      10.771   9.016  49.486  1.00  0.00     0.012 C 
ATOM     27  C   UNL     1      13.772   6.335  54.003  1.00  0.00     0.011 C 
ENDROOT
BRANCH   1  28
ATOM     28  C   UNL     1      11.626   3.411  54.132  1.00  0.00    -0.077 C 
ATOM     29  C   UNL     1      10.628   2.317  53.850  1.00  0.00     0.039 C 
ATOM     30  C   UNL     1      11.230   4.412  54.936  1.00  0.00     0.008 C 
ENDBRANCH   1  28
BRANCH  13  31
ATOM     31  O   UNL     1       8.537   6.912  45.051  1.00  0.00    -0.393 OA
ATOM     32  H   UNL     1       8.728   5.973  45.314  1.00  0.00     0.210 HD
ENDBRANCH  13  31
TORSDOF 2
ENDMDL
MODEL 3
REMARK VINA RESULT:    -7.076      2.740      7.662
REMARK INTER + INTRA:          -8.108
REMARK INTER:                  -7.698
REMARK INTRA:                  -0.411
REMARK UNBOUND:                -0.412
REMARK SMILES C=C(C)[C@@H]1CC[C@@]2(C)CC[C@@]3(C)[C@@H](CC[C@@H]4[C@]5(C)CC[C@H](O)C(C)(C)[C@H]5CC[C@]43C)[C@H]12
REMARK SMILES IDX 4 1 5 2 6 3 7 4 31 5 13 6 14 7 15 8 16 9 17 10 19 11 20 12
REMARK SMILES IDX 21 13 23 14 26 15 27 16 28 17 29 18 11 19 10 20 9 21 12 22
REMARK SMILES IDX 30 23 24 24 25 25 18 26 8 27 2 28 3 29 1 30 22 31
REMARK H PARENT 22 32
REMARK Flexibility Score: inf
ROOT
ATOM      1  C   UNL     1      10.781   3.186  53.211  1.00  0.00     0.018 C 
ATOM      2  C   UNL     1      11.881   2.604  54.135  1.00  0.00     0.009 C 
ATOM      3  C   UNL     1      13.247   2.947  53.500  1.00  0.00     0.008 C 
ATOM      4  C   UNL     1      12.977   4.189  52.639  1.00  0.00    -0.029 C 
ATOM      5  C   UNL     1      11.586   3.828  52.057  1.00  0.00     0.006 C 
ATOM      6  C   UNL     1      11.083   4.924  51.089  1.00  0.00    -0.000 C 
ATOM      7  C   UNL     1       9.591   5.006  50.718  1.00  0.00     0.005 C 
ATOM      8  C   UNL     1       9.264   6.446  50.199  1.00  0.00     0.005 C 
ATOM      9  C   UNL     1      10.502   7.174  49.556  1.00  0.00     0.002 C 
ATOM     10  C   UNL     1      10.284   8.625  48.875  1.00  0.00    -0.026 C 
ATOM     11  C   UNL     1       8.849   9.231  49.082  1.00  0.00     0.010 C 
ATOM     12  C   UNL     1       7.927   9.044  47.874  1.00  0.00     0.033 C 
ATOM     13  C   UNL     1       8.449   9.801  46.628  1.00  0.00     0.120 C 
ATOM     14  C   UNL     1      10.028   9.711  46.429  1.00  0.00    -0.006 C 
ATOM     15  C   UNL     1      10.598   8.543  47.332  1.00  0.00     0.003 C 
ATOM     16  C   UNL     1      12.039   8.047  47.048  1.00  0.00     0.005 C 
ATOM     17  C   UNL     1      12.514   6.919  48.007  1.00  0.00     0.008 C 
ATOM     18  C   UNL     1      11.383   6.129  48.756  1.00  0.00    -0.024 C 
ATOM     19  C   UNL     1      12.014   5.029  49.804  1.00  0.00    -0.024 C 
ATOM     20  C   UNL     1      13.442   5.396  50.370  1.00  0.00     0.008 C 
ATOM     21  C   UNL     1      13.987   4.424  51.478  1.00  0.00     0.007 C 
ATOM     22  C   UNL     1      12.192   3.647  49.070  1.00  0.00     0.012 C 
ATOM     23  C   UNL     1      10.471   5.419  47.664  1.00  0.00     0.012 C 
ATOM     24  C   UNL     1      10.662  11.088  46.747  1.00  0.00     0.014 C 
ATOM     25  C   UNL     1      10.366   9.416  44.938  1.00  0.00     0.014 C 
ATOM     26  C   UNL     1      11.273   9.616  49.587  1.00  0.00     0.012 C 
ATOM     27  C   UNL     1      13.029   5.428  53.583  1.00  0.00     0.011 C 
ENDROOT
BRANCH   1  28
ATOM     28  C   UNL     1       9.730   3.974  54.005  1.00  0.00    -0.077 C 
ATOM     29  C   UNL     1       8.289   3.555  53.866  1.00  0.00     0.039 C 
ATOM     30  C   UNL     1      10.001   4.968  54.868  1.00  0.00     0.008 C 
ENDBRANCH   1  28
BRANCH  13  31
ATOM     31  O   UNL     1       7.750   9.290  45.515  1.00  0.00    -0.393 OA
ATOM     32  H   UNL     1       8.370   9.310  44.739  1.00  0.00     0.210 HD
ENDBRANCH  13  31
TORSDOF 2
ENDMDL
MODEL 4
REMARK VINA RESULT:    -7.001      6.110      8.757
REMARK INTER + INTRA:          -8.027
REMARK INTER:                  -7.633
REMARK INTRA:                  -0.394
REMARK UNBOUND:                -0.412
REMARK SMILES C=C(C)[C@@H]1CC[C@@]2(C)CC[C@@]3(C)[C@@H](CC[C@@H]4[C@]5(C)CC[C@H](O)C(C)(C)[C@H]5CC[C@]43C)[C@H]12
REMARK SMILES IDX 4 1 5 2 6 3 7 4 31 5 13 6 14 7 15 8 16 9 17 10 19 11 20 12
REMARK SMILES IDX 21 13 23 14 26 15 27 16 28 17 29 18 11 19 10 20 9 21 12 22
REMARK SMILES IDX 30 23 24 24 25 25 18 26 8 27 2 28 3 29 1 30 22 31
REMARK H PARENT 22 32
REMARK Flexibility Score: inf
ROOT
ATOM      1  C   UNL     1      13.054  11.649  47.919  1.00  0.00     0.018 C 
ATOM      2  C   UNL     1      14.249  11.801  46.944  1.00  0.00     0.009 C 
ATOM      3  C   UNL     1      13.724  11.513  45.521  1.00  0.00     0.008 C 
ATOM      4  C   UNL     1      12.222  11.820  45.588  1.00  0.00    -0.029 C 
ATOM      5  C   UNL     1      11.883  11.251  46.989  1.00  0.00     0.006 C 
ATOM      6  C   UNL     1      10.376  11.394  47.303  1.00  0.00    -0.000 C 
ATOM      7  C   UNL     1       9.872  11.296  48.754  1.00  0.00     0.005 C 
ATOM      8  C   UNL     1       8.471  11.986  48.865  1.00  0.00     0.005 C 
ATOM      9  C   UNL     1       7.661  11.976  47.516  1.00  0.00     0.002 C 
ATOM     10  C   UNL     1       6.151  12.554  47.512  1.00  0.00    -0.026 C 
ATOM     11  C   UNL     1       5.709  13.229  48.861  1.00  0.00     0.010 C 
ATOM     12  C   UNL     1       4.859  12.317  49.750  1.00  0.00     0.033 C 
ATOM     13  C   UNL     1       3.510  11.955  49.082  1.00  0.00     0.120 C 
ATOM     14  C   UNL     1       3.621  11.646  47.522  1.00  0.00    -0.006 C 
ATOM     15  C   UNL     1       5.139  11.401  47.150  1.00  0.00     0.003 C 
ATOM     16  C   UNL     1       5.451  10.751  45.777  1.00  0.00     0.005 C 
ATOM     17  C   UNL     1       6.970  10.580  45.496  1.00  0.00     0.008 C 
ATOM     18  C   UNL     1       7.912  10.613  46.751  1.00  0.00    -0.024 C 
ATOM     19  C   UNL     1       9.495  10.513  46.314  1.00  0.00    -0.024 C 
ATOM     20  C   UNL     1       9.822  11.073  44.875  1.00  0.00     0.008 C 
ATOM     21  C   UNL     1      11.350  11.112  44.509  1.00  0.00     0.007 C 
ATOM     22  C   UNL     1       9.938   9.002  46.293  1.00  0.00     0.012 C 
ATOM     23  C   UNL     1       7.505   9.407  47.704  1.00  0.00     0.012 C 
ATOM     24  C   UNL     1       2.980  12.809  46.724  1.00  0.00     0.014 C 
ATOM     25  C   UNL     1       2.795  10.376  47.166  1.00  0.00     0.014 C 
ATOM     26  C   UNL     1       6.102  13.692  46.430  1.00  0.00     0.012 C 
ATOM     27  C   UNL     1      12.055  13.359  45.409  1.00  0.00     0.011 C 
ENDROOT
BRANCH   1  28
ATOM     28  C   UNL     1      12.954  12.836  48.887  1.00  0.00    -0.077 C 
ATOM     29  C   UNL     1      12.727  12.531  50.345  1.00  0.00     0.039 C 
ATOM     30  C   UNL     1      13.120  14.125  48.546  1.00  0.00     0.008 C 
ENDBRANCH   1  28
BRANCH  13  31
ATOM     31  O   UNL     1       2.977  10.864  49.797  1.00  0.00    -0.393 OA
ATOM     32  H   UNL     1       2.639  10.208  49.131  1.00  0.00     0.210 HD
ENDBRANCH  13  31
TORSDOF 2
ENDMDL
MODEL 5
REMARK VINA RESULT:    -6.768      3.123      5.947
REMARK INTER + INTRA:          -7.773
REMARK INTER:                  -7.399
REMARK INTRA:                  -0.374
REMARK UNBOUND:                -0.412
REMARK SMILES C=C(C)[C@@H]1CC[C@@]2(C)CC[C@@]3(C)[C@@H](CC[C@@H]4[C@]5(C)CC[C@H](O)C(C)(C)[C@H]5CC[C@]43C)[C@H]12
REMARK SMILES IDX 4 1 5 2 6 3 7 4 31 5 13 6 14 7 15 8 16 9 17 10 19 11 20 12
REMARK SMILES IDX 21 13 23 14 26 15 27 16 28 17 29 18 11 19 10 20 9 21 12 22
REMARK SMILES IDX 30 23 24 24 25 25 18 26 8 27 2 28 3 29 1 30 22 31
REMARK H PARENT 22 32
REMARK Flexibility Score: inf
ROOT
ATOM      1  C   UNL     1       6.155  12.829  47.507  1.00  0.00     0.018 C 
ATOM      2  C   UNL     1       5.588  13.522  46.241  1.00  0.00     0.009 C 
ATOM      3  C   UNL     1       6.518  13.160  45.062  1.00  0.00     0.008 C 
ATOM      4  C   UNL     1       7.180  11.839  45.477  1.00  0.00    -0.029 C 
ATOM      5  C   UNL     1       7.420  12.108  46.984  1.00  0.00     0.006 C 
ATOM      6  C   UNL     1       8.139  10.917  47.659  1.00  0.00    -0.000 C 
ATOM      7  C   UNL     1       8.114  10.761  49.190  1.00  0.00     0.005 C 
ATOM      8  C   UNL     1       8.417   9.272  49.565  1.00  0.00     0.005 C 
ATOM      9  C   UNL     1       9.291   8.523  48.492  1.00  0.00     0.002 C 
ATOM     10  C   UNL     1       9.777   7.012  48.803  1.00  0.00    -0.026 C 
ATOM     11  C   UNL     1       9.166   6.389  50.110  1.00  0.00     0.010 C 
ATOM     12  C   UNL     1      10.113   6.441  51.311  1.00  0.00     0.033 C 
ATOM     13  C   UNL     1      11.386   5.591  51.080  1.00  0.00     0.120 C 
ATOM     14  C   UNL     1      11.983   5.705  49.607  1.00  0.00    -0.006 C 
ATOM     15  C   UNL     1      11.350   6.964  48.887  1.00  0.00     0.003 C 
ATOM     16  C   UNL     1      12.027   7.471  47.588  1.00  0.00     0.005 C 
ATOM     17  C   UNL     1      11.312   8.694  46.945  1.00  0.00     0.008 C 
ATOM     18  C   UNL     1      10.368   9.516  47.891  1.00  0.00    -0.024 C 
ATOM     19  C   UNL     1       9.604  10.722  47.073  1.00  0.00    -0.024 C 
ATOM     20  C   UNL     1       9.390  10.446  45.533  1.00  0.00     0.008 C 
ATOM     21  C   UNL     1       8.537  11.528  44.777  1.00  0.00     0.007 C 
ATOM     22  C   UNL     1      10.468  12.037  47.152  1.00  0.00     0.012 C 
ATOM     23  C   UNL     1      11.248  10.100  49.080  1.00  0.00     0.012 C 
ATOM     24  C   UNL     1      11.727   4.380  48.847  1.00  0.00     0.014 C 
ATOM     25  C   UNL     1      13.530   5.874  49.665  1.00  0.00     0.014 C 
ATOM     26  C   UNL     1       9.260   6.116  47.621  1.00  0.00     0.012 C 
ATOM     27  C   UNL     1       6.184  10.691  45.130  1.00  0.00     0.011 C 
ENDROOT
BRANCH   1  28
ATOM     28  C   UNL     1       5.061  12.087  48.287  1.00  0.00    -0.077 C 
ATOM     29  C   UNL     1       4.737  12.579  49.674  1.00  0.00     0.039 C 
ATOM     30  C   UNL     1       4.322  11.074  47.805  1.00  0.00     0.008 C 
ENDBRANCH   1  28
BRANCH  13  31
ATOM     31  O   UNL     1      12.323   5.980  52.058  1.00  0.00    -0.393 OA
ATOM     32  H   UNL     1      12.968   6.598  51.623  1.00  0.00     0.210 HD
ENDBRANCH  13  31
TORSDOF 2
ENDMDL
MODEL 6
REMARK VINA RESULT:    -6.690      1.532      2.195
REMARK INTER + INTRA:          -7.688
REMARK INTER:                  -7.359
REMARK INTRA:                  -0.329
REMARK UNBOUND:                -0.412
REMARK SMILES C=C(C)[C@@H]1CC[C@@]2(C)CC[C@@]3(C)[C@@H](CC[C@@H]4[C@]5(C)CC[C@H](O)C(C)(C)[C@H]5CC[C@]43C)[C@H]12
REMARK SMILES IDX 4 1 5 2 6 3 7 4 31 5 13 6 14 7 15 8 16 9 17 10 19 11 20 12
REMARK SMILES IDX 21 13 23 14 26 15 27 16 28 17 29 18 11 19 10 20 9 21 12 22
REMARK SMILES IDX 30 23 24 24 25 25 18 26 8 27 2 28 3 29 1 30 22 31
REMARK H PARENT 22 32
REMARK Flexibility Score: inf
ROOT
ATOM      1  C   UNL     1      12.096   9.195  46.005  1.00  0.00     0.018 C 
ATOM      2  C   UNL     1      11.413  10.435  45.375  1.00  0.00     0.009 C 
ATOM      3  C   UNL     1       9.990  10.531  45.969  1.00  0.00     0.008 C 
ATOM      4  C   UNL     1      10.080   9.802  47.317  1.00  0.00    -0.029 C 
ATOM      5  C   UNL     1      11.002   8.616  46.932  1.00  0.00     0.006 C 
ATOM      6  C   UNL     1      11.227   7.669  48.134  1.00  0.00    -0.000 C 
ATOM      7  C   UNL     1      12.406   6.680  48.132  1.00  0.00     0.005 C 
ATOM      8  C   UNL     1      12.727   6.252  49.603  1.00  0.00     0.005 C 
ATOM      9  C   UNL     1      11.481   6.331  50.562  1.00  0.00     0.002 C 
ATOM     10  C   UNL     1      11.638   5.810  52.085  1.00  0.00    -0.026 C 
ATOM     11  C   UNL     1      13.107   5.423  52.491  1.00  0.00     0.010 C 
ATOM     12  C   UNL     1      13.376   3.917  52.443  1.00  0.00     0.033 C 
ATOM     13  C   UNL     1      12.514   3.142  53.470  1.00  0.00     0.120 C 
ATOM     14  C   UNL     1      11.012   3.666  53.581  1.00  0.00    -0.006 C 
ATOM     15  C   UNL     1      10.687   4.576  52.328  1.00  0.00     0.003 C 
ATOM     16  C   UNL     1       9.200   4.912  52.044  1.00  0.00     0.005 C 
ATOM     17  C   UNL     1       8.991   5.834  50.809  1.00  0.00     0.008 C 
ATOM     18  C   UNL     1      10.176   5.890  49.782  1.00  0.00    -0.024 C 
ATOM     19  C   UNL     1       9.871   6.965  48.574  1.00  0.00    -0.024 C 
ATOM     20  C   UNL     1       8.910   8.153  48.971  1.00  0.00     0.008 C 
ATOM     21  C   UNL     1       8.729   9.258  47.868  1.00  0.00     0.007 C 
ATOM     22  C   UNL     1       9.158   6.224  47.381  1.00  0.00     0.012 C 
ATOM     23  C   UNL     1      10.395   4.426  49.201  1.00  0.00     0.012 C 
ATOM     24  C   UNL     1      10.826   4.403  54.931  1.00  0.00     0.014 C 
ATOM     25  C   UNL     1      10.024   2.463  53.609  1.00  0.00     0.014 C 
ATOM     26  C   UNL     1      11.239   7.007  53.019  1.00  0.00     0.012 C 
ATOM     27  C   UNL     1      10.653  10.814  48.355  1.00  0.00     0.011 C 
ENDROOT
BRANCH   1  28
ATOM     28  C   UNL     1      13.505   9.523  46.518  1.00  0.00    -0.077 C 
ATOM     29  C   UNL     1      14.568   8.464  46.366  1.00  0.00     0.039 C 
ATOM     30  C   UNL     1      13.884  10.704  47.034  1.00  0.00     0.008 C 
ENDBRANCH   1  28
BRANCH  13  31
ATOM     31  O   UNL     1      12.569   1.781  53.110  1.00  0.00    -0.393 OA
ATOM     32  H   UNL     1      11.660   1.515  52.810  1.00  0.00     0.210 HD
ENDBRANCH  13  31
TORSDOF 2
ENDMDL
MODEL 7
REMARK VINA RESULT:    -6.554      1.679      2.773
REMARK INTER + INTRA:          -7.540
REMARK INTER:                  -7.137
REMARK INTRA:                  -0.404
REMARK UNBOUND:                -0.412
REMARK SMILES C=C(C)[C@@H]1CC[C@@]2(C)CC[C@@]3(C)[C@@H](CC[C@@H]4[C@]5(C)CC[C@H](O)C(C)(C)[C@H]5CC[C@]43C)[C@H]12
REMARK SMILES IDX 4 1 5 2 6 3 7 4 31 5 13 6 14 7 15 8 16 9 17 10 19 11 20 12
REMARK SMILES IDX 21 13 23 14 26 15 27 16 28 17 29 18 11 19 10 20 9 21 12 22
REMARK SMILES IDX 30 23 24 24 25 25 18 26 8 27 2 28 3 29 1 30 22 31
REMARK H PARENT 22 32
REMARK Flexibility Score: inf
ROOT
ATOM      1  C   UNL     1      10.247  11.154  47.364  1.00  0.00     0.018 C 
ATOM      2  C   UNL     1       9.700  11.418  45.938  1.00  0.00     0.009 C 
ATOM      3  C   UNL     1       9.692  10.066  45.190  1.00  0.00     0.008 C 
ATOM      4  C   UNL     1       9.613   9.006  46.297  1.00  0.00    -0.029 C 
ATOM      5  C   UNL     1      10.553   9.637  47.355  1.00  0.00     0.006 C 
ATOM      6  C   UNL     1      10.692   8.725  48.596  1.00  0.00    -0.000 C 
ATOM      7  C   UNL     1      11.215   9.297  49.926  1.00  0.00     0.005 C 
ATOM      8  C   UNL     1      10.765   8.368  51.103  1.00  0.00     0.005 C 
ATOM      9  C   UNL     1      10.547   6.872  50.668  1.00  0.00     0.002 C 
ATOM     10  C   UNL     1      10.191   5.776  51.804  1.00  0.00    -0.026 C 
ATOM     11  C   UNL     1       9.938   6.381  53.233  1.00  0.00     0.010 C 
ATOM     12  C   UNL     1      11.146   6.268  54.166  1.00  0.00     0.033 C 
ATOM     13  C   UNL     1      11.506   4.792  54.469  1.00  0.00     0.120 C 
ATOM     14  C   UNL     1      11.400   3.827  53.205  1.00  0.00    -0.006 C 
ATOM     15  C   UNL     1      11.341   4.702  51.888  1.00  0.00     0.003 C 
ATOM     16  C   UNL     1      11.582   3.986  50.534  1.00  0.00     0.005 C 
ATOM     17  C   UNL     1      11.475   4.928  49.301  1.00  0.00     0.008 C 
ATOM     18  C   UNL     1      11.631   6.462  49.590  1.00  0.00    -0.024 C 
ATOM     19  C   UNL     1      11.409   7.354  48.225  1.00  0.00    -0.024 C 
ATOM     20  C   UNL     1      10.470   6.689  47.144  1.00  0.00     0.008 C 
ATOM     21  C   UNL     1      10.140   7.595  45.903  1.00  0.00     0.007 C 
ATOM     22  C   UNL     1      12.794   7.570  47.508  1.00  0.00     0.012 C 
ATOM     23  C   UNL     1      13.080   6.705  50.200  1.00  0.00     0.012 C 
ATOM     24  C   UNL     1      10.170   2.900  53.373  1.00  0.00     0.014 C 
ATOM     25  C   UNL     1      12.639   2.887  53.141  1.00  0.00     0.014 C 
ATOM     26  C   UNL     1       8.837   5.104  51.379  1.00  0.00     0.012 C 
ATOM     27  C   UNL     1       8.114   8.867  46.699  1.00  0.00     0.011 C 
ENDROOT
BRANCH   1  28
ATOM     28  C   UNL     1       9.362  11.798  48.440  1.00  0.00    -0.077 C 
ATOM     29  C   UNL     1      10.008  12.786  49.377  1.00  0.00     0.039 C 
ATOM     30  C   UNL     1       8.040  11.599  48.572  1.00  0.00     0.008 C 
ENDBRANCH   1  28
BRANCH  13  31
ATOM     31  O   UNL     1      12.801   4.791  55.023  1.00  0.00    -0.393 OA
ATOM     32  H   UNL     1      13.118   3.849  55.038  1.00  0.00     0.210 HD
ENDBRANCH  13  31
TORSDOF 2
ENDMDL
MODEL 8
REMARK VINA RESULT:    -6.547      2.146      3.497
REMARK INTER + INTRA:          -7.533
REMARK INTER:                  -7.125
REMARK INTRA:                  -0.409
REMARK UNBOUND:                -0.412
REMARK SMILES C=C(C)[C@@H]1CC[C@@]2(C)CC[C@@]3(C)[C@@H](CC[C@@H]4[C@]5(C)CC[C@H](O)C(C)(C)[C@H]5CC[C@]43C)[C@H]12
REMARK SMILES IDX 4 1 5 2 6 3 7 4 31 5 13 6 14 7 15 8 16 9 17 10 19 11 20 12
REMARK SMILES IDX 21 13 23 14 26 15 27 16 28 17 29 18 11 19 10 20 9 21 12 22
REMARK SMILES IDX 30 23 24 24 25 25 18 26 8 27 2 28 3 29 1 30 22 31
REMARK H PARENT 22 32
REMARK Flexibility Score: inf
ROOT
ATOM      1  C   UNL     1       9.967  11.236  44.774  1.00  0.00     0.018 C 
ATOM      2  C   UNL     1       8.808  12.232  44.512  1.00  0.00     0.009 C 
ATOM      3  C   UNL     1       7.629  11.817  45.420  1.00  0.00     0.008 C 
ATOM      4  C   UNL     1       8.280  11.057  46.584  1.00  0.00    -0.029 C 
ATOM      5  C   UNL     1       9.375  10.266  45.824  1.00  0.00     0.006 C 
ATOM      6  C   UNL     1      10.176   9.356  46.783  1.00  0.00    -0.000 C 
ATOM      7  C   UNL     1      11.550   8.804  46.364  1.00  0.00     0.005 C 
ATOM      8  C   UNL     1      12.357   8.394  47.641  1.00  0.00     0.005 C 
ATOM      9  C   UNL     1      11.441   7.994  48.856  1.00  0.00     0.002 C 
ATOM     10  C   UNL     1      12.139   7.439  50.206  1.00  0.00    -0.026 C 
ATOM     11  C   UNL     1      13.709   7.518  50.206  1.00  0.00     0.010 C 
ATOM     12  C   UNL     1      14.387   6.189  49.867  1.00  0.00     0.033 C 
ATOM     13  C   UNL     1      14.092   5.103  50.931  1.00  0.00     0.120 C 
ATOM     14  C   UNL     1      12.587   5.102  51.456  1.00  0.00    -0.006 C 
ATOM     15  C   UNL     1      11.691   5.950  50.465  1.00  0.00     0.003 C 
ATOM     16  C   UNL     1      10.152   5.807  50.579  1.00  0.00     0.005 C 
ATOM     17  C   UNL     1       9.364   6.701  49.580  1.00  0.00     0.008 C 
ATOM     18  C   UNL     1      10.166   7.214  48.333  1.00  0.00    -0.024 C 
ATOM     19  C   UNL     1       9.252   8.220  47.405  1.00  0.00    -0.024 C 
ATOM     20  C   UNL     1       8.124   9.000  48.186  1.00  0.00     0.008 C 
ATOM     21  C   UNL     1       7.343  10.066  47.336  1.00  0.00     0.007 C 
ATOM     22  C   UNL     1       8.502   7.380  46.304  1.00  0.00     0.012 C 
ATOM     23  C   UNL     1      10.646   5.947  47.500  1.00  0.00     0.012 C 
ATOM     24  C   UNL     1      12.554   5.636  52.910  1.00  0.00     0.014 C 
ATOM     25  C   UNL     1      12.040   3.646  51.521  1.00  0.00     0.014 C 
ATOM     26  C   UNL     1      11.664   8.370  51.379  1.00  0.00     0.012 C 
ATOM     27  C   UNL     1       8.781  12.120  47.609  1.00  0.00     0.011 C 
ENDROOT
BRANCH   1  28
ATOM     28  C   UNL     1      11.300  11.962  45.000  1.00  0.00    -0.077 C 
ATOM     29  C   UNL     1      12.491  11.501  44.200  1.00  0.00     0.039 C 
ATOM     30  C   UNL     1      11.475  13.021  45.808  1.00  0.00     0.008 C 
ENDBRANCH   1  28
BRANCH  13  31
ATOM     31  O   UNL     1      14.449   3.863  50.363  1.00  0.00    -0.393 OA
ATOM     32  H   UNL     1      15.001   4.052  49.558  1.00  0.00     0.210 HD
ENDBRANCH  13  31
TORSDOF 2
ENDMDL
MODEL 9
REMARK VINA RESULT:    -6.547      1.986      3.835
REMARK INTER + INTRA:          -7.533
REMARK INTER:                  -7.122
REMARK INTRA:                  -0.411
REMARK UNBOUND:                -0.412
REMARK SMILES C=C(C)[C@@H]1CC[C@@]2(C)CC[C@@]3(C)[C@@H](CC[C@@H]4[C@]5(C)CC[C@H](O)C(C)(C)[C@H]5CC[C@]43C)[C@H]12
REMARK SMILES IDX 4 1 5 2 6 3 7 4 31 5 13 6 14 7 15 8 16 9 17 10 19 11 20 12
REMARK SMILES IDX 21 13 23 14 26 15 27 16 28 17 29 18 11 19 10 20 9 21 12 22
REMARK SMILES IDX 30 23 24 24 25 25 18 26 8 27 2 28 3 29 1 30 22 31
REMARK H PARENT 22 32
REMARK Flexibility Score: inf
ROOT
ATOM      1  C   UNL     1       9.177  11.262  46.763  1.00  0.00     0.018 C 
ATOM      2  C   UNL     1       9.453  11.536  45.263  1.00  0.00     0.009 C 
ATOM      3  C   UNL     1      10.684  10.694  44.858  1.00  0.00     0.008 C 
ATOM      4  C   UNL     1      10.709   9.532  45.860  1.00  0.00    -0.029 C 
ATOM      5  C   UNL     1      10.300  10.273  47.158  1.00  0.00     0.006 C 
ATOM      6  C   UNL     1      10.289   9.315  48.371  1.00  0.00    -0.000 C 
ATOM      7  C   UNL     1       9.531   9.696  49.656  1.00  0.00     0.005 C 
ATOM      8  C   UNL     1       9.224   8.402  50.481  1.00  0.00     0.005 C 
ATOM      9  C   UNL     1      10.256   7.241  50.229  1.00  0.00     0.002 C 
ATOM     10  C   UNL     1      10.128   5.884  51.100  1.00  0.00    -0.026 C 
ATOM     11  C   UNL     1       8.849   5.815  52.012  1.00  0.00     0.010 C 
ATOM     12  C   UNL     1       9.123   6.173  53.475  1.00  0.00     0.033 C 
ATOM     13  C   UNL     1      10.086   5.162  54.146  1.00  0.00     0.120 C 
ATOM     14  C   UNL     1      11.294   4.701  53.213  1.00  0.00    -0.006 C 
ATOM     15  C   UNL     1      11.415   5.698  51.991  1.00  0.00     0.003 C 
ATOM     16  C   UNL     1      12.716   5.654  51.148  1.00  0.00     0.005 C 
ATOM     17  C   UNL     1      12.724   6.652  49.956  1.00  0.00     0.008 C 
ATOM     18  C   UNL     1      11.709   7.845  50.049  1.00  0.00    -0.024 C 
ATOM     19  C   UNL     1      11.750   8.774  48.691  1.00  0.00    -0.024 C 
ATOM     20  C   UNL     1      12.194   8.013  47.381  1.00  0.00     0.008 C 
ATOM     21  C   UNL     1      12.098   8.856  46.058  1.00  0.00     0.007 C 
ATOM     22  C   UNL     1      12.797   9.935  48.882  1.00  0.00     0.012 C 
ATOM     23  C   UNL     1      12.072   8.702  51.338  1.00  0.00     0.012 C 
ATOM     24  C   UNL     1      11.069   3.231  52.777  1.00  0.00     0.014 C 
ATOM     25  C   UNL     1      12.627   4.711  54.016  1.00  0.00     0.014 C 
ATOM     26  C   UNL     1       9.988   4.699  50.078  1.00  0.00     0.012 C 
ATOM     27  C   UNL     1       9.715   8.450  45.340  1.00  0.00     0.011 C 
ENDROOT
BRANCH   1  28
ATOM     28  C   UNL     1       7.696  10.954  47.021  1.00  0.00    -0.077 C 
ATOM     29  C   UNL     1       6.987  11.767  48.074  1.00  0.00     0.039 C 
ATOM     30  C   UNL     1       6.962  10.062  46.336  1.00  0.00     0.008 C 
ENDBRANCH   1  28
BRANCH  13  31
ATOM     31  O   UNL     1      10.542   5.759  55.338  1.00  0.00    -0.393 OA
ATOM     32  H   UNL     1      10.174   5.231  56.095  1.00  0.00     0.210 HD
ENDBRANCH  13  31
TORSDOF 2
ENDMDL
