MODEL 1
REMARK VINA RESULT:    -6.964      0.000      0.000
REMARK INTER + INTRA:          -8.317
REMARK INTER:                  -8.186
REMARK INTRA:                  -0.132
REMARK UNBOUND:                -0.132
REMARK SMILES O=c1c(O)c(-c2ccc(O)cc2)oc2cc(O)cc(O)c12
REMARK SMILES IDX 5 1 3 2 2 3 1 4 21 5 19 6 18 7 16 8 15 9 14 10 13 11 6 12
REMARK SMILES IDX 7 13 8 14 9 15 12 16 11 17 10 18 4 20 20 22 17 24
REMARK H PARENT 10 19 4 21 20 23 17 25
REMARK Flexibility Score: inf
ROOT
ATOM      1  C   UNL     1     -18.848  -6.793  22.330  1.00  0.00     0.180 A 
ATOM      2  C   UNL     1     -17.478  -6.613  22.075  1.00  0.00     0.208 A 
ATOM      3  C   UNL     1     -16.783  -5.609  22.769  1.00  0.00     0.238 A 
ATOM      4  O   UNL     1     -15.575  -5.403  22.481  1.00  0.00    -0.285 OA
ATOM      5  C   UNL     1     -17.452  -4.835  23.749  1.00  0.00     0.111 A 
ATOM      6  C   UNL     1     -16.836  -3.821  24.544  1.00  0.00     0.134 A 
ATOM      7  C   UNL     1     -17.622  -3.049  25.406  1.00  0.00     0.093 A 
ATOM      8  C   UNL     1     -18.987  -3.292  25.551  1.00  0.00     0.123 A 
ATOM      9  C   UNL     1     -19.590  -4.317  24.820  1.00  0.00     0.094 A 
ATOM     10  C   UNL     1     -18.840  -5.080  23.923  1.00  0.00     0.146 A 
ATOM     11  O   UNL     1     -19.456  -6.030  23.231  1.00  0.00    -0.452 OA
ENDROOT
BRANCH   1  12
ATOM     12  C   UNL     1     -19.652  -7.820  21.629  1.00  0.00     0.021 A 
ATOM     13  C   UNL     1     -19.837  -7.782  20.234  1.00  0.00     0.016 A 
ATOM     14  C   UNL     1     -20.621  -8.749  19.598  1.00  0.00     0.047 A 
ATOM     15  C   UNL     1     -21.241  -9.757  20.349  1.00  0.00     0.115 A 
ATOM     16  C   UNL     1     -20.296  -8.822  22.374  1.00  0.00     0.016 A 
ATOM     17  C   UNL     1     -21.078  -9.788  21.736  1.00  0.00     0.047 A 
BRANCH  15  18
ATOM     18  O   UNL     1     -22.023 -10.726  19.725  1.00  0.00    -0.508 OA
ATOM     19  H   UNL     1     -22.795 -10.475  19.118  1.00  0.00     0.293 HD
ENDBRANCH  15  18
ENDBRANCH   1  12
BRANCH   2  20
ATOM     20  O   UNL     1     -16.818  -7.437  21.160  1.00  0.00    -0.502 OA
ATOM     21  H   UNL     1     -17.314  -8.022  20.498  1.00  0.00     0.293 HD
ENDBRANCH   2  20
BRANCH   6  22
ATOM     22  O   UNL     1     -15.463  -3.552  24.544  1.00  0.00    -0.507 OA
ATOM     23  H   UNL     1     -14.741  -4.234  24.374  1.00  0.00     0.293 HD
ENDBRANCH   6  22
BRANCH   8  24
ATOM     24  O   UNL     1     -19.735  -2.514  26.433  1.00  0.00    -0.508 OA
ATOM     25  H   UNL     1     -20.043  -2.875  27.327  1.00  0.00     0.293 HD
ENDBRANCH   8  24
TORSDOF 5
ENDMDL
MODEL 2
REMARK VINA RESULT:    -6.938      1.336      6.413
REMARK INTER + INTRA:          -8.286
REMARK INTER:                  -8.051
REMARK INTRA:                  -0.236
REMARK UNBOUND:                -0.132
REMARK SMILES O=c1c(O)c(-c2ccc(O)cc2)oc2cc(O)cc(O)c12
REMARK SMILES IDX 5 1 3 2 2 3 1 4 21 5 19 6 18 7 16 8 15 9 14 10 13 11 6 12
REMARK SMILES IDX 7 13 8 14 9 15 12 16 11 17 10 18 4 20 20 22 17 24
REMARK H PARENT 10 19 4 21 20 23 17 25
REMARK Flexibility Score: inf
ROOT
ATOM      1  C   UNL     1     -18.533  -6.384  22.949  1.00  0.00     0.180 A 
ATOM      2  C   UNL     1     -17.212  -6.689  22.576  1.00  0.00     0.208 A 
ATOM      3  C   UNL     1     -16.992  -7.642  21.569  1.00  0.00     0.238 A 
ATOM      4  O   UNL     1     -15.808  -7.965  21.293  1.00  0.00    -0.285 OA
ATOM      5  C   UNL     1     -18.094  -8.238  20.908  1.00  0.00     0.111 A 
ATOM      6  C   UNL     1     -17.989  -9.183  19.843  1.00  0.00     0.134 A 
ATOM      7  C   UNL     1     -19.147  -9.785  19.338  1.00  0.00     0.093 A 
ATOM      8  C   UNL     1     -20.409  -9.431  19.813  1.00  0.00     0.123 A 
ATOM      9  C   UNL     1     -20.528  -8.469  20.816  1.00  0.00     0.094 A 
ATOM     10  C   UNL     1     -19.389  -7.878  21.367  1.00  0.00     0.146 A 
ATOM     11  O   UNL     1     -19.545  -6.983  22.334  1.00  0.00    -0.452 OA
ENDROOT
BRANCH   1  12
ATOM     12  C   UNL     1     -18.845  -5.401  24.012  1.00  0.00     0.021 A 
ATOM     13  C   UNL     1     -19.288  -5.810  25.283  1.00  0.00     0.016 A 
ATOM     14  C   UNL     1     -19.601  -4.861  26.262  1.00  0.00     0.047 A 
ATOM     15  C   UNL     1     -19.488  -3.494  25.978  1.00  0.00     0.115 A 
ATOM     16  C   UNL     1     -18.756  -4.028  23.730  1.00  0.00     0.016 A 
ATOM     17  C   UNL     1     -19.068  -3.082  24.711  1.00  0.00     0.047 A 
BRANCH  15  18
ATOM     18  O   UNL     1     -19.795  -2.541  26.946  1.00  0.00    -0.508 OA
ATOM     19  H   UNL     1     -20.745  -2.215  27.087  1.00  0.00     0.293 HD
ENDBRANCH  15  18
ENDBRANCH   1  12
BRANCH   2  20
ATOM     20  O   UNL     1     -16.139  -6.034  23.187  1.00  0.00    -0.502 OA
ATOM     21  H   UNL     1     -15.174  -6.274  22.994  1.00  0.00     0.293 HD
ENDBRANCH   2  20
BRANCH   6  22
ATOM     22  O   UNL     1     -16.784  -9.544  19.232  1.00  0.00    -0.507 OA
ATOM     23  H   UNL     1     -16.462  -9.200  18.341  1.00  0.00     0.293 HD
ENDBRANCH   6  22
BRANCH   8  24
ATOM     24  O   UNL     1     -21.543 -10.039  19.274  1.00  0.00    -0.508 OA
ATOM     25  H   UNL     1     -21.936  -9.737  18.390  1.00  0.00     0.293 HD
ENDBRANCH   8  24
TORSDOF 5
ENDMDL
MODEL 3
REMARK VINA RESULT:    -6.779      2.163      3.092
REMARK INTER + INTRA:          -8.099
REMARK INTER:                  -7.804
REMARK INTRA:                  -0.296
REMARK UNBOUND:                -0.132
REMARK SMILES O=c1c(O)c(-c2ccc(O)cc2)oc2cc(O)cc(O)c12
REMARK SMILES IDX 5 1 3 2 2 3 1 4 21 5 19 6 18 7 16 8 15 9 14 10 13 11 6 12
REMARK SMILES IDX 7 13 8 14 9 15 12 16 11 17 10 18 4 20 20 22 17 24
REMARK H PARENT 10 19 4 21 20 23 17 25
REMARK Flexibility Score: inf
ROOT
ATOM      1  C   UNL     1     -19.249  -7.810  22.541  1.00  0.00     0.180 A 
ATOM      2  C   UNL     1     -19.621  -8.361  23.780  1.00  0.00     0.208 A 
ATOM      3  C   UNL     1     -19.676  -7.525  24.907  1.00  0.00     0.238 A 
ATOM      4  O   UNL     1     -19.936  -8.039  26.026  1.00  0.00    -0.285 OA
ATOM      5  C   UNL     1     -19.415  -6.140  24.772  1.00  0.00     0.111 A 
ATOM      6  C   UNL     1     -19.486  -5.191  25.837  1.00  0.00     0.134 A 
ATOM      7  C   UNL     1     -19.103  -3.865  25.608  1.00  0.00     0.093 A 
ATOM      8  C   UNL     1     -18.713  -3.437  24.340  1.00  0.00     0.123 A 
ATOM      9  C   UNL     1     -18.692  -4.342  23.278  1.00  0.00     0.094 A 
ATOM     10  C   UNL     1     -19.032  -5.681  23.484  1.00  0.00     0.146 A 
ATOM     11  O   UNL     1     -18.978  -6.513  22.452  1.00  0.00    -0.452 OA
ENDROOT
BRANCH   1  12
ATOM     12  C   UNL     1     -19.154  -8.629  21.311  1.00  0.00     0.021 A 
ATOM     13  C   UNL     1     -17.944  -9.237  20.925  1.00  0.00     0.016 A 
ATOM     14  C   UNL     1     -17.873  -9.985  19.747  1.00  0.00     0.047 A 
ATOM     15  C   UNL     1     -19.005 -10.123  18.931  1.00  0.00     0.115 A 
ATOM     16  C   UNL     1     -20.276  -8.755  20.476  1.00  0.00     0.016 A 
ATOM     17  C   UNL     1     -20.202  -9.504  19.298  1.00  0.00     0.047 A 
BRANCH  15  18
ATOM     18  O   UNL     1     -18.945 -10.866  17.755  1.00  0.00    -0.508 OA
ATOM     19  H   UNL     1     -18.564 -10.477  16.900  1.00  0.00     0.293 HD
ENDBRANCH  15  18
ENDBRANCH   1  12
BRANCH   2  20
ATOM     20  O   UNL     1     -19.949  -9.715  23.878  1.00  0.00    -0.502 OA
ATOM     21  H   UNL     1     -20.765 -10.042  24.381  1.00  0.00     0.293 HD
ENDBRANCH   2  20
BRANCH   6  22
ATOM     22  O   UNL     1     -19.947  -5.492  27.123  1.00  0.00    -0.507 OA
ATOM     23  H   UNL     1     -20.275  -6.397  27.423  1.00  0.00     0.293 HD
ENDBRANCH   6  22
BRANCH   8  24
ATOM     24  O   UNL     1     -18.355  -2.104  24.144  1.00  0.00    -0.508 OA
ATOM     25  H   UNL     1     -18.891  -1.346  24.549  1.00  0.00     0.293 HD
ENDBRANCH   8  24
TORSDOF 5
ENDMDL
MODEL 4
REMARK VINA RESULT:    -6.703      1.070      1.133
REMARK INTER + INTRA:          -8.010
REMARK INTER:                  -7.716
REMARK INTRA:                  -0.294
REMARK UNBOUND:                -0.132
REMARK SMILES O=c1c(O)c(-c2ccc(O)cc2)oc2cc(O)cc(O)c12
REMARK SMILES IDX 5 1 3 2 2 3 1 4 21 5 19 6 18 7 16 8 15 9 14 10 13 11 6 12
REMARK SMILES IDX 7 13 8 14 9 15 12 16 11 17 10 18 4 20 20 22 17 24
REMARK H PARENT 10 19 4 21 20 23 17 25
REMARK Flexibility Score: inf
ROOT
ATOM      1  C   UNL     1     -18.637  -7.439  22.277  1.00  0.00     0.180 A 
ATOM      2  C   UNL     1     -17.294  -7.814  22.454  1.00  0.00     0.208 A 
ATOM      3  C   UNL     1     -16.429  -6.944  23.137  1.00  0.00     0.238 A 
ATOM      4  O   UNL     1     -15.212  -7.251  23.226  1.00  0.00    -0.285 OA
ATOM      5  C   UNL     1     -16.929  -5.737  23.685  1.00  0.00     0.111 A 
ATOM      6  C   UNL     1     -16.153  -4.802  24.435  1.00  0.00     0.134 A 
ATOM      7  C   UNL     1     -16.730  -3.592  24.836  1.00  0.00     0.093 A 
ATOM      8  C   UNL     1     -18.069  -3.308  24.571  1.00  0.00     0.123 A 
ATOM      9  C   UNL     1     -18.852  -4.238  23.887  1.00  0.00     0.094 A 
ATOM     10  C   UNL     1     -18.296  -5.439  23.440  1.00  0.00     0.146 A 
ATOM     11  O   UNL     1     -19.070  -6.286  22.774  1.00  0.00    -0.452 OA
ENDROOT
BRANCH   1  12
ATOM     12  C   UNL     1     -19.606  -8.295  21.556  1.00  0.00     0.021 A 
ATOM     13  C   UNL     1     -19.734  -8.240  20.155  1.00  0.00     0.016 A 
ATOM     14  C   UNL     1     -20.674  -9.040  19.499  1.00  0.00     0.047 A 
ATOM     15  C   UNL     1     -21.506  -9.894  20.234  1.00  0.00     0.115 A 
ATOM     16  C   UNL     1     -20.460  -9.139  22.285  1.00  0.00     0.016 A 
ATOM     17  C   UNL     1     -21.398  -9.939  21.626  1.00  0.00     0.047 A 
BRANCH  15  18
ATOM     18  O   UNL     1     -22.445 -10.697  19.590  1.00  0.00    -0.508 OA
ATOM     19  H   UNL     1     -22.194 -11.272  18.794  1.00  0.00     0.293 HD
ENDBRANCH  15  18
ENDBRANCH   1  12
BRANCH   2  20
ATOM     20  O   UNL     1     -16.837  -9.043  21.973  1.00  0.00    -0.502 OA
ATOM     21  H   UNL     1     -15.916  -9.161  21.569  1.00  0.00     0.293 HD
ENDBRANCH   2  20
BRANCH   6  22
ATOM     22  O   UNL     1     -14.830  -5.023  24.833  1.00  0.00    -0.507 OA
ATOM     23  H   UNL     1     -14.268  -4.371  25.357  1.00  0.00     0.293 HD
ENDBRANCH   6  22
BRANCH   8  24
ATOM     24  O   UNL     1     -18.615  -2.100  25.002  1.00  0.00    -0.508 OA
ATOM     25  H   UNL     1     -18.326  -1.216  24.601  1.00  0.00     0.293 HD
ENDBRANCH   8  24
TORSDOF 5
ENDMDL
MODEL 5
REMARK VINA RESULT:    -6.335      2.999      5.315
REMARK INTER + INTRA:          -7.578
REMARK INTER:                  -7.297
REMARK INTRA:                  -0.281
REMARK UNBOUND:                -0.132
REMARK SMILES O=c1c(O)c(-c2ccc(O)cc2)oc2cc(O)cc(O)c12
REMARK SMILES IDX 5 1 3 2 2 3 1 4 21 5 19 6 18 7 16 8 15 9 14 10 13 11 6 12
REMARK SMILES IDX 7 13 8 14 9 15 12 16 11 17 10 18 4 20 20 22 17 24
REMARK H PARENT 10 19 4 21 20 23 17 25
REMARK Flexibility Score: inf
ROOT
ATOM      1  C   UNL     1     -19.148  -8.411  23.451  1.00  0.00     0.180 A 
ATOM      2  C   UNL     1     -19.082  -7.011  23.562  1.00  0.00     0.208 A 
ATOM      3  C   UNL     1     -18.258  -6.297  22.677  1.00  0.00     0.238 A 
ATOM      4  O   UNL     1     -18.145  -5.053  22.830  1.00  0.00    -0.285 OA
ATOM      5  C   UNL     1     -17.555  -6.984  21.657  1.00  0.00     0.111 A 
ATOM      6  C   UNL     1     -16.726  -6.357  20.678  1.00  0.00     0.134 A 
ATOM      7  C   UNL     1     -15.995  -7.148  19.784  1.00  0.00     0.093 A 
ATOM      8  C   UNL     1     -16.110  -8.537  19.791  1.00  0.00     0.123 A 
ATOM      9  C   UNL     1     -16.960  -9.158  20.707  1.00  0.00     0.094 A 
ATOM     10  C   UNL     1     -17.673  -8.399  21.637  1.00  0.00     0.146 A 
ATOM     11  O   UNL     1     -18.452  -9.030  22.506  1.00  0.00    -0.452 OA
ENDROOT
BRANCH   1  12
ATOM     12  C   UNL     1     -19.983  -9.234  24.356  1.00  0.00     0.021 A 
ATOM     13  C   UNL     1     -21.301  -9.593  24.014  1.00  0.00     0.016 A 
ATOM     14  C   UNL     1     -22.078 -10.350  24.896  1.00  0.00     0.047 A 
ATOM     15  C   UNL     1     -21.554 -10.745  26.134  1.00  0.00     0.115 A 
ATOM     16  C   UNL     1     -19.476  -9.617  25.608  1.00  0.00     0.016 A 
ATOM     17  C   UNL     1     -20.255 -10.374  26.487  1.00  0.00     0.047 A 
BRANCH  15  18
ATOM     18  O   UNL     1     -22.320 -11.501  27.019  1.00  0.00    -0.508 OA
ATOM     19  H   UNL     1     -22.876 -11.064  27.745  1.00  0.00     0.293 HD
ENDBRANCH  15  18
ENDBRANCH   1  12
BRANCH   2  20
ATOM     20  O   UNL     1     -19.843  -6.344  24.525  1.00  0.00    -0.502 OA
ATOM     21  H   UNL     1     -19.425  -5.878  25.322  1.00  0.00     0.293 HD
ENDBRANCH   2  20
BRANCH   6  22
ATOM     22  O   UNL     1     -16.606  -4.972  20.524  1.00  0.00    -0.507 OA
ATOM     23  H   UNL     1     -16.546  -4.492  19.640  1.00  0.00     0.293 HD
ENDBRANCH   6  22
BRANCH   8  24
ATOM     24  O   UNL     1     -15.381  -9.293  18.873  1.00  0.00    -0.508 OA
ATOM     25  H   UNL     1     -15.780 -10.106  18.420  1.00  0.00     0.293 HD
ENDBRANCH   8  24
TORSDOF 5
ENDMDL
MODEL 6
REMARK VINA RESULT:    -6.330      3.138      3.942
REMARK INTER + INTRA:          -7.571
REMARK INTER:                  -7.320
REMARK INTRA:                  -0.252
REMARK UNBOUND:                -0.132
REMARK SMILES O=c1c(O)c(-c2ccc(O)cc2)oc2cc(O)cc(O)c12
REMARK SMILES IDX 5 1 3 2 2 3 1 4 21 5 19 6 18 7 16 8 15 9 14 10 13 11 6 12
REMARK SMILES IDX 7 13 8 14 9 15 12 16 11 17 10 18 4 20 20 22 17 24
REMARK H PARENT 10 19 4 21 20 23 17 25
REMARK Flexibility Score: inf
ROOT
ATOM      1  C   UNL     1     -19.692  -8.409  24.532  1.00  0.00     0.180 A 
ATOM      2  C   UNL     1     -18.880  -8.539  23.392  1.00  0.00     0.208 A 
ATOM      3  C   UNL     1     -18.389  -7.380  22.770  1.00  0.00     0.238 A 
ATOM      4  O   UNL     1     -17.726  -7.500  21.708  1.00  0.00    -0.285 OA
ATOM      5  C   UNL     1     -18.669  -6.107  23.327  1.00  0.00     0.111 A 
ATOM      6  C   UNL     1     -18.187  -4.868  22.806  1.00  0.00     0.134 A 
ATOM      7  C   UNL     1     -18.617  -3.665  23.379  1.00  0.00     0.093 A 
ATOM      8  C   UNL     1     -19.459  -3.656  24.490  1.00  0.00     0.123 A 
ATOM      9  C   UNL     1     -19.892  -4.862  25.042  1.00  0.00     0.094 A 
ATOM     10  C   UNL     1     -19.512  -6.078  24.470  1.00  0.00     0.146 A 
ATOM     11  O   UNL     1     -19.964  -7.201  25.013  1.00  0.00    -0.452 OA
ENDROOT
BRANCH   1  12
ATOM     12  C   UNL     1     -20.258  -9.583  25.235  1.00  0.00     0.021 A 
ATOM     13  C   UNL     1     -19.475 -10.365  26.106  1.00  0.00     0.016 A 
ATOM     14  C   UNL     1     -20.025 -11.484  26.738  1.00  0.00     0.047 A 
ATOM     15  C   UNL     1     -21.358 -11.843  26.499  1.00  0.00     0.115 A 
ATOM     16  C   UNL     1     -21.586  -9.964  24.986  1.00  0.00     0.016 A 
ATOM     17  C   UNL     1     -22.134 -11.083  25.620  1.00  0.00     0.047 A 
BRANCH  15  18
ATOM     18  O   UNL     1     -21.916 -12.955  27.125  1.00  0.00    -0.508 OA
ATOM     19  H   UNL     1     -21.840 -13.094  28.126  1.00  0.00     0.293 HD
ENDBRANCH  15  18
ENDBRANCH   1  12
BRANCH   2  20
ATOM     20  O   UNL     1     -18.552  -9.806  22.903  1.00  0.00    -0.502 OA
ATOM     21  H   UNL     1     -17.696 -10.283  23.160  1.00  0.00     0.293 HD
ENDBRANCH   2  20
BRANCH   6  22
ATOM     22  O   UNL     1     -17.272  -4.764  21.754  1.00  0.00    -0.507 OA
ATOM     23  H   UNL     1     -16.282  -4.613  21.862  1.00  0.00     0.293 HD
ENDBRANCH   6  22
BRANCH   8  24
ATOM     24  O   UNL     1     -19.852  -2.439  25.045  1.00  0.00    -0.508 OA
ATOM     25  H   UNL     1     -19.927  -2.313  26.047  1.00  0.00     0.293 HD
ENDBRANCH   8  24
TORSDOF 5
ENDMDL
MODEL 7
REMARK VINA RESULT:    -6.003      2.900      6.437
REMARK INTER + INTRA:          -7.188
REMARK INTER:                  -7.013
REMARK INTRA:                  -0.175
REMARK UNBOUND:                -0.132
REMARK SMILES O=c1c(O)c(-c2ccc(O)cc2)oc2cc(O)cc(O)c12
REMARK SMILES IDX 5 1 3 2 2 3 1 4 21 5 19 6 18 7 16 8 15 9 14 10 13 11 6 12
REMARK SMILES IDX 7 13 8 14 9 15 12 16 11 17 10 18 4 20 20 22 17 24
REMARK H PARENT 10 19 4 21 20 23 17 25
REMARK Flexibility Score: inf
ROOT
ATOM      1  C   UNL     1     -17.483  -6.475  22.689  1.00  0.00     0.180 A 
ATOM      2  C   UNL     1     -17.014  -6.051  21.433  1.00  0.00     0.208 A 
ATOM      3  C   UNL     1     -16.423  -6.991  20.575  1.00  0.00     0.238 A 
ATOM      4  O   UNL     1     -15.938  -6.591  19.485  1.00  0.00    -0.285 OA
ATOM      5  C   UNL     1     -16.358  -8.354  20.957  1.00  0.00     0.111 A 
ATOM      6  C   UNL     1     -15.820  -9.401  20.148  1.00  0.00     0.134 A 
ATOM      7  C   UNL     1     -15.712 -10.693  20.674  1.00  0.00     0.093 A 
ATOM      8  C   UNL     1     -16.178 -10.992  21.953  1.00  0.00     0.123 A 
ATOM      9  C   UNL     1     -16.756  -9.989  22.733  1.00  0.00     0.094 A 
ATOM     10  C   UNL     1     -16.843  -8.681  22.251  1.00  0.00     0.146 A 
ATOM     11  O   UNL     1     -17.379  -7.753  23.033  1.00  0.00    -0.452 OA
ENDROOT
BRANCH   1  12
ATOM     12  C   UNL     1     -18.106  -5.541  23.655  1.00  0.00     0.021 A 
ATOM     13  C   UNL     1     -19.488  -5.574  23.921  1.00  0.00     0.016 A 
ATOM     14  C   UNL     1     -20.056  -4.665  24.818  1.00  0.00     0.047 A 
ATOM     15  C   UNL     1     -19.255  -3.704  25.449  1.00  0.00     0.115 A 
ATOM     16  C   UNL     1     -17.316  -4.560  24.275  1.00  0.00     0.016 A 
ATOM     17  C   UNL     1     -17.887  -3.653  25.173  1.00  0.00     0.047 A 
BRANCH  15  18
ATOM     18  O   UNL     1     -19.812  -2.794  26.345  1.00  0.00    -0.508 OA
ATOM     19  H   UNL     1     -19.692  -1.795  26.229  1.00  0.00     0.293 HD
ENDBRANCH  15  18
ENDBRANCH   1  12
BRANCH   2  20
ATOM     20  O   UNL     1     -17.156  -4.717  21.043  1.00  0.00    -0.502 OA
ATOM     21  H   UNL     1     -18.061  -4.287  20.894  1.00  0.00     0.293 HD
ENDBRANCH   2  20
BRANCH   6  22
ATOM     22  O   UNL     1     -15.406  -9.232  18.823  1.00  0.00    -0.507 OA
ATOM     23  H   UNL     1     -14.620  -9.698  18.399  1.00  0.00     0.293 HD
ENDBRANCH   6  22
BRANCH   8  24
ATOM     24  O   UNL     1     -16.070 -12.295  22.438  1.00  0.00    -0.508 OA
ATOM     25  H   UNL     1     -15.571 -13.011  21.924  1.00  0.00     0.293 HD
ENDBRANCH   8  24
TORSDOF 5
ENDMDL
MODEL 8
REMARK VINA RESULT:    -5.974      1.741      6.591
REMARK INTER + INTRA:          -7.153
REMARK INTER:                  -6.864
REMARK INTRA:                  -0.289
REMARK UNBOUND:                -0.132
REMARK SMILES O=c1c(O)c(-c2ccc(O)cc2)oc2cc(O)cc(O)c12
REMARK SMILES IDX 5 1 3 2 2 3 1 4 21 5 19 6 18 7 16 8 15 9 14 10 13 11 6 12
REMARK SMILES IDX 7 13 8 14 9 15 12 16 11 17 10 18 4 20 20 22 17 24
REMARK H PARENT 10 19 4 21 20 23 17 25
REMARK Flexibility Score: inf
ROOT
ATOM      1  C   UNL     1     -18.301  -5.812  23.134  1.00  0.00     0.180 A 
ATOM      2  C   UNL     1     -18.201  -5.872  21.733  1.00  0.00     0.208 A 
ATOM      3  C   UNL     1     -18.821  -6.931  21.051  1.00  0.00     0.238 A 
ATOM      4  O   UNL     1     -18.664  -7.020  19.806  1.00  0.00    -0.285 OA
ATOM      5  C   UNL     1     -19.580  -7.886  21.771  1.00  0.00     0.111 A 
ATOM      6  C   UNL     1     -20.288  -8.976  21.179  1.00  0.00     0.134 A 
ATOM      7  C   UNL     1     -20.917  -9.918  22.000  1.00  0.00     0.093 A 
ATOM      8  C   UNL     1     -20.919  -9.778  23.387  1.00  0.00     0.123 A 
ATOM      9  C   UNL     1     -20.278  -8.687  23.975  1.00  0.00     0.094 A 
ATOM     10  C   UNL     1     -19.609  -7.750  23.185  1.00  0.00     0.146 A 
ATOM     11  O   UNL     1     -18.993  -6.740  23.785  1.00  0.00    -0.452 OA
ENDROOT
BRANCH   1  12
ATOM     12  C   UNL     1     -17.664  -4.734  23.925  1.00  0.00     0.021 A 
ATOM     13  C   UNL     1     -16.311  -4.805  24.305  1.00  0.00     0.016 A 
ATOM     14  C   UNL     1     -15.738  -3.787  25.073  1.00  0.00     0.047 A 
ATOM     15  C   UNL     1     -16.513  -2.693  25.482  1.00  0.00     0.115 A 
ATOM     16  C   UNL     1     -18.437  -3.645  24.358  1.00  0.00     0.016 A 
ATOM     17  C   UNL     1     -17.862  -2.628  25.125  1.00  0.00     0.047 A 
BRANCH  15  18
ATOM     18  O   UNL     1     -15.952  -1.673  26.246  1.00  0.00    -0.508 OA
ATOM     19  H   UNL     1     -15.089  -1.218  25.971  1.00  0.00     0.293 HD
ENDBRANCH  15  18
ENDBRANCH   1  12
BRANCH   2  20
ATOM     20  O   UNL     1     -17.512  -4.878  21.034  1.00  0.00    -0.502 OA
ATOM     21  H   UNL     1     -17.949  -4.008  20.753  1.00  0.00     0.293 HD
ENDBRANCH   2  20
BRANCH   6  22
ATOM     22  O   UNL     1     -20.424  -9.163  19.799  1.00  0.00    -0.507 OA
ATOM     23  H   UNL     1     -21.302  -9.259  19.313  1.00  0.00     0.293 HD
ENDBRANCH   6  22
BRANCH   8  24
ATOM     24  O   UNL     1     -21.572 -10.727  24.174  1.00  0.00    -0.508 OA
ATOM     25  H   UNL     1     -21.426 -10.775  25.175  1.00  0.00     0.293 HD
ENDBRANCH   8  24
TORSDOF 5
ENDMDL
MODEL 9
REMARK VINA RESULT:    -5.848      2.963      4.866
REMARK INTER + INTRA:          -7.005
REMARK INTER:                  -6.882
REMARK INTRA:                  -0.123
REMARK UNBOUND:                -0.132
REMARK SMILES O=c1c(O)c(-c2ccc(O)cc2)oc2cc(O)cc(O)c12
REMARK SMILES IDX 5 1 3 2 2 3 1 4 21 5 19 6 18 7 16 8 15 9 14 10 13 11 6 12
REMARK SMILES IDX 7 13 8 14 9 15 12 16 11 17 10 18 4 20 20 22 17 24
REMARK H PARENT 10 19 4 21 20 23 17 25
REMARK Flexibility Score: inf
ROOT
ATOM      1  C   UNL     1     -19.849  -9.069  23.292  1.00  0.00     0.180 A 
ATOM      2  C   UNL     1     -20.320  -9.045  21.967  1.00  0.00     0.208 A 
ATOM      3  C   UNL     1     -19.757  -8.131  21.062  1.00  0.00     0.238 A 
ATOM      4  O   UNL     1     -20.234  -8.063  19.900  1.00  0.00    -0.285 OA
ATOM      5  C   UNL     1     -18.693  -7.292  21.475  1.00  0.00     0.111 A 
ATOM      6  C   UNL     1     -18.019  -6.359  20.630  1.00  0.00     0.134 A 
ATOM      7  C   UNL     1     -17.053  -5.507  21.177  1.00  0.00     0.093 A 
ATOM      8  C   UNL     1     -16.691  -5.594  22.520  1.00  0.00     0.123 A 
ATOM      9  C   UNL     1     -17.304  -6.539  23.343  1.00  0.00     0.094 A 
ATOM     10  C   UNL     1     -18.299  -7.378  22.837  1.00  0.00     0.146 A 
ATOM     11  O   UNL     1     -18.872  -8.248  23.659  1.00  0.00    -0.452 OA
ENDROOT
BRANCH   1  12
ATOM     12  C   UNL     1     -20.401  -9.995  24.308  1.00  0.00     0.021 A 
ATOM     13  C   UNL     1     -19.623 -11.033  24.854  1.00  0.00     0.016 A 
ATOM     14  C   UNL     1     -20.174 -11.910  25.794  1.00  0.00     0.047 A 
ATOM     15  C   UNL     1     -21.511 -11.769  26.188  1.00  0.00     0.115 A 
ATOM     16  C   UNL     1     -21.746  -9.876  24.693  1.00  0.00     0.016 A 
ATOM     17  C   UNL     1     -22.294 -10.753  25.634  1.00  0.00     0.047 A 
BRANCH  15  18
ATOM     18  O   UNL     1     -22.070 -12.636  27.124  1.00  0.00    -0.508 OA
ATOM     19  H   UNL     1     -22.058 -12.426  28.115  1.00  0.00     0.293 HD
ENDBRANCH  15  18
ENDBRANCH   1  12
BRANCH   2  20
ATOM     20  O   UNL     1     -21.317  -9.934  21.559  1.00  0.00    -0.502 OA
ATOM     21  H   UNL     1     -21.964  -9.719  20.809  1.00  0.00     0.293 HD
ENDBRANCH   2  20
BRANCH   6  22
ATOM     22  O   UNL     1     -18.239  -6.248  19.253  1.00  0.00    -0.507 OA
ATOM     23  H   UNL     1     -18.056  -6.974  18.579  1.00  0.00     0.293 HD
ENDBRANCH   6  22
BRANCH   8  24
ATOM     24  O   UNL     1     -15.711  -4.741  23.026  1.00  0.00    -0.508 OA
ATOM     25  H   UNL     1     -14.892  -4.494  22.484  1.00  0.00     0.293 HD
ENDBRANCH   8  24
TORSDOF 5
ENDMDL
