MODEL 1
REMARK VINA RESULT:    -5.395      0.000      0.000
REMARK INTER + INTRA:          -9.327
REMARK INTER:                  -7.446
REMARK INTRA:                  -1.882
REMARK UNBOUND:                -1.882
REMARK SMILES CC[C@@H](CC[C@@H](C)[C@@H]1CC[C@H]2[C@H]3CC=C4C[C@H](O)CC[C@]4(C)[C@@H]3CC[C@]21C)C(C)C
REMARK SMILES IDX 5 1 4 2 3 3 2 4 1 5 28 6 29 7 30 8 6 9 7 10 8 11 9 12 26 13
REMARK SMILES IDX 10 14 11 15 25 16 27 17 12 18 24 19 23 20 13 21 21 22 14 23
REMARK SMILES IDX 15 24 20 25 22 26 16 27 19 28 17 29 18 30
REMARK H PARENT 18 31
REMARK Flexibility Score: inf
ROOT
ATOM      1  C   UNL     1      19.960 -14.597  40.687  1.00  0.00     0.004 C 
ENDROOT
BRANCH   1   2
ATOM      2  C   UNL     1      21.261 -15.314  41.124  1.00  0.00     0.004 C 
BRANCH   2   3
ATOM      3  C   UNL     1      21.761 -14.879  42.532  1.00  0.00    -0.009 C 
BRANCH   3   4
ATOM      4  C   UNL     1      23.178 -14.247  42.453  1.00  0.00     0.000 C 
ATOM      5  C   UNL     1      24.004 -14.465  43.723  1.00  0.00     0.004 C 
ENDBRANCH   3   4
BRANCH   3   6
ATOM      6  C   UNL     1      21.694 -16.068  43.552  1.00  0.00    -0.014 C 
ATOM      7  C   UNL     1      21.700 -17.428  42.835  1.00  0.00     0.007 C 
ATOM      8  C   UNL     1      20.502 -15.989  44.525  1.00  0.00     0.007 C 
ENDBRANCH   3   6
ENDBRANCH   2   3
ENDBRANCH   1   2
BRANCH   1   9
ATOM      9  C   UNL     1      18.618 -15.263  41.106  1.00  0.00    -0.011 C 
ATOM     10  C   UNL     1      17.397 -14.459  40.620  1.00  0.00     0.008 C 
BRANCH   9  11
ATOM     11  C   UNL     1      18.564 -16.818  40.824  1.00  0.00    -0.002 C 
ATOM     12  C   UNL     1      18.064 -17.196  39.408  1.00  0.00     0.005 C 
ATOM     13  C   UNL     1      17.729 -17.719  41.819  1.00  0.00    -0.026 C 
ATOM     14  C   UNL     1      16.990 -18.262  39.569  1.00  0.00     0.005 C 
ATOM     15  C   UNL     1      16.481 -18.118  41.003  1.00  0.00    -0.001 C 
ATOM     16  C   UNL     1      18.574 -18.990  42.153  1.00  0.00     0.007 C 
ATOM     17  C   UNL     1      17.312 -17.020  43.142  1.00  0.00     0.012 C 
ATOM     18  C   UNL     1      15.690 -19.345  41.559  1.00  0.00     0.000 C 
ATOM     19  C   UNL     1      17.765 -20.114  42.803  1.00  0.00     0.005 C 
ATOM     20  C   UNL     1      16.581 -20.559  41.910  1.00  0.00     0.003 C 
ATOM     21  C   UNL     1      14.607 -19.792  40.565  1.00  0.00     0.031 C 
ATOM     22  C   UNL     1      15.747 -21.771  42.516  1.00  0.00    -0.008 C 
ATOM     23  C   UNL     1      13.803 -20.923  41.116  1.00  0.00    -0.027 C 
ATOM     24  C   UNL     1      14.321 -21.858  41.938  1.00  0.00    -0.065 C 
ATOM     25  C   UNL     1      15.598 -21.652  44.068  1.00  0.00     0.014 C 
ATOM     26  C   UNL     1      16.505 -23.079  42.165  1.00  0.00     0.016 C 
ATOM     27  C   UNL     1      13.386 -22.900  42.517  1.00  0.00     0.063 C 
ATOM     28  C   UNL     1      14.642 -22.688  44.698  1.00  0.00     0.033 C 
ATOM     29  C   UNL     1      13.257 -22.692  44.032  1.00  0.00     0.118 C 
BRANCH  29  30
ATOM     30  O   UNL     1      12.603 -21.479  44.305  1.00  0.00    -0.393 OA
ATOM     31  H   UNL     1      13.122 -20.764  43.850  1.00  0.00     0.210 HD
ENDBRANCH  29  30
ENDBRANCH   9  11
ENDBRANCH   1   9
TORSDOF 7
ENDMDL
MODEL 2
REMARK VINA RESULT:    -5.394      2.751      8.531
REMARK INTER + INTRA:          -9.325
REMARK INTER:                  -7.249
REMARK INTRA:                  -2.076
REMARK UNBOUND:                -1.882
REMARK SMILES CC[C@@H](CC[C@@H](C)[C@@H]1CC[C@H]2[C@H]3CC=C4C[C@H](O)CC[C@]4(C)[C@@H]3CC[C@]21C)C(C)C
REMARK SMILES IDX 5 1 4 2 3 3 2 4 1 5 28 6 29 7 30 8 6 9 7 10 8 11 9 12 26 13
REMARK SMILES IDX 10 14 11 15 25 16 27 17 12 18 24 19 23 20 13 21 21 22 14 23
REMARK SMILES IDX 15 24 20 25 22 26 16 27 19 28 17 29 18 30
REMARK H PARENT 18 31
REMARK Flexibility Score: inf
ROOT
ATOM      1  C   UNL     1      13.926 -19.735  41.945  1.00  0.00     0.004 C 
ENDROOT
BRANCH   1   2
ATOM      2  C   UNL     1      14.767 -20.840  41.261  1.00  0.00     0.004 C 
BRANCH   2   3
ATOM      3  C   UNL     1      14.194 -22.271  41.473  1.00  0.00    -0.009 C 
BRANCH   3   4
ATOM      4  C   UNL     1      12.729 -22.218  41.987  1.00  0.00     0.000 C 
ATOM      5  C   UNL     1      11.696 -22.444  40.881  1.00  0.00     0.004 C 
ENDBRANCH   3   4
BRANCH   3   6
ATOM      6  C   UNL     1      15.122 -23.125  42.403  1.00  0.00    -0.014 C 
ATOM      7  C   UNL     1      14.648 -23.084  43.865  1.00  0.00     0.007 C 
ATOM      8  C   UNL     1      16.612 -22.739  42.321  1.00  0.00     0.007 C 
ENDBRANCH   3   6
ENDBRANCH   2   3
ENDBRANCH   1   2
BRANCH   1   9
ATOM      9  C   UNL     1      14.476 -19.163  43.283  1.00  0.00    -0.011 C 
ATOM     10  C   UNL     1      13.569 -19.515  44.478  1.00  0.00     0.008 C 
BRANCH   9  11
ATOM     11  C   UNL     1      16.019 -19.425  43.500  1.00  0.00    -0.002 C 
ATOM     12  C   UNL     1      16.424 -19.698  44.971  1.00  0.00     0.005 C 
ATOM     13  C   UNL     1      17.034 -18.328  42.983  1.00  0.00    -0.026 C 
ATOM     14  C   UNL     1      17.611 -18.803  45.295  1.00  0.00     0.005 C 
ATOM     15  C   UNL     1      17.558 -17.666  44.276  1.00  0.00    -0.001 C 
ATOM     16  C   UNL     1      18.204 -19.055  42.245  1.00  0.00     0.007 C 
ATOM     17  C   UNL     1      16.418 -17.261  42.038  1.00  0.00     0.012 C 
ATOM     18  C   UNL     1      18.882 -16.852  44.113  1.00  0.00     0.000 C 
ATOM     19  C   UNL     1      19.429 -18.168  42.012  1.00  0.00     0.005 C 
ATOM     20  C   UNL     1      19.990 -17.603  43.340  1.00  0.00     0.003 C 
ATOM     21  C   UNL     1      19.431 -16.424  45.482  1.00  0.00     0.031 C 
ATOM     22  C   UNL     1      21.304 -16.726  43.154  1.00  0.00    -0.008 C 
ATOM     23  C   UNL     1      20.660 -15.589  45.333  1.00  0.00    -0.027 C 
ATOM     24  C   UNL     1      21.546 -15.761  44.331  1.00  0.00    -0.065 C 
ATOM     25  C   UNL     1      21.237 -15.850  41.860  1.00  0.00     0.014 C 
ATOM     26  C   UNL     1      22.507 -17.703  43.060  1.00  0.00     0.016 C 
ATOM     27  C   UNL     1      22.702 -14.788  44.222  1.00  0.00     0.063 C 
ATOM     28  C   UNL     1      22.392 -14.835  41.717  1.00  0.00     0.033 C 
ATOM     29  C   UNL     1      22.543 -13.939  42.954  1.00  0.00     0.118 C 
BRANCH  29  30
ATOM     30  O   UNL     1      21.421 -13.099  43.065  1.00  0.00    -0.393 OA
ATOM     31  H   UNL     1      21.756 -12.165  43.015  1.00  0.00     0.210 HD
ENDBRANCH  29  30
ENDBRANCH   9  11
ENDBRANCH   1   9
TORSDOF 7
ENDMDL
MODEL 3
REMARK VINA RESULT:    -5.380      2.039      4.342
REMARK INTER + INTRA:          -9.306
REMARK INTER:                  -7.247
REMARK INTRA:                  -2.059
REMARK UNBOUND:                -1.882
REMARK SMILES CC[C@@H](CC[C@@H](C)[C@@H]1CC[C@H]2[C@H]3CC=C4C[C@H](O)CC[C@]4(C)[C@@H]3CC[C@]21C)C(C)C
REMARK SMILES IDX 5 1 4 2 3 3 2 4 1 5 28 6 29 7 30 8 6 9 7 10 8 11 9 12 26 13
REMARK SMILES IDX 10 14 11 15 25 16 27 17 12 18 24 19 23 20 13 21 21 22 14 23
REMARK SMILES IDX 15 24 20 25 22 26 16 27 19 28 17 29 18 30
REMARK H PARENT 18 31
REMARK Flexibility Score: inf
ROOT
ATOM      1  C   UNL     1      23.700 -14.673  42.920  1.00  0.00     0.004 C 
ENDROOT
BRANCH   1   2
ATOM      2  C   UNL     1      22.966 -13.827  41.851  1.00  0.00     0.004 C 
BRANCH   2   3
ATOM      3  C   UNL     1      23.092 -12.294  42.086  1.00  0.00    -0.009 C 
BRANCH   3   4
ATOM      4  C   UNL     1      24.088 -11.982  43.236  1.00  0.00     0.000 C 
ATOM      5  C   UNL     1      25.106 -10.899  42.871  1.00  0.00     0.004 C 
ENDBRANCH   3   4
BRANCH   3   6
ATOM      6  C   UNL     1      21.688 -11.636  42.318  1.00  0.00    -0.014 C 
ATOM      7  C   UNL     1      21.373 -11.492  43.817  1.00  0.00     0.007 C 
ATOM      8  C   UNL     1      20.533 -12.364  41.605  1.00  0.00     0.007 C 
ENDBRANCH   3   6
ENDBRANCH   2   3
ENDBRANCH   1   2
BRANCH   1   9
ATOM      9  C   UNL     1      22.811 -15.401  43.969  1.00  0.00    -0.011 C 
ATOM     10  C   UNL     1      23.076 -14.897  45.400  1.00  0.00     0.008 C 
BRANCH   9  11
ATOM     11  C   UNL     1      21.289 -15.501  43.553  1.00  0.00    -0.002 C 
ATOM     12  C   UNL     1      20.307 -14.836  44.550  1.00  0.00     0.005 C 
ATOM     13  C   UNL     1      20.694 -16.939  43.273  1.00  0.00    -0.026 C 
ATOM     14  C   UNL     1      19.197 -15.836  44.838  1.00  0.00     0.005 C 
ATOM     15  C   UNL     1      19.778 -17.205  44.487  1.00  0.00    -0.001 C 
ATOM     16  C   UNL     1      19.839 -16.867  41.967  1.00  0.00     0.007 C 
ATOM     17  C   UNL     1      21.750 -18.068  43.132  1.00  0.00     0.012 C 
ATOM     18  C   UNL     1      18.728 -18.346  44.287  1.00  0.00     0.000 C 
ATOM     19  C   UNL     1      18.915 -18.071  41.770  1.00  0.00     0.005 C 
ATOM     20  C   UNL     1      17.940 -18.248  42.960  1.00  0.00     0.003 C 
ATOM     21  C   UNL     1      17.733 -18.382  45.456  1.00  0.00     0.031 C 
ATOM     22  C   UNL     1      16.916 -19.449  42.770  1.00  0.00    -0.008 C 
ATOM     23  C   UNL     1      16.766 -19.511  45.306  1.00  0.00    -0.027 C 
ATOM     24  C   UNL     1      16.337 -19.954  44.107  1.00  0.00    -0.065 C 
ATOM     25  C   UNL     1      17.589 -20.680  42.078  1.00  0.00     0.014 C 
ATOM     26  C   UNL     1      15.748 -18.932  41.889  1.00  0.00     0.016 C 
ATOM     27  C   UNL     1      15.436 -21.171  44.073  1.00  0.00     0.063 C 
ATOM     28  C   UNL     1      16.708 -21.947  42.035  1.00  0.00     0.033 C 
ATOM     29  C   UNL     1      16.179 -22.344  43.421  1.00  0.00     0.118 C 
BRANCH  29  30
ATOM     30  O   UNL     1      17.252 -22.755  44.231  1.00  0.00    -0.393 OA
ATOM     31  H   UNL     1      17.739 -23.459  43.727  1.00  0.00     0.210 HD
ENDBRANCH  29  30
ENDBRANCH   9  11
ENDBRANCH   1   9
TORSDOF 7
ENDMDL
MODEL 4
REMARK VINA RESULT:    -5.365     11.348     13.752
REMARK INTER + INTRA:          -9.285
REMARK INTER:                  -7.197
REMARK INTRA:                  -2.088
REMARK UNBOUND:                -1.882
REMARK SMILES CC[C@@H](CC[C@@H](C)[C@@H]1CC[C@H]2[C@H]3CC=C4C[C@H](O)CC[C@]4(C)[C@@H]3CC[C@]21C)C(C)C
REMARK SMILES IDX 5 1 4 2 3 3 2 4 1 5 28 6 29 7 30 8 6 9 7 10 8 11 9 12 26 13
REMARK SMILES IDX 10 14 11 15 25 16 27 17 12 18 24 19 23 20 13 21 21 22 14 23
REMARK SMILES IDX 15 24 20 25 22 26 16 27 19 28 17 29 18 30
REMARK H PARENT 18 31
REMARK Flexibility Score: inf
ROOT
ATOM      1  C   UNL     1      11.475  -6.823  45.248  1.00  0.00     0.004 C 
ENDROOT
BRANCH   1   2
ATOM      2  C   UNL     1      11.118  -5.474  45.919  1.00  0.00     0.004 C 
BRANCH   2   3
ATOM      3  C   UNL     1      11.874  -4.261  45.304  1.00  0.00    -0.009 C 
BRANCH   3   4
ATOM      4  C   UNL     1      10.967  -3.478  44.315  1.00  0.00     0.000 C 
ATOM      5  C   UNL     1       9.480  -3.568  44.665  1.00  0.00     0.004 C 
ENDBRANCH   3   4
BRANCH   3   6
ATOM      6  C   UNL     1      13.226  -4.706  44.649  1.00  0.00    -0.014 C 
ATOM      7  C   UNL     1      14.434  -4.075  45.362  1.00  0.00     0.007 C 
ATOM      8  C   UNL     1      13.306  -4.431  43.135  1.00  0.00     0.007 C 
ENDBRANCH   3   6
ENDBRANCH   2   3
ENDBRANCH   1   2
BRANCH   1   9
ATOM      9  C   UNL     1      10.451  -7.386  44.220  1.00  0.00    -0.011 C 
ATOM     10  C   UNL     1       8.999  -7.252  44.717  1.00  0.00     0.008 C 
BRANCH   9  11
ATOM     11  C   UNL     1      10.708  -6.903  42.736  1.00  0.00    -0.002 C 
ATOM     12  C   UNL     1       9.507  -6.180  42.079  1.00  0.00     0.005 C 
ATOM     13  C   UNL     1      11.177  -7.983  41.680  1.00  0.00    -0.026 C 
ATOM     14  C   UNL     1       9.284  -6.808  40.711  1.00  0.00     0.005 C 
ATOM     15  C   UNL     1       9.938  -8.187  40.781  1.00  0.00    -0.001 C 
ATOM     16  C   UNL     1      12.347  -7.372  40.844  1.00  0.00     0.007 C 
ATOM     17  C   UNL     1      11.635  -9.337  42.288  1.00  0.00     0.012 C 
ATOM     18  C   UNL     1      10.225  -8.862  39.401  1.00  0.00     0.000 C 
ATOM     19  C   UNL     1      12.656  -8.148  39.561  1.00  0.00     0.005 C 
ATOM     20  C   UNL     1      11.418  -8.244  38.636  1.00  0.00     0.003 C 
ATOM     21  C   UNL     1       8.981  -8.819  38.503  1.00  0.00     0.031 C 
ATOM     22  C   UNL     1      11.709  -8.987  37.260  1.00  0.00    -0.008 C 
ATOM     23  C   UNL     1       9.225  -9.520  37.208  1.00  0.00    -0.027 C 
ATOM     24  C   UNL     1      10.430  -9.544  36.604  1.00  0.00    -0.065 C 
ATOM     25  C   UNL     1      12.682 -10.197  37.449  1.00  0.00     0.014 C 
ATOM     26  C   UNL     1      12.348  -7.951  36.297  1.00  0.00     0.016 C 
ATOM     27  C   UNL     1      10.585 -10.373  35.345  1.00  0.00     0.063 C 
ATOM     28  C   UNL     1      12.857 -11.077  36.192  1.00  0.00     0.033 C 
ATOM     29  C   UNL     1      11.516 -11.561  35.622  1.00  0.00     0.118 C 
BRANCH  29  30
ATOM     30  O   UNL     1      10.915 -12.452  36.527  1.00  0.00    -0.393 OA
ATOM     31  H   UNL     1      11.525 -13.232  36.609  1.00  0.00     0.210 HD
ENDBRANCH  29  30
ENDBRANCH   9  11
ENDBRANCH   1   9
TORSDOF 7
ENDMDL
MODEL 5
REMARK VINA RESULT:    -5.359      0.901      1.720
REMARK INTER + INTRA:          -9.277
REMARK INTER:                  -7.912
REMARK INTRA:                  -1.365
REMARK UNBOUND:                -1.882
REMARK SMILES CC[C@@H](CC[C@@H](C)[C@@H]1CC[C@H]2[C@H]3CC=C4C[C@H](O)CC[C@]4(C)[C@@H]3CC[C@]21C)C(C)C
REMARK SMILES IDX 5 1 4 2 3 3 2 4 1 5 28 6 29 7 30 8 6 9 7 10 8 11 9 12 26 13
REMARK SMILES IDX 10 14 11 15 25 16 27 17 12 18 24 19 23 20 13 21 21 22 14 23
REMARK SMILES IDX 15 24 20 25 22 26 16 27 19 28 17 29 18 30
REMARK H PARENT 18 31
REMARK Flexibility Score: inf
ROOT
ATOM      1  C   UNL     1      21.091 -15.630  41.787  1.00  0.00     0.004 C 
ENDROOT
BRANCH   1   2
ATOM      2  C   UNL     1      21.746 -16.328  43.004  1.00  0.00     0.004 C 
BRANCH   2   3
ATOM      3  C   UNL     1      22.681 -15.391  43.822  1.00  0.00    -0.009 C 
BRANCH   3   4
ATOM      4  C   UNL     1      22.144 -15.184  45.265  1.00  0.00     0.000 C 
ATOM      5  C   UNL     1      20.669 -15.561  45.416  1.00  0.00     0.004 C 
ENDBRANCH   3   4
BRANCH   3   6
ATOM      6  C   UNL     1      22.923 -14.035  43.075  1.00  0.00    -0.014 C 
ATOM      7  C   UNL     1      24.404 -13.851  42.703  1.00  0.00     0.007 C 
ATOM      8  C   UNL     1      22.415 -12.800  43.843  1.00  0.00     0.007 C 
ENDBRANCH   3   6
ENDBRANCH   2   3
ENDBRANCH   1   2
BRANCH   1   9
ATOM      9  C   UNL     1      19.567 -15.867  41.581  1.00  0.00    -0.011 C 
ATOM     10  C   UNL     1      18.921 -14.765  40.719  1.00  0.00     0.008 C 
BRANCH   9  11
ATOM     11  C   UNL     1      19.202 -17.350  41.174  1.00  0.00    -0.002 C 
ATOM     12  C   UNL     1      18.715 -17.513  39.712  1.00  0.00     0.005 C 
ATOM     13  C   UNL     1      18.140 -18.119  42.058  1.00  0.00    -0.026 C 
ATOM     14  C   UNL     1      17.433 -18.331  39.743  1.00  0.00     0.005 C 
ATOM     15  C   UNL     1      16.885 -18.182  41.161  1.00  0.00    -0.001 C 
ATOM     16  C   UNL     1      18.678 -19.562  42.322  1.00  0.00     0.007 C 
ATOM     17  C   UNL     1      17.805 -17.441  43.414  1.00  0.00     0.012 C 
ATOM     18  C   UNL     1      15.822 -19.247  41.584  1.00  0.00     0.000 C 
ATOM     19  C   UNL     1      17.613 -20.528  42.846  1.00  0.00     0.005 C 
ATOM     20  C   UNL     1      16.415 -20.645  41.872  1.00  0.00     0.003 C 
ATOM     21  C   UNL     1      14.728 -19.380  40.514  1.00  0.00     0.031 C 
ATOM     22  C   UNL     1      15.311 -21.689  42.344  1.00  0.00    -0.008 C 
ATOM     23  C   UNL     1      13.673 -20.348  40.939  1.00  0.00    -0.027 C 
ATOM     24  C   UNL     1      13.934 -21.427  41.703  1.00  0.00    -0.065 C 
ATOM     25  C   UNL     1      15.101 -21.650  43.893  1.00  0.00     0.014 C 
ATOM     26  C   UNL     1      15.794 -23.101  41.920  1.00  0.00     0.016 C 
ATOM     27  C   UNL     1      12.769 -22.282  42.157  1.00  0.00     0.063 C 
ATOM     28  C   UNL     1      13.914 -22.498  44.397  1.00  0.00     0.033 C 
ATOM     29  C   UNL     1      12.601 -22.158  43.678  1.00  0.00     0.118 C 
BRANCH  29  30
ATOM     30  O   UNL     1      12.202 -20.854  44.021  1.00  0.00    -0.393 OA
ATOM     31  H   UNL     1      12.813 -20.233  43.543  1.00  0.00     0.210 HD
ENDBRANCH  29  30
ENDBRANCH   9  11
ENDBRANCH   1   9
TORSDOF 7
ENDMDL
MODEL 6
REMARK VINA RESULT:    -5.333      2.494      5.873
REMARK INTER + INTRA:          -9.241
REMARK INTER:                  -7.390
REMARK INTRA:                  -1.852
REMARK UNBOUND:                -1.882
REMARK SMILES CC[C@@H](CC[C@@H](C)[C@@H]1CC[C@H]2[C@H]3CC=C4C[C@H](O)CC[C@]4(C)[C@@H]3CC[C@]21C)C(C)C
REMARK SMILES IDX 5 1 4 2 3 3 2 4 1 5 28 6 29 7 30 8 6 9 7 10 8 11 9 12 26 13
REMARK SMILES IDX 10 14 11 15 25 16 27 17 12 18 24 19 23 20 13 21 21 22 14 23
REMARK SMILES IDX 15 24 20 25 22 26 16 27 19 28 17 29 18 30
REMARK H PARENT 18 31
REMARK Flexibility Score: inf
ROOT
ATOM      1  C   UNL     1      24.912 -12.911  44.166  1.00  0.00     0.004 C 
ENDROOT
BRANCH   1   2
ATOM      2  C   UNL     1      25.125 -12.743  42.641  1.00  0.00     0.004 C 
BRANCH   2   3
ATOM      3  C   UNL     1      24.645 -11.364  42.100  1.00  0.00    -0.009 C 
BRANCH   3   4
ATOM      4  C   UNL     1      24.481 -10.335  43.253  1.00  0.00     0.000 C 
ATOM      5  C   UNL     1      25.047  -8.956  42.910  1.00  0.00     0.004 C 
ENDBRANCH   3   4
BRANCH   3   6
ATOM      6  C   UNL     1      23.341 -11.512  41.243  1.00  0.00    -0.014 C 
ATOM      7  C   UNL     1      23.458 -10.764  39.905  1.00  0.00     0.007 C 
ATOM      8  C   UNL     1      22.059 -11.080  41.979  1.00  0.00     0.007 C 
ENDBRANCH   3   6
ENDBRANCH   2   3
ENDBRANCH   1   2
BRANCH   1   9
ATOM      9  C   UNL     1      23.971 -14.065  44.618  1.00  0.00    -0.011 C 
ATOM     10  C   UNL     1      24.100 -14.358  46.125  1.00  0.00     0.008 C 
BRANCH   9  11
ATOM     11  C   UNL     1      22.493 -13.930  44.075  1.00  0.00    -0.002 C 
ATOM     12  C   UNL     1      21.471 -13.413  45.118  1.00  0.00     0.005 C 
ATOM     13  C   UNL     1      21.824 -15.210  43.432  1.00  0.00    -0.026 C 
ATOM     14  C   UNL     1      20.269 -14.345  45.086  1.00  0.00     0.005 C 
ATOM     15  C   UNL     1      20.779 -15.651  44.479  1.00  0.00    -0.001 C 
ATOM     16  C   UNL     1      21.105 -14.775  42.114  1.00  0.00     0.007 C 
ATOM     17  C   UNL     1      22.804 -16.373  43.119  1.00  0.00     0.012 C 
ATOM     18  C   UNL     1      19.673 -16.618  43.946  1.00  0.00     0.000 C 
ATOM     19  C   UNL     1      20.119 -15.816  41.579  1.00  0.00     0.005 C 
ATOM     20  C   UNL     1      19.025 -16.159  42.619  1.00  0.00     0.003 C 
ATOM     21  C   UNL     1      18.571 -16.819  44.996  1.00  0.00     0.031 C 
ATOM     22  C   UNL     1      17.939 -17.190  42.084  1.00  0.00    -0.008 C 
ATOM     23  C   UNL     1      17.543 -17.792  44.521  1.00  0.00    -0.027 C 
ATOM     24  C   UNL     1      17.200 -17.920  43.223  1.00  0.00    -0.065 C 
ATOM     25  C   UNL     1      18.583 -18.296  41.185  1.00  0.00     0.014 C 
ATOM     26  C   UNL     1      16.901 -16.386  41.256  1.00  0.00     0.016 C 
ATOM     27  C   UNL     1      16.220 -19.012  42.845  1.00  0.00     0.063 C 
ATOM     28  C   UNL     1      17.621 -19.436  40.787  1.00  0.00     0.033 C 
ATOM     29  C   UNL     1      16.935 -20.077  42.003  1.00  0.00     0.118 C 
BRANCH  29  30
ATOM     30  O   UNL     1      17.893 -20.752  42.779  1.00  0.00    -0.393 OA
ATOM     31  H   UNL     1      18.235 -21.502  42.223  1.00  0.00     0.210 HD
ENDBRANCH  29  30
ENDBRANCH   9  11
ENDBRANCH   1   9
TORSDOF 7
ENDMDL
MODEL 7
REMARK VINA RESULT:    -5.251      1.657      3.390
REMARK INTER + INTRA:          -9.128
REMARK INTER:                  -7.827
REMARK INTRA:                  -1.301
REMARK UNBOUND:                -1.882
REMARK SMILES CC[C@@H](CC[C@@H](C)[C@@H]1CC[C@H]2[C@H]3CC=C4C[C@H](O)CC[C@]4(C)[C@@H]3CC[C@]21C)C(C)C
REMARK SMILES IDX 5 1 4 2 3 3 2 4 1 5 28 6 29 7 30 8 6 9 7 10 8 11 9 12 26 13
REMARK SMILES IDX 10 14 11 15 25 16 27 17 12 18 24 19 23 20 13 21 21 22 14 23
REMARK SMILES IDX 15 24 20 25 22 26 16 27 19 28 17 29 18 30
REMARK H PARENT 18 31
REMARK Flexibility Score: inf
ROOT
ATOM      1  C   UNL     1      22.010 -15.343  42.180  1.00  0.00     0.004 C 
ENDROOT
BRANCH   1   2
ATOM      2  C   UNL     1      23.116 -15.025  43.215  1.00  0.00     0.004 C 
BRANCH   2   3
ATOM      3  C   UNL     1      22.829 -13.743  44.050  1.00  0.00    -0.009 C 
BRANCH   3   4
ATOM      4  C   UNL     1      23.787 -12.587  43.650  1.00  0.00     0.000 C 
ATOM      5  C   UNL     1      24.961 -13.053  42.787  1.00  0.00     0.004 C 
ENDBRANCH   3   4
BRANCH   3   6
ATOM      6  C   UNL     1      22.868 -14.045  45.587  1.00  0.00    -0.014 C 
ATOM      7  C   UNL     1      24.097 -14.888  45.967  1.00  0.00     0.007 C 
ATOM      8  C   UNL     1      21.586 -14.710  46.125  1.00  0.00     0.007 C 
ENDBRANCH   3   6
ENDBRANCH   2   3
ENDBRANCH   1   2
BRANCH   1   9
ATOM      9  C   UNL     1      21.320 -16.733  42.297  1.00  0.00    -0.011 C 
ATOM     10  C   UNL     1      22.183 -17.742  43.079  1.00  0.00     0.008 C 
BRANCH   9  11
ATOM     11  C   UNL     1      19.802 -16.656  42.731  1.00  0.00    -0.002 C 
ATOM     12  C   UNL     1      19.564 -16.768  44.257  1.00  0.00     0.005 C 
ATOM     13  C   UNL     1      18.794 -17.681  42.073  1.00  0.00    -0.026 C 
ATOM     14  C   UNL     1      18.475 -17.808  44.478  1.00  0.00     0.005 C 
ATOM     15  C   UNL     1      18.466 -18.667  43.215  1.00  0.00    -0.001 C 
ATOM     16  C   UNL     1      17.505 -16.900  41.658  1.00  0.00     0.007 C 
ATOM     17  C   UNL     1      19.348 -18.444  40.839  1.00  0.00     0.012 C 
ATOM     18  C   UNL     1      17.178 -19.526  42.999  1.00  0.00     0.000 C 
ATOM     19  C   UNL     1      16.311 -17.805  41.347  1.00  0.00     0.005 C 
ATOM     20  C   UNL     1      15.946 -18.708  42.551  1.00  0.00     0.003 C 
ATOM     21  C   UNL     1      16.823 -20.305  44.274  1.00  0.00     0.031 C 
ATOM     22  C   UNL     1      14.669 -19.621  42.297  1.00  0.00    -0.008 C 
ATOM     23  C   UNL     1      15.632 -21.180  44.057  1.00  0.00    -0.027 C 
ATOM     24  C   UNL     1      14.624 -20.851  43.224  1.00  0.00    -0.065 C 
ATOM     25  C   UNL     1      14.626 -20.162  40.830  1.00  0.00     0.014 C 
ATOM     26  C   UNL     1      13.412 -18.751  42.567  1.00  0.00     0.016 C 
ATOM     27  C   UNL     1      13.517 -21.862  43.006  1.00  0.00     0.063 C 
ATOM     28  C   UNL     1      13.520 -21.206  40.567  1.00  0.00     0.033 C 
ATOM     29  C   UNL     1      13.568 -22.377  41.561  1.00  0.00     0.118 C 
BRANCH  29  30
ATOM     30  O   UNL     1      14.739 -23.124  41.348  1.00  0.00    -0.393 OA
ATOM     31  H   UNL     1      15.060 -22.899  40.435  1.00  0.00     0.210 HD
ENDBRANCH  29  30
ENDBRANCH   9  11
ENDBRANCH   1   9
TORSDOF 7
ENDMDL
MODEL 8
REMARK VINA RESULT:    -5.226      2.947      9.115
REMARK INTER + INTRA:          -9.093
REMARK INTER:                  -7.700
REMARK INTRA:                  -1.393
REMARK UNBOUND:                -1.882
REMARK SMILES CC[C@@H](CC[C@@H](C)[C@@H]1CC[C@H]2[C@H]3CC=C4C[C@H](O)CC[C@]4(C)[C@@H]3CC[C@]21C)C(C)C
REMARK SMILES IDX 5 1 4 2 3 3 2 4 1 5 28 6 29 7 30 8 6 9 7 10 8 11 9 12 26 13
REMARK SMILES IDX 10 14 11 15 25 16 27 17 12 18 24 19 23 20 13 21 21 22 14 23
REMARK SMILES IDX 15 24 20 25 22 26 16 27 19 28 17 29 18 30
REMARK H PARENT 18 31
REMARK Flexibility Score: inf
ROOT
ATOM      1  C   UNL     1      15.465 -19.153  42.607  1.00  0.00     0.004 C 
ENDROOT
BRANCH   1   2
ATOM      2  C   UNL     1      15.746 -20.339  41.653  1.00  0.00     0.004 C 
BRANCH   2   3
ATOM      3  C   UNL     1      15.288 -21.712  42.224  1.00  0.00    -0.009 C 
BRANCH   3   4
ATOM      4  C   UNL     1      16.494 -22.674  42.410  1.00  0.00     0.000 C 
ATOM      5  C   UNL     1      16.857 -22.902  43.879  1.00  0.00     0.004 C 
ENDBRANCH   3   4
BRANCH   3   6
ATOM      6  C   UNL     1      14.152 -22.343  41.346  1.00  0.00    -0.014 C 
ATOM      7  C   UNL     1      13.506 -21.297  40.422  1.00  0.00     0.007 C 
ATOM      8  C   UNL     1      13.065 -23.069  42.161  1.00  0.00     0.007 C 
ENDBRANCH   3   6
ENDBRANCH   2   3
ENDBRANCH   1   2
BRANCH   1   9
ATOM      9  C   UNL     1      16.693 -18.535  43.337  1.00  0.00    -0.011 C 
ATOM     10  C   UNL     1      16.971 -19.225  44.686  1.00  0.00     0.008 C 
BRANCH   9  11
ATOM     11  C   UNL     1      17.952 -18.333  42.403  1.00  0.00    -0.002 C 
ATOM     12  C   UNL     1      19.127 -19.300  42.694  1.00  0.00     0.005 C 
ATOM     13  C   UNL     1      18.600 -16.893  42.340  1.00  0.00    -0.026 C 
ATOM     14  C   UNL     1      20.395 -18.465  42.797  1.00  0.00     0.005 C 
ATOM     15  C   UNL     1      19.927 -17.046  43.115  1.00  0.00    -0.001 C 
ATOM     16  C   UNL     1      18.895 -16.555  40.843  1.00  0.00     0.007 C 
ATOM     17  C   UNL     1      17.738 -15.760  42.959  1.00  0.00     0.012 C 
ATOM     18  C   UNL     1      20.980 -15.920  42.856  1.00  0.00     0.000 C 
ATOM     19  C   UNL     1      19.842 -15.368  40.655  1.00  0.00     0.005 C 
ATOM     20  C   UNL     1      21.201 -15.600  41.360  1.00  0.00     0.003 C 
ATOM     21  C   UNL     1      22.329 -16.279  43.495  1.00  0.00     0.031 C 
ATOM     22  C   UNL     1      22.243 -14.419  41.138  1.00  0.00    -0.008 C 
ATOM     23  C   UNL     1      23.323 -15.179  43.309  1.00  0.00    -0.027 C 
ATOM     24  C   UNL     1      23.338 -14.382  42.222  1.00  0.00    -0.065 C 
ATOM     25  C   UNL     1      21.544 -13.020  41.155  1.00  0.00     0.014 C 
ATOM     26  C   UNL     1      22.918 -14.647  39.760  1.00  0.00     0.016 C 
ATOM     27  C   UNL     1      24.326 -13.234  42.189  1.00  0.00     0.063 C 
ATOM     28  C   UNL     1      22.518 -11.821  41.136  1.00  0.00     0.033 C 
ATOM     29  C   UNL     1      23.570 -11.900  42.252  1.00  0.00     0.118 C 
BRANCH  29  30
ATOM     30  O   UNL     1      22.941 -11.753  43.501  1.00  0.00    -0.393 OA
ATOM     31  H   UNL     1      23.169 -10.845  43.831  1.00  0.00     0.210 HD
ENDBRANCH  29  30
ENDBRANCH   9  11
ENDBRANCH   1   9
TORSDOF 7
ENDMDL
MODEL 9
REMARK VINA RESULT:    -5.218     12.007     13.709
REMARK INTER + INTRA:          -9.082
REMARK INTER:                  -7.633
REMARK INTRA:                  -1.450
REMARK UNBOUND:                -1.882
REMARK SMILES CC[C@@H](CC[C@@H](C)[C@@H]1CC[C@H]2[C@H]3CC=C4C[C@H](O)CC[C@]4(C)[C@@H]3CC[C@]21C)C(C)C
REMARK SMILES IDX 5 1 4 2 3 3 2 4 1 5 28 6 29 7 30 8 6 9 7 10 8 11 9 12 26 13
REMARK SMILES IDX 10 14 11 15 25 16 27 17 12 18 24 19 23 20 13 21 21 22 14 23
REMARK SMILES IDX 15 24 20 25 22 26 16 27 19 28 17 29 18 30
REMARK H PARENT 18 31
REMARK Flexibility Score: inf
ROOT
ATOM      1  C   UNL     1      12.251  -6.390  44.234  1.00  0.00     0.004 C 
ENDROOT
BRANCH   1   2
ATOM      2  C   UNL     1      12.464  -5.177  43.294  1.00  0.00     0.004 C 
BRANCH   2   3
ATOM      3  C   UNL     1      12.979  -3.908  44.032  1.00  0.00    -0.009 C 
BRANCH   3   4
ATOM      4  C   UNL     1      14.028  -4.277  45.117  1.00  0.00     0.000 C 
ATOM      5  C   UNL     1      15.393  -3.628  44.877  1.00  0.00     0.004 C 
ENDBRANCH   3   4
BRANCH   3   6
ATOM      6  C   UNL     1      11.792  -3.066  44.613  1.00  0.00    -0.014 C 
ATOM      7  C   UNL     1      11.601  -3.321  46.118  1.00  0.00     0.007 C 
ATOM      8  C   UNL     1      10.458  -3.273  43.871  1.00  0.00     0.007 C 
ENDBRANCH   3   6
ENDBRANCH   2   3
ENDBRANCH   1   2
BRANCH   1   9
ATOM      9  C   UNL     1      10.901  -7.151  44.099  1.00  0.00    -0.011 C 
ATOM     10  C   UNL     1       9.857  -6.664  45.123  1.00  0.00     0.008 C 
BRANCH   9  11
ATOM     11  C   UNL     1      10.386  -7.275  42.610  1.00  0.00    -0.002 C 
ATOM     12  C   UNL     1       9.339  -6.208  42.202  1.00  0.00     0.005 C 
ATOM     13  C   UNL     1       9.773  -8.659  42.153  1.00  0.00    -0.026 C 
ATOM     14  C   UNL     1       8.175  -6.933  41.544  1.00  0.00     0.005 C 
ATOM     15  C   UNL     1       8.260  -8.377  42.038  1.00  0.00    -0.001 C 
ATOM     16  C   UNL     1      10.357  -9.011  40.747  1.00  0.00     0.007 C 
ATOM     17  C   UNL     1      10.032  -9.841  43.126  1.00  0.00     0.012 C 
ATOM     18  C   UNL     1       7.453  -9.420  41.198  1.00  0.00     0.000 C 
ATOM     19  C   UNL     1       9.592 -10.122  40.024  1.00  0.00     0.005 C 
ATOM     20  C   UNL     1       8.098  -9.761  39.835  1.00  0.00     0.003 C 
ATOM     21  C   UNL     1       6.015  -8.935  40.962  1.00  0.00     0.031 C 
ATOM     22  C   UNL     1       7.276 -10.859  39.030  1.00  0.00    -0.008 C 
ATOM     23  C   UNL     1       5.218  -9.955  40.216  1.00  0.00    -0.027 C 
ATOM     24  C   UNL     1       5.759 -10.778  39.295  1.00  0.00    -0.065 C 
ATOM     25  C   UNL     1       7.722 -12.309  39.408  1.00  0.00     0.014 C 
ATOM     26  C   UNL     1       7.527 -10.614  37.518  1.00  0.00     0.016 C 
ATOM     27  C   UNL     1       4.875 -11.841  38.677  1.00  0.00     0.063 C 
ATOM     28  C   UNL     1       6.838 -13.425  38.809  1.00  0.00     0.033 C 
ATOM     29  C   UNL     1       5.348 -13.230  39.128  1.00  0.00     0.118 C 
BRANCH  29  30
ATOM     30  O   UNL     1       5.139 -13.394  40.508  1.00  0.00    -0.393 OA
ATOM     31  H   UNL     1       5.855 -14.000  40.836  1.00  0.00     0.210 HD
ENDBRANCH  29  30
ENDBRANCH   9  11
ENDBRANCH   1   9
TORSDOF 7
ENDMDL
