MODEL 1
REMARK VINA RESULT:    -4.513      0.000      0.000
REMARK INTER + INTRA:          -5.923
REMARK INTER:                  -5.569
REMARK INTRA:                  -0.354
REMARK UNBOUND:                -0.354
REMARK SMILES COC(=O)c1ccccc1C(=O)OC
REMARK SMILES IDX 5 1 6 2 7 3 8 4 9 5 10 6 3 7 4 8 2 9 1 10 11 11 12 12 13 13
REMARK SMILES IDX 14 14
REMARK H PARENT
REMARK Flexibility Score: inf
ROOT
ATOM      1  C   UNL     1     187.337 199.939 169.610  1.00  0.00     0.074 A 
ATOM      2  C   UNL     1     187.382 200.977 168.661  1.00  0.00     0.016 A 
ATOM      3  C   UNL     1     186.392 201.095 167.685  1.00  0.00     0.001 A 
ATOM      4  C   UNL     1     185.344 200.178 167.639  1.00  0.00     0.001 A 
ATOM      5  C   UNL     1     185.268 199.154 168.583  1.00  0.00     0.016 A 
ATOM      6  C   UNL     1     186.241 199.030 169.591  1.00  0.00     0.074 A 
ENDROOT
BRANCH   1   7
ATOM      7  C   UNL     1     188.478 199.806 170.544  1.00  0.00     0.338 C 
ATOM      8  O   UNL     1     189.368 198.934 170.344  1.00  0.00    -0.246 OA
BRANCH   7   9
ATOM      9  O   UNL     1     188.595 200.693 171.620  1.00  0.00    -0.465 OA
ATOM     10  C   UNL     1     187.824 200.564 172.809  1.00  0.00     0.282 C 
ENDBRANCH   7   9
ENDBRANCH   1   7
BRANCH   6  11
ATOM     11  C   UNL     1     186.036 197.991 170.626  1.00  0.00     0.338 C 
ATOM     12  O   UNL     1     186.559 196.850 170.496  1.00  0.00    -0.246 OA
BRANCH  11  13
ATOM     13  O   UNL     1     185.307 198.302 171.779  1.00  0.00    -0.465 OA
ATOM     14  C   UNL     1     183.887 198.372 171.792  1.00  0.00     0.282 C 
ENDBRANCH  11  13
ENDBRANCH   6  11
TORSDOF 4
ENDMDL
MODEL 2
REMARK VINA RESULT:    -4.489      0.541      3.212
REMARK INTER + INTRA:          -5.894
REMARK INTER:                  -5.493
REMARK INTRA:                  -0.401
REMARK UNBOUND:                -0.354
REMARK SMILES COC(=O)c1ccccc1C(=O)OC
REMARK SMILES IDX 5 1 6 2 7 3 8 4 9 5 10 6 3 7 4 8 2 9 1 10 11 11 12 12 13 13
REMARK SMILES IDX 14 14
REMARK H PARENT
REMARK Flexibility Score: inf
ROOT
ATOM      1  C   UNL     1     186.333 199.164 169.504  1.00  0.00     0.074 A 
ATOM      2  C   UNL     1     185.201 199.286 168.677  1.00  0.00     0.016 A 
ATOM      3  C   UNL     1     185.151 200.255 167.675  1.00  0.00     0.001 A 
ATOM      4  C   UNL     1     186.227 201.119 167.484  1.00  0.00     0.001 A 
ATOM      5  C   UNL     1     187.368 201.002 168.278  1.00  0.00     0.016 A 
ATOM      6  C   UNL     1     187.451 200.016 169.278  1.00  0.00     0.074 A 
ENDROOT
BRANCH   1   7
ATOM      7  C   UNL     1     186.272 198.191 170.619  1.00  0.00     0.338 C 
ATOM      8  O   UNL     1     186.730 197.024 170.471  1.00  0.00    -0.246 OA
BRANCH   7   9
ATOM      9  O   UNL     1     185.755 198.591 171.855  1.00  0.00    -0.465 OA
ATOM     10  C   UNL     1     184.494 198.145 172.341  1.00  0.00     0.282 C 
ENDBRANCH   7   9
ENDBRANCH   1   7
BRANCH   6  11
ATOM     11  C   UNL     1     188.733 199.875 170.006  1.00  0.00     0.338 C 
ATOM     12  O   UNL     1     189.526 198.935 169.722  1.00  0.00    -0.246 OA
BRANCH  11  13
ATOM     13  O   UNL     1     189.086 200.824 170.970  1.00  0.00    -0.465 OA
ATOM     14  C   UNL     1     188.259 201.125 172.088  1.00  0.00     0.282 C 
ENDBRANCH  11  13
ENDBRANCH   6  11
TORSDOF 4
ENDMDL
MODEL 3
REMARK VINA RESULT:    -4.332      2.044      4.873
REMARK INTER + INTRA:          -5.699
REMARK INTER:                  -5.327
REMARK INTRA:                  -0.372
REMARK UNBOUND:                -0.354
REMARK SMILES COC(=O)c1ccccc1C(=O)OC
REMARK SMILES IDX 5 1 6 2 7 3 8 4 9 5 10 6 3 7 4 8 2 9 1 10 11 11 12 12 13 13
REMARK SMILES IDX 14 14
REMARK H PARENT
REMARK Flexibility Score: inf
ROOT
ATOM      1  C   UNL     1     184.446 199.085 171.651  1.00  0.00     0.074 A 
ATOM      2  C   UNL     1     183.154 198.569 171.869  1.00  0.00     0.016 A 
ATOM      3  C   UNL     1     182.850 197.880 173.043  1.00  0.00     0.001 A 
ATOM      4  C   UNL     1     183.828 197.694 174.018  1.00  0.00     0.001 A 
ATOM      5  C   UNL     1     185.108 198.216 173.833  1.00  0.00     0.016 A 
ATOM      6  C   UNL     1     185.432 198.934 172.668  1.00  0.00     0.074 A 
ENDROOT
BRANCH   1   7
ATOM      7  C   UNL     1     184.730 199.704 170.337  1.00  0.00     0.338 C 
ATOM      8  O   UNL     1     184.576 200.945 170.170  1.00  0.00    -0.246 OA
BRANCH   7   9
ATOM      9  O   UNL     1     185.226 198.912 169.296  1.00  0.00    -0.465 OA
ATOM     10  C   UNL     1     185.231 199.343 167.939  1.00  0.00     0.282 C 
ENDBRANCH   7   9
ENDBRANCH   1   7
BRANCH   6  11
ATOM     11  C   UNL     1     186.773 199.557 172.589  1.00  0.00     0.338 C 
ATOM     12  O   UNL     1     186.916 200.792 172.803  1.00  0.00    -0.246 OA
BRANCH  11  13
ATOM     13  O   UNL     1     187.890 198.755 172.331  1.00  0.00    -0.465 OA
ATOM     14  C   UNL     1     188.044 198.018 171.124  1.00  0.00     0.282 C 
ENDBRANCH  11  13
ENDBRANCH   6  11
TORSDOF 4
ENDMDL
MODEL 4
REMARK VINA RESULT:    -4.320      1.470      3.498
REMARK INTER + INTRA:          -5.684
REMARK INTER:                  -5.336
REMARK INTRA:                  -0.348
REMARK UNBOUND:                -0.354
REMARK SMILES COC(=O)c1ccccc1C(=O)OC
REMARK SMILES IDX 5 1 6 2 7 3 8 4 9 5 10 6 3 7 4 8 2 9 1 10 11 11 12 12 13 13
REMARK SMILES IDX 14 14
REMARK H PARENT
REMARK Flexibility Score: inf
ROOT
ATOM      1  C   UNL     1     184.686 199.303 170.533  1.00  0.00     0.074 A 
ATOM      2  C   UNL     1     183.865 200.169 169.787  1.00  0.00     0.016 A 
ATOM      3  C   UNL     1     184.217 200.544 168.490  1.00  0.00     0.001 A 
ATOM      4  C   UNL     1     185.393 200.064 167.918  1.00  0.00     0.001 A 
ATOM      5  C   UNL     1     186.210 199.187 168.631  1.00  0.00     0.016 A 
ATOM      6  C   UNL     1     185.864 198.776 169.931  1.00  0.00     0.074 A 
ENDROOT
BRANCH   1   7
ATOM      7  C   UNL     1     184.312 199.038 171.941  1.00  0.00     0.338 C 
ATOM      8  O   UNL     1     184.831 199.709 172.876  1.00  0.00    -0.246 OA
BRANCH   7   9
ATOM      9  O   UNL     1     183.336 198.077 172.225  1.00  0.00    -0.465 OA
ATOM     10  C   UNL     1     182.956 197.738 173.554  1.00  0.00     0.282 C 
ENDBRANCH   7   9
ENDBRANCH   1   7
BRANCH   6  11
ATOM     11  C   UNL     1     186.717 197.758 170.585  1.00  0.00     0.338 C 
ATOM     12  O   UNL     1     186.372 196.544 170.588  1.00  0.00    -0.246 OA
BRANCH  11  13
ATOM     13  O   UNL     1     187.938 198.141 171.149  1.00  0.00    -0.465 OA
ATOM     14  C   UNL     1     188.138 199.413 171.753  1.00  0.00     0.282 C 
ENDBRANCH  11  13
ENDBRANCH   6  11
TORSDOF 4
ENDMDL
MODEL 5
REMARK VINA RESULT:    -4.311      1.475      2.460
REMARK INTER + INTRA:          -5.673
REMARK INTER:                  -5.331
REMARK INTRA:                  -0.343
REMARK UNBOUND:                -0.354
REMARK SMILES COC(=O)c1ccccc1C(=O)OC
REMARK SMILES IDX 5 1 6 2 7 3 8 4 9 5 10 6 3 7 4 8 2 9 1 10 11 11 12 12 13 13
REMARK SMILES IDX 14 14
REMARK H PARENT
REMARK Flexibility Score: inf
ROOT
ATOM      1  C   UNL     1     185.824 198.772 169.929  1.00  0.00     0.074 A 
ATOM      2  C   UNL     1     186.146 199.188 168.624  1.00  0.00     0.016 A 
ATOM      3  C   UNL     1     185.310 200.061 167.927  1.00  0.00     0.001 A 
ATOM      4  C   UNL     1     184.141 200.532 168.521  1.00  0.00     0.001 A 
ATOM      5  C   UNL     1     183.813 200.150 169.822  1.00  0.00     0.016 A 
ATOM      6  C   UNL     1     184.652 199.290 170.552  1.00  0.00     0.074 A 
ENDROOT
BRANCH   1   7
ATOM      7  C   UNL     1     186.694 197.757 170.565  1.00  0.00     0.338 C 
ATOM      8  O   UNL     1     186.347 196.544 170.587  1.00  0.00    -0.246 OA
BRANCH   7   9
ATOM      9  O   UNL     1     187.931 198.143 171.092  1.00  0.00    -0.465 OA
ATOM     10  C   UNL     1     188.153 199.423 171.673  1.00  0.00     0.282 C 
ENDBRANCH   7   9
ENDBRANCH   1   7
BRANCH   6  11
ATOM     11  C   UNL     1     184.303 199.017 171.965  1.00  0.00     0.338 C 
ATOM     12  O   UNL     1     184.858 199.664 172.895  1.00  0.00    -0.246 OA
BRANCH  11  13
ATOM     13  O   UNL     1     183.309 198.078 172.260  1.00  0.00    -0.465 OA
ATOM     14  C   UNL     1     182.934 197.751 173.592  1.00  0.00     0.282 C 
ENDBRANCH  11  13
ENDBRANCH   6  11
TORSDOF 4
ENDMDL
MODEL 6
REMARK VINA RESULT:    -4.296      2.025      4.311
REMARK INTER + INTRA:          -5.655
REMARK INTER:                  -5.283
REMARK INTRA:                  -0.372
REMARK UNBOUND:                -0.354
REMARK SMILES COC(=O)c1ccccc1C(=O)OC
REMARK SMILES IDX 5 1 6 2 7 3 8 4 9 5 10 6 3 7 4 8 2 9 1 10 11 11 12 12 13 13
REMARK SMILES IDX 14 14
REMARK H PARENT
REMARK Flexibility Score: inf
ROOT
ATOM      1  C   UNL     1     185.424 199.081 172.614  1.00  0.00     0.074 A 
ATOM      2  C   UNL     1     185.201 198.412 173.832  1.00  0.00     0.016 A 
ATOM      3  C   UNL     1     183.977 197.796 174.094  1.00  0.00     0.001 A 
ATOM      4  C   UNL     1     182.957 197.837 173.146  1.00  0.00     0.001 A 
ATOM      5  C   UNL     1     183.164 198.474 171.923  1.00  0.00     0.016 A 
ATOM      6  C   UNL     1     184.397 199.082 171.628  1.00  0.00     0.074 A 
ENDROOT
BRANCH   1   7
ATOM      7  C   UNL     1     186.702 199.809 172.449  1.00  0.00     0.338 C 
ATOM      8  O   UNL     1     186.734 201.068 172.536  1.00  0.00    -0.246 OA
BRANCH   7   9
ATOM      9  O   UNL     1     187.885 199.089 172.253  1.00  0.00    -0.465 OA
ATOM     10  C   UNL     1     188.027 198.108 171.233  1.00  0.00     0.282 C 
ENDBRANCH   7   9
ENDBRANCH   1   7
BRANCH   6  11
ATOM     11  C   UNL     1     184.585 199.640 170.269  1.00  0.00     0.338 C 
ATOM     12  O   UNL     1     184.228 200.823 170.010  1.00  0.00    -0.246 OA
BRANCH  11  13
ATOM     13  O   UNL     1     185.215 198.867 169.288  1.00  0.00    -0.465 OA
ATOM     14  C   UNL     1     185.292 199.270 167.926  1.00  0.00     0.282 C 
ENDBRANCH  11  13
ENDBRANCH   6  11
TORSDOF 4
ENDMDL
MODEL 7
REMARK VINA RESULT:    -4.207      1.515      2.884
REMARK INTER + INTRA:          -5.545
REMARK INTER:                  -5.202
REMARK INTRA:                  -0.343
REMARK UNBOUND:                -0.354
REMARK SMILES COC(=O)c1ccccc1C(=O)OC
REMARK SMILES IDX 5 1 6 2 7 3 8 4 9 5 10 6 3 7 4 8 2 9 1 10 11 11 12 12 13 13
REMARK SMILES IDX 14 14
REMARK H PARENT
REMARK Flexibility Score: inf
ROOT
ATOM      1  C   UNL     1     186.112 198.922 170.063  1.00  0.00     0.074 A 
ATOM      2  C   UNL     1     185.943 199.009 168.668  1.00  0.00     0.016 A 
ATOM      3  C   UNL     1     185.105 199.974 168.110  1.00  0.00     0.001 A 
ATOM      4  C   UNL     1     184.422 200.867 168.934  1.00  0.00     0.001 A 
ATOM      5  C   UNL     1     184.593 200.814 170.317  1.00  0.00     0.016 A 
ATOM      6  C   UNL     1     185.451 199.864 170.900  1.00  0.00     0.074 A 
ENDROOT
BRANCH   1   7
ATOM      7  C   UNL     1     186.925 197.803 170.592  1.00  0.00     0.338 C 
ATOM      8  O   UNL     1     186.457 196.631 170.617  1.00  0.00    -0.246 OA
BRANCH   7   9
ATOM      9  O   UNL     1     188.238 198.043 171.011  1.00  0.00    -0.465 OA
ATOM     10  C   UNL     1     189.138 198.870 170.282  1.00  0.00     0.282 C 
ENDBRANCH   7   9
ENDBRANCH   1   7
BRANCH   6  11
ATOM     11  C   UNL     1     185.672 199.938 172.363  1.00  0.00     0.338 C 
ATOM     12  O   UNL     1     185.174 199.067 173.128  1.00  0.00    -0.246 OA
BRANCH  11  13
ATOM     13  O   UNL     1     186.486 200.948 172.886  1.00  0.00    -0.465 OA
ATOM     14  C   UNL     1     187.824 200.713 173.309  1.00  0.00     0.282 C 
ENDBRANCH  11  13
ENDBRANCH   6  11
TORSDOF 4
ENDMDL
MODEL 8
REMARK VINA RESULT:    -4.187      2.172      3.582
REMARK INTER + INTRA:          -5.520
REMARK INTER:                  -5.178
REMARK INTRA:                  -0.343
REMARK UNBOUND:                -0.354
REMARK SMILES COC(=O)c1ccccc1C(=O)OC
REMARK SMILES IDX 5 1 6 2 7 3 8 4 9 5 10 6 3 7 4 8 2 9 1 10 11 11 12 12 13 13
REMARK SMILES IDX 14 14
REMARK H PARENT
REMARK Flexibility Score: inf
ROOT
ATOM      1  C   UNL     1     186.865 199.457 169.433  1.00  0.00     0.074 A 
ATOM      2  C   UNL     1     188.112 199.807 168.883  1.00  0.00     0.016 A 
ATOM      3  C   UNL     1     189.297 199.326 169.438  1.00  0.00     0.001 A 
ATOM      4  C   UNL     1     189.258 198.489 170.551  1.00  0.00     0.001 A 
ATOM      5  C   UNL     1     188.033 198.110 171.099  1.00  0.00     0.016 A 
ATOM      6  C   UNL     1     186.824 198.564 170.541  1.00  0.00     0.074 A 
ENDROOT
BRANCH   1   7
ATOM      7  C   UNL     1     185.655 200.094 168.864  1.00  0.00     0.338 C 
ATOM      8  O   UNL     1     185.163 201.122 169.405  1.00  0.00    -0.246 OA
BRANCH   7   9
ATOM      9  O   UNL     1     185.094 199.581 167.690  1.00  0.00    -0.465 OA
ATOM     10  C   UNL     1     184.202 200.332 166.874  1.00  0.00     0.282 C 
ENDBRANCH   7   9
ENDBRANCH   1   7
BRANCH   6  11
ATOM     11  C   UNL     1     185.560 198.032 171.102  1.00  0.00     0.338 C 
ATOM     12  O   UNL     1     184.858 197.222 170.436  1.00  0.00    -0.246 OA
BRANCH  11  13
ATOM     13  O   UNL     1     185.179 198.389 172.399  1.00  0.00    -0.465 OA
ATOM     14  C   UNL     1     184.928 199.735 172.782  1.00  0.00     0.282 C 
ENDBRANCH  11  13
ENDBRANCH   6  11
TORSDOF 4
ENDMDL
MODEL 9
REMARK VINA RESULT:    -4.110     11.450     13.366
REMARK INTER + INTRA:          -5.426
REMARK INTER:                  -5.093
REMARK INTRA:                  -0.332
REMARK UNBOUND:                -0.354
REMARK SMILES COC(=O)c1ccccc1C(=O)OC
REMARK SMILES IDX 5 1 6 2 7 3 8 4 9 5 10 6 3 7 4 8 2 9 1 10 11 11 12 12 13 13
REMARK SMILES IDX 14 14
REMARK H PARENT
REMARK Flexibility Score: inf
ROOT
ATOM      1  C   UNL     1     196.414 199.868 177.787  1.00  0.00     0.074 A 
ATOM      2  C   UNL     1     195.705 200.212 176.621  1.00  0.00     0.016 A 
ATOM      3  C   UNL     1     194.460 200.835 176.702  1.00  0.00     0.001 A 
ATOM      4  C   UNL     1     193.902 201.124 177.945  1.00  0.00     0.001 A 
ATOM      5  C   UNL     1     194.597 200.812 179.114  1.00  0.00     0.016 A 
ATOM      6  C   UNL     1     195.864 200.205 179.057  1.00  0.00     0.074 A 
ENDROOT
BRANCH   1   7
ATOM      7  C   UNL     1     197.675 199.107 177.630  1.00  0.00     0.338 C 
ATOM      8  O   UNL     1     198.708 199.673 177.177  1.00  0.00    -0.246 OA
BRANCH   7   9
ATOM      9  O   UNL     1     197.729 197.771 178.041  1.00  0.00    -0.465 OA
ATOM     10  C   UNL     1     198.676 197.297 178.992  1.00  0.00     0.282 C 
ENDBRANCH   7   9
ENDBRANCH   1   7
BRANCH   6  11
ATOM     11  C   UNL     1     196.594 200.006 180.330  1.00  0.00     0.338 C 
ATOM     12  O   UNL     1     197.565 200.754 180.632  1.00  0.00    -0.246 OA
BRANCH  11  13
ATOM     13  O   UNL     1     196.163 199.020 181.224  1.00  0.00    -0.465 OA
ATOM     14  C   UNL     1     196.988 198.519 182.269  1.00  0.00     0.282 C 
ENDBRANCH  11  13
ENDBRANCH   6  11
TORSDOF 4
ENDMDL
