MODEL 1
REMARK VINA RESULT:    -4.797      0.000      0.000
REMARK INTER + INTRA:          -5.169
REMARK INTER:                  -5.077
REMARK INTRA:                  -0.092
REMARK UNBOUND:                -0.092
REMARK SMILES C=C(C)[C@H]1CC=C(C)C(=O)C1
REMARK SMILES IDX 8 1 7 2 6 3 5 4 4 5 11 6 9 7 10 8 2 9 1 10 3 11
REMARK H PARENT
REMARK Flexibility Score: inf
ROOT
ATOM      1  C   UNL     1     101.346 137.740 124.914  1.00  0.00     0.048 C 
ATOM      2  C   UNL     1     101.219 136.243 124.969  1.00  0.00    -0.012 C 
ATOM      3  C   UNL     1     102.323 135.478 125.022  1.00  0.00    -0.019 C 
ATOM      4  C   UNL     1     102.253 133.975 125.060  1.00  0.00     0.036 C 
ATOM      5  C   UNL     1     100.994 133.497 125.807  1.00  0.00     0.025 C 
ATOM      6  C   UNL     1      99.733 134.124 125.184  1.00  0.00     0.089 C 
ATOM      7  C   UNL     1      99.876 135.618 125.089  1.00  0.00     0.158 C 
ATOM      8  O   UNL     1      98.841 136.335 125.076  1.00  0.00    -0.295 OA
ENDROOT
BRANCH   5   9
ATOM      9  C   UNL     1     100.905 131.980 125.850  1.00  0.00    -0.077 C 
ATOM     10  C   UNL     1     101.187 131.291 126.969  1.00  0.00     0.008 C 
ATOM     11  C   UNL     1     100.487 131.247 124.601  1.00  0.00     0.039 C 
ENDBRANCH   5   9
TORSDOF 1
ENDMDL
MODEL 2
REMARK VINA RESULT:    -4.647      1.558      2.112
REMARK INTER + INTRA:          -5.010
REMARK INTER:                  -4.912
REMARK INTRA:                  -0.099
REMARK UNBOUND:                -0.092
REMARK SMILES C=C(C)[C@H]1CC=C(C)C(=O)C1
REMARK SMILES IDX 8 1 7 2 6 3 5 4 4 5 11 6 9 7 10 8 2 9 1 10 3 11
REMARK H PARENT
REMARK Flexibility Score: inf
ROOT
ATOM      1  C   UNL     1     101.485 137.981 124.751  1.00  0.00     0.048 C 
ATOM      2  C   UNL     1     101.390 136.481 124.781  1.00  0.00    -0.012 C 
ATOM      3  C   UNL     1     101.073 135.853 125.927  1.00  0.00    -0.019 C 
ATOM      4  C   UNL     1     100.983 134.353 126.018  1.00  0.00     0.036 C 
ATOM      5  C   UNL     1     100.495 133.746 124.689  1.00  0.00     0.025 C 
ATOM      6  C   UNL     1     101.395 134.207 123.528  1.00  0.00     0.089 C 
ATOM      7  C   UNL     1     101.525 135.706 123.522  1.00  0.00     0.158 C 
ATOM      8  O   UNL     1     101.786 136.295 122.440  1.00  0.00    -0.295 OA
ENDROOT
BRANCH   5   9
ATOM      9  C   UNL     1     100.404 132.230 124.762  1.00  0.00    -0.077 C 
ATOM     10  C   UNL     1      99.837 131.512 123.777  1.00  0.00     0.008 C 
ATOM     11  C   UNL     1     100.968 131.532 125.972  1.00  0.00     0.039 C 
ENDBRANCH   5   9
TORSDOF 1
ENDMDL
MODEL 3
REMARK VINA RESULT:    -4.473      2.088      4.360
REMARK INTER + INTRA:          -4.826
REMARK INTER:                  -4.729
REMARK INTRA:                  -0.098
REMARK UNBOUND:                -0.092
REMARK SMILES C=C(C)[C@H]1CC=C(C)C(=O)C1
REMARK SMILES IDX 8 1 7 2 6 3 5 4 4 5 11 6 9 7 10 8 2 9 1 10 3 11
REMARK H PARENT
REMARK Flexibility Score: inf
ROOT
ATOM      1  C   UNL     1     103.206 130.575 125.708  1.00  0.00     0.048 C 
ATOM      2  C   UNL     1     102.575 131.938 125.657  1.00  0.00    -0.012 C 
ATOM      3  C   UNL     1     103.127 132.903 124.900  1.00  0.00    -0.019 C 
ATOM      4  C   UNL     1     102.546 134.291 124.828  1.00  0.00     0.036 C 
ATOM      5  C   UNL     1     101.014 134.259 124.974  1.00  0.00     0.025 C 
ATOM      6  C   UNL     1     100.615 133.527 126.269  1.00  0.00     0.089 C 
ATOM      7  C   UNL     1     101.279 132.180 126.341  1.00  0.00     0.158 C 
ATOM      8  O   UNL     1     100.742 131.266 127.021  1.00  0.00    -0.295 OA
ENDROOT
BRANCH   5   9
ATOM      9  C   UNL     1     100.412 135.654 124.908  1.00  0.00    -0.077 C 
ATOM     10  C   UNL     1     101.167 136.733 124.633  1.00  0.00     0.008 C 
ATOM     11  C   UNL     1      98.935 135.814 125.156  1.00  0.00     0.039 C 
ENDBRANCH   5   9
TORSDOF 1
ENDMDL
MODEL 4
REMARK VINA RESULT:    -4.466      2.234      4.683
REMARK INTER + INTRA:          -4.819
REMARK INTER:                  -4.722
REMARK INTRA:                  -0.098
REMARK UNBOUND:                -0.092
REMARK SMILES C=C(C)[C@H]1CC=C(C)C(=O)C1
REMARK SMILES IDX 8 1 7 2 6 3 5 4 4 5 11 6 9 7 10 8 2 9 1 10 3 11
REMARK H PARENT
REMARK Flexibility Score: inf
ROOT
ATOM      1  C   UNL     1     103.047 130.615 126.260  1.00  0.00     0.048 C 
ATOM      2  C   UNL     1     102.332 131.867 125.835  1.00  0.00    -0.012 C 
ATOM      3  C   UNL     1     101.129 132.162 126.359  1.00  0.00    -0.019 C 
ATOM      4  C   UNL     1     100.362 133.393 125.956  1.00  0.00     0.036 C 
ATOM      5  C   UNL     1     101.316 134.552 125.609  1.00  0.00     0.025 C 
ATOM      6  C   UNL     1     102.322 134.111 124.529  1.00  0.00     0.089 C 
ATOM      7  C   UNL     1     103.007 132.835 124.934  1.00  0.00     0.158 C 
ATOM      8  O   UNL     1     104.149 132.578 124.469  1.00  0.00    -0.295 OA
ENDROOT
BRANCH   5   9
ATOM      9  C   UNL     1     100.557 135.802 125.194  1.00  0.00    -0.077 C 
ATOM     10  C   UNL     1      99.213 135.837 125.183  1.00  0.00     0.008 C 
ATOM     11  C   UNL     1     101.344 137.023 124.792  1.00  0.00     0.039 C 
ENDBRANCH   5   9
TORSDOF 1
ENDMDL
MODEL 5
REMARK VINA RESULT:    -4.416      2.316      4.427
REMARK INTER + INTRA:          -4.766
REMARK INTER:                  -4.668
REMARK INTRA:                  -0.098
REMARK UNBOUND:                -0.092
REMARK SMILES C=C(C)[C@H]1CC=C(C)C(=O)C1
REMARK SMILES IDX 8 1 7 2 6 3 5 4 4 5 11 6 9 7 10 8 2 9 1 10 3 11
REMARK H PARENT
REMARK Flexibility Score: inf
ROOT
ATOM      1  C   UNL     1     102.242 129.885 123.195  1.00  0.00     0.048 C 
ATOM      2  C   UNL     1     101.780 131.133 123.894  1.00  0.00    -0.012 C 
ATOM      3  C   UNL     1     102.677 131.936 124.492  1.00  0.00    -0.019 C 
ATOM      4  C   UNL     1     102.266 133.187 125.222  1.00  0.00     0.036 C 
ATOM      5  C   UNL     1     101.027 133.829 124.570  1.00  0.00     0.025 C 
ATOM      6  C   UNL     1      99.881 132.805 124.478  1.00  0.00     0.089 C 
ATOM      7  C   UNL     1     100.353 131.539 123.817  1.00  0.00     0.158 C 
ATOM      8  O   UNL     1      99.517 130.807 123.225  1.00  0.00    -0.295 OA
ENDROOT
BRANCH   5   9
ATOM      9  C   UNL     1     100.597 135.092 125.298  1.00  0.00    -0.077 C 
ATOM     10  C   UNL     1     101.476 135.838 125.990  1.00  0.00     0.008 C 
ATOM     11  C   UNL     1      99.149 135.505 125.231  1.00  0.00     0.039 C 
ENDBRANCH   5   9
TORSDOF 1
ENDMDL
MODEL 6
REMARK VINA RESULT:    -4.395     11.930     13.151
REMARK INTER + INTRA:          -4.743
REMARK INTER:                  -4.649
REMARK INTRA:                  -0.094
REMARK UNBOUND:                -0.092
REMARK SMILES C=C(C)[C@H]1CC=C(C)C(=O)C1
REMARK SMILES IDX 8 1 7 2 6 3 5 4 4 5 11 6 9 7 10 8 2 9 1 10 3 11
REMARK H PARENT
REMARK Flexibility Score: inf
ROOT
ATOM      1  C   UNL     1      94.200 139.071 137.846  1.00  0.00     0.048 C 
ATOM      2  C   UNL     1      95.192 139.578 136.836  1.00  0.00    -0.012 C 
ATOM      3  C   UNL     1      95.428 140.898 136.733  1.00  0.00    -0.019 C 
ATOM      4  C   UNL     1      96.396 141.460 135.727  1.00  0.00     0.036 C 
ATOM      5  C   UNL     1      97.560 140.484 135.473  1.00  0.00     0.025 C 
ATOM      6  C   UNL     1      97.020 139.104 135.054  1.00  0.00     0.089 C 
ATOM      7  C   UNL     1      95.996 138.615 136.042  1.00  0.00     0.158 C 
ATOM      8  O   UNL     1      95.803 137.376 136.162  1.00  0.00    -0.295 OA
ENDROOT
BRANCH   5   9
ATOM      9  C   UNL     1      98.546 141.036 134.454  1.00  0.00    -0.077 C 
ATOM     10  C   UNL     1      98.130 141.564 133.289  1.00  0.00     0.008 C 
ATOM     11  C   UNL     1     100.017 140.984 134.774  1.00  0.00     0.039 C 
ENDBRANCH   5   9
TORSDOF 1
ENDMDL
MODEL 7
REMARK VINA RESULT:    -4.359      1.419      2.088
REMARK INTER + INTRA:          -4.705
REMARK INTER:                  -4.604
REMARK INTRA:                  -0.102
REMARK UNBOUND:                -0.092
REMARK SMILES C=C(C)[C@H]1CC=C(C)C(=O)C1
REMARK SMILES IDX 8 1 7 2 6 3 5 4 4 5 11 6 9 7 10 8 2 9 1 10 3 11
REMARK H PARENT
REMARK Flexibility Score: inf
ROOT
ATOM      1  C   UNL     1     101.580 136.085 125.965  1.00  0.00     0.048 C 
ATOM      2  C   UNL     1     101.344 134.803 125.217  1.00  0.00    -0.012 C 
ATOM      3  C   UNL     1     102.389 134.044 124.842  1.00  0.00    -0.019 C 
ATOM      4  C   UNL     1     102.210 132.761 124.075  1.00  0.00     0.036 C 
ATOM      5  C   UNL     1     100.897 132.058 124.469  1.00  0.00     0.025 C 
ATOM      6  C   UNL     1      99.704 133.016 124.290  1.00  0.00     0.089 C 
ATOM      7  C   UNL     1      99.958 134.316 125.003  1.00  0.00     0.158 C 
ATOM      8  O   UNL     1      98.977 135.007 125.385  1.00  0.00    -0.295 OA
ENDROOT
BRANCH   5   9
ATOM      9  C   UNL     1     100.699 130.762 123.699  1.00  0.00    -0.077 C 
ATOM     10  C   UNL     1      99.473 130.255 123.480  1.00  0.00     0.008 C 
ATOM     11  C   UNL     1     101.915 130.042 123.175  1.00  0.00     0.039 C 
ENDBRANCH   5   9
TORSDOF 1
ENDMDL
MODEL 8
REMARK VINA RESULT:    -4.159     12.188     12.991
REMARK INTER + INTRA:          -4.493
REMARK INTER:                  -4.401
REMARK INTRA:                  -0.092
REMARK UNBOUND:                -0.092
REMARK SMILES C=C(C)[C@H]1CC=C(C)C(=O)C1
REMARK SMILES IDX 8 1 7 2 6 3 5 4 4 5 11 6 9 7 10 8 2 9 1 10 3 11
REMARK H PARENT
REMARK Flexibility Score: inf
ROOT
ATOM      1  C   UNL     1      96.635 144.452 134.245  1.00  0.00     0.048 C 
ATOM      2  C   UNL     1      96.607 142.996 134.618  1.00  0.00    -0.012 C 
ATOM      3  C   UNL     1      97.573 142.172 134.175  1.00  0.00    -0.019 C 
ATOM      4  C   UNL     1      97.583 140.703 134.503  1.00  0.00     0.036 C 
ATOM      5  C   UNL     1      96.977 140.442 135.895  1.00  0.00     0.025 C 
ATOM      6  C   UNL     1      95.566 141.050 135.987  1.00  0.00     0.089 C 
ATOM      7  C   UNL     1      95.585 142.496 135.573  1.00  0.00     0.158 C 
ATOM      8  O   UNL     1      94.700 143.274 136.018  1.00  0.00    -0.295 OA
ENDROOT
BRANCH   5   9
ATOM      9  C   UNL     1      96.975 138.961 136.240  1.00  0.00    -0.077 C 
ATOM     10  C   UNL     1      97.941 138.415 136.999  1.00  0.00     0.008 C 
ATOM     11  C   UNL     1      95.857 138.100 135.713  1.00  0.00     0.039 C 
ENDBRANCH   5   9
TORSDOF 1
ENDMDL
MODEL 9
REMARK VINA RESULT:    -4.083     12.054     13.238
REMARK INTER + INTRA:          -4.413
REMARK INTER:                  -4.315
REMARK INTRA:                  -0.098
REMARK UNBOUND:                -0.092
REMARK SMILES C=C(C)[C@H]1CC=C(C)C(=O)C1
REMARK SMILES IDX 8 1 7 2 6 3 5 4 4 5 11 6 9 7 10 8 2 9 1 10 3 11
REMARK H PARENT
REMARK Flexibility Score: inf
ROOT
ATOM      1  C   UNL     1      94.355 138.438 137.573  1.00  0.00     0.048 C 
ATOM      2  C   UNL     1      95.457 139.178 136.867  1.00  0.00    -0.012 C 
ATOM      3  C   UNL     1      96.547 138.513 136.447  1.00  0.00    -0.019 C 
ATOM      4  C   UNL     1      97.688 139.208 135.752  1.00  0.00     0.036 C 
ATOM      5  C   UNL     1      97.184 140.396 134.911  1.00  0.00     0.025 C 
ATOM      6  C   UNL     1      96.361 141.359 135.787  1.00  0.00     0.089 C 
ATOM      7  C   UNL     1      95.284 140.613 136.527  1.00  0.00     0.158 C 
ATOM      8  O   UNL     1      94.247 141.230 136.888  1.00  0.00    -0.295 OA
ENDROOT
BRANCH   5   9
ATOM      9  C   UNL     1      98.325 141.112 134.206  1.00  0.00    -0.077 C 
ATOM     10  C   UNL     1      98.104 141.922 133.156  1.00  0.00     0.008 C 
ATOM     11  C   UNL     1      99.729 140.900 134.710  1.00  0.00     0.039 C 
ENDBRANCH   5   9
TORSDOF 1
ENDMDL
