MODEL 1
REMARK VINA RESULT:    -4.673      0.000      0.000
REMARK INTER + INTRA:         -14.493
REMARK INTER:                 -10.682
REMARK INTRA:                  -3.810
REMARK UNBOUND:                -3.810
REMARK SMILES CCCCCCCCCCCCCCCCCCCCCCCC(=O)[O-]
REMARK SMILES IDX 13 1 14 2 15 3 16 4 17 5 18 6 19 7 20 8 21 9 22 10 23 11
REMARK SMILES IDX 24 12 25 13 26 14 12 15 11 16 10 17 9 18 8 19 7 20 6 21 5 22
REMARK SMILES IDX 4 23 3 24 2 25 1 26
REMARK H PARENT
REMARK Flexibility Score: inf
ROOT
ATOM      1  C   UNL     1      97.885   2.555  24.409  1.00  0.00     0.000 C 
ENDROOT
BRANCH   1   2
ATOM      2  C   UNL     1      96.379   2.780  24.205  1.00  0.00     0.000 C 
BRANCH   2   3
ATOM      3  C   UNL     1      96.055   4.279  24.112  1.00  0.00     0.000 C 
BRANCH   3   4
ATOM      4  C   UNL     1      95.497   4.846  25.435  1.00  0.00     0.000 C 
BRANCH   4   5
ATOM      5  C   UNL     1      96.534   5.621  26.270  1.00  0.00     0.000 C 
BRANCH   5   6
ATOM      6  C   UNL     1      97.219   6.792  25.541  1.00  0.00     0.000 C 
BRANCH   6   7
ATOM      7  C   UNL     1      96.267   7.901  25.053  1.00  0.00     0.000 C 
BRANCH   7   8
ATOM      8  C   UNL     1      96.535   8.324  23.598  1.00  0.00     0.000 C 
BRANCH   8   9
ATOM      9  C   UNL     1      95.332   8.078  22.672  1.00  0.00     0.000 C 
BRANCH   9  10
ATOM     10  C   UNL     1      95.416   6.800  21.814  1.00  0.00     0.006 C 
BRANCH  10  11
ATOM     11  C   UNL     1      96.822   6.509  21.260  1.00  0.00     0.053 C 
BRANCH  11  12
ATOM     12  C   UNL     1      97.028   7.079  19.890  1.00  0.00     0.041 C 
ATOM     13  O   UNL     1      96.061   7.585  19.263  1.00  0.00    -0.550 OA
ATOM     14  O   UNL     1      98.276   7.008  19.284  1.00  0.00    -0.550 OA
ENDBRANCH  11  12
ENDBRANCH  10  11
ENDBRANCH   9  10
ENDBRANCH   8   9
ENDBRANCH   7   8
ENDBRANCH   6   7
ENDBRANCH   5   6
ENDBRANCH   4   5
ENDBRANCH   3   4
ENDBRANCH   2   3
ENDBRANCH   1   2
BRANCH   1  15
ATOM     15  C   UNL     1      98.747   3.620  23.710  1.00  0.00     0.000 C 
BRANCH  15  16
ATOM     16  C   UNL     1      99.810   4.228  24.642  1.00  0.00     0.000 C 
BRANCH  16  17
ATOM     17  C   UNL     1      99.764   3.629  26.060  1.00  0.00     0.000 C 
BRANCH  17  18
ATOM     18  C   UNL     1     101.110   3.075  26.567  1.00  0.00    -0.000 C 
BRANCH  18  19
ATOM     19  C   UNL     1     102.304   3.546  25.721  1.00  0.00    -0.000 C 
BRANCH  19  20
ATOM     20  C   UNL     1     103.455   2.531  25.785  1.00  0.00    -0.000 C 
BRANCH  20  21
ATOM     21  C   UNL     1     103.424   1.521  24.624  1.00  0.00    -0.000 C 
BRANCH  21  22
ATOM     22  C   UNL     1     102.526   1.915  23.432  1.00  0.00    -0.000 C 
BRANCH  22  23
ATOM     23  C   UNL     1     101.296   1.014  23.210  1.00  0.00    -0.000 C 
BRANCH  23  24
ATOM     24  C   UNL     1     101.642  -0.485  23.243  1.00  0.00    -0.000 C 
BRANCH  24  25
ATOM     25  C   UNL     1     100.855  -1.245  24.321  1.00  0.00    -0.003 C 
ATOM     26  C   UNL     1      99.899  -0.346  25.105  1.00  0.00     0.004 C 
ENDBRANCH  24  25
ENDBRANCH  23  24
ENDBRANCH  22  23
ENDBRANCH  21  22
ENDBRANCH  20  21
ENDBRANCH  19  20
ENDBRANCH  18  19
ENDBRANCH  17  18
ENDBRANCH  16  17
ENDBRANCH  15  16
ENDBRANCH   1  15
TORSDOF 22
ENDMDL
MODEL 2
REMARK VINA RESULT:    -4.518      2.995      7.712
REMARK INTER + INTRA:         -14.140
REMARK INTER:                 -10.808
REMARK INTRA:                  -3.332
REMARK UNBOUND:                -3.810
REMARK SMILES CCCCCCCCCCCCCCCCCCCCCCCC(=O)[O-]
REMARK SMILES IDX 13 1 14 2 15 3 16 4 17 5 18 6 19 7 20 8 21 9 22 10 23 11
REMARK SMILES IDX 24 12 25 13 26 14 12 15 11 16 10 17 9 18 8 19 7 20 6 21 5 22
REMARK SMILES IDX 4 23 3 24 2 25 1 26
REMARK H PARENT
REMARK Flexibility Score: inf
ROOT
ATOM      1  C   UNL     1      98.608   2.331  24.454  1.00  0.00     0.000 C 
ENDROOT
BRANCH   1   2
ATOM      2  C   UNL     1      99.363   2.009  25.753  1.00  0.00     0.000 C 
BRANCH   2   3
ATOM      3  C   UNL     1      99.675   3.292  26.539  1.00  0.00     0.000 C 
BRANCH   3   4
ATOM      4  C   UNL     1     100.710   4.187  25.824  1.00  0.00     0.000 C 
BRANCH   4   5
ATOM      5  C   UNL     1     101.404   5.203  26.750  1.00  0.00     0.000 C 
BRANCH   5   6
ATOM      6  C   UNL     1     102.876   4.890  27.080  1.00  0.00     0.000 C 
BRANCH   6   7
ATOM      7  C   UNL     1     103.217   3.390  27.167  1.00  0.00     0.000 C 
BRANCH   7   8
ATOM      8  C   UNL     1     104.604   3.057  26.590  1.00  0.00     0.000 C 
BRANCH   8   9
ATOM      9  C   UNL     1     104.563   1.926  25.549  1.00  0.00     0.000 C 
BRANCH   9  10
ATOM     10  C   UNL     1     103.614   2.166  24.358  1.00  0.00     0.006 C 
BRANCH  10  11
ATOM     11  C   UNL     1     102.445   1.168  24.280  1.00  0.00     0.053 C 
BRANCH  11  12
ATOM     12  C   UNL     1     102.680   0.088  23.269  1.00  0.00     0.041 C 
ATOM     13  O   UNL     1     101.736  -0.669  22.920  1.00  0.00    -0.550 OA
ATOM     14  O   UNL     1     103.951  -0.115  22.745  1.00  0.00    -0.550 OA
ENDBRANCH  11  12
ENDBRANCH  10  11
ENDBRANCH   9  10
ENDBRANCH   8   9
ENDBRANCH   7   8
ENDBRANCH   6   7
ENDBRANCH   5   6
ENDBRANCH   4   5
ENDBRANCH   3   4
ENDBRANCH   2   3
ENDBRANCH   1   2
BRANCH   1  15
ATOM     15  C   UNL     1      97.250   1.616  24.362  1.00  0.00     0.000 C 
BRANCH  15  16
ATOM     16  C   UNL     1      96.128   2.537  23.853  1.00  0.00     0.000 C 
BRANCH  16  17
ATOM     17  C   UNL     1      96.440   4.028  24.080  1.00  0.00     0.000 C 
BRANCH  17  18
ATOM     18  C   UNL     1      95.756   4.647  25.314  1.00  0.00    -0.000 C 
BRANCH  18  19
ATOM     19  C   UNL     1      96.713   5.504  26.158  1.00  0.00    -0.000 C 
BRANCH  19  20
ATOM     20  C   UNL     1      97.178   6.741  25.374  1.00  0.00    -0.000 C 
BRANCH  20  21
ATOM     21  C   UNL     1      96.032   7.724  25.078  1.00  0.00    -0.000 C 
BRANCH  21  22
ATOM     22  C   UNL     1      95.924   8.185  23.608  1.00  0.00    -0.000 C 
BRANCH  22  23
ATOM     23  C   UNL     1      95.049   7.297  22.704  1.00  0.00    -0.000 C 
BRANCH  23  24
ATOM     24  C   UNL     1      95.864   6.553  21.632  1.00  0.00    -0.000 C 
BRANCH  24  25
ATOM     25  C   UNL     1      97.261   7.160  21.429  1.00  0.00    -0.003 C 
ATOM     26  C   UNL     1      98.386   6.219  21.858  1.00  0.00     0.004 C 
ENDBRANCH  24  25
ENDBRANCH  23  24
ENDBRANCH  22  23
ENDBRANCH  21  22
ENDBRANCH  20  21
ENDBRANCH  19  20
ENDBRANCH  18  19
ENDBRANCH  17  18
ENDBRANCH  16  17
ENDBRANCH  15  16
ENDBRANCH   1  15
TORSDOF 22
ENDMDL
MODEL 3
REMARK VINA RESULT:    -4.495      1.239      1.721
REMARK INTER + INTRA:         -14.085
REMARK INTER:                  -9.891
REMARK INTRA:                  -4.195
REMARK UNBOUND:                -3.810
REMARK SMILES CCCCCCCCCCCCCCCCCCCCCCCC(=O)[O-]
REMARK SMILES IDX 13 1 14 2 15 3 16 4 17 5 18 6 19 7 20 8 21 9 22 10 23 11
REMARK SMILES IDX 24 12 25 13 26 14 12 15 11 16 10 17 9 18 8 19 7 20 6 21 5 22
REMARK SMILES IDX 4 23 3 24 2 25 1 26
REMARK H PARENT
REMARK Flexibility Score: inf
ROOT
ATOM      1  C   UNL     1      98.857   4.202  23.570  1.00  0.00     0.000 C 
ENDROOT
BRANCH   1   2
ATOM      2  C   UNL     1      97.918   3.072  24.019  1.00  0.00     0.000 C 
BRANCH   2   3
ATOM      3  C   UNL     1      96.447   3.479  23.847  1.00  0.00     0.000 C 
BRANCH   3   4
ATOM      4  C   UNL     1      95.789   3.896  25.179  1.00  0.00     0.000 C 
BRANCH   4   5
ATOM      5  C   UNL     1      95.576   5.415  25.324  1.00  0.00     0.000 C 
BRANCH   5   6
ATOM      6  C   UNL     1      96.655   6.153  26.138  1.00  0.00     0.000 C 
BRANCH   6   7
ATOM      7  C   UNL     1      97.474   7.189  25.344  1.00  0.00     0.000 C 
BRANCH   7   8
ATOM      8  C   UNL     1      96.815   7.576  24.009  1.00  0.00     0.000 C 
BRANCH   8   9
ATOM      9  C   UNL     1      97.738   7.351  22.799  1.00  0.00     0.000 C 
BRANCH   9  10
ATOM     10  C   UNL     1      97.032   6.872  21.516  1.00  0.00     0.006 C 
BRANCH  10  11
ATOM     11  C   UNL     1      95.571   6.437  21.730  1.00  0.00     0.053 C 
BRANCH  11  12
ATOM     12  C   UNL     1      94.598   7.331  21.025  1.00  0.00     0.041 C 
ATOM     13  O   UNL     1      94.305   7.122  19.818  1.00  0.00    -0.550 OA
ATOM     14  O   UNL     1      94.048   8.424  21.684  1.00  0.00    -0.550 OA
ENDBRANCH  11  12
ENDBRANCH  10  11
ENDBRANCH   9  10
ENDBRANCH   8   9
ENDBRANCH   7   8
ENDBRANCH   6   7
ENDBRANCH   5   6
ENDBRANCH   4   5
ENDBRANCH   3   4
ENDBRANCH   2   3
ENDBRANCH   1   2
BRANCH   1  15
ATOM     15  C   UNL     1     100.013   4.444  24.555  1.00  0.00     0.000 C 
BRANCH  15  16
ATOM     16  C   UNL     1      99.651   4.058  26.000  1.00  0.00     0.000 C 
BRANCH  16  17
ATOM     17  C   UNL     1     100.798   4.331  26.990  1.00  0.00     0.000 C 
BRANCH  17  18
ATOM     18  C   UNL     1     101.957   3.318  26.925  1.00  0.00    -0.000 C 
BRANCH  18  19
ATOM     19  C   UNL     1     103.284   3.959  26.490  1.00  0.00    -0.000 C 
BRANCH  19  20
ATOM     20  C   UNL     1     104.088   3.004  25.597  1.00  0.00    -0.000 C 
BRANCH  20  21
ATOM     21  C   UNL     1     103.246   1.828  25.071  1.00  0.00    -0.000 C 
BRANCH  21  22
ATOM     22  C   UNL     1     102.924   1.871  23.563  1.00  0.00    -0.000 C 
BRANCH  22  23
ATOM     23  C   UNL     1     101.447   1.632  23.199  1.00  0.00    -0.000 C 
BRANCH  23  24
ATOM     24  C   UNL     1     101.095   0.139  23.085  1.00  0.00    -0.000 C 
BRANCH  24  25
ATOM     25  C   UNL     1      99.821  -0.225  23.864  1.00  0.00    -0.003 C 
ATOM     26  C   UNL     1      99.784   0.388  25.263  1.00  0.00     0.004 C 
ENDBRANCH  24  25
ENDBRANCH  23  24
ENDBRANCH  22  23
ENDBRANCH  21  22
ENDBRANCH  20  21
ENDBRANCH  19  20
ENDBRANCH  18  19
ENDBRANCH  17  18
ENDBRANCH  16  17
ENDBRANCH  15  16
ENDBRANCH   1  15
TORSDOF 22
ENDMDL
MODEL 4
REMARK VINA RESULT:    -4.477      1.112      2.799
REMARK INTER + INTRA:         -14.044
REMARK INTER:                 -10.740
REMARK INTRA:                  -3.304
REMARK UNBOUND:                -3.810
REMARK SMILES CCCCCCCCCCCCCCCCCCCCCCCC(=O)[O-]
REMARK SMILES IDX 13 1 14 2 15 3 16 4 17 5 18 6 19 7 20 8 21 9 22 10 23 11
REMARK SMILES IDX 24 12 25 13 26 14 12 15 11 16 10 17 9 18 8 19 7 20 6 21 5 22
REMARK SMILES IDX 4 23 3 24 2 25 1 26
REMARK H PARENT
REMARK Flexibility Score: inf
ROOT
ATOM      1  C   UNL     1      98.877   4.872  24.672  1.00  0.00     0.000 C 
ENDROOT
BRANCH   1   2
ATOM      2  C   UNL     1      98.044   4.287  23.521  1.00  0.00     0.000 C 
BRANCH   2   3
ATOM      3  C   UNL     1      96.697   3.753  24.033  1.00  0.00     0.000 C 
BRANCH   3   4
ATOM      4  C   UNL     1      96.379   4.229  25.467  1.00  0.00     0.000 C 
BRANCH   4   5
ATOM      5  C   UNL     1      95.298   5.323  25.538  1.00  0.00     0.000 C 
BRANCH   5   6
ATOM      6  C   UNL     1      95.827   6.769  25.526  1.00  0.00     0.000 C 
BRANCH   6   7
ATOM      7  C   UNL     1      95.778   7.468  24.154  1.00  0.00     0.000 C 
BRANCH   7   8
ATOM      8  C   UNL     1      94.878   6.737  23.142  1.00  0.00     0.000 C 
BRANCH   8   9
ATOM      9  C   UNL     1      95.274   7.012  21.681  1.00  0.00     0.000 C 
BRANCH   9  10
ATOM     10  C   UNL     1      96.675   7.623  21.486  1.00  0.00     0.006 C 
BRANCH  10  11
ATOM     11  C   UNL     1      97.653   6.715  20.720  1.00  0.00     0.053 C 
BRANCH  11  12
ATOM     12  C   UNL     1      97.816   7.125  19.288  1.00  0.00     0.041 C 
ATOM     13  O   UNL     1      98.962   7.182  18.772  1.00  0.00    -0.550 OA
ATOM     14  O   UNL     1      96.706   7.491  18.536  1.00  0.00    -0.550 OA
ENDBRANCH  11  12
ENDBRANCH  10  11
ENDBRANCH   9  10
ENDBRANCH   8   9
ENDBRANCH   7   8
ENDBRANCH   6   7
ENDBRANCH   5   6
ENDBRANCH   4   5
ENDBRANCH   3   4
ENDBRANCH   2   3
ENDBRANCH   1   2
BRANCH   1  15
ATOM     15  C   UNL     1     100.100   4.007  25.021  1.00  0.00     0.000 C 
BRANCH  15  16
ATOM     16  C   UNL     1      99.857   3.101  26.240  1.00  0.00     0.000 C 
BRANCH  16  17
ATOM     17  C   UNL     1      99.874   1.605  25.876  1.00  0.00     0.000 C 
BRANCH  17  18
ATOM     18  C   UNL     1      99.676   1.304  24.378  1.00  0.00    -0.000 C 
BRANCH  18  19
ATOM     19  C   UNL     1     100.043  -0.142  24.007  1.00  0.00    -0.000 C 
BRANCH  19  20
ATOM     20  C   UNL     1     101.096  -0.171  22.891  1.00  0.00    -0.000 C 
BRANCH  20  21
ATOM     21  C   UNL     1     102.482  -0.618  23.389  1.00  0.00    -0.000 C 
BRANCH  21  22
ATOM     22  C   UNL     1     103.581   0.464  23.334  1.00  0.00    -0.000 C 
BRANCH  22  23
ATOM     23  C   UNL     1     103.278   1.750  24.125  1.00  0.00    -0.000 C 
BRANCH  23  24
ATOM     24  C   UNL     1     104.239   1.965  25.307  1.00  0.00    -0.000 C 
BRANCH  24  25
ATOM     25  C   UNL     1     103.583   2.732  26.465  1.00  0.00    -0.003 C 
ATOM     26  C   UNL     1     103.546   4.242  26.231  1.00  0.00     0.004 C 
ENDBRANCH  24  25
ENDBRANCH  23  24
ENDBRANCH  22  23
ENDBRANCH  21  22
ENDBRANCH  20  21
ENDBRANCH  19  20
ENDBRANCH  18  19
ENDBRANCH  17  18
ENDBRANCH  16  17
ENDBRANCH  15  16
ENDBRANCH   1  15
TORSDOF 22
ENDMDL
MODEL 5
REMARK VINA RESULT:    -4.472      2.327      3.780
REMARK INTER + INTRA:         -14.033
REMARK INTER:                 -10.846
REMARK INTRA:                  -3.187
REMARK UNBOUND:                -3.810
REMARK SMILES CCCCCCCCCCCCCCCCCCCCCCCC(=O)[O-]
REMARK SMILES IDX 13 1 14 2 15 3 16 4 17 5 18 6 19 7 20 8 21 9 22 10 23 11
REMARK SMILES IDX 24 12 25 13 26 14 12 15 11 16 10 17 9 18 8 19 7 20 6 21 5 22
REMARK SMILES IDX 4 23 3 24 2 25 1 26
REMARK H PARENT
REMARK Flexibility Score: inf
ROOT
ATOM      1  C   UNL     1      99.884   4.229  22.511  1.00  0.00     0.000 C 
ENDROOT
BRANCH   1   2
ATOM      2  C   UNL     1      98.768   5.224  22.866  1.00  0.00     0.000 C 
BRANCH   2   3
ATOM      3  C   UNL     1      98.612   6.289  21.769  1.00  0.00     0.000 C 
BRANCH   3   4
ATOM      4  C   UNL     1      97.146   6.738  21.586  1.00  0.00     0.000 C 
BRANCH   4   5
ATOM      5  C   UNL     1      96.132   5.911  22.396  1.00  0.00     0.000 C 
BRANCH   5   6
ATOM      6  C   UNL     1      95.166   6.733  23.271  1.00  0.00     0.000 C 
BRANCH   6   7
ATOM      7  C   UNL     1      95.597   6.892  24.741  1.00  0.00     0.000 C 
BRANCH   7   8
ATOM      8  C   UNL     1      95.333   5.631  25.583  1.00  0.00     0.000 C 
BRANCH   8   9
ATOM      9  C   UNL     1      96.507   5.272  26.508  1.00  0.00     0.000 C 
BRANCH   9  10
ATOM     10  C   UNL     1      97.542   4.301  25.906  1.00  0.00     0.006 C 
BRANCH  10  11
ATOM     11  C   UNL     1      97.116   2.824  25.952  1.00  0.00     0.053 C 
BRANCH  11  12
ATOM     12  C   UNL     1      96.865   2.257  24.588  1.00  0.00     0.041 C 
ATOM     13  O   UNL     1      97.427   1.188  24.233  1.00  0.00    -0.550 OA
ATOM     14  O   UNL     1      96.047   2.932  23.691  1.00  0.00    -0.550 OA
ENDBRANCH  11  12
ENDBRANCH  10  11
ENDBRANCH   9  10
ENDBRANCH   8   9
ENDBRANCH   7   8
ENDBRANCH   6   7
ENDBRANCH   5   6
ENDBRANCH   4   5
ENDBRANCH   3   4
ENDBRANCH   2   3
ENDBRANCH   1   2
BRANCH   1  15
ATOM     15  C   UNL     1     100.206   3.261  23.661  1.00  0.00     0.000 C 
BRANCH  15  16
ATOM     16  C   UNL     1     100.914   3.953  24.838  1.00  0.00     0.000 C 
BRANCH  16  17
ATOM     17  C   UNL     1     101.045   3.039  26.070  1.00  0.00     0.000 C 
BRANCH  17  18
ATOM     18  C   UNL     1     102.460   2.974  26.675  1.00  0.00    -0.000 C 
BRANCH  18  19
ATOM     19  C   UNL     1     103.406   4.037  26.094  1.00  0.00    -0.000 C 
BRANCH  19  20
ATOM     20  C   UNL     1     104.685   3.390  25.542  1.00  0.00    -0.000 C 
BRANCH  20  21
ATOM     21  C   UNL     1     104.656   1.853  25.614  1.00  0.00    -0.000 C 
BRANCH  21  22
ATOM     22  C   UNL     1     104.646   1.131  24.250  1.00  0.00    -0.000 C 
BRANCH  22  23
ATOM     23  C   UNL     1     103.289   1.119  23.522  1.00  0.00    -0.000 C 
BRANCH  23  24
ATOM     24  C   UNL     1     102.740  -0.302  23.307  1.00  0.00    -0.000 C 
BRANCH  24  25
ATOM     25  C   UNL     1     101.362  -0.503  23.956  1.00  0.00    -0.003 C 
ATOM     26  C   UNL     1     100.211  -0.387  22.958  1.00  0.00     0.004 C 
ENDBRANCH  24  25
ENDBRANCH  23  24
ENDBRANCH  22  23
ENDBRANCH  21  22
ENDBRANCH  20  21
ENDBRANCH  19  20
ENDBRANCH  18  19
ENDBRANCH  17  18
ENDBRANCH  16  17
ENDBRANCH  15  16
ENDBRANCH   1  15
TORSDOF 22
ENDMDL
MODEL 6
REMARK VINA RESULT:    -4.412      1.655      6.208
REMARK INTER + INTRA:         -13.897
REMARK INTER:                  -9.751
REMARK INTRA:                  -4.145
REMARK UNBOUND:                -3.810
REMARK SMILES CCCCCCCCCCCCCCCCCCCCCCCC(=O)[O-]
REMARK SMILES IDX 13 1 14 2 15 3 16 4 17 5 18 6 19 7 20 8 21 9 22 10 23 11
REMARK SMILES IDX 24 12 25 13 26 14 12 15 11 16 10 17 9 18 8 19 7 20 6 21 5 22
REMARK SMILES IDX 4 23 3 24 2 25 1 26
REMARK H PARENT
REMARK Flexibility Score: inf
ROOT
ATOM      1  C   UNL     1     100.537   0.314  23.428  1.00  0.00     0.000 C 
ENDROOT
BRANCH   1   2
ATOM      2  C   UNL     1     102.035   0.098  23.689  1.00  0.00     0.000 C 
BRANCH   2   3
ATOM      3  C   UNL     1     102.801   1.429  23.633  1.00  0.00     0.000 C 
BRANCH   3   4
ATOM      4  C   UNL     1     103.158   1.966  25.035  1.00  0.00     0.000 C 
BRANCH   4   5
ATOM      5  C   UNL     1     102.652   3.395  25.307  1.00  0.00     0.000 C 
BRANCH   5   6
ATOM      6  C   UNL     1     101.225   3.487  25.879  1.00  0.00     0.000 C 
BRANCH   6   7
ATOM      7  C   UNL     1     100.263   4.389  25.084  1.00  0.00     0.000 C 
BRANCH   7   8
ATOM      8  C   UNL     1     100.312   4.129  23.568  1.00  0.00     0.000 C 
BRANCH   8   9
ATOM      9  C   UNL     1      98.974   4.417  22.867  1.00  0.00     0.000 C 
BRANCH   9  10
ATOM     10  C   UNL     1      98.416   5.838  23.079  1.00  0.00     0.006 C 
BRANCH  10  11
ATOM     11  C   UNL     1      97.561   6.355  21.909  1.00  0.00     0.053 C 
BRANCH  11  12
ATOM     12  C   UNL     1      96.396   7.177  22.369  1.00  0.00     0.041 C 
ATOM     13  O   UNL     1      96.542   8.403  22.613  1.00  0.00    -0.550 OA
ATOM     14  O   UNL     1      95.158   6.580  22.575  1.00  0.00    -0.550 OA
ENDBRANCH  11  12
ENDBRANCH  10  11
ENDBRANCH   9  10
ENDBRANCH   8   9
ENDBRANCH   7   8
ENDBRANCH   6   7
ENDBRANCH   5   6
ENDBRANCH   4   5
ENDBRANCH   3   4
ENDBRANCH   2   3
ENDBRANCH   1   2
BRANCH   1  15
ATOM     15  C   UNL     1      99.677   0.106  24.685  1.00  0.00     0.000 C 
BRANCH  15  16
ATOM     16  C   UNL     1      98.623   1.211  24.871  1.00  0.00     0.000 C 
BRANCH  16  17
ATOM     17  C   UNL     1      97.493   1.132  23.828  1.00  0.00     0.000 C 
BRANCH  17  18
ATOM     18  C   UNL     1      96.334   2.120  24.060  1.00  0.00    -0.000 C 
BRANCH  18  19
ATOM     19  C   UNL     1      96.539   2.998  25.305  1.00  0.00    -0.000 C 
BRANCH  19  20
ATOM     20  C   UNL     1      95.862   4.365  25.129  1.00  0.00    -0.000 C 
BRANCH  20  21
ATOM     21  C   UNL     1      96.265   5.374  26.219  1.00  0.00    -0.000 C 
BRANCH  21  22
ATOM     22  C   UNL     1      97.414   4.920  27.144  1.00  0.00    -0.000 C 
BRANCH  22  23
ATOM     23  C   UNL     1      97.997   6.016  28.056  1.00  0.00    -0.000 C 
BRANCH  23  24
ATOM     24  C   UNL     1      98.917   6.992  27.302  1.00  0.00    -0.000 C 
BRANCH  24  25
ATOM     25  C   UNL     1      98.341   8.415  27.244  1.00  0.00    -0.003 C 
ATOM     26  C   UNL     1      97.689   8.739  25.900  1.00  0.00     0.004 C 
ENDBRANCH  24  25
ENDBRANCH  23  24
ENDBRANCH  22  23
ENDBRANCH  21  22
ENDBRANCH  20  21
ENDBRANCH  19  20
ENDBRANCH  18  19
ENDBRANCH  17  18
ENDBRANCH  16  17
ENDBRANCH  15  16
ENDBRANCH   1  15
TORSDOF 22
ENDMDL
MODEL 7
REMARK VINA RESULT:    -4.361      1.288      3.355
REMARK INTER + INTRA:         -13.780
REMARK INTER:                 -10.102
REMARK INTRA:                  -3.678
REMARK UNBOUND:                -3.810
REMARK SMILES CCCCCCCCCCCCCCCCCCCCCCCC(=O)[O-]
REMARK SMILES IDX 13 1 14 2 15 3 16 4 17 5 18 6 19 7 20 8 21 9 22 10 23 11
REMARK SMILES IDX 24 12 25 13 26 14 12 15 11 16 10 17 9 18 8 19 7 20 6 21 5 22
REMARK SMILES IDX 4 23 3 24 2 25 1 26
REMARK H PARENT
REMARK Flexibility Score: inf
ROOT
ATOM      1  C   UNL     1      99.567   3.689  27.310  1.00  0.00     0.000 C 
ENDROOT
BRANCH   1   2
ATOM      2  C   UNL     1      98.330   4.600  27.300  1.00  0.00     0.000 C 
BRANCH   2   3
ATOM      3  C   UNL     1      98.691   6.012  26.814  1.00  0.00     0.000 C 
BRANCH   3   4
ATOM      4  C   UNL     1      97.601   6.621  25.906  1.00  0.00     0.000 C 
BRANCH   4   5
ATOM      5  C   UNL     1      96.221   5.954  26.050  1.00  0.00     0.000 C 
BRANCH   5   6
ATOM      6  C   UNL     1      95.424   5.809  24.740  1.00  0.00     0.000 C 
BRANCH   6   7
ATOM      7  C   UNL     1      95.904   6.708  23.585  1.00  0.00     0.000 C 
BRANCH   7   8
ATOM      8  C   UNL     1      95.708   6.061  22.202  1.00  0.00     0.000 C 
BRANCH   8   9
ATOM      9  C   UNL     1      95.076   7.019  21.177  1.00  0.00     0.000 C 
BRANCH   9  10
ATOM     10  C   UNL     1      96.077   7.851  20.354  1.00  0.00     0.006 C 
BRANCH  10  11
ATOM     11  C   UNL     1      96.584   7.145  19.084  1.00  0.00     0.053 C 
BRANCH  11  12
ATOM     12  C   UNL     1      97.974   7.561  18.711  1.00  0.00     0.041 C 
ATOM     13  O   UNL     1      98.570   8.446  19.379  1.00  0.00    -0.550 OA
ATOM     14  O   UNL     1      98.594   7.008  17.598  1.00  0.00    -0.550 OA
ENDBRANCH  11  12
ENDBRANCH  10  11
ENDBRANCH   9  10
ENDBRANCH   8   9
ENDBRANCH   7   8
ENDBRANCH   6   7
ENDBRANCH   5   6
ENDBRANCH   4   5
ENDBRANCH   3   4
ENDBRANCH   2   3
ENDBRANCH   1   2
BRANCH   1  15
ATOM     15  C   UNL     1     100.799   4.350  26.670  1.00  0.00     0.000 C 
BRANCH  15  16
ATOM     16  C   UNL     1     102.009   3.403  26.596  1.00  0.00     0.000 C 
BRANCH  16  17
ATOM     17  C   UNL     1     102.538   3.232  25.161  1.00  0.00     0.000 C 
BRANCH  17  18
ATOM     18  C   UNL     1     102.898   1.784  24.777  1.00  0.00    -0.000 C 
BRANCH  18  19
ATOM     19  C   UNL     1     102.012   1.229  23.650  1.00  0.00    -0.000 C 
BRANCH  19  20
ATOM     20  C   UNL     1     101.326  -0.075  24.084  1.00  0.00    -0.000 C 
BRANCH  20  21
ATOM     21  C   UNL     1      99.790   0.014  24.033  1.00  0.00    -0.000 C 
BRANCH  21  22
ATOM     22  C   UNL     1      99.169   1.152  24.869  1.00  0.00    -0.000 C 
BRANCH  22  23
ATOM     23  C   UNL     1      97.800   1.658  24.375  1.00  0.00    -0.000 C 
BRANCH  23  24
ATOM     24  C   UNL     1      97.812   3.155  24.019  1.00  0.00    -0.000 C 
BRANCH  24  25
ATOM     25  C   UNL     1      99.201   3.643  23.580  1.00  0.00    -0.003 C 
ATOM     26  C   UNL     1      99.152   4.964  22.812  1.00  0.00     0.004 C 
ENDBRANCH  24  25
ENDBRANCH  23  24
ENDBRANCH  22  23
ENDBRANCH  21  22
ENDBRANCH  20  21
ENDBRANCH  19  20
ENDBRANCH  18  19
ENDBRANCH  17  18
ENDBRANCH  16  17
ENDBRANCH  15  16
ENDBRANCH   1  15
TORSDOF 22
ENDMDL
MODEL 8
REMARK VINA RESULT:    -4.337      1.348      4.309
REMARK INTER + INTRA:         -13.726
REMARK INTER:                 -10.085
REMARK INTRA:                  -3.641
REMARK UNBOUND:                -3.810
REMARK SMILES CCCCCCCCCCCCCCCCCCCCCCCC(=O)[O-]
REMARK SMILES IDX 13 1 14 2 15 3 16 4 17 5 18 6 19 7 20 8 21 9 22 10 23 11
REMARK SMILES IDX 24 12 25 13 26 14 12 15 11 16 10 17 9 18 8 19 7 20 6 21 5 22
REMARK SMILES IDX 4 23 3 24 2 25 1 26
REMARK H PARENT
REMARK Flexibility Score: inf
ROOT
ATOM      1  C   UNL     1     103.061   3.933  25.458  1.00  0.00     0.000 C 
ENDROOT
BRANCH   1   2
ATOM      2  C   UNL     1     103.038   3.907  26.994  1.00  0.00     0.000 C 
BRANCH   2   3
ATOM      3  C   UNL     1     101.598   3.994  27.524  1.00  0.00     0.000 C 
BRANCH   3   4
ATOM      4  C   UNL     1     100.723   4.964  26.701  1.00  0.00     0.000 C 
BRANCH   4   5
ATOM      5  C   UNL     1      99.300   5.149  27.259  1.00  0.00     0.000 C 
BRANCH   5   6
ATOM      6  C   UNL     1      98.209   5.395  26.200  1.00  0.00     0.000 C 
BRANCH   6   7
ATOM      7  C   UNL     1      96.771   5.099  26.667  1.00  0.00     0.000 C 
BRANCH   7   8
ATOM      8  C   UNL     1      95.705   5.584  25.670  1.00  0.00     0.000 C 
BRANCH   8   9
ATOM      9  C   UNL     1      96.147   5.441  24.204  1.00  0.00     0.000 C 
BRANCH   9  10
ATOM     10  C   UNL     1      95.626   6.535  23.252  1.00  0.00     0.006 C 
BRANCH  10  11
ATOM     11  C   UNL     1      95.978   6.297  21.773  1.00  0.00     0.053 C 
BRANCH  11  12
ATOM     12  C   UNL     1      97.068   7.204  21.289  1.00  0.00     0.041 C 
ATOM     13  O   UNL     1      97.214   7.419  20.058  1.00  0.00    -0.550 OA
ATOM     14  O   UNL     1      97.955   7.775  22.195  1.00  0.00    -0.550 OA
ENDBRANCH  11  12
ENDBRANCH  10  11
ENDBRANCH   9  10
ENDBRANCH   8   9
ENDBRANCH   7   8
ENDBRANCH   6   7
ENDBRANCH   5   6
ENDBRANCH   4   5
ENDBRANCH   3   4
ENDBRANCH   2   3
ENDBRANCH   1   2
BRANCH   1  15
ATOM     15  C   UNL     1     104.095   2.963  24.861  1.00  0.00     0.000 C 
BRANCH  15  16
ATOM     16  C   UNL     1     103.564   1.524  24.755  1.00  0.00     0.000 C 
BRANCH  16  17
ATOM     17  C   UNL     1     104.064   0.801  23.490  1.00  0.00     0.000 C 
BRANCH  17  18
ATOM     18  C   UNL     1     103.197  -0.392  23.045  1.00  0.00    -0.000 C 
BRANCH  18  19
ATOM     19  C   UNL     1     101.691  -0.087  23.102  1.00  0.00    -0.000 C 
BRANCH  19  20
ATOM     20  C   UNL     1     100.960  -1.101  23.994  1.00  0.00    -0.000 C 
BRANCH  20  21
ATOM     21  C   UNL     1      99.823  -0.465  24.813  1.00  0.00    -0.000 C 
BRANCH  21  22
ATOM     22  C   UNL     1     100.117   0.949  25.358  1.00  0.00    -0.000 C 
BRANCH  22  23
ATOM     23  C   UNL     1      98.913   1.909  25.379  1.00  0.00    -0.000 C 
BRANCH  23  24
ATOM     24  C   UNL     1      98.642   2.555  24.009  1.00  0.00    -0.000 C 
BRANCH  24  25
ATOM     25  C   UNL     1      99.875   3.281  23.449  1.00  0.00    -0.003 C 
ATOM     26  C   UNL     1      99.536   4.638  22.832  1.00  0.00     0.004 C 
ENDBRANCH  24  25
ENDBRANCH  23  24
ENDBRANCH  22  23
ENDBRANCH  21  22
ENDBRANCH  20  21
ENDBRANCH  19  20
ENDBRANCH  18  19
ENDBRANCH  17  18
ENDBRANCH  16  17
ENDBRANCH  15  16
ENDBRANCH   1  15
TORSDOF 22
ENDMDL
MODEL 9
REMARK VINA RESULT:    -4.318      1.801      3.278
REMARK INTER + INTRA:         -13.681
REMARK INTER:                 -10.173
REMARK INTRA:                  -3.508
REMARK UNBOUND:                -3.810
REMARK SMILES CCCCCCCCCCCCCCCCCCCCCCCC(=O)[O-]
REMARK SMILES IDX 13 1 14 2 15 3 16 4 17 5 18 6 19 7 20 8 21 9 22 10 23 11
REMARK SMILES IDX 24 12 25 13 26 14 12 15 11 16 10 17 9 18 8 19 7 20 6 21 5 22
REMARK SMILES IDX 4 23 3 24 2 25 1 26
REMARK H PARENT
REMARK Flexibility Score: inf
ROOT
ATOM      1  C   UNL     1      99.637   2.488  24.476  1.00  0.00     0.000 C 
ENDROOT
BRANCH   1   2
ATOM      2  C   UNL     1      98.642   3.268  23.604  1.00  0.00     0.000 C 
BRANCH   2   3
ATOM      3  C   UNL     1      99.136   4.702  23.354  1.00  0.00     0.000 C 
BRANCH   3   4
ATOM      4  C   UNL     1      97.976   5.712  23.224  1.00  0.00     0.000 C 
BRANCH   4   5
ATOM      5  C   UNL     1      96.579   5.087  23.391  1.00  0.00     0.000 C 
BRANCH   5   6
ATOM      6  C   UNL     1      95.520   6.010  24.022  1.00  0.00     0.000 C 
BRANCH   6   7
ATOM      7  C   UNL     1      94.557   6.674  23.018  1.00  0.00     0.000 C 
BRANCH   7   8
ATOM      8  C   UNL     1      95.161   7.917  22.342  1.00  0.00     0.000 C 
BRANCH   8   9
ATOM      9  C   UNL     1      94.556   8.197  20.956  1.00  0.00     0.000 C 
BRANCH   9  10
ATOM     10  C   UNL     1      95.117   7.333  19.809  1.00  0.00     0.006 C 
BRANCH  10  11
ATOM     11  C   UNL     1      96.627   7.057  19.914  1.00  0.00     0.053 C 
BRANCH  11  12
ATOM     12  C   UNL     1      97.362   7.403  18.655  1.00  0.00     0.041 C 
ATOM     13  O   UNL     1      98.471   6.864  18.401  1.00  0.00    -0.550 OA
ATOM     14  O   UNL     1      96.847   8.355  17.784  1.00  0.00    -0.550 OA
ENDBRANCH  11  12
ENDBRANCH  10  11
ENDBRANCH   9  10
ENDBRANCH   8   9
ENDBRANCH   7   8
ENDBRANCH   6   7
ENDBRANCH   5   6
ENDBRANCH   4   5
ENDBRANCH   3   4
ENDBRANCH   2   3
ENDBRANCH   1   2
BRANCH   1  15
ATOM     15  C   UNL     1      99.058   2.111  25.849  1.00  0.00     0.000 C 
BRANCH  15  16
ATOM     16  C   UNL     1      97.766   2.878  26.179  1.00  0.00     0.000 C 
BRANCH  16  17
ATOM     17  C   UNL     1      97.903   3.751  27.440  1.00  0.00     0.000 C 
BRANCH  17  18
ATOM     18  C   UNL     1      97.698   5.259  27.204  1.00  0.00    -0.000 C 
BRANCH  18  19
ATOM     19  C   UNL     1      98.993   5.980  26.798  1.00  0.00    -0.000 C 
BRANCH  19  20
ATOM     20  C   UNL     1     100.200   5.407  27.555  1.00  0.00    -0.000 C 
BRANCH  20  21
ATOM     21  C   UNL     1     101.321   4.928  26.615  1.00  0.00    -0.000 C 
BRANCH  21  22
ATOM     22  C   UNL     1     102.075   3.664  27.081  1.00  0.00    -0.000 C 
BRANCH  22  23
ATOM     23  C   UNL     1     103.603   3.702  26.887  1.00  0.00    -0.000 C 
BRANCH  23  24
ATOM     24  C   UNL     1     104.133   2.491  26.099  1.00  0.00    -0.000 C 
BRANCH  24  25
ATOM     25  C   UNL     1     103.086   1.914  25.135  1.00  0.00    -0.003 C 
ATOM     26  C   UNL     1     103.709   1.137  23.976  1.00  0.00     0.004 C 
ENDBRANCH  24  25
ENDBRANCH  23  24
ENDBRANCH  22  23
ENDBRANCH  21  22
ENDBRANCH  20  21
ENDBRANCH  19  20
ENDBRANCH  18  19
ENDBRANCH  17  18
ENDBRANCH  16  17
ENDBRANCH  15  16
ENDBRANCH   1  15
TORSDOF 22
ENDMDL
