MODEL 1
REMARK VINA RESULT:    -3.998      0.000      0.000
REMARK INTER + INTRA:          -5.714
REMARK INTER:                  -5.166
REMARK INTRA:                  -0.548
REMARK UNBOUND:                -0.548
REMARK SMILES C=CC(=O)CCCCC
REMARK SMILES IDX 6 1 7 2 8 3 9 4 5 5 3 6 4 7 2 8 1 9
REMARK H PARENT
REMARK Flexibility Score: inf
ROOT
ATOM      1  C   UNL     1      17.306  -9.972  67.357  1.00  0.00     0.008 C 
ENDROOT
BRANCH   1   2
ATOM      2  C   UNL     1      17.200 -10.384  65.884  1.00  0.00     0.000 C 
BRANCH   2   3
ATOM      3  C   UNL     1      18.397 -11.243  65.465  1.00  0.00    -0.003 C 
ATOM      4  C   UNL     1      18.092 -12.729  65.623  1.00  0.00     0.004 C 
ENDBRANCH   2   3
ENDBRANCH   1   2
BRANCH   1   5
ATOM      5  C   UNL     1      18.738  -9.556  67.711  1.00  0.00     0.080 C 
BRANCH   5   6
ATOM      6  C   UNL     1      19.172 -10.201  68.994  1.00  0.00     0.155 C 
ATOM      7  O   UNL     1      19.367  -9.482  70.011  1.00  0.00    -0.295 OA
BRANCH   6   8
ATOM      8  C   UNL     1      19.409 -11.657  69.046  1.00  0.00     0.039 C 
ATOM      9  C   UNL     1      20.547 -12.211  68.633  1.00  0.00     0.012 C 
ENDBRANCH   6   8
ENDBRANCH   5   6
ENDBRANCH   1   5
TORSDOF 5
ENDMDL
MODEL 2
REMARK VINA RESULT:    -3.958      0.909      1.274
REMARK INTER + INTRA:          -5.663
REMARK INTER:                  -5.307
REMARK INTRA:                  -0.357
REMARK UNBOUND:                -0.548
REMARK SMILES C=CC(=O)CCCCC
REMARK SMILES IDX 6 1 7 2 8 3 9 4 5 5 3 6 4 7 2 8 1 9
REMARK H PARENT
REMARK Flexibility Score: inf
ROOT
ATOM      1  C   UNL     1      17.300  -9.974  67.310  1.00  0.00     0.008 C 
ENDROOT
BRANCH   1   2
ATOM      2  C   UNL     1      17.301 -10.340  65.821  1.00  0.00     0.000 C 
BRANCH   2   3
ATOM      3  C   UNL     1      18.724 -10.334  65.253  1.00  0.00    -0.003 C 
ATOM      4  C   UNL     1      18.794  -9.544  63.950  1.00  0.00     0.004 C 
ENDBRANCH   2   3
ENDBRANCH   1   2
BRANCH   1   5
ATOM      5  C   UNL     1      18.688  -9.507  67.762  1.00  0.00     0.080 C 
BRANCH   5   6
ATOM      6  C   UNL     1      19.107 -10.230  69.008  1.00  0.00     0.155 C 
ATOM      7  O   UNL     1      19.323  -9.571  70.061  1.00  0.00    -0.295 OA
BRANCH   6   8
ATOM      8  C   UNL     1      19.304 -11.693  68.983  1.00  0.00     0.039 C 
ATOM      9  C   UNL     1      20.513 -12.251  68.991  1.00  0.00     0.012 C 
ENDBRANCH   6   8
ENDBRANCH   5   6
ENDBRANCH   1   5
TORSDOF 5
ENDMDL
MODEL 3
REMARK VINA RESULT:    -3.700     16.735     17.664
REMARK INTER + INTRA:          -5.330
REMARK INTER:                  -5.090
REMARK INTRA:                  -0.240
REMARK UNBOUND:                -0.548
REMARK SMILES C=CC(=O)CCCCC
REMARK SMILES IDX 6 1 7 2 8 3 9 4 5 5 3 6 4 7 2 8 1 9
REMARK H PARENT
REMARK Flexibility Score: inf
ROOT
ATOM      1  C   UNL     1       6.685  -7.124  55.652  1.00  0.00     0.008 C 
ENDROOT
BRANCH   1   2
ATOM      2  C   UNL     1       5.280  -7.367  56.217  1.00  0.00     0.000 C 
BRANCH   2   3
ATOM      3  C   UNL     1       5.062  -6.571  57.508  1.00  0.00    -0.003 C 
ATOM      4  C   UNL     1       5.587  -5.146  57.374  1.00  0.00     0.004 C 
ENDBRANCH   2   3
ENDBRANCH   1   2
BRANCH   1   5
ATOM      5  C   UNL     1       6.844  -7.777  54.274  1.00  0.00     0.080 C 
BRANCH   5   6
ATOM      6  C   UNL     1       7.262  -9.212  54.416  1.00  0.00     0.155 C 
ATOM      7  O   UNL     1       6.389 -10.118  54.343  1.00  0.00    -0.295 OA
BRANCH   6   8
ATOM      8  C   UNL     1       8.675  -9.547  54.683  1.00  0.00     0.039 C 
ATOM      9  C   UNL     1       9.684  -8.895  54.111  1.00  0.00     0.012 C 
ENDBRANCH   6   8
ENDBRANCH   5   6
ENDBRANCH   1   5
TORSDOF 5
ENDMDL
MODEL 4
REMARK VINA RESULT:    -3.440     17.711     18.893
REMARK INTER + INTRA:          -4.993
REMARK INTER:                  -4.518
REMARK INTRA:                  -0.475
REMARK UNBOUND:                -0.548
REMARK SMILES C=CC(=O)CCCCC
REMARK SMILES IDX 6 1 7 2 8 3 9 4 5 5 3 6 4 7 2 8 1 9
REMARK H PARENT
REMARK Flexibility Score: inf
ROOT
ATOM      1  C   UNL     1       5.579   0.159  62.560  1.00  0.00     0.008 C 
ENDROOT
BRANCH   1   2
ATOM      2  C   UNL     1       5.641  -0.090  64.072  1.00  0.00     0.000 C 
BRANCH   2   3
ATOM      3  C   UNL     1       5.090   1.109  64.850  1.00  0.00    -0.003 C 
ATOM      4  C   UNL     1       6.109   1.628  65.859  1.00  0.00     0.004 C 
ENDBRANCH   2   3
ENDBRANCH   1   2
BRANCH   1   5
ATOM      5  C   UNL     1       6.758   1.021  62.096  1.00  0.00     0.080 C 
BRANCH   5   6
ATOM      6  C   UNL     1       6.294   2.070  61.128  1.00  0.00     0.155 C 
ATOM      7  O   UNL     1       5.891   1.721  59.986  1.00  0.00    -0.295 OA
BRANCH   6   8
ATOM      8  C   UNL     1       6.354   3.498  61.501  1.00  0.00     0.039 C 
ATOM      9  C   UNL     1       6.311   3.908  62.766  1.00  0.00     0.012 C 
ENDBRANCH   6   8
ENDBRANCH   5   6
ENDBRANCH   1   5
TORSDOF 5
ENDMDL
MODEL 5
REMARK VINA RESULT:    -3.425      1.762      2.366
REMARK INTER + INTRA:          -4.975
REMARK INTER:                  -4.445
REMARK INTRA:                  -0.530
REMARK UNBOUND:                -0.548
REMARK SMILES C=CC(=O)CCCCC
REMARK SMILES IDX 6 1 7 2 8 3 9 4 5 5 3 6 4 7 2 8 1 9
REMARK H PARENT
REMARK Flexibility Score: inf
ROOT
ATOM      1  C   UNL     1      17.040 -11.311  66.806  1.00  0.00     0.008 C 
ENDROOT
BRANCH   1   2
ATOM      2  C   UNL     1      16.782 -11.411  65.298  1.00  0.00     0.000 C 
BRANCH   2   3
ATOM      3  C   UNL     1      16.486 -10.032  64.698  1.00  0.00    -0.003 C 
ATOM      4  C   UNL     1      17.419  -9.726  63.531  1.00  0.00     0.004 C 
ENDBRANCH   2   3
ENDBRANCH   1   2
BRANCH   1   5
ATOM      5  C   UNL     1      17.208  -9.851  67.241  1.00  0.00     0.080 C 
BRANCH   5   6
ATOM      6  C   UNL     1      18.632  -9.576  67.624  1.00  0.00     0.155 C 
ATOM      7  O   UNL     1      18.933  -9.472  68.844  1.00  0.00    -0.295 OA
BRANCH   6   8
ATOM      8  C   UNL     1      19.656  -9.387  66.578  1.00  0.00     0.039 C 
ATOM      9  C   UNL     1      20.589 -10.300  66.317  1.00  0.00     0.012 C 
ENDBRANCH   6   8
ENDBRANCH   5   6
ENDBRANCH   1   5
TORSDOF 5
ENDMDL
MODEL 6
REMARK VINA RESULT:    -3.418     16.032     17.154
REMARK INTER + INTRA:          -4.966
REMARK INTER:                  -4.539
REMARK INTRA:                  -0.427
REMARK UNBOUND:                -0.548
REMARK SMILES C=CC(=O)CCCCC
REMARK SMILES IDX 6 1 7 2 8 3 9 4 5 5 3 6 4 7 2 8 1 9
REMARK H PARENT
REMARK Flexibility Score: inf
ROOT
ATOM      1  C   UNL     1       6.472  -7.727  54.903  1.00  0.00     0.008 C 
ENDROOT
BRANCH   1   2
ATOM      2  C   UNL     1       7.475  -8.668  54.227  1.00  0.00     0.000 C 
BRANCH   2   3
ATOM      3  C   UNL     1       7.078 -10.134  54.430  1.00  0.00    -0.003 C 
ATOM      4  C   UNL     1       6.278 -10.316  55.715  1.00  0.00     0.004 C 
ENDBRANCH   2   3
ENDBRANCH   1   2
BRANCH   1   5
ATOM      5  C   UNL     1       7.192  -6.662  55.738  1.00  0.00     0.080 C 
BRANCH   5   6
ATOM      6  C   UNL     1       6.300  -6.160  56.835  1.00  0.00     0.155 C 
ATOM      7  O   UNL     1       6.197  -4.919  57.027  1.00  0.00    -0.295 OA
BRANCH   6   8
ATOM      8  C   UNL     1       5.588  -7.118  57.705  1.00  0.00     0.039 C 
ATOM      9  C   UNL     1       6.218  -7.869  58.606  1.00  0.00     0.012 C 
ENDBRANCH   6   8
ENDBRANCH   5   6
ENDBRANCH   1   5
TORSDOF 5
ENDMDL
MODEL 7
REMARK VINA RESULT:    -3.397      2.917      4.576
REMARK INTER + INTRA:          -4.938
REMARK INTER:                  -4.463
REMARK INTRA:                  -0.475
REMARK UNBOUND:                -0.548
REMARK SMILES C=CC(=O)CCCCC
REMARK SMILES IDX 6 1 7 2 8 3 9 4 5 5 3 6 4 7 2 8 1 9
REMARK H PARENT
REMARK Flexibility Score: inf
ROOT
ATOM      1  C   UNL     1      16.713 -11.080  66.022  1.00  0.00     0.008 C 
ENDROOT
BRANCH   1   2
ATOM      2  C   UNL     1      17.240 -10.179  67.145  1.00  0.00     0.000 C 
BRANCH   2   3
ATOM      3  C   UNL     1      18.615 -10.651  67.630  1.00  0.00    -0.003 C 
ATOM      4  C   UNL     1      19.104  -9.812  68.806  1.00  0.00     0.004 C 
ENDBRANCH   2   3
ENDBRANCH   1   2
BRANCH   1   5
ATOM      5  C   UNL     1      17.866 -11.722  65.244  1.00  0.00     0.080 C 
BRANCH   5   6
ATOM      6  C   UNL     1      17.986 -11.110  63.879  1.00  0.00     0.155 C 
ATOM      7  O   UNL     1      17.528 -11.732  62.882  1.00  0.00    -0.295 OA
BRANCH   6   8
ATOM      8  C   UNL     1      18.673  -9.814  63.707  1.00  0.00     0.039 C 
ATOM      9  C   UNL     1      19.888  -9.580  64.197  1.00  0.00     0.012 C 
ENDBRANCH   6   8
ENDBRANCH   5   6
ENDBRANCH   1   5
TORSDOF 5
ENDMDL
MODEL 8
REMARK VINA RESULT:    -3.384     15.965     17.277
REMARK INTER + INTRA:          -4.921
REMARK INTER:                  -4.374
REMARK INTRA:                  -0.547
REMARK UNBOUND:                -0.548
REMARK SMILES C=CC(=O)CCCCC
REMARK SMILES IDX 6 1 7 2 8 3 9 4 5 5 3 6 4 7 2 8 1 9
REMARK H PARENT
REMARK Flexibility Score: inf
ROOT
ATOM      1  C   UNL     1       5.538  -7.952  56.048  1.00  0.00     0.008 C 
ENDROOT
BRANCH   1   2
ATOM      2  C   UNL     1       6.203  -6.806  56.820  1.00  0.00     0.000 C 
BRANCH   2   3
ATOM      3  C   UNL     1       7.403  -6.246  56.050  1.00  0.00    -0.003 C 
ATOM      4  C   UNL     1       8.678  -6.323  56.883  1.00  0.00     0.004 C 
ENDBRANCH   2   3
ENDBRANCH   1   2
BRANCH   1   5
ATOM      5  C   UNL     1       6.137  -9.305  56.448  1.00  0.00     0.080 C 
BRANCH   5   6
ATOM      6  C   UNL     1       6.651 -10.031  55.239  1.00  0.00     0.155 C 
ATOM      7  O   UNL     1       5.868 -10.771  54.585  1.00  0.00    -0.295 OA
BRANCH   6   8
ATOM      8  C   UNL     1       8.071  -9.911  54.854  1.00  0.00     0.039 C 
ATOM      9  C   UNL     1       8.480  -9.107  53.875  1.00  0.00     0.012 C 
ENDBRANCH   6   8
ENDBRANCH   5   6
ENDBRANCH   1   5
TORSDOF 5
ENDMDL
MODEL 9
REMARK VINA RESULT:    -3.360     16.619     17.610
REMARK INTER + INTRA:          -4.890
REMARK INTER:                  -4.360
REMARK INTRA:                  -0.530
REMARK UNBOUND:                -0.548
REMARK SMILES C=CC(=O)CCCCC
REMARK SMILES IDX 6 1 7 2 8 3 9 4 5 5 3 6 4 7 2 8 1 9
REMARK H PARENT
REMARK Flexibility Score: inf
ROOT
ATOM      1  C   UNL     1       6.112  -0.200  63.640  1.00  0.00     0.008 C 
ENDROOT
BRANCH   1   2
ATOM      2  C   UNL     1       4.875   0.132  64.482  1.00  0.00     0.000 C 
BRANCH   2   3
ATOM      3  C   UNL     1       5.268   0.491  65.919  1.00  0.00    -0.003 C 
ATOM      4  C   UNL     1       5.573   1.979  66.052  1.00  0.00     0.004 C 
ENDBRANCH   2   3
ENDBRANCH   1   2
BRANCH   1   5
ATOM      5  C   UNL     1       6.268   0.786  62.477  1.00  0.00     0.080 C 
BRANCH   5   6
ATOM      6  C   UNL     1       7.664   1.333  62.434  1.00  0.00     0.155 C 
ATOM      7  O   UNL     1       8.100   1.828  61.360  1.00  0.00    -0.295 OA
BRANCH   6   8
ATOM      8  C   UNL     1       8.528   1.250  63.629  1.00  0.00     0.039 C 
ATOM      9  C   UNL     1       8.863   2.321  64.345  1.00  0.00     0.012 C 
ENDBRANCH   6   8
ENDBRANCH   5   6
ENDBRANCH   1   5
TORSDOF 5
ENDMDL
