MODEL 1
REMARK VINA RESULT:    -5.222      0.000      0.000
REMARK INTER + INTRA:          -8.137
REMARK INTER:                  -7.970
REMARK INTRA:                  -0.167
REMARK UNBOUND:                -0.167
REMARK SMILES CC1=CCC[C@@H](C)C(=O)C[C@@H](C(C)C)C(=O)C1
REMARK SMILES IDX 8 1 9 2 6 3 7 4 5 5 4 6 3 7 2 8 1 9 10 11 11 12 15 13 16 14
REMARK SMILES IDX 17 15 12 17 13 18 14 19
REMARK H PARENT
REMARK Flexibility Score: 70.00
ROOT
ATOM      1  C   UNL     1      -7.965  30.759  24.159  1.00  0.00     0.136 C 
ATOM      2  O   UNL     1      -6.801  30.499  23.888  1.00  0.00    -0.299 OA
ENDROOT
BRANCH   1   3
ATOM      3  C   UNL     1      -8.631  30.112  25.362  1.00  0.00     0.053 C 
ATOM      4  C   UNL     1      -9.726  29.111  24.958  1.00  0.00     0.016 C 
BRANCH   3   5
ATOM      5  C   UNL     1      -9.173  31.168  26.349  1.00  0.00     0.015 C 
BRANCH   5   6
ATOM      6  C   UNL     1      -8.151  32.270  26.717  1.00  0.00     0.028 C 
BRANCH   6   7
ATOM      7  C   UNL     1      -8.740  33.643  26.495  1.00  0.00    -0.028 C 
ATOM      8  C   UNL     1      -8.316  34.540  25.573  1.00  0.00    -0.070 CG0
ATOM      9  C   UNL     1      -8.971  35.899  25.563  1.00  0.00     0.039 C 
ATOM     10  G   UNL     1      -7.246  34.238  24.535  1.00  0.00     0.000 G0
ENDBRANCH   6   7
ENDBRANCH   5   6
ENDBRANCH   3   5
ENDBRANCH   1   3
BRANCH   1  11
ATOM     11  C   UNL     1      -8.727  31.712  23.266  1.00  0.00     0.087 C 
BRANCH  11  12
ATOM     12  C   UNL     1      -7.815  32.659  22.436  1.00  0.00     0.066 C 
BRANCH  12  13
ATOM     13  C   UNL     1      -7.716  34.029  23.100  1.00  0.00     0.140 C 
ATOM     14  O   UNL     1      -8.028  35.013  22.444  1.00  0.00    -0.299 OA
BRANCH  13  15
ATOM     15  C   UNL     1      -7.237  34.260  24.521  1.00  0.00     0.106 CG0
ATOM     16  G   UNL     1      -8.320  34.535  25.551  1.00  0.00     0.000 G0
ENDBRANCH  13  15
ENDBRANCH  12  13
BRANCH  12  17
ATOM     17  C   UNL     1      -8.322  32.806  20.966  1.00  0.00    -0.006 C 
ATOM     18  C   UNL     1      -9.285  31.674  20.567  1.00  0.00     0.008 C 
ATOM     19  C   UNL     1      -7.150  32.835  19.968  1.00  0.00     0.008 C 
ENDBRANCH  12  17
ENDBRANCH  11  12
ENDBRANCH   1  11
TORSDOF 1
ENDMDL
MODEL 2
REMARK VINA RESULT:    -5.037      1.878      4.196
REMARK INTER + INTRA:          -7.854
REMARK INTER:                  -7.657
REMARK INTRA:                  -0.197
REMARK UNBOUND:                -0.167
REMARK SMILES CC1=CCC[C@@H](C)C(=O)C[C@@H](C(C)C)C(=O)C1
REMARK SMILES IDX 8 1 9 2 6 3 7 4 5 5 4 6 3 7 2 8 1 9 10 11 11 12 15 13 16 14
REMARK SMILES IDX 17 15 12 17 13 18 14 19
REMARK H PARENT
REMARK Flexibility Score: 70.00
ROOT
ATOM      1  C   UNL     1      -7.417  30.130  23.258  1.00  0.00     0.136 C 
ATOM      2  O   UNL     1      -6.378  30.272  22.629  1.00  0.00    -0.299 OA
ENDROOT
BRANCH   1   3
ATOM      3  C   UNL     1      -8.664  29.606  22.564  1.00  0.00     0.053 C 
ATOM      4  C   UNL     1      -8.615  28.085  22.340  1.00  0.00     0.016 C 
BRANCH   3   5
ATOM      5  C   UNL     1      -8.940  30.358  21.245  1.00  0.00     0.015 C 
BRANCH   5   6
ATOM      6  C   UNL     1      -9.638  31.726  21.434  1.00  0.00     0.028 C 
BRANCH   6   7
ATOM      7  C   UNL     1      -8.620  32.830  21.595  1.00  0.00    -0.028 C 
ATOM      8  C   UNL     1      -8.508  33.647  22.670  1.00  0.00    -0.070 CG0
ATOM      9  C   UNL     1      -7.485  34.753  22.608  1.00  0.00     0.039 C 
ATOM     10  G   UNL     1      -9.332  33.485  23.937  1.00  0.00     0.000 G0
ENDBRANCH   6   7
ENDBRANCH   5   6
ENDBRANCH   3   5
ENDBRANCH   1   3
BRANCH   1  11
ATOM     11  C   UNL     1      -7.441  30.504  24.723  1.00  0.00     0.087 C 
BRANCH  11  12
ATOM     12  C   UNL     1      -8.775  31.159  25.181  1.00  0.00     0.066 C 
BRANCH  12  13
ATOM     13  C   UNL     1      -8.696  32.678  25.066  1.00  0.00     0.140 C 
ATOM     14  O   UNL     1      -8.098  33.294  25.938  1.00  0.00    -0.299 OA
BRANCH  13  15
ATOM     15  C   UNL     1      -9.329  33.486  23.949  1.00  0.00     0.106 CG0
ATOM     16  G   UNL     1      -8.502  33.627  22.680  1.00  0.00     0.000 G0
ENDBRANCH  13  15
ENDBRANCH  12  13
BRANCH  12  17
ATOM     17  C   UNL     1      -9.148  30.746  26.641  1.00  0.00    -0.006 C 
ATOM     18  C   UNL     1      -7.915  30.672  27.558  1.00  0.00     0.008 C 
ATOM     19  C   UNL     1      -9.872  29.388  26.672  1.00  0.00     0.008 C 
ENDBRANCH  12  17
ENDBRANCH  11  12
ENDBRANCH   1  11
TORSDOF 1
ENDMDL
MODEL 3
REMARK VINA RESULT:    -4.995      1.997      4.852
REMARK INTER + INTRA:          -7.790
REMARK INTER:                  -7.712
REMARK INTRA:                  -0.077
REMARK UNBOUND:                -0.167
REMARK SMILES CC1=CCC[C@@H](C)C(=O)C[C@@H](C(C)C)C(=O)C1
REMARK SMILES IDX 8 1 9 2 6 3 7 4 5 5 4 6 3 7 2 8 1 9 10 11 11 12 15 13 16 14
REMARK SMILES IDX 17 15 12 17 13 18 14 19
REMARK H PARENT
REMARK Flexibility Score: 70.00
ROOT
ATOM      1  C   UNL     1      -8.206  33.503  22.281  1.00  0.00     0.136 C 
ATOM      2  O   UNL     1      -8.016  34.652  21.908  1.00  0.00    -0.299 OA
ENDROOT
BRANCH   1   3
ATOM      3  C   UNL     1      -7.566  32.343  21.536  1.00  0.00     0.053 C 
ATOM      4  C   UNL     1      -7.226  32.699  20.079  1.00  0.00     0.016 C 
BRANCH   3   5
ATOM      5  C   UNL     1      -8.432  31.068  21.614  1.00  0.00     0.015 C 
BRANCH   5   6
ATOM      6  C   UNL     1      -7.836  29.955  22.509  1.00  0.00     0.028 C 
BRANCH   6   7
ATOM      7  C   UNL     1      -8.873  29.429  23.473  1.00  0.00    -0.028 C 
ATOM      8  C   UNL     1      -8.948  29.732  24.791  1.00  0.00    -0.070 CG0
ATOM      9  C   UNL     1     -10.002  29.034  25.614  1.00  0.00     0.039 C 
ATOM     10  G   UNL     1      -8.052  30.757  25.470  1.00  0.00     0.000 G0
ENDBRANCH   6   7
ENDBRANCH   5   6
ENDBRANCH   3   5
ENDBRANCH   1   3
BRANCH   1  11
ATOM     11  C   UNL     1      -9.101  33.262  23.476  1.00  0.00     0.087 C 
BRANCH  11  12
ATOM     12  C   UNL     1      -8.366  33.373  24.842  1.00  0.00     0.066 C 
BRANCH  12  13
ATOM     13  C   UNL     1      -8.650  32.150  25.708  1.00  0.00     0.140 C 
ATOM     14  O   UNL     1      -9.402  32.280  26.664  1.00  0.00    -0.299 OA
BRANCH  13  15
ATOM     15  C   UNL     1      -8.047  30.777  25.475  1.00  0.00     0.106 CG0
ATOM     16  G   UNL     1      -8.951  29.760  24.796  1.00  0.00     0.000 G0
ENDBRANCH  13  15
ENDBRANCH  12  13
BRANCH  12  17
ATOM     17  C   UNL     1      -8.761  34.678  25.604  1.00  0.00    -0.006 C 
ATOM     18  C   UNL     1      -9.314  35.759  24.659  1.00  0.00     0.008 C 
ATOM     19  C   UNL     1      -7.564  35.261  26.378  1.00  0.00     0.008 C 
ENDBRANCH  12  17
ENDBRANCH  11  12
ENDBRANCH   1  11
TORSDOF 1
ENDMDL
MODEL 4
REMARK VINA RESULT:    -4.791      2.290      4.089
REMARK INTER + INTRA:          -7.479
REMARK INTER:                  -8.053
REMARK INTRA:                   0.574
REMARK UNBOUND:                -0.167
REMARK SMILES CC1=CCC[C@@H](C)C(=O)C[C@@H](C(C)C)C(=O)C1
REMARK SMILES IDX 8 1 9 2 6 3 7 4 5 5 4 6 3 7 2 8 1 9 10 11 11 12 15 13 16 14
REMARK SMILES IDX 17 15 12 17 13 18 14 19
REMARK H PARENT
REMARK Flexibility Score: 70.00
ROOT
ATOM      1  C   UNL     1      -8.479  33.578  24.924  1.00  0.00     0.136 C 
ATOM      2  O   UNL     1      -8.566  34.795  25.007  1.00  0.00    -0.299 OA
ENDROOT
BRANCH   1   3
ATOM      3  C   UNL     1      -9.116  32.694  25.984  1.00  0.00     0.053 C 
ATOM      4  C   UNL     1      -8.222  32.531  27.226  1.00  0.00     0.016 C 
BRANCH   3   5
ATOM      5  C   UNL     1      -9.531  31.323  25.409  1.00  0.00     0.015 C 
BRANCH   5   6
ATOM      6  C   UNL     1      -8.418  30.250  25.474  1.00  0.00     0.028 C 
BRANCH   6   7
ATOM      7  C   UNL     1      -8.688  29.137  24.488  1.00  0.00    -0.028 C 
ATOM      8  C   UNL     1      -8.423  29.180  23.161  1.00  0.00    -0.070 CG0
ATOM      9  C   UNL     1      -8.849  28.002  22.321  1.00  0.00     0.039 C 
ATOM     10  G   UNL     1      -7.693  30.332  22.487  1.00  0.00     0.000 G0
ENDBRANCH   6   7
ENDBRANCH   5   6
ENDBRANCH   3   5
ENDBRANCH   1   3
BRANCH   1  11
ATOM     11  C   UNL     1      -7.713  32.977  23.767  1.00  0.00     0.087 C 
BRANCH  11  12
ATOM     12  C   UNL     1      -8.534  32.893  22.449  1.00  0.00     0.066 C 
BRANCH  12  13
ATOM     13  C   UNL     1      -8.551  31.464  21.915  1.00  0.00     0.140 C 
ATOM     14  O   UNL     1      -9.315  31.198  20.998  1.00  0.00    -0.299 OA
BRANCH  13  15
ATOM     15  C   UNL     1      -7.693  30.337  22.459  1.00  0.00     0.106 CG0
ATOM     16  G   UNL     1      -8.440  29.210  23.156  1.00  0.00     0.000 G0
ENDBRANCH  13  15
ENDBRANCH  12  13
BRANCH  12  17
ATOM     17  C   UNL     1      -7.979  33.869  21.362  1.00  0.00    -0.006 C 
ATOM     18  C   UNL     1      -7.124  33.143  20.309  1.00  0.00     0.008 C 
ATOM     19  C   UNL     1      -7.139  34.994  21.994  1.00  0.00     0.008 C 
ENDBRANCH  12  17
ENDBRANCH  11  12
ENDBRANCH   1  11
TORSDOF 1
ENDMDL
MODEL 5
REMARK VINA RESULT:    -4.480      1.703      4.074
REMARK INTER + INTRA:          -7.004
REMARK INTER:                  -7.392
REMARK INTRA:                   0.388
REMARK UNBOUND:                -0.167
REMARK SMILES CC1=CCC[C@@H](C)C(=O)C[C@@H](C(C)C)C(=O)C1
REMARK SMILES IDX 8 1 9 2 6 3 7 4 5 5 4 6 3 7 2 8 1 9 10 11 11 12 15 13 16 14
REMARK SMILES IDX 17 15 12 17 13 18 14 19
REMARK H PARENT
REMARK Flexibility Score: 70.00
ROOT
ATOM      1  C   UNL     1      -8.943  32.466  21.831  1.00  0.00     0.136 C 
ATOM      2  O   UNL     1     -10.094  32.683  22.187  1.00  0.00    -0.299 OA
ENDROOT
BRANCH   1   3
ATOM      3  C   UNL     1      -8.225  33.456  20.928  1.00  0.00     0.053 C 
ATOM      4  C   UNL     1      -7.111  32.792  20.101  1.00  0.00     0.016 C 
BRANCH   3   5
ATOM      5  C   UNL     1      -7.689  34.666  21.722  1.00  0.00     0.015 C 
BRANCH   5   6
ATOM      6  C   UNL     1      -6.841  34.283  22.958  1.00  0.00     0.028 C 
BRANCH   6   7
ATOM      7  C   UNL     1      -7.610  34.530  24.234  1.00  0.00    -0.028 C 
ATOM      8  C   UNL     1      -7.992  33.578  25.119  1.00  0.00    -0.070 CG0
ATOM      9  C   UNL     1      -8.836  34.008  26.293  1.00  0.00     0.039 C 
ATOM     10  G   UNL     1      -7.587  32.116  25.007  1.00  0.00     0.000 G0
ENDBRANCH   6   7
ENDBRANCH   5   6
ENDBRANCH   3   5
ENDBRANCH   1   3
BRANCH   1  11
ATOM     11  C   UNL     1      -8.265  31.194  22.288  1.00  0.00     0.087 C 
BRANCH  11  12
ATOM     12  C   UNL     1      -9.017  30.461  23.435  1.00  0.00     0.066 C 
BRANCH  12  13
ATOM     13  C   UNL     1      -8.731  31.127  24.778  1.00  0.00     0.140 C 
ATOM     14  O   UNL     1      -9.473  30.875  25.717  1.00  0.00    -0.299 OA
BRANCH  13  15
ATOM     15  C   UNL     1      -7.595  32.102  25.025  1.00  0.00     0.106 CG0
ATOM     16  G   UNL     1      -7.985  33.569  25.107  1.00  0.00     0.000 G0
ENDBRANCH  13  15
ENDBRANCH  12  13
BRANCH  12  17
ATOM     17  C   UNL     1      -8.641  28.946  23.493  1.00  0.00    -0.006 C 
ATOM     18  C   UNL     1      -8.392  28.354  22.094  1.00  0.00     0.008 C 
ATOM     19  C   UNL     1      -9.737  28.122  24.192  1.00  0.00     0.008 C 
ENDBRANCH  12  17
ENDBRANCH  11  12
ENDBRANCH   1  11
TORSDOF 1
ENDMDL
MODEL 6
REMARK VINA RESULT:    -4.197      1.796      4.268
REMARK INTER + INTRA:          -6.573
REMARK INTER:                  -6.891
REMARK INTRA:                   0.319
REMARK UNBOUND:                -0.167
REMARK SMILES CC1=CCC[C@@H](C)C(=O)C[C@@H](C(C)C)C(=O)C1
REMARK SMILES IDX 8 1 9 2 6 3 7 4 5 5 4 6 3 7 2 8 1 9 10 11 11 12 15 13 16 14
REMARK SMILES IDX 17 15 12 17 13 18 14 19
REMARK H PARENT
REMARK Flexibility Score: 70.00
ROOT
ATOM      1  C   UNL     1      -8.981  31.082  23.504  1.00  0.00     0.136 C 
ATOM      2  O   UNL     1     -10.122  31.521  23.558  1.00  0.00    -0.299 OA
ENDROOT
BRANCH   1   3
ATOM      3  C   UNL     1      -8.314  30.854  22.157  1.00  0.00     0.053 C 
ATOM      4  C   UNL     1      -6.859  30.377  22.297  1.00  0.00     0.016 C 
BRANCH   3   5
ATOM      5  C   UNL     1      -8.410  32.104  21.257  1.00  0.00     0.015 C 
BRANCH   5   6
ATOM      6  C   UNL     1      -7.467  33.257  21.676  1.00  0.00     0.028 C 
BRANCH   6   7
ATOM      7  C   UNL     1      -8.223  34.318  22.440  1.00  0.00    -0.028 C 
ATOM      8  C   UNL     1      -8.261  34.440  23.788  1.00  0.00    -0.070 CG0
ATOM      9  C   UNL     1      -9.148  35.511  24.372  1.00  0.00     0.039 C 
ATOM     10  G   UNL     1      -7.435  33.581  24.733  1.00  0.00     0.000 G0
ENDBRANCH   6   7
ENDBRANCH   5   6
ENDBRANCH   3   5
ENDBRANCH   1   3
BRANCH   1  11
ATOM     11  C   UNL     1      -8.265  30.751  24.794  1.00  0.00     0.087 C 
BRANCH  11  12
ATOM     12  C   UNL     1      -8.741  31.596  26.009  1.00  0.00     0.066 C 
BRANCH  12  13
ATOM     13  C   UNL     1      -8.151  33.002  25.952  1.00  0.00     0.140 C 
ATOM     14  O   UNL     1      -8.288  33.727  26.928  1.00  0.00    -0.299 OA
BRANCH  13  15
ATOM     15  C   UNL     1      -7.418  33.575  24.754  1.00  0.00     0.106 CG0
ATOM     16  G   UNL     1      -8.249  34.435  23.815  1.00  0.00     0.000 G0
ENDBRANCH  13  15
ENDBRANCH  12  13
BRANCH  12  17
ATOM     17  C   UNL     1      -8.375  30.912  27.365  1.00  0.00    -0.006 C 
ATOM     18  C   UNL     1      -7.993  29.432  27.186  1.00  0.00     0.008 C 
ATOM     19  C   UNL     1      -9.536  31.006  28.373  1.00  0.00     0.008 C 
ENDBRANCH  12  17
ENDBRANCH  11  12
ENDBRANCH   1  11
TORSDOF 1
ENDMDL
MODEL 7
REMARK VINA RESULT:    -4.197      2.017      3.993
REMARK INTER + INTRA:          -6.573
REMARK INTER:                  -6.524
REMARK INTRA:                  -0.049
REMARK UNBOUND:                -0.167
REMARK SMILES CC1=CCC[C@@H](C)C(=O)C[C@@H](C(C)C)C(=O)C1
REMARK SMILES IDX 8 1 9 2 6 3 7 4 5 5 4 6 3 7 2 8 1 9 10 11 11 12 15 13 16 14
REMARK SMILES IDX 17 15 12 17 13 18 14 19
REMARK H PARENT
REMARK Flexibility Score: 70.00
ROOT
ATOM      1  C   UNL     1      -7.690  32.987  22.895  1.00  0.00     0.136 C 
ATOM      2  O   UNL     1      -7.773  32.986  21.675  1.00  0.00    -0.299 OA
ENDROOT
BRANCH   1   3
ATOM      3  C   UNL     1      -7.884  34.280  23.671  1.00  0.00     0.053 C 
ATOM      4  C   UNL     1      -6.550  34.978  23.989  1.00  0.00     0.016 C 
BRANCH   3   5
ATOM      5  C   UNL     1      -8.718  34.056  24.950  1.00  0.00     0.015 C 
BRANCH   5   6
ATOM      6  C   UNL     1      -7.873  33.723  26.203  1.00  0.00     0.028 C 
BRANCH   6   7
ATOM      7  C   UNL     1      -8.684  32.930  27.201  1.00  0.00    -0.028 C 
ATOM      8  C   UNL     1      -8.843  31.585  27.194  1.00  0.00    -0.070 CG0
ATOM      9  C   UNL     1      -9.768  30.982  28.222  1.00  0.00     0.039 C 
ATOM     10  G   UNL     1      -8.117  30.658  26.232  1.00  0.00     0.000 G0
ENDBRANCH   6   7
ENDBRANCH   5   6
ENDBRANCH   3   5
ENDBRANCH   1   3
BRANCH   1  11
ATOM     11  C   UNL     1      -7.373  31.692  23.606  1.00  0.00     0.087 C 
BRANCH  11  12
ATOM     12  C   UNL     1      -8.538  30.662  23.584  1.00  0.00     0.066 C 
BRANCH  12  13
ATOM     13  C   UNL     1      -8.905  30.233  25.001  1.00  0.00     0.140 C 
ATOM     14  O   UNL     1      -9.893  29.528  25.154  1.00  0.00    -0.299 OA
BRANCH  13  15
ATOM     15  C   UNL     1      -8.136  30.638  26.244  1.00  0.00     0.106 CG0
ATOM     16  G   UNL     1      -8.856  31.586  27.191  1.00  0.00     0.000 G0
ENDBRANCH  13  15
ENDBRANCH  12  13
BRANCH  12  17
ATOM     17  C   UNL     1      -8.186  29.413  22.714  1.00  0.00    -0.006 C 
ATOM     18  C   UNL     1      -6.686  29.338  22.383  1.00  0.00     0.008 C 
ATOM     19  C   UNL     1      -8.987  29.400  21.399  1.00  0.00     0.008 C 
ENDBRANCH  12  17
ENDBRANCH  11  12
ENDBRANCH   1  11
TORSDOF 1
ENDMDL
MODEL 8
REMARK VINA RESULT:    -3.912      1.913      3.946
REMARK INTER + INTRA:          -6.138
REMARK INTER:                  -7.650
REMARK INTRA:                   1.512
REMARK UNBOUND:                -0.167
REMARK SMILES CC1=CCC[C@@H](C)C(=O)C[C@@H](C(C)C)C(=O)C1
REMARK SMILES IDX 8 1 9 2 6 3 7 4 5 5 4 6 3 7 2 8 1 9 10 11 11 12 15 13 16 14
REMARK SMILES IDX 17 15 12 17 13 18 14 19
REMARK H PARENT
REMARK Flexibility Score: 70.00
ROOT
ATOM      1  C   UNL     1      -9.146  31.800  25.358  1.00  0.00     0.136 C 
ATOM      2  O   UNL     1      -9.404  32.282  26.452  1.00  0.00    -0.299 OA
ENDROOT
BRANCH   1   3
ATOM      3  C   UNL     1      -8.282  30.553  25.258  1.00  0.00     0.053 C 
ATOM      4  C   UNL     1      -7.780  30.076  26.632  1.00  0.00     0.016 C 
BRANCH   3   5
ATOM      5  C   UNL     1      -7.112  30.748  24.271  1.00  0.00     0.015 C 
BRANCH   5   6
ATOM      6  C   UNL     1      -7.104  29.741  23.097  1.00  0.00     0.028 C 
BRANCH   6   7
ATOM      7  C   UNL     1      -8.187  30.072  22.098  1.00  0.00    -0.028 C 
ATOM      8  C   UNL     1      -8.445  31.303  21.595  1.00  0.00    -0.070 CG0
ATOM      9  C   UNL     1      -9.631  31.452  20.676  1.00  0.00     0.039 C 
ATOM     10  G   UNL     1      -7.585  32.524  21.882  1.00  0.00     0.000 G0
ENDBRANCH   6   7
ENDBRANCH   5   6
ENDBRANCH   3   5
ENDBRANCH   1   3
BRANCH   1  11
ATOM     11  C   UNL     1      -9.681  32.477  24.117  1.00  0.00     0.087 C 
BRANCH  11  12
ATOM     12  C   UNL     1      -8.973  33.820  23.781  1.00  0.00     0.066 C 
BRANCH  12  13
ATOM     13  C   UNL     1      -8.303  33.748  22.412  1.00  0.00     0.140 C 
ATOM     14  O   UNL     1      -8.361  34.731  21.687  1.00  0.00    -0.299 OA
BRANCH  13  15
ATOM     15  C   UNL     1      -7.580  32.526  21.877  1.00  0.00     0.106 CG0
ATOM     16  G   UNL     1      -8.449  31.311  21.593  1.00  0.00     0.000 G0
ENDBRANCH  13  15
ENDBRANCH  12  13
BRANCH  12  17
ATOM     17  C   UNL     1      -7.928  34.209  24.875  1.00  0.00    -0.006 C 
ATOM     18  C   UNL     1      -8.448  35.315  25.810  1.00  0.00     0.008 C 
ATOM     19  C   UNL     1      -6.602  34.675  24.245  1.00  0.00     0.008 C 
ENDBRANCH  12  17
ENDBRANCH  11  12
ENDBRANCH   1  11
TORSDOF 1
ENDMDL
