MODEL 1
REMARK VINA RESULT:    -3.824      0.000      0.000
REMARK INTER + INTRA:          -4.322
REMARK INTER:                  -4.271
REMARK INTRA:                  -0.051
REMARK UNBOUND:                -0.051
REMARK SMILES COc1cc2ccc(=O)oc2c(O)c1O
REMARK SMILES IDX 3 1 14 2 12 3 11 4 5 5 4 6 6 7 7 8 8 9 9 10 10 11 2 12 1 13
REMARK SMILES IDX 15 14 13 16
REMARK H PARENT 15 15 13 17
REMARK Flexibility Score: inf
ROOT
ATOM      1  C   UNL     1      -7.583  -3.877 -13.561  1.00  0.00     0.165 A 
ATOM      2  C   UNL     1      -6.375  -4.564 -13.763  1.00  0.00     0.204 A 
ATOM      3  C   UNL     1      -6.314  -5.961 -13.606  1.00  0.00     0.205 A 
ATOM      4  C   UNL     1      -7.468  -6.674 -13.242  1.00  0.00     0.184 A 
ATOM      5  C   UNL     1      -8.682  -5.985 -13.037  1.00  0.00     0.025 A 
ATOM      6  C   UNL     1      -8.737  -4.594 -13.196  1.00  0.00     0.062 A 
ATOM      7  C   UNL     1      -9.817  -6.721 -12.676  1.00  0.00     0.020 A 
ATOM      8  C   UNL     1      -9.717  -8.103 -12.528  1.00  0.00     0.094 A 
ATOM      9  C   UNL     1      -8.482  -8.720 -12.746  1.00  0.00     0.336 A 
ATOM     10  O   UNL     1      -8.371  -9.968 -12.619  1.00  0.00    -0.246 OA
ATOM     11  O   UNL     1      -7.421  -7.996 -13.089  1.00  0.00    -0.419 OA
ENDROOT
BRANCH   1  12
ATOM     12  O   UNL     1      -7.593  -2.484 -13.731  1.00  0.00    -0.493 OA
ATOM     13  C   UNL     1      -8.767  -1.679 -13.725  1.00  0.00     0.278 C 
ENDBRANCH   1  12
BRANCH   2  14
ATOM     14  O   UNL     1      -5.238  -3.839 -14.125  1.00  0.00    -0.502 OA
ATOM     15  H   UNL     1      -4.490  -3.644 -13.471  1.00  0.00     0.293 HD
ENDBRANCH   2  14
BRANCH   3  16
ATOM     16  O   UNL     1      -5.104  -6.625 -13.812  1.00  0.00    -0.502 OA
ATOM     17  H   UNL     1      -4.367  -6.241 -14.391  1.00  0.00     0.293 HD
ENDBRANCH   3  16
TORSDOF 3
ENDMDL
MODEL 2
REMARK VINA RESULT:    -3.057     15.315     15.844
REMARK INTER + INTRA:          -3.465
REMARK INTER:                  -3.660
REMARK INTRA:                   0.195
REMARK UNBOUND:                -0.051
REMARK SMILES COc1cc2ccc(=O)oc2c(O)c1O
REMARK SMILES IDX 3 1 14 2 12 3 11 4 5 5 4 6 6 7 7 8 8 9 9 10 10 11 2 12 1 13
REMARK SMILES IDX 15 14 13 16
REMARK H PARENT 15 15 13 17
REMARK Flexibility Score: inf
ROOT
ATOM      1  C   UNL     1      -9.432   7.928  -6.969  1.00  0.00     0.165 A 
ATOM      2  C   UNL     1      -8.029   7.924  -6.938  1.00  0.00     0.204 A 
ATOM      3  C   UNL     1      -7.290   8.382  -8.045  1.00  0.00     0.205 A 
ATOM      4  C   UNL     1      -7.960   8.844  -9.189  1.00  0.00     0.184 A 
ATOM      5  C   UNL     1      -9.371   8.847  -9.222  1.00  0.00     0.025 A 
ATOM      6  C   UNL     1     -10.101   8.391  -8.117  1.00  0.00     0.062 A 
ATOM      7  C   UNL     1     -10.012   9.314 -10.375  1.00  0.00     0.020 A 
ATOM      8  C   UNL     1      -9.247   9.759 -11.452  1.00  0.00     0.094 A 
ATOM      9  C   UNL     1      -7.853   9.727 -11.350  1.00  0.00     0.336 A 
ATOM     10  O   UNL     1      -7.143  10.125 -12.311  1.00  0.00    -0.246 OA
ATOM     11  O   UNL     1      -7.270   9.279 -10.242  1.00  0.00    -0.419 OA
ENDROOT
BRANCH   1  12
ATOM     12  O   UNL     1     -10.125   7.462  -5.840  1.00  0.00    -0.493 OA
ATOM     13  C   UNL     1     -10.118   8.100  -4.568  1.00  0.00     0.278 C 
ENDBRANCH   1  12
BRANCH   2  14
ATOM     14  O   UNL     1      -7.380   7.461  -5.792  1.00  0.00    -0.502 OA
ATOM     15  H   UNL     1      -6.859   8.077  -5.179  1.00  0.00     0.293 HD
ENDBRANCH   2  14
BRANCH   3  16
ATOM     16  O   UNL     1      -5.895   8.371  -7.994  1.00  0.00    -0.502 OA
ATOM     17  H   UNL     1      -5.370   9.003  -7.402  1.00  0.00     0.293 HD
ENDBRANCH   3  16
TORSDOF 3
ENDMDL
MODEL 3
REMARK VINA RESULT:    -2.935     16.718     17.755
REMARK INTER + INTRA:          -3.329
REMARK INTER:                  -3.264
REMARK INTRA:                  -0.065
REMARK UNBOUND:                -0.051
REMARK SMILES COc1cc2ccc(=O)oc2c(O)c1O
REMARK SMILES IDX 3 1 14 2 12 3 11 4 5 5 4 6 6 7 7 8 8 9 9 10 10 11 2 12 1 13
REMARK SMILES IDX 15 14 13 16
REMARK H PARENT 15 15 13 17
REMARK Flexibility Score: inf
ROOT
ATOM      1  C   UNL     1      -9.239  -7.582   3.417  1.00  0.00     0.165 A 
ATOM      2  C   UNL     1      -9.591  -6.833   2.283  1.00  0.00     0.204 A 
ATOM      3  C   UNL     1      -9.771  -5.441   2.375  1.00  0.00     0.205 A 
ATOM      4  C   UNL     1      -9.600  -4.795   3.610  1.00  0.00     0.184 A 
ATOM      5  C   UNL     1      -9.247  -5.546   4.752  1.00  0.00     0.025 A 
ATOM      6  C   UNL     1      -9.069  -6.932   4.653  1.00  0.00     0.062 A 
ATOM      7  C   UNL     1      -9.082  -4.877   5.969  1.00  0.00     0.020 A 
ATOM      8  C   UNL     1      -9.270  -3.496   6.022  1.00  0.00     0.094 A 
ATOM      9  C   UNL     1      -9.619  -2.815   4.852  1.00  0.00     0.336 A 
ATOM     10  O   UNL     1      -9.793  -1.569   4.878  1.00  0.00    -0.246 OA
ATOM     11  O   UNL     1      -9.768  -3.477   3.709  1.00  0.00    -0.419 OA
ENDROOT
BRANCH   1  12
ATOM     12  O   UNL     1      -9.070  -8.969   3.274  1.00  0.00    -0.493 OA
ATOM     13  C   UNL     1      -7.813  -9.616   3.113  1.00  0.00     0.278 C 
ENDBRANCH   1  12
BRANCH   2  14
ATOM     14  O   UNL     1      -9.757  -7.492   1.063  1.00  0.00    -0.502 OA
ATOM     15  H   UNL     1      -8.972  -7.758   0.481  1.00  0.00     0.293 HD
ENDBRANCH   2  14
BRANCH   3  16
ATOM     16  O   UNL     1     -10.120  -4.714   1.236  1.00  0.00    -0.502 OA
ATOM     17  H   UNL     1     -10.790  -5.058   0.558  1.00  0.00     0.293 HD
ENDBRANCH   3  16
TORSDOF 3
ENDMDL
MODEL 4
REMARK VINA RESULT:    -2.464     16.737     17.252
REMARK INTER + INTRA:          -2.803
REMARK INTER:                  -2.749
REMARK INTRA:                  -0.054
REMARK UNBOUND:                -0.051
REMARK SMILES COc1cc2ccc(=O)oc2c(O)c1O
REMARK SMILES IDX 3 1 14 2 12 3 11 4 5 5 4 6 6 7 7 8 8 9 9 10 10 11 2 12 1 13
REMARK SMILES IDX 15 14 13 16
REMARK H PARENT 15 15 13 17
REMARK Flexibility Score: inf
ROOT
ATOM      1  C   UNL     1      -9.738  -4.058   3.854  1.00  0.00     0.165 A 
ATOM      2  C   UNL     1      -9.740  -4.653   2.583  1.00  0.00     0.204 A 
ATOM      3  C   UNL     1      -9.361  -5.999   2.425  1.00  0.00     0.205 A 
ATOM      4  C   UNL     1      -8.977  -6.753   3.546  1.00  0.00     0.184 A 
ATOM      5  C   UNL     1      -8.974  -6.156   4.825  1.00  0.00     0.025 A 
ATOM      6  C   UNL     1      -9.353  -4.816   4.975  1.00  0.00     0.062 A 
ATOM      7  C   UNL     1      -8.587  -6.930   5.924  1.00  0.00     0.020 A 
ATOM      8  C   UNL     1      -8.217  -8.260   5.729  1.00  0.00     0.094 A 
ATOM      9  C   UNL     1      -8.244  -8.787   4.434  1.00  0.00     0.336 A 
ATOM     10  O   UNL     1      -7.914  -9.985   4.236  1.00  0.00    -0.246 OA
ATOM     11  O   UNL     1      -8.616  -8.028   3.407  1.00  0.00    -0.419 OA
ENDROOT
BRANCH   1  12
ATOM     12  O   UNL     1     -10.125  -2.713   3.961  1.00  0.00    -0.493 OA
ATOM     13  C   UNL     1      -9.224  -1.611   3.944  1.00  0.00     0.278 C 
ENDBRANCH   1  12
BRANCH   2  14
ATOM     14  O   UNL     1     -10.125  -3.889   1.480  1.00  0.00    -0.502 OA
ATOM     15  H   UNL     1     -10.144  -4.266   0.541  1.00  0.00     0.293 HD
ENDBRANCH   2  14
BRANCH   3  16
ATOM     16  O   UNL     1      -9.370  -6.573   1.153  1.00  0.00    -0.502 OA
ATOM     17  H   UNL     1      -8.569  -7.065   0.775  1.00  0.00     0.293 HD
ENDBRANCH   3  16
TORSDOF 3
ENDMDL
MODEL 5
REMARK VINA RESULT:    -2.460     14.761     15.883
REMARK INTER + INTRA:          -2.798
REMARK INTER:                  -3.166
REMARK INTRA:                   0.368
REMARK UNBOUND:                -0.051
REMARK SMILES COc1cc2ccc(=O)oc2c(O)c1O
REMARK SMILES IDX 3 1 14 2 12 3 11 4 5 5 4 6 6 7 7 8 8 9 9 10 10 11 2 12 1 13
REMARK SMILES IDX 15 14 13 16
REMARK H PARENT 15 15 13 17
REMARK Flexibility Score: inf
ROOT
ATOM      1  C   UNL     1      -7.902   7.965  -7.012  1.00  0.00     0.165 A 
ATOM      2  C   UNL     1      -9.013   7.714  -7.832  1.00  0.00     0.204 A 
ATOM      3  C   UNL     1      -9.010   8.116  -9.181  1.00  0.00     0.205 A 
ATOM      4  C   UNL     1      -7.888   8.775  -9.710  1.00  0.00     0.184 A 
ATOM      5  C   UNL     1      -6.771   9.029  -8.888  1.00  0.00     0.025 A 
ATOM      6  C   UNL     1      -6.780   8.625  -7.546  1.00  0.00     0.062 A 
ATOM      7  C   UNL     1      -5.666   9.686  -9.442  1.00  0.00     0.020 A 
ATOM      8  C   UNL     1      -5.700  10.070 -10.781  1.00  0.00     0.094 A 
ATOM      9  C   UNL     1      -6.841   9.787 -11.538  1.00  0.00     0.336 A 
ATOM     10  O   UNL     1      -6.891  10.125 -12.750  1.00  0.00    -0.246 OA
ATOM     11  O   UNL     1      -7.875   9.160 -10.985  1.00  0.00    -0.419 OA
ENDROOT
BRANCH   1  12
ATOM     12  O   UNL     1      -7.952   7.544  -5.674  1.00  0.00    -0.493 OA
ATOM     13  C   UNL     1      -8.980   7.896  -4.755  1.00  0.00     0.278 C 
ENDBRANCH   1  12
BRANCH   2  14
ATOM     14  O   UNL     1     -10.119   7.058  -7.289  1.00  0.00    -0.502 OA
ATOM     15  H   UNL     1     -10.029   6.218  -6.730  1.00  0.00     0.293 HD
ENDBRANCH   2  14
BRANCH   3  16
ATOM     16  O   UNL     1     -10.125   7.857  -9.980  1.00  0.00    -0.502 OA
ATOM     17  H   UNL     1     -10.584   8.581 -10.519  1.00  0.00     0.293 HD
ENDBRANCH   3  16
TORSDOF 3
ENDMDL
MODEL 6
REMARK VINA RESULT:    -2.127     16.461     17.091
REMARK INTER + INTRA:          -2.427
REMARK INTER:                  -2.603
REMARK INTRA:                   0.176
REMARK UNBOUND:                -0.051
REMARK SMILES COc1cc2ccc(=O)oc2c(O)c1O
REMARK SMILES IDX 3 1 14 2 12 3 11 4 5 5 4 6 6 7 7 8 8 9 9 10 10 11 2 12 1 13
REMARK SMILES IDX 15 14 13 16
REMARK H PARENT 15 15 13 17
REMARK Flexibility Score: inf
ROOT
ATOM      1  C   UNL     1      -9.717  -4.922   4.887  1.00  0.00     0.165 A 
ATOM      2  C   UNL     1      -9.908  -4.518   3.555  1.00  0.00     0.204 A 
ATOM      3  C   UNL     1      -9.882  -5.463   2.513  1.00  0.00     0.205 A 
ATOM      4  C   UNL     1      -9.664  -6.819   2.806  1.00  0.00     0.184 A 
ATOM      5  C   UNL     1      -9.471  -7.227   4.143  1.00  0.00     0.025 A 
ATOM      6  C   UNL     1      -9.498  -6.281   5.176  1.00  0.00     0.062 A 
ATOM      7  C   UNL     1      -9.256  -8.584   4.405  1.00  0.00     0.020 A 
ATOM      8  C   UNL     1      -9.237  -9.491   3.346  1.00  0.00     0.094 A 
ATOM      9  C   UNL     1      -9.435  -9.018   2.046  1.00  0.00     0.336 A 
ATOM     10  O   UNL     1      -9.422  -9.820   1.076  1.00  0.00    -0.246 OA
ATOM     11  O   UNL     1      -9.638  -7.722   1.826  1.00  0.00    -0.419 OA
ENDROOT
BRANCH   1  12
ATOM     12  O   UNL     1      -9.751  -3.942   5.891  1.00  0.00    -0.493 OA
ATOM     13  C   UNL     1      -8.778  -2.915   6.051  1.00  0.00     0.278 C 
ENDBRANCH   1  12
BRANCH   2  14
ATOM     14  O   UNL     1     -10.124  -3.166   3.284  1.00  0.00    -0.502 OA
ATOM     15  H   UNL     1     -10.895  -2.649   3.689  1.00  0.00     0.293 HD
ENDBRANCH   2  14
BRANCH   3  16
ATOM     16  O   UNL     1     -10.074  -5.042   1.197  1.00  0.00    -0.502 OA
ATOM     17  H   UNL     1     -10.548  -4.176   0.969  1.00  0.00     0.293 HD
ENDBRANCH   3  16
TORSDOF 3
ENDMDL
MODEL 7
REMARK VINA RESULT:    -1.804     16.834     17.871
REMARK INTER + INTRA:          -2.066
REMARK INTER:                  -2.003
REMARK INTRA:                  -0.063
REMARK UNBOUND:                -0.051
REMARK SMILES COc1cc2ccc(=O)oc2c(O)c1O
REMARK SMILES IDX 3 1 14 2 12 3 11 4 5 5 4 6 6 7 7 8 8 9 9 10 10 11 2 12 1 13
REMARK SMILES IDX 15 14 13 16
REMARK H PARENT 15 15 13 17
REMARK Flexibility Score: inf
ROOT
ATOM      1  C   UNL     1      -8.597  -8.084   2.901  1.00  0.00     0.165 A 
ATOM      2  C   UNL     1      -7.847  -8.016   4.086  1.00  0.00     0.204 A 
ATOM      3  C   UNL     1      -7.857  -6.846   4.869  1.00  0.00     0.205 A 
ATOM      4  C   UNL     1      -8.620  -5.740   4.463  1.00  0.00     0.184 A 
ATOM      5  C   UNL     1      -9.373  -5.807   3.272  1.00  0.00     0.025 A 
ATOM      6  C   UNL     1      -9.361  -6.973   2.497  1.00  0.00     0.062 A 
ATOM      7  C   UNL     1     -10.125  -4.689   2.892  1.00  0.00     0.020 A 
ATOM      8  C   UNL     1     -10.109  -3.548   3.693  1.00  0.00     0.094 A 
ATOM      9  C   UNL     1      -9.339  -3.552   4.860  1.00  0.00     0.336 A 
ATOM     10  O   UNL     1      -9.311  -2.532   5.598  1.00  0.00    -0.246 OA
ATOM     11  O   UNL     1      -8.635  -4.628   5.197  1.00  0.00    -0.419 OA
ENDROOT
BRANCH   1  12
ATOM     12  O   UNL     1      -8.556  -9.272   2.154  1.00  0.00    -0.493 OA
ATOM     13  C   UNL     1      -9.701 -10.030   1.780  1.00  0.00     0.278 C 
ENDBRANCH   1  12
BRANCH   2  14
ATOM     14  O   UNL     1      -7.095  -9.126   4.474  1.00  0.00    -0.502 OA
ATOM     15  H   UNL     1      -6.102  -9.067   4.662  1.00  0.00     0.293 HD
ENDBRANCH   2  14
BRANCH   3  16
ATOM     16  O   UNL     1      -7.105  -6.799   6.044  1.00  0.00    -0.502 OA
ATOM     17  H   UNL     1      -7.534  -6.728   6.959  1.00  0.00     0.293 HD
ENDBRANCH   3  16
TORSDOF 3
ENDMDL
