MODEL 1
REMARK VINA RESULT:    -3.827      0.000      0.000
REMARK INTER + INTRA:          -5.612
REMARK INTER:                  -5.394
REMARK INTRA:                  -0.219
REMARK UNBOUND:                -0.219
REMARK SMILES CCCCCCCCC(=O)[O-]
REMARK SMILES IDX 6 1 7 2 8 3 9 4 10 5 11 6 5 7 4 8 3 9 2 10 1 11
REMARK H PARENT
REMARK Flexibility Score: inf
ROOT
ATOM      1  C   UNL     1     -34.530 -53.148  27.389  1.00  0.00     0.000 C 
ENDROOT
BRANCH   1   2
ATOM      2  C   UNL     1     -34.791 -52.774  28.858  1.00  0.00     0.006 C 
BRANCH   2   3
ATOM      3  C   UNL     1     -34.737 -53.996  29.786  1.00  0.00     0.053 C 
BRANCH   3   4
ATOM      4  C   UNL     1     -35.751 -55.031  29.404  1.00  0.00     0.041 C 
ATOM      5  O   UNL     1     -35.378 -56.157  28.982  1.00  0.00    -0.550 OA
ATOM      6  O   UNL     1     -37.107 -54.741  29.486  1.00  0.00    -0.550 OA
ENDBRANCH   3   4
ENDBRANCH   2   3
ENDBRANCH   1   2
BRANCH   1   7
ATOM      7  C   UNL     1     -34.034 -51.957  26.553  1.00  0.00     0.000 C 
BRANCH   7   8
ATOM      8  C   UNL     1     -34.344 -52.117  25.054  1.00  0.00    -0.000 C 
BRANCH   8   9
ATOM      9  C   UNL     1     -34.010 -50.854  24.245  1.00  0.00    -0.000 C 
BRANCH   9  10
ATOM     10  C   UNL     1     -35.259 -50.034  23.884  1.00  0.00    -0.003 C 
ATOM     11  C   UNL     1     -34.961 -48.537  23.916  1.00  0.00     0.004 C 
ENDBRANCH   9  10
ENDBRANCH   8   9
ENDBRANCH   7   8
ENDBRANCH   1   7
TORSDOF 7
ENDMDL
MODEL 2
REMARK VINA RESULT:    -3.819      3.611      6.883
REMARK INTER + INTRA:          -5.600
REMARK INTER:                  -5.347
REMARK INTRA:                  -0.253
REMARK UNBOUND:                -0.219
REMARK SMILES CCCCCCCCC(=O)[O-]
REMARK SMILES IDX 6 1 7 2 8 3 9 4 10 5 11 6 5 7 4 8 3 9 2 10 1 11
REMARK H PARENT
REMARK Flexibility Score: inf
ROOT
ATOM      1  C   UNL     1     -33.838 -53.948  30.780  1.00  0.00     0.000 C 
ENDROOT
BRANCH   1   2
ATOM      2  C   UNL     1     -33.332 -54.138  29.339  1.00  0.00     0.006 C 
BRANCH   2   3
ATOM      3  C   UNL     1     -34.471 -54.072  28.312  1.00  0.00     0.053 C 
BRANCH   3   4
ATOM      4  C   UNL     1     -35.504 -55.130  28.554  1.00  0.00     0.041 C 
ATOM      5  O   UNL     1     -36.696 -54.806  28.798  1.00  0.00    -0.550 OA
ATOM      6  O   UNL     1     -35.144 -56.471  28.540  1.00  0.00    -0.550 OA
ENDBRANCH   3   4
ENDBRANCH   2   3
ENDBRANCH   1   2
BRANCH   1   7
ATOM      7  C   UNL     1     -32.888 -53.094  31.634  1.00  0.00     0.000 C 
BRANCH   7   8
ATOM      8  C   UNL     1     -33.081 -53.324  33.143  1.00  0.00    -0.000 C 
BRANCH   8   9
ATOM      9  C   UNL     1     -31.804 -53.833  33.830  1.00  0.00    -0.000 C 
BRANCH   9  10
ATOM     10  C   UNL     1     -30.636 -52.840  33.722  1.00  0.00    -0.003 C 
ATOM     11  C   UNL     1     -29.327 -53.480  34.175  1.00  0.00     0.004 C 
ENDBRANCH   9  10
ENDBRANCH   8   9
ENDBRANCH   7   8
ENDBRANCH   1   7
TORSDOF 7
ENDMDL
MODEL 3
REMARK VINA RESULT:    -3.758      1.127      1.312
REMARK INTER + INTRA:          -5.515
REMARK INTER:                  -5.315
REMARK INTRA:                  -0.199
REMARK UNBOUND:                -0.219
REMARK SMILES CCCCCCCCC(=O)[O-]
REMARK SMILES IDX 6 1 7 2 8 3 9 4 10 5 11 6 5 7 4 8 3 9 2 10 1 11
REMARK H PARENT
REMARK Flexibility Score: inf
ROOT
ATOM      1  C   UNL     1     -34.550 -53.280  27.302  1.00  0.00     0.000 C 
ENDROOT
BRANCH   1   2
ATOM      2  C   UNL     1     -35.628 -53.012  28.368  1.00  0.00     0.006 C 
BRANCH   2   3
ATOM      3  C   UNL     1     -36.298 -54.306  28.852  1.00  0.00     0.053 C 
BRANCH   3   4
ATOM      4  C   UNL     1     -35.292 -55.316  29.314  1.00  0.00     0.041 C 
ATOM      5  O   UNL     1     -34.555 -55.067  30.304  1.00  0.00    -0.550 OA
ATOM      6  O   UNL     1     -35.149 -56.518  28.633  1.00  0.00    -0.550 OA
ENDBRANCH   3   4
ENDBRANCH   2   3
ENDBRANCH   1   2
BRANCH   1   7
ATOM      7  C   UNL     1     -34.144 -52.010  26.538  1.00  0.00     0.000 C 
BRANCH   7   8
ATOM      8  C   UNL     1     -34.275 -52.170  25.013  1.00  0.00    -0.000 C 
BRANCH   8   9
ATOM      9  C   UNL     1     -33.580 -51.038  24.239  1.00  0.00    -0.000 C 
BRANCH   9  10
ATOM     10  C   UNL     1     -34.530 -49.876  23.910  1.00  0.00    -0.003 C 
ATOM     11  C   UNL     1     -33.828 -48.816  23.064  1.00  0.00     0.004 C 
ENDBRANCH   9  10
ENDBRANCH   8   9
ENDBRANCH   7   8
ENDBRANCH   1   7
TORSDOF 7
ENDMDL
MODEL 4
REMARK VINA RESULT:    -3.704      4.258      6.892
REMARK INTER + INTRA:          -5.438
REMARK INTER:                  -5.219
REMARK INTRA:                  -0.218
REMARK UNBOUND:                -0.219
REMARK SMILES CCCCCCCCC(=O)[O-]
REMARK SMILES IDX 6 1 7 2 8 3 9 4 10 5 11 6 5 7 4 8 3 9 2 10 1 11
REMARK H PARENT
REMARK Flexibility Score: inf
ROOT
ATOM      1  C   UNL     1     -33.047 -53.201  31.506  1.00  0.00     0.000 C 
ENDROOT
BRANCH   1   2
ATOM      2  C   UNL     1     -33.847 -54.343  30.855  1.00  0.00     0.006 C 
BRANCH   2   3
ATOM      3  C   UNL     1     -34.799 -53.835  29.763  1.00  0.00     0.053 C 
BRANCH   3   4
ATOM      4  C   UNL     1     -35.741 -54.905  29.301  1.00  0.00     0.041 C 
ATOM      5  O   UNL     1     -36.984 -54.749  29.426  1.00  0.00    -0.550 OA
ATOM      6  O   UNL     1     -35.245 -56.084  28.762  1.00  0.00    -0.550 OA
ENDBRANCH   3   4
ENDBRANCH   2   3
ENDBRANCH   1   2
BRANCH   1   7
ATOM      7  C   UNL     1     -33.114 -53.231  33.041  1.00  0.00     0.000 C 
BRANCH   7   8
ATOM      8  C   UNL     1     -31.738 -53.025  33.697  1.00  0.00    -0.000 C 
BRANCH   8   9
ATOM      9  C   UNL     1     -31.589 -51.633  34.332  1.00  0.00    -0.000 C 
BRANCH   9  10
ATOM     10  C   UNL     1     -32.869 -50.791  34.220  1.00  0.00    -0.003 C 
ATOM     11  C   UNL     1     -32.993 -49.822  35.394  1.00  0.00     0.004 C 
ENDBRANCH   9  10
ENDBRANCH   8   9
ENDBRANCH   7   8
ENDBRANCH   1   7
TORSDOF 7
ENDMDL
MODEL 5
REMARK VINA RESULT:    -3.664      8.957     10.554
REMARK INTER + INTRA:          -5.382
REMARK INTER:                  -4.971
REMARK INTRA:                  -0.410
REMARK UNBOUND:                -0.219
REMARK SMILES CCCCCCCCC(=O)[O-]
REMARK SMILES IDX 6 1 7 2 8 3 9 4 10 5 11 6 5 7 4 8 3 9 2 10 1 11
REMARK H PARENT
REMARK Flexibility Score: inf
ROOT
ATOM      1  C   UNL     1     -34.128 -44.845  31.620  1.00  0.00     0.000 C 
ENDROOT
BRANCH   1   2
ATOM      2  C   UNL     1     -35.277 -43.926  31.171  1.00  0.00     0.006 C 
BRANCH   2   3
ATOM      3  C   UNL     1     -35.360 -43.805  29.643  1.00  0.00     0.053 C 
BRANCH   3   4
ATOM      4  C   UNL     1     -36.117 -44.945  29.033  1.00  0.00     0.041 C 
ATOM      5  O   UNL     1     -35.846 -45.331  27.866  1.00  0.00    -0.550 OA
ATOM      6  O   UNL     1     -37.141 -45.560  29.742  1.00  0.00    -0.550 OA
ENDBRANCH   3   4
ENDBRANCH   2   3
ENDBRANCH   1   2
BRANCH   1   7
ATOM      7  C   UNL     1     -34.503 -45.717  32.829  1.00  0.00     0.000 C 
BRANCH   7   8
ATOM      8  C   UNL     1     -33.621 -45.435  34.058  1.00  0.00    -0.000 C 
BRANCH   8   9
ATOM      9  C   UNL     1     -32.782 -44.157  33.901  1.00  0.00    -0.000 C 
BRANCH   9  10
ATOM     10  C   UNL     1     -31.305 -44.369  34.270  1.00  0.00    -0.003 C 
ATOM     11  C   UNL     1     -31.101 -45.709  34.972  1.00  0.00     0.004 C 
ENDBRANCH   9  10
ENDBRANCH   8   9
ENDBRANCH   7   8
ENDBRANCH   1   7
TORSDOF 7
ENDMDL
MODEL 6
REMARK VINA RESULT:    -3.655      5.473      6.809
REMARK INTER + INTRA:          -5.369
REMARK INTER:                  -5.148
REMARK INTRA:                  -0.222
REMARK UNBOUND:                -0.219
REMARK SMILES CCCCCCCCC(=O)[O-]
REMARK SMILES IDX 6 1 7 2 8 3 9 4 10 5 11 6 5 7 4 8 3 9 2 10 1 11
REMARK H PARENT
REMARK Flexibility Score: inf
ROOT
ATOM      1  C   UNL     1     -32.614 -52.795  31.871  1.00  0.00     0.000 C 
ENDROOT
BRANCH   1   2
ATOM      2  C   UNL     1     -32.492 -52.803  33.404  1.00  0.00     0.006 C 
BRANCH   2   3
ATOM      3  C   UNL     1     -31.593 -53.941  33.907  1.00  0.00     0.053 C 
BRANCH   3   4
ATOM      4  C   UNL     1     -30.289 -53.430  34.440  1.00  0.00     0.041 C 
ATOM      5  O   UNL     1     -29.204 -53.938  34.053  1.00  0.00    -0.550 OA
ATOM      6  O   UNL     1     -30.274 -52.413  35.386  1.00  0.00    -0.550 OA
ENDBRANCH   3   4
ENDBRANCH   2   3
ENDBRANCH   1   2
BRANCH   1   7
ATOM      7  C   UNL     1     -33.648 -53.806  31.353  1.00  0.00     0.000 C 
BRANCH   7   8
ATOM      8  C   UNL     1     -33.858 -53.711  29.832  1.00  0.00    -0.000 C 
BRANCH   8   9
ATOM      9  C   UNL     1     -35.336 -53.525  29.451  1.00  0.00    -0.000 C 
BRANCH   9  10
ATOM     10  C   UNL     1     -36.090 -54.859  29.333  1.00  0.00    -0.003 C 
ATOM     11  C   UNL     1     -35.199 -55.942  28.729  1.00  0.00     0.004 C 
ENDBRANCH   9  10
ENDBRANCH   8   9
ENDBRANCH   7   8
ENDBRANCH   1   7
TORSDOF 7
ENDMDL
MODEL 7
REMARK VINA RESULT:    -3.627      1.480      1.980
REMARK INTER + INTRA:          -5.330
REMARK INTER:                  -4.920
REMARK INTRA:                  -0.410
REMARK UNBOUND:                -0.219
REMARK SMILES CCCCCCCCC(=O)[O-]
REMARK SMILES IDX 6 1 7 2 8 3 9 4 10 5 11 6 5 7 4 8 3 9 2 10 1 11
REMARK H PARENT
REMARK Flexibility Score: inf
ROOT
ATOM      1  C   UNL     1     -33.084 -52.657  29.045  1.00  0.00     0.000 C 
ENDROOT
BRANCH   1   2
ATOM      2  C   UNL     1     -33.189 -54.191  28.993  1.00  0.00     0.006 C 
BRANCH   2   3
ATOM      3  C   UNL     1     -34.229 -54.735  29.982  1.00  0.00     0.053 C 
BRANCH   3   4
ATOM      4  C   UNL     1     -35.366 -55.413  29.280  1.00  0.00     0.041 C 
ATOM      5  O   UNL     1     -35.149 -56.411  28.543  1.00  0.00    -0.550 OA
ATOM      6  O   UNL     1     -36.659 -54.925  29.416  1.00  0.00    -0.550 OA
ENDBRANCH   3   4
ENDBRANCH   2   3
ENDBRANCH   1   2
BRANCH   1   7
ATOM      7  C   UNL     1     -33.301 -52.000  27.673  1.00  0.00     0.000 C 
BRANCH   7   8
ATOM      8  C   UNL     1     -34.415 -52.685  26.860  1.00  0.00    -0.000 C 
BRANCH   8   9
ATOM      9  C   UNL     1     -34.382 -52.297  25.373  1.00  0.00    -0.000 C 
BRANCH   9  10
ATOM     10  C   UNL     1     -33.394 -51.158  25.078  1.00  0.00    -0.003 C 
ATOM     11  C   UNL     1     -32.290 -51.621  24.131  1.00  0.00     0.004 C 
ENDBRANCH   9  10
ENDBRANCH   8   9
ENDBRANCH   7   8
ENDBRANCH   1   7
TORSDOF 7
ENDMDL
MODEL 8
REMARK VINA RESULT:    -3.624     11.239     12.034
REMARK INTER + INTRA:          -5.325
REMARK INTER:                  -4.960
REMARK INTRA:                  -0.366
REMARK UNBOUND:                -0.219
REMARK SMILES CCCCCCCCC(=O)[O-]
REMARK SMILES IDX 6 1 7 2 8 3 9 4 10 5 11 6 5 7 4 8 3 9 2 10 1 11
REMARK H PARENT
REMARK Flexibility Score: inf
ROOT
ATOM      1  C   UNL     1     -27.501 -48.034  34.311  1.00  0.00     0.000 C 
ENDROOT
BRANCH   1   2
ATOM      2  C   UNL     1     -26.948 -48.891  35.463  1.00  0.00     0.006 C 
BRANCH   2   3
ATOM      3  C   UNL     1     -25.439 -49.138  35.329  1.00  0.00     0.053 C 
BRANCH   3   4
ATOM      4  C   UNL     1     -25.141 -50.535  34.874  1.00  0.00     0.041 C 
ATOM      5  O   UNL     1     -23.953 -50.953  34.855  1.00  0.00    -0.550 OA
ATOM      6  O   UNL     1     -26.169 -51.362  34.443  1.00  0.00    -0.550 OA
ENDBRANCH   3   4
ENDBRANCH   2   3
ENDBRANCH   1   2
BRANCH   1   7
ATOM      7  C   UNL     1     -28.769 -47.259  34.704  1.00  0.00     0.000 C 
BRANCH   7   8
ATOM      8  C   UNL     1     -29.317 -46.399  33.552  1.00  0.00    -0.000 C 
BRANCH   8   9
ATOM      9  C   UNL     1     -28.954 -44.912  33.702  1.00  0.00    -0.000 C 
BRANCH   9  10
ATOM     10  C   UNL     1     -27.600 -44.565  33.065  1.00  0.00    -0.003 C 
ATOM     11  C   UNL     1     -27.426 -45.275  31.724  1.00  0.00     0.004 C 
ENDBRANCH   9  10
ENDBRANCH   8   9
ENDBRANCH   7   8
ENDBRANCH   1   7
TORSDOF 7
ENDMDL
MODEL 9
REMARK VINA RESULT:    -3.611      8.384      9.778
REMARK INTER + INTRA:          -5.308
REMARK INTER:                  -4.789
REMARK INTRA:                  -0.519
REMARK UNBOUND:                -0.219
REMARK SMILES CCCCCCCCC(=O)[O-]
REMARK SMILES IDX 6 1 7 2 8 3 9 4 10 5 11 6 5 7 4 8 3 9 2 10 1 11
REMARK H PARENT
REMARK Flexibility Score: inf
ROOT
ATOM      1  C   UNL     1     -25.927 -52.151  26.408  1.00  0.00     0.000 C 
ENDROOT
BRANCH   1   2
ATOM      2  C   UNL     1     -26.668 -52.554  25.121  1.00  0.00     0.006 C 
BRANCH   2   3
ATOM      3  C   UNL     1     -27.315 -53.941  25.235  1.00  0.00     0.053 C 
BRANCH   3   4
ATOM      4  C   UNL     1     -27.972 -54.357  23.954  1.00  0.00     0.041 C 
ATOM      5  O   UNL     1     -27.739 -55.494  23.464  1.00  0.00    -0.550 OA
ATOM      6  O   UNL     1     -28.817 -53.480  23.287  1.00  0.00    -0.550 OA
ENDBRANCH   3   4
ENDBRANCH   2   3
ENDBRANCH   1   2
BRANCH   1   7
ATOM      7  C   UNL     1     -24.827 -53.151  26.797  1.00  0.00     0.000 C 
BRANCH   7   8
ATOM      8  C   UNL     1     -24.651 -53.274  28.320  1.00  0.00    -0.000 C 
BRANCH   8   9
ATOM      9  C   UNL     1     -25.670 -54.234  28.956  1.00  0.00    -0.000 C 
BRANCH   9  10
ATOM     10  C   UNL     1     -26.406 -53.608  30.152  1.00  0.00    -0.003 C 
ATOM     11  C   UNL     1     -27.655 -52.858  29.696  1.00  0.00     0.004 C 
ENDBRANCH   9  10
ENDBRANCH   8   9
ENDBRANCH   7   8
ENDBRANCH   1   7
TORSDOF 7
ENDMDL
