MODEL 1
REMARK VINA RESULT:    -3.015      0.000      0.000
REMARK INTER + INTRA:         -10.650
REMARK INTER:                  -6.540
REMARK INTRA:                  -4.110
REMARK UNBOUND:                -4.110
REMARK SMILES CCCCCCCCCCCCCCCCCCCCCC(=O)[O-]
REMARK SMILES IDX 12 1 11 2 10 3 9 4 8 5 7 6 6 7 5 8 4 9 3 10 2 11 1 12 13 13
REMARK SMILES IDX 14 14 15 15 16 16 17 17 18 18 19 19 20 20 21 21 22 22 23 23
REMARK SMILES IDX 24 24
REMARK H PARENT
REMARK Flexibility Score: inf
ROOT
ATOM      1  C   UNL     1      28.058  34.035  53.320  1.00  0.00     0.000 C 
ENDROOT
BRANCH   1   2
ATOM      2  C   UNL     1      29.073  33.723  52.203  1.00  0.00     0.000 C 
BRANCH   2   3
ATOM      3  C   UNL     1      30.357  33.012  52.672  1.00  0.00     0.000 C 
BRANCH   3   4
ATOM      4  C   UNL     1      30.545  31.632  52.021  1.00  0.00    -0.000 C 
BRANCH   4   5
ATOM      5  C   UNL     1      31.332  30.654  52.912  1.00  0.00    -0.000 C 
BRANCH   5   6
ATOM      6  C   UNL     1      32.408  31.309  53.800  1.00  0.00    -0.000 C 
BRANCH   6   7
ATOM      7  C   UNL     1      32.307  30.987  55.304  1.00  0.00    -0.000 C 
BRANCH   7   8
ATOM      8  C   UNL     1      31.952  32.206  56.183  1.00  0.00    -0.000 C 
BRANCH   8   9
ATOM      9  C   UNL     1      30.436  32.438  56.290  1.00  0.00    -0.000 C 
BRANCH   9  10
ATOM     10  C   UNL     1      29.675  31.106  56.269  1.00  0.00    -0.000 C 
BRANCH  10  11
ATOM     11  C   UNL     1      28.479  31.173  55.312  1.00  0.00    -0.003 C 
ATOM     12  C   UNL     1      27.963  29.776  54.978  1.00  0.00     0.004 C 
ENDBRANCH  10  11
ENDBRANCH   9  10
ENDBRANCH   8   9
ENDBRANCH   7   8
ENDBRANCH   6   7
ENDBRANCH   5   6
ENDBRANCH   4   5
ENDBRANCH   3   4
ENDBRANCH   2   3
ENDBRANCH   1   2
BRANCH   1  13
ATOM     13  C   UNL     1      26.577  34.014  52.892  1.00  0.00     0.000 C 
BRANCH  13  14
ATOM     14  C   UNL     1      25.890  32.645  53.077  1.00  0.00     0.000 C 
BRANCH  14  15
ATOM     15  C   UNL     1      25.687  31.897  51.747  1.00  0.00     0.000 C 
BRANCH  15  16
ATOM     16  C   UNL     1      26.829  30.916  51.440  1.00  0.00     0.000 C 
BRANCH  16  17
ATOM     17  C   UNL     1      27.472  31.167  50.064  1.00  0.00     0.000 C 
BRANCH  17  18
ATOM     18  C   UNL     1      27.007  32.498  49.438  1.00  0.00     0.000 C 
BRANCH  18  19
ATOM     19  C   UNL     1      28.041  33.127  48.488  1.00  0.00     0.000 C 
BRANCH  19  20
ATOM     20  C   UNL     1      29.392  32.394  48.502  1.00  0.00     0.006 C 
BRANCH  20  21
ATOM     21  C   UNL     1      30.561  33.340  48.813  1.00  0.00     0.053 C 
BRANCH  21  22
ATOM     22  C   UNL     1      31.120  33.955  47.566  1.00  0.00     0.041 C 
ATOM     23  O   UNL     1      31.696  35.073  47.614  1.00  0.00    -0.550 OA
ATOM     24  O   UNL     1      31.050  33.268  46.361  1.00  0.00    -0.550 OA
ENDBRANCH  21  22
ENDBRANCH  20  21
ENDBRANCH  19  20
ENDBRANCH  18  19
ENDBRANCH  17  18
ENDBRANCH  16  17
ENDBRANCH  15  16
ENDBRANCH  14  15
ENDBRANCH  13  14
ENDBRANCH   1  13
TORSDOF 20
ENDMDL
MODEL 2
REMARK VINA RESULT:    -2.840      3.510      6.850
REMARK INTER + INTRA:         -10.270
REMARK INTER:                  -6.471
REMARK INTRA:                  -3.799
REMARK UNBOUND:                -4.110
REMARK SMILES CCCCCCCCCCCCCCCCCCCCCC(=O)[O-]
REMARK SMILES IDX 12 1 11 2 10 3 9 4 8 5 7 6 6 7 5 8 4 9 3 10 2 11 1 12 13 13
REMARK SMILES IDX 14 14 15 15 16 16 17 17 18 18 19 19 20 20 21 21 22 22 23 23
REMARK SMILES IDX 24 24
REMARK H PARENT
REMARK Flexibility Score: inf
ROOT
ATOM      1  C   UNL     1      31.970  30.438  52.407  1.00  0.00     0.000 C 
ENDROOT
BRANCH   1   2
ATOM      2  C   UNL     1      30.523  30.020  52.728  1.00  0.00     0.000 C 
BRANCH   2   3
ATOM      3  C   UNL     1      29.434  30.859  52.032  1.00  0.00     0.000 C 
BRANCH   3   4
ATOM      4  C   UNL     1      29.999  31.775  50.934  1.00  0.00    -0.000 C 
BRANCH   4   5
ATOM      5  C   UNL     1      29.736  33.267  51.206  1.00  0.00    -0.000 C 
BRANCH   5   6
ATOM      6  C   UNL     1      30.139  33.750  52.613  1.00  0.00    -0.000 C 
BRANCH   6   7
ATOM      7  C   UNL     1      29.014  34.419  53.427  1.00  0.00    -0.000 C 
BRANCH   7   8
ATOM      8  C   UNL     1      27.758  33.539  53.602  1.00  0.00    -0.000 C 
BRANCH   8   9
ATOM      9  C   UNL     1      26.514  34.142  52.932  1.00  0.00    -0.000 C 
BRANCH   9  10
ATOM     10  C   UNL     1      25.478  33.055  52.618  1.00  0.00    -0.000 C 
BRANCH  10  11
ATOM     11  C   UNL     1      25.952  32.162  51.465  1.00  0.00    -0.003 C 
ATOM     12  C   UNL     1      26.191  32.980  50.199  1.00  0.00     0.004 C 
ENDBRANCH  10  11
ENDBRANCH   9  10
ENDBRANCH   8   9
ENDBRANCH   7   8
ENDBRANCH   6   7
ENDBRANCH   5   6
ENDBRANCH   4   5
ENDBRANCH   3   4
ENDBRANCH   2   3
ENDBRANCH   1   2
BRANCH   1  13
ATOM     13  C   UNL     1      32.817  30.872  53.621  1.00  0.00     0.000 C 
BRANCH  13  14
ATOM     14  C   UNL     1      32.059  30.826  54.964  1.00  0.00     0.000 C 
BRANCH  14  15
ATOM     15  C   UNL     1      31.847  32.223  55.574  1.00  0.00     0.000 C 
BRANCH  15  16
ATOM     16  C   UNL     1      30.440  32.402  56.167  1.00  0.00     0.000 C 
BRANCH  16  17
ATOM     17  C   UNL     1      29.781  31.062  56.541  1.00  0.00     0.000 C 
BRANCH  17  18
ATOM     18  C   UNL     1      28.353  30.936  55.970  1.00  0.00     0.000 C 
BRANCH  18  19
ATOM     19  C   UNL     1      27.589  29.705  56.486  1.00  0.00     0.000 C 
BRANCH  19  20
ATOM     20  C   UNL     1      26.071  29.808  56.272  1.00  0.00     0.006 C 
BRANCH  20  21
ATOM     21  C   UNL     1      25.700  29.893  54.785  1.00  0.00     0.053 C 
BRANCH  21  22
ATOM     22  C   UNL     1      24.261  30.272  54.596  1.00  0.00     0.041 C 
ATOM     23  O   UNL     1      23.659  30.934  55.481  1.00  0.00    -0.550 OA
ATOM     24  O   UNL     1      23.604  29.937  53.420  1.00  0.00    -0.550 OA
ENDBRANCH  21  22
ENDBRANCH  20  21
ENDBRANCH  19  20
ENDBRANCH  18  19
ENDBRANCH  17  18
ENDBRANCH  16  17
ENDBRANCH  15  16
ENDBRANCH  14  15
ENDBRANCH  13  14
ENDBRANCH   1  13
TORSDOF 20
ENDMDL
MODEL 3
REMARK VINA RESULT:    -2.839      3.753      7.072
REMARK INTER + INTRA:         -10.269
REMARK INTER:                  -6.505
REMARK INTRA:                  -3.763
REMARK UNBOUND:                -4.110
REMARK SMILES CCCCCCCCCCCCCCCCCCCCCC(=O)[O-]
REMARK SMILES IDX 12 1 11 2 10 3 9 4 8 5 7 6 6 7 5 8 4 9 3 10 2 11 1 12 13 13
REMARK SMILES IDX 14 14 15 15 16 16 17 17 18 18 19 19 20 20 21 21 22 22 23 23
REMARK SMILES IDX 24 24
REMARK H PARENT
REMARK Flexibility Score: inf
ROOT
ATOM      1  C   UNL     1      27.299  34.261  53.183  1.00  0.00     0.000 C 
ENDROOT
BRANCH   1   2
ATOM      2  C   UNL     1      25.881  33.885  52.713  1.00  0.00     0.000 C 
BRANCH   2   3
ATOM      3  C   UNL     1      25.666  32.385  52.434  1.00  0.00     0.000 C 
BRANCH   3   4
ATOM      4  C   UNL     1      25.467  32.079  50.941  1.00  0.00    -0.000 C 
BRANCH   4   5
ATOM      5  C   UNL     1      25.405  33.349  50.073  1.00  0.00    -0.000 C 
BRANCH   5   6
ATOM      6  C   UNL     1      26.501  33.452  48.995  1.00  0.00    -0.000 C 
BRANCH   6   7
ATOM      7  C   UNL     1      27.516  32.292  48.975  1.00  0.00    -0.000 C 
BRANCH   7   8
ATOM      8  C   UNL     1      28.990  32.750  49.021  1.00  0.00    -0.000 C 
BRANCH   8   9
ATOM      9  C   UNL     1      29.978  31.577  48.919  1.00  0.00    -0.000 C 
BRANCH   9  10
ATOM     10  C   UNL     1      30.419  31.107  50.311  1.00  0.00    -0.000 C 
BRANCH  10  11
ATOM     11  C   UNL     1      29.774  29.762  50.667  1.00  0.00    -0.003 C 
ATOM     12  C   UNL     1      28.665  29.941  51.700  1.00  0.00     0.004 C 
ENDBRANCH  10  11
ENDBRANCH   9  10
ENDBRANCH   8   9
ENDBRANCH   7   8
ENDBRANCH   6   7
ENDBRANCH   5   6
ENDBRANCH   4   5
ENDBRANCH   3   4
ENDBRANCH   2   3
ENDBRANCH   1   2
BRANCH   1  13
ATOM     13  C   UNL     1      28.427  33.329  52.695  1.00  0.00     0.000 C 
BRANCH  13  14
ATOM     14  C   UNL     1      29.747  34.059  52.369  1.00  0.00     0.000 C 
BRANCH  14  15
ATOM     15  C   UNL     1      30.798  33.913  53.483  1.00  0.00     0.000 C 
BRANCH  15  16
ATOM     16  C   UNL     1      31.436  32.515  53.514  1.00  0.00     0.000 C 
BRANCH  16  17
ATOM     17  C   UNL     1      31.354  31.858  54.904  1.00  0.00     0.000 C 
BRANCH  17  18
ATOM     18  C   UNL     1      30.192  30.850  55.005  1.00  0.00     0.000 C 
BRANCH  18  19
ATOM     19  C   UNL     1      28.967  31.394  55.760  1.00  0.00     0.000 C 
BRANCH  19  20
ATOM     20  C   UNL     1      27.648  30.749  55.307  1.00  0.00     0.006 C 
BRANCH  20  21
ATOM     21  C   UNL     1      26.948  29.997  56.448  1.00  0.00     0.053 C 
BRANCH  21  22
ATOM     22  C   UNL     1      25.489  29.802  56.166  1.00  0.00     0.041 C 
ATOM     23  O   UNL     1      24.881  30.589  55.395  1.00  0.00    -0.550 OA
ATOM     24  O   UNL     1      24.814  28.719  56.715  1.00  0.00    -0.550 OA
ENDBRANCH  21  22
ENDBRANCH  20  21
ENDBRANCH  19  20
ENDBRANCH  18  19
ENDBRANCH  17  18
ENDBRANCH  16  17
ENDBRANCH  15  16
ENDBRANCH  14  15
ENDBRANCH  13  14
ENDBRANCH   1  13
TORSDOF 20
ENDMDL
MODEL 4
REMARK VINA RESULT:    -2.830      4.891      6.912
REMARK INTER + INTRA:         -10.249
REMARK INTER:                  -6.623
REMARK INTRA:                  -3.626
REMARK UNBOUND:                -4.110
REMARK SMILES CCCCCCCCCCCCCCCCCCCCCC(=O)[O-]
REMARK SMILES IDX 12 1 11 2 10 3 9 4 8 5 7 6 6 7 5 8 4 9 3 10 2 11 1 12 13 13
REMARK SMILES IDX 14 14 15 15 16 16 17 17 18 18 19 19 20 20 21 21 22 22 23 23
REMARK SMILES IDX 24 24
REMARK H PARENT
REMARK Flexibility Score: inf
ROOT
ATOM      1  C   UNL     1      30.696  33.652  53.262  1.00  0.00     0.000 C 
ENDROOT
BRANCH   1   2
ATOM      2  C   UNL     1      30.588  34.344  54.634  1.00  0.00     0.000 C 
BRANCH   2   3
ATOM      3  C   UNL     1      31.112  33.516  55.823  1.00  0.00     0.000 C 
BRANCH   3   4
ATOM      4  C   UNL     1      30.726  32.030  55.729  1.00  0.00    -0.000 C 
BRANCH   4   5
ATOM      5  C   UNL     1      29.376  31.719  56.401  1.00  0.00    -0.000 C 
BRANCH   5   6
ATOM      6  C   UNL     1      28.291  31.175  55.451  1.00  0.00    -0.000 C 
BRANCH   6   7
ATOM      7  C   UNL     1      28.817  30.461  54.190  1.00  0.00    -0.000 C 
BRANCH   7   8
ATOM      8  C   UNL     1      27.930  29.289  53.717  1.00  0.00    -0.000 C 
BRANCH   8   9
ATOM      9  C   UNL     1      28.054  28.051  54.620  1.00  0.00    -0.000 C 
BRANCH   9  10
ATOM     10  C   UNL     1      26.714  27.723  55.289  1.00  0.00    -0.000 C 
BRANCH  10  11
ATOM     11  C   UNL     1      26.678  28.242  56.731  1.00  0.00    -0.003 C 
ATOM     12  C   UNL     1      27.993  27.959  57.450  1.00  0.00     0.004 C 
ENDBRANCH  10  11
ENDBRANCH   9  10
ENDBRANCH   8   9
ENDBRANCH   7   8
ENDBRANCH   6   7
ENDBRANCH   5   6
ENDBRANCH   4   5
ENDBRANCH   3   4
ENDBRANCH   2   3
ENDBRANCH   1   2
BRANCH   1  13
ATOM     13  C   UNL     1      29.436  33.737  52.378  1.00  0.00     0.000 C 
BRANCH  13  14
ATOM     14  C   UNL     1      28.127  33.943  53.170  1.00  0.00     0.000 C 
BRANCH  14  15
ATOM     15  C   UNL     1      26.872  33.641  52.332  1.00  0.00     0.000 C 
BRANCH  15  16
ATOM     16  C   UNL     1      25.859  32.761  53.081  1.00  0.00     0.000 C 
BRANCH  16  17
ATOM     17  C   UNL     1      25.233  31.681  52.179  1.00  0.00     0.000 C 
BRANCH  17  18
ATOM     18  C   UNL     1      24.584  30.545  52.996  1.00  0.00     0.000 C 
BRANCH  18  19
ATOM     19  C   UNL     1      24.599  30.792  54.515  1.00  0.00     0.000 C 
BRANCH  19  20
ATOM     20  C   UNL     1      23.670  29.840  55.286  1.00  0.00     0.006 C 
BRANCH  20  21
ATOM     21  C   UNL     1      23.126  30.478  56.572  1.00  0.00     0.053 C 
BRANCH  21  22
ATOM     22  C   UNL     1      21.673  30.164  56.772  1.00  0.00     0.041 C 
ATOM     23  O   UNL     1      21.160  30.244  57.918  1.00  0.00    -0.550 OA
ATOM     24  O   UNL     1      20.878  29.833  55.682  1.00  0.00    -0.550 OA
ENDBRANCH  21  22
ENDBRANCH  20  21
ENDBRANCH  19  20
ENDBRANCH  18  19
ENDBRANCH  17  18
ENDBRANCH  16  17
ENDBRANCH  15  16
ENDBRANCH  14  15
ENDBRANCH  13  14
ENDBRANCH   1  13
TORSDOF 20
ENDMDL
MODEL 5
REMARK VINA RESULT:    -2.820      3.686      7.404
REMARK INTER + INTRA:         -10.228
REMARK INTER:                  -6.213
REMARK INTRA:                  -4.015
REMARK UNBOUND:                -4.110
REMARK SMILES CCCCCCCCCCCCCCCCCCCCCC(=O)[O-]
REMARK SMILES IDX 12 1 11 2 10 3 9 4 8 5 7 6 6 7 5 8 4 9 3 10 2 11 1 12 13 13
REMARK SMILES IDX 14 14 15 15 16 16 17 17 18 18 19 19 20 20 21 21 22 22 23 23
REMARK SMILES IDX 24 24
REMARK H PARENT
REMARK Flexibility Score: inf
ROOT
ATOM      1  C   UNL     1      31.342  30.406  52.566  1.00  0.00     0.000 C 
ENDROOT
BRANCH   1   2
ATOM      2  C   UNL     1      30.387  31.525  52.109  1.00  0.00     0.000 C 
BRANCH   2   3
ATOM      3  C   UNL     1      30.775  32.941  52.576  1.00  0.00     0.000 C 
BRANCH   3   4
ATOM      4  C   UNL     1      29.687  33.986  52.276  1.00  0.00    -0.000 C 
BRANCH   4   5
ATOM      5  C   UNL     1      28.825  34.321  53.506  1.00  0.00    -0.000 C 
BRANCH   5   6
ATOM      6  C   UNL     1      27.306  34.344  53.244  1.00  0.00    -0.000 C 
BRANCH   6   7
ATOM      7  C   UNL     1      26.692  32.999  52.809  1.00  0.00    -0.000 C 
BRANCH   7   8
ATOM      8  C   UNL     1      25.661  33.121  51.666  1.00  0.00    -0.000 C 
BRANCH   8   9
ATOM      9  C   UNL     1      26.055  32.306  50.424  1.00  0.00    -0.000 C 
BRANCH   9  10
ATOM     10  C   UNL     1      26.714  33.201  49.367  1.00  0.00    -0.000 C 
BRANCH  10  11
ATOM     11  C   UNL     1      28.191  32.832  49.178  1.00  0.00    -0.003 C 
ATOM     12  C   UNL     1      28.369  31.321  49.070  1.00  0.00     0.004 C 
ENDBRANCH  10  11
ENDBRANCH   9  10
ENDBRANCH   8   9
ENDBRANCH   7   8
ENDBRANCH   6   7
ENDBRANCH   5   6
ENDBRANCH   4   5
ENDBRANCH   3   4
ENDBRANCH   2   3
ENDBRANCH   1   2
BRANCH   1  13
ATOM     13  C   UNL     1      32.472  30.849  53.516  1.00  0.00     0.000 C 
BRANCH  13  14
ATOM     14  C   UNL     1      32.675  29.916  54.728  1.00  0.00     0.000 C 
BRANCH  14  15
ATOM     15  C   UNL     1      32.193  30.543  56.048  1.00  0.00     0.000 C 
BRANCH  15  16
ATOM     16  C   UNL     1      32.103  32.075  55.976  1.00  0.00     0.000 C 
BRANCH  16  17
ATOM     17  C   UNL     1      30.664  32.593  56.157  1.00  0.00     0.000 C 
BRANCH  17  18
ATOM     18  C   UNL     1      29.684  31.466  56.543  1.00  0.00     0.000 C 
BRANCH  18  19
ATOM     19  C   UNL     1      28.493  31.328  55.580  1.00  0.00     0.000 C 
BRANCH  19  20
ATOM     20  C   UNL     1      28.483  29.986  54.828  1.00  0.00     0.006 C 
BRANCH  20  21
ATOM     21  C   UNL     1      28.848  28.808  55.741  1.00  0.00     0.053 C 
BRANCH  21  22
ATOM     22  C   UNL     1      27.641  28.255  56.437  1.00  0.00     0.041 C 
ATOM     23  O   UNL     1      26.491  28.460  55.969  1.00  0.00    -0.550 OA
ATOM     24  O   UNL     1      27.793  27.470  57.573  1.00  0.00    -0.550 OA
ENDBRANCH  21  22
ENDBRANCH  20  21
ENDBRANCH  19  20
ENDBRANCH  18  19
ENDBRANCH  17  18
ENDBRANCH  16  17
ENDBRANCH  15  16
ENDBRANCH  14  15
ENDBRANCH  13  14
ENDBRANCH   1  13
TORSDOF 20
ENDMDL
MODEL 6
REMARK VINA RESULT:    -2.781      4.517      6.684
REMARK INTER + INTRA:         -10.142
REMARK INTER:                  -6.504
REMARK INTRA:                  -3.638
REMARK UNBOUND:                -4.110
REMARK SMILES CCCCCCCCCCCCCCCCCCCCCC(=O)[O-]
REMARK SMILES IDX 12 1 11 2 10 3 9 4 8 5 7 6 6 7 5 8 4 9 3 10 2 11 1 12 13 13
REMARK SMILES IDX 14 14 15 15 16 16 17 17 18 18 19 19 20 20 21 21 22 22 23 23
REMARK SMILES IDX 24 24
REMARK H PARENT
REMARK Flexibility Score: inf
ROOT
ATOM      1  C   UNL     1      25.622  32.674  51.365  1.00  0.00     0.000 C 
ENDROOT
BRANCH   1   2
ATOM      2  C   UNL     1      25.653  33.454  52.694  1.00  0.00     0.000 C 
BRANCH   2   3
ATOM      3  C   UNL     1      27.026  34.043  53.069  1.00  0.00     0.000 C 
BRANCH   3   4
ATOM      4  C   UNL     1      28.150  33.586  52.124  1.00  0.00    -0.000 C 
BRANCH   4   5
ATOM      5  C   UNL     1      29.555  33.847  52.695  1.00  0.00    -0.000 C 
BRANCH   5   6
ATOM      6  C   UNL     1      29.632  33.883  54.234  1.00  0.00    -0.000 C 
BRANCH   6   7
ATOM      7  C   UNL     1      30.928  33.313  54.843  1.00  0.00    -0.000 C 
BRANCH   7   8
ATOM      8  C   UNL     1      30.711  32.059  55.717  1.00  0.00    -0.000 C 
BRANCH   8   9
ATOM      9  C   UNL     1      31.660  30.908  55.347  1.00  0.00    -0.000 C 
BRANCH   9  10
ATOM     10  C   UNL     1      32.535  31.283  54.144  1.00  0.00    -0.000 C 
BRANCH  10  11
ATOM     11  C   UNL     1      32.396  30.249  53.020  1.00  0.00    -0.003 C 
ATOM     12  C   UNL     1      31.351  30.687  51.998  1.00  0.00     0.004 C 
ENDBRANCH  10  11
ENDBRANCH   9  10
ENDBRANCH   8   9
ENDBRANCH   7   8
ENDBRANCH   6   7
ENDBRANCH   5   6
ENDBRANCH   4   5
ENDBRANCH   3   4
ENDBRANCH   2   3
ENDBRANCH   1   2
BRANCH   1  13
ATOM     13  C   UNL     1      25.040  31.249  51.449  1.00  0.00     0.000 C 
BRANCH  13  14
ATOM     14  C   UNL     1      25.761  30.335  52.462  1.00  0.00     0.000 C 
BRANCH  14  15
ATOM     15  C   UNL     1      27.238  30.096  52.101  1.00  0.00     0.000 C 
BRANCH  15  16
ATOM     16  C   UNL     1      28.133  29.947  53.342  1.00  0.00     0.000 C 
BRANCH  16  17
ATOM     17  C   UNL     1      27.616  30.756  54.546  1.00  0.00     0.000 C 
BRANCH  17  18
ATOM     18  C   UNL     1      27.335  29.862  55.771  1.00  0.00     0.000 C 
BRANCH  18  19
ATOM     19  C   UNL     1      26.032  30.216  56.507  1.00  0.00     0.000 C 
BRANCH  19  20
ATOM     20  C   UNL     1      24.788  29.581  55.864  1.00  0.00     0.006 C 
BRANCH  20  21
ATOM     21  C   UNL     1      23.665  30.604  55.643  1.00  0.00     0.053 C 
BRANCH  21  22
ATOM     22  C   UNL     1      22.375  30.148  56.257  1.00  0.00     0.041 C 
ATOM     23  O   UNL     1      22.373  29.598  57.389  1.00  0.00    -0.550 OA
ATOM     24  O   UNL     1      21.173  30.380  55.602  1.00  0.00    -0.550 OA
ENDBRANCH  21  22
ENDBRANCH  20  21
ENDBRANCH  19  20
ENDBRANCH  18  19
ENDBRANCH  17  18
ENDBRANCH  16  17
ENDBRANCH  15  16
ENDBRANCH  14  15
ENDBRANCH  13  14
ENDBRANCH   1  13
TORSDOF 20
ENDMDL
MODEL 7
REMARK VINA RESULT:    -2.769      3.719      7.341
REMARK INTER + INTRA:         -10.116
REMARK INTER:                  -6.493
REMARK INTRA:                  -3.622
REMARK UNBOUND:                -4.110
REMARK SMILES CCCCCCCCCCCCCCCCCCCCCC(=O)[O-]
REMARK SMILES IDX 12 1 11 2 10 3 9 4 8 5 7 6 6 7 5 8 4 9 3 10 2 11 1 12 13 13
REMARK SMILES IDX 14 14 15 15 16 16 17 17 18 18 19 19 20 20 21 21 22 22 23 23
REMARK SMILES IDX 24 24
REMARK H PARENT
REMARK Flexibility Score: inf
ROOT
ATOM      1  C   UNL     1      29.597  34.083  52.918  1.00  0.00     0.000 C 
ENDROOT
BRANCH   1   2
ATOM      2  C   UNL     1      28.268  33.305  52.961  1.00  0.00     0.000 C 
BRANCH   2   3
ATOM      3  C   UNL     1      27.009  34.178  53.125  1.00  0.00     0.000 C 
BRANCH   3   4
ATOM      4  C   UNL     1      25.715  33.430  52.764  1.00  0.00    -0.000 C 
BRANCH   4   5
ATOM      5  C   UNL     1      25.857  32.566  51.498  1.00  0.00    -0.000 C 
BRANCH   5   6
ATOM      6  C   UNL     1      25.501  33.283  50.181  1.00  0.00    -0.000 C 
BRANCH   6   7
ATOM      7  C   UNL     1      26.616  33.296  49.116  1.00  0.00    -0.000 C 
BRANCH   7   8
ATOM      8  C   UNL     1      27.759  32.295  49.393  1.00  0.00    -0.000 C 
BRANCH   8   9
ATOM      9  C   UNL     1      29.145  32.959  49.372  1.00  0.00    -0.000 C 
BRANCH   9  10
ATOM     10  C   UNL     1      30.189  32.028  48.744  1.00  0.00    -0.000 C 
BRANCH  10  11
ATOM     11  C   UNL     1      30.031  30.594  49.264  1.00  0.00    -0.003 C 
ATOM     12  C   UNL     1      31.325  29.803  49.097  1.00  0.00     0.004 C 
ENDBRANCH  10  11
ENDBRANCH   9  10
ENDBRANCH   8   9
ENDBRANCH   7   8
ENDBRANCH   6   7
ENDBRANCH   5   6
ENDBRANCH   4   5
ENDBRANCH   3   4
ENDBRANCH   2   3
ENDBRANCH   1   2
BRANCH   1  13
ATOM     13  C   UNL     1      30.865  33.217  52.771  1.00  0.00     0.000 C 
BRANCH  13  14
ATOM     14  C   UNL     1      30.580  31.708  52.622  1.00  0.00     0.000 C 
BRANCH  14  15
ATOM     15  C   UNL     1      31.397  30.849  53.604  1.00  0.00     0.000 C 
BRANCH  15  16
ATOM     16  C   UNL     1      31.949  31.664  54.784  1.00  0.00     0.000 C 
BRANCH  16  17
ATOM     17  C   UNL     1      31.218  31.362  56.105  1.00  0.00     0.000 C 
BRANCH  17  18
ATOM     18  C   UNL     1      29.881  32.123  56.219  1.00  0.00     0.000 C 
BRANCH  18  19
ATOM     19  C   UNL     1      28.678  31.214  56.522  1.00  0.00     0.000 C 
BRANCH  19  20
ATOM     20  C   UNL     1      28.256  30.356  55.319  1.00  0.00     0.006 C 
BRANCH  20  21
ATOM     21  C   UNL     1      26.765  30.515  54.989  1.00  0.00     0.053 C 
BRANCH  21  22
ATOM     22  C   UNL     1      25.900  29.821  55.997  1.00  0.00     0.041 C 
ATOM     23  O   UNL     1      26.257  28.717  56.486  1.00  0.00    -0.550 OA
ATOM     24  O   UNL     1      24.725  30.419  56.434  1.00  0.00    -0.550 OA
ENDBRANCH  21  22
ENDBRANCH  20  21
ENDBRANCH  19  20
ENDBRANCH  18  19
ENDBRANCH  17  18
ENDBRANCH  16  17
ENDBRANCH  15  16
ENDBRANCH  14  15
ENDBRANCH  13  14
ENDBRANCH   1  13
TORSDOF 20
ENDMDL
MODEL 8
REMARK VINA RESULT:    -2.739     16.159     18.467
REMARK INTER + INTRA:         -10.052
REMARK INTER:                  -6.079
REMARK INTRA:                  -3.973
REMARK UNBOUND:                -4.110
REMARK SMILES CCCCCCCCCCCCCCCCCCCCCC(=O)[O-]
REMARK SMILES IDX 12 1 11 2 10 3 9 4 8 5 7 6 6 7 5 8 4 9 3 10 2 11 1 12 13 13
REMARK SMILES IDX 14 14 15 15 16 16 17 17 18 18 19 19 20 20 21 21 22 22 23 23
REMARK SMILES IDX 24 24
REMARK H PARENT
REMARK Flexibility Score: inf
ROOT
ATOM      1  C   UNL     1      15.496  18.745  52.789  1.00  0.00     0.000 C 
ENDROOT
BRANCH   1   2
ATOM      2  C   UNL     1      15.942  17.643  51.808  1.00  0.00     0.000 C 
BRANCH   2   3
ATOM      3  C   UNL     1      17.379  17.128  52.019  1.00  0.00     0.000 C 
BRANCH   3   4
ATOM      4  C   UNL     1      18.312  17.471  50.846  1.00  0.00    -0.000 C 
BRANCH   4   5
ATOM      5  C   UNL     1      17.561  18.048  49.632  1.00  0.00    -0.000 C 
BRANCH   5   6
ATOM      6  C   UNL     1      18.069  19.420  49.149  1.00  0.00    -0.000 C 
BRANCH   6   7
ATOM      7  C   UNL     1      18.867  20.231  50.189  1.00  0.00    -0.000 C 
BRANCH   7   8
ATOM      8  C   UNL     1      17.992  21.128  51.090  1.00  0.00    -0.000 C 
BRANCH   8   9
ATOM      9  C   UNL     1      18.481  21.162  52.547  1.00  0.00    -0.000 C 
BRANCH   9  10
ATOM     10  C   UNL     1      19.795  20.385  52.702  1.00  0.00    -0.000 C 
BRANCH  10  11
ATOM     11  C   UNL     1      19.678  19.323  53.802  1.00  0.00    -0.003 C 
ATOM     12  C   UNL     1      18.484  19.602  54.711  1.00  0.00     0.004 C 
ENDBRANCH  10  11
ENDBRANCH   9  10
ENDBRANCH   8   9
ENDBRANCH   7   8
ENDBRANCH   6   7
ENDBRANCH   5   6
ENDBRANCH   4   5
ENDBRANCH   3   4
ENDBRANCH   2   3
ENDBRANCH   1   2
BRANCH   1  13
ATOM     13  C   UNL     1      14.907  20.011  52.136  1.00  0.00     0.000 C 
BRANCH  13  14
ATOM     14  C   UNL     1      13.916  19.723  50.988  1.00  0.00     0.000 C 
BRANCH  14  15
ATOM     15  C   UNL     1      14.444  20.183  49.618  1.00  0.00     0.000 C 
BRANCH  15  16
ATOM     16  C   UNL     1      14.272  19.113  48.529  1.00  0.00     0.000 C 
BRANCH  16  17
ATOM     17  C   UNL     1      13.766  19.698  47.198  1.00  0.00     0.000 C 
BRANCH  17  18
ATOM     18  C   UNL     1      14.583  19.194  45.991  1.00  0.00     0.000 C 
BRANCH  18  19
ATOM     19  C   UNL     1      15.195  17.798  46.201  1.00  0.00     0.000 C 
BRANCH  19  20
ATOM     20  C   UNL     1      16.722  17.780  46.026  1.00  0.00     0.006 C 
BRANCH  20  21
ATOM     21  C   UNL     1      17.279  19.162  45.657  1.00  0.00     0.053 C 
BRANCH  21  22
ATOM     22  C   UNL     1      18.144  19.100  44.434  1.00  0.00     0.041 C 
ATOM     23  O   UNL     1      17.696  19.478  43.320  1.00  0.00    -0.550 OA
ATOM     24  O   UNL     1      19.462  18.673  44.537  1.00  0.00    -0.550 OA
ENDBRANCH  21  22
ENDBRANCH  20  21
ENDBRANCH  19  20
ENDBRANCH  18  19
ENDBRANCH  17  18
ENDBRANCH  16  17
ENDBRANCH  15  16
ENDBRANCH  14  15
ENDBRANCH  13  14
ENDBRANCH   1  13
TORSDOF 20
ENDMDL
MODEL 9
REMARK VINA RESULT:    -2.712      3.345      7.094
REMARK INTER + INTRA:          -9.994
REMARK INTER:                  -6.067
REMARK INTRA:                  -3.927
REMARK UNBOUND:                -4.110
REMARK SMILES CCCCCCCCCCCCCCCCCCCCCC(=O)[O-]
REMARK SMILES IDX 12 1 11 2 10 3 9 4 8 5 7 6 6 7 5 8 4 9 3 10 2 11 1 12 13 13
REMARK SMILES IDX 14 14 15 15 16 16 17 17 18 18 19 19 20 20 21 21 22 22 23 23
REMARK SMILES IDX 24 24
REMARK H PARENT
REMARK Flexibility Score: inf
ROOT
ATOM      1  C   UNL     1      28.333  33.904  53.241  1.00  0.00     0.000 C 
ENDROOT
BRANCH   1   2
ATOM      2  C   UNL     1      26.870  34.377  53.145  1.00  0.00     0.000 C 
BRANCH   2   3
ATOM      3  C   UNL     1      25.889  33.340  52.567  1.00  0.00     0.000 C 
BRANCH   3   4
ATOM      4  C   UNL     1      25.911  32.006  53.333  1.00  0.00    -0.000 C 
BRANCH   4   5
ATOM      5  C   UNL     1      26.430  30.835  52.480  1.00  0.00    -0.000 C 
BRANCH   5   6
ATOM      6  C   UNL     1      26.098  30.931  50.978  1.00  0.00    -0.000 C 
BRANCH   6   7
ATOM      7  C   UNL     1      27.316  30.959  50.034  1.00  0.00    -0.000 C 
BRANCH   7   8
ATOM      8  C   UNL     1      27.330  32.161  49.064  1.00  0.00    -0.000 C 
BRANCH   8   9
ATOM      9  C   UNL     1      28.288  31.955  47.880  1.00  0.00    -0.000 C 
BRANCH   9  10
ATOM     10  C   UNL     1      29.248  33.144  47.739  1.00  0.00    -0.000 C 
BRANCH  10  11
ATOM     11  C   UNL     1      30.642  32.790  48.270  1.00  0.00    -0.003 C 
ATOM     12  C   UNL     1      30.900  31.289  48.180  1.00  0.00     0.004 C 
ENDBRANCH  10  11
ENDBRANCH   9  10
ENDBRANCH   8   9
ENDBRANCH   7   8
ENDBRANCH   6   7
ENDBRANCH   5   6
ENDBRANCH   4   5
ENDBRANCH   3   4
ENDBRANCH   2   3
ENDBRANCH   1   2
BRANCH   1  13
ATOM     13  C   UNL     1      29.032  33.641  51.892  1.00  0.00     0.000 C 
BRANCH  13  14
ATOM     14  C   UNL     1      30.419  32.976  52.022  1.00  0.00     0.000 C 
BRANCH  14  15
ATOM     15  C   UNL     1      30.362  31.446  51.869  1.00  0.00     0.000 C 
BRANCH  15  16
ATOM     16  C   UNL     1      31.450  30.729  52.683  1.00  0.00     0.000 C 
BRANCH  16  17
ATOM     17  C   UNL     1      32.207  31.682  53.626  1.00  0.00     0.000 C 
BRANCH  17  18
ATOM     18  C   UNL     1      31.837  31.452  55.106  1.00  0.00     0.000 C 
BRANCH  18  19
ATOM     19  C   UNL     1      30.946  32.558  55.697  1.00  0.00     0.000 C 
BRANCH  19  20
ATOM     20  C   UNL     1      29.668  32.011  56.355  1.00  0.00     0.006 C 
BRANCH  20  21
ATOM     21  C   UNL     1      28.896  31.066  55.423  1.00  0.00     0.053 C 
BRANCH  21  22
ATOM     22  C   UNL     1      28.067  30.086  56.197  1.00  0.00     0.041 C 
ATOM     23  O   UNL     1      26.811  30.172  56.188  1.00  0.00    -0.550 OA
ATOM     24  O   UNL     1      28.680  29.046  56.883  1.00  0.00    -0.550 OA
ENDBRANCH  21  22
ENDBRANCH  20  21
ENDBRANCH  19  20
ENDBRANCH  18  19
ENDBRANCH  17  18
ENDBRANCH  16  17
ENDBRANCH  15  16
ENDBRANCH  14  15
ENDBRANCH  13  14
ENDBRANCH   1  13
TORSDOF 20
ENDMDL
