MODEL 1
REMARK VINA RESULT:    -4.566      0.000      0.000
REMARK INTER + INTRA:         -15.724
REMARK INTER:                 -11.507
REMARK INTRA:                  -4.217
REMARK UNBOUND:                -4.217
REMARK SMILES CCCCCCCCCCCCCCCCCCCCCCCCCCCC(=O)[O-]
REMARK SMILES IDX 15 1 16 2 17 3 18 4 19 5 20 6 21 7 22 8 23 9 24 10 25 11
REMARK SMILES IDX 26 12 27 13 28 14 29 15 30 16 14 17 13 18 12 19 11 20 10 21
REMARK SMILES IDX 9 22 8 23 7 24 6 25 5 26 4 27 3 28 2 29 1 30
REMARK H PARENT
REMARK Flexibility Score: inf
ROOT
ATOM      1  C   UNL     1      -1.475   8.536  47.854  1.00  0.00     0.000 C 
ENDROOT
BRANCH   1   2
ATOM      2  C   UNL     1      -2.477   9.683  48.074  1.00  0.00     0.000 C 
BRANCH   2   3
ATOM      3  C   UNL     1      -1.918  11.052  47.652  1.00  0.00     0.000 C 
BRANCH   3   4
ATOM      4  C   UNL     1      -2.322  11.440  46.220  1.00  0.00     0.000 C 
BRANCH   4   5
ATOM      5  C   UNL     1      -1.150  11.374  45.226  1.00  0.00     0.000 C 
BRANCH   5   6
ATOM      6  C   UNL     1      -1.262  10.183  44.261  1.00  0.00     0.000 C 
BRANCH   6   7
ATOM      7  C   UNL     1      -2.625   9.473  44.355  1.00  0.00     0.000 C 
BRANCH   7   8
ATOM      8  C   UNL     1      -2.516   7.939  44.470  1.00  0.00     0.000 C 
BRANCH   8   9
ATOM      9  C   UNL     1      -1.116   7.369  44.169  1.00  0.00     0.000 C 
BRANCH   9  10
ATOM     10  C   UNL     1      -1.120   6.290  43.070  1.00  0.00     0.000 C 
BRANCH  10  11
ATOM     11  C   UNL     1      -2.401   6.316  42.221  1.00  0.00     0.000 C 
BRANCH  11  12
ATOM     12  C   UNL     1      -2.171   6.927  40.826  1.00  0.00     0.006 C 
BRANCH  12  13
ATOM     13  C   UNL     1      -2.617   8.395  40.750  1.00  0.00     0.053 C 
BRANCH  13  14
ATOM     14  C   UNL     1      -1.448   9.328  40.647  1.00  0.00     0.041 C 
ATOM     15  O   UNL     1      -1.619  10.573  40.727  1.00  0.00    -0.550 OA
ATOM     16  O   UNL     1      -0.177   8.824  40.402  1.00  0.00    -0.550 OA
ENDBRANCH  13  14
ENDBRANCH  12  13
ENDBRANCH  11  12
ENDBRANCH  10  11
ENDBRANCH   9  10
ENDBRANCH   8   9
ENDBRANCH   7   8
ENDBRANCH   6   7
ENDBRANCH   5   6
ENDBRANCH   4   5
ENDBRANCH   3   4
ENDBRANCH   2   3
ENDBRANCH   1   2
BRANCH   1  17
ATOM     17  C   UNL     1      -0.007   8.868  48.202  1.00  0.00     0.000 C 
BRANCH  17  18
ATOM     18  C   UNL     1       0.957   8.940  47.002  1.00  0.00     0.000 C 
BRANCH  18  19
ATOM     19  C   UNL     1       1.990  10.069  47.136  1.00  0.00     0.000 C 
BRANCH  19  20
ATOM     20  C   UNL     1       2.104  10.543  48.592  1.00  0.00     0.000 C 
BRANCH  20  21
ATOM     21  C   UNL     1       2.077  12.076  48.720  1.00  0.00     0.000 C 
BRANCH  21  22
ATOM     22  C   UNL     1       3.396  12.647  49.266  1.00  0.00    -0.000 C 
BRANCH  22  23
ATOM     23  C   UNL     1       4.437  12.819  48.148  1.00  0.00    -0.000 C 
BRANCH  23  24
ATOM     24  C   UNL     1       5.801  12.212  48.514  1.00  0.00    -0.000 C 
BRANCH  24  25
ATOM     25  C   UNL     1       5.904  10.721  48.156  1.00  0.00    -0.000 C 
BRANCH  25  26
ATOM     26  C   UNL     1       5.810  10.513  46.635  1.00  0.00    -0.000 C 
BRANCH  26  27
ATOM     27  C   UNL     1       7.194  10.300  45.988  1.00  0.00    -0.000 C 
BRANCH  27  28
ATOM     28  C   UNL     1       8.131   9.409  46.822  1.00  0.00    -0.000 C 
BRANCH  28  29
ATOM     29  C   UNL     1       8.343   8.025  46.198  1.00  0.00    -0.003 C 
ATOM     30  C   UNL     1       8.749   7.006  47.258  1.00  0.00     0.004 C 
ENDBRANCH  28  29
ENDBRANCH  27  28
ENDBRANCH  26  27
ENDBRANCH  25  26
ENDBRANCH  24  25
ENDBRANCH  23  24
ENDBRANCH  22  23
ENDBRANCH  21  22
ENDBRANCH  20  21
ENDBRANCH  19  20
ENDBRANCH  18  19
ENDBRANCH  17  18
ENDBRANCH   1  17
TORSDOF 26
ENDMDL
MODEL 2
REMARK VINA RESULT:    -4.546     10.864     13.850
REMARK INTER + INTRA:         -15.672
REMARK INTER:                 -12.415
REMARK INTRA:                  -3.257
REMARK UNBOUND:                -4.217
REMARK SMILES CCCCCCCCCCCCCCCCCCCCCCCCCCCC(=O)[O-]
REMARK SMILES IDX 15 1 16 2 17 3 18 4 19 5 20 6 21 7 22 8 23 9 24 10 25 11
REMARK SMILES IDX 26 12 27 13 28 14 29 15 30 16 14 17 13 18 12 19 11 20 10 21
REMARK SMILES IDX 9 22 8 23 7 24 6 25 5 26 4 27 3 28 2 29 1 30
REMARK H PARENT
REMARK Flexibility Score: inf
ROOT
ATOM      1  C   UNL     1       7.762  -0.848  53.464  1.00  0.00     0.000 C 
ENDROOT
BRANCH   1   2
ATOM      2  C   UNL     1       6.677  -0.772  52.376  1.00  0.00     0.000 C 
BRANCH   2   3
ATOM      3  C   UNL     1       6.765  -1.928  51.364  1.00  0.00     0.000 C 
BRANCH   3   4
ATOM      4  C   UNL     1       5.595  -1.930  50.367  1.00  0.00     0.000 C 
BRANCH   4   5
ATOM      5  C   UNL     1       4.974  -3.324  50.173  1.00  0.00     0.000 C 
BRANCH   5   6
ATOM      6  C   UNL     1       5.458  -4.010  48.884  1.00  0.00     0.000 C 
BRANCH   6   7
ATOM      7  C   UNL     1       6.521  -5.091  49.154  1.00  0.00     0.000 C 
BRANCH   7   8
ATOM      8  C   UNL     1       7.340  -5.476  47.906  1.00  0.00     0.000 C 
BRANCH   8   9
ATOM      9  C   UNL     1       8.842  -5.142  47.994  1.00  0.00     0.000 C 
BRANCH   9  10
ATOM     10  C   UNL     1       9.154  -3.981  48.957  1.00  0.00     0.000 C 
BRANCH  10  11
ATOM     11  C   UNL     1       9.543  -2.690  48.219  1.00  0.00     0.000 C 
BRANCH  11  12
ATOM     12  C   UNL     1       8.352  -1.731  48.041  1.00  0.00     0.006 C 
BRANCH  12  13
ATOM     13  C   UNL     1       7.631  -1.936  46.701  1.00  0.00     0.053 C 
BRANCH  13  14
ATOM     14  C   UNL     1       6.397  -1.090  46.596  1.00  0.00     0.041 C 
ATOM     15  O   UNL     1       5.282  -1.618  46.346  1.00  0.00    -0.550 OA
ATOM     16  O   UNL     1       6.493   0.292  46.713  1.00  0.00    -0.550 OA
ENDBRANCH  13  14
ENDBRANCH  12  13
ENDBRANCH  11  12
ENDBRANCH  10  11
ENDBRANCH   9  10
ENDBRANCH   8   9
ENDBRANCH   7   8
ENDBRANCH   6   7
ENDBRANCH   5   6
ENDBRANCH   4   5
ENDBRANCH   3   4
ENDBRANCH   2   3
ENDBRANCH   1   2
BRANCH   1  17
ATOM     17  C   UNL     1       8.181   0.509  54.072  1.00  0.00     0.000 C 
BRANCH  17  18
ATOM     18  C   UNL     1       8.927   0.429  55.418  1.00  0.00     0.000 C 
BRANCH  18  19
ATOM     19  C   UNL     1       9.279   1.813  55.986  1.00  0.00     0.000 C 
BRANCH  19  20
ATOM     20  C   UNL     1      10.724   2.200  55.641  1.00  0.00     0.000 C 
BRANCH  20  21
ATOM     21  C   UNL     1      10.815   3.117  54.410  1.00  0.00     0.000 C 
BRANCH  21  22
ATOM     22  C   UNL     1      11.743   2.553  53.321  1.00  0.00    -0.000 C 
BRANCH  22  23
ATOM     23  C   UNL     1      12.081   3.620  52.267  1.00  0.00    -0.000 C 
BRANCH  23  24
ATOM     24  C   UNL     1      10.839   4.115  51.508  1.00  0.00    -0.000 C 
BRANCH  24  25
ATOM     25  C   UNL     1      10.342   5.480  52.009  1.00  0.00    -0.000 C 
BRANCH  25  26
ATOM     26  C   UNL     1       8.807   5.552  51.975  1.00  0.00    -0.000 C 
BRANCH  26  27
ATOM     27  C   UNL     1       8.190   5.554  53.390  1.00  0.00    -0.000 C 
BRANCH  27  28
ATOM     28  C   UNL     1       7.470   4.242  53.748  1.00  0.00    -0.000 C 
BRANCH  28  29
ATOM     29  C   UNL     1       6.215   4.005  52.900  1.00  0.00    -0.003 C 
ATOM     30  C   UNL     1       5.490   2.738  53.345  1.00  0.00     0.004 C 
ENDBRANCH  28  29
ENDBRANCH  27  28
ENDBRANCH  26  27
ENDBRANCH  25  26
ENDBRANCH  24  25
ENDBRANCH  23  24
ENDBRANCH  22  23
ENDBRANCH  21  22
ENDBRANCH  20  21
ENDBRANCH  19  20
ENDBRANCH  18  19
ENDBRANCH  17  18
ENDBRANCH   1  17
TORSDOF 26
ENDMDL
MODEL 3
REMARK VINA RESULT:    -4.326      8.637     12.841
REMARK INTER + INTRA:         -15.118
REMARK INTER:                 -10.125
REMARK INTRA:                  -4.993
REMARK UNBOUND:                -4.217
REMARK SMILES CCCCCCCCCCCCCCCCCCCCCCCCCCCC(=O)[O-]
REMARK SMILES IDX 15 1 16 2 17 3 18 4 19 5 20 6 21 7 22 8 23 9 24 10 25 11
REMARK SMILES IDX 26 12 27 13 28 14 29 15 30 16 14 17 13 18 12 19 11 20 10 21
REMARK SMILES IDX 9 22 8 23 7 24 6 25 5 26 4 27 3 28 2 29 1 30
REMARK H PARENT
REMARK Flexibility Score: inf
ROOT
ATOM      1  C   UNL     1       9.352   5.262  48.372  1.00  0.00     0.000 C 
ENDROOT
BRANCH   1   2
ATOM      2  C   UNL     1       9.241   6.101  49.656  1.00  0.00     0.000 C 
BRANCH   2   3
ATOM      3  C   UNL     1       9.426   5.264  50.934  1.00  0.00     0.000 C 
BRANCH   3   4
ATOM      4  C   UNL     1      10.239   6.000  52.010  1.00  0.00     0.000 C 
BRANCH   4   5
ATOM      5  C   UNL     1      11.125   5.058  52.844  1.00  0.00     0.000 C 
BRANCH   5   6
ATOM      6  C   UNL     1      11.043   3.599  52.367  1.00  0.00     0.000 C 
BRANCH   6   7
ATOM      7  C   UNL     1      11.409   2.594  53.476  1.00  0.00     0.000 C 
BRANCH   7   8
ATOM      8  C   UNL     1      11.063   3.088  54.895  1.00  0.00     0.000 C 
BRANCH   8   9
ATOM      9  C   UNL     1      10.020   2.232  55.638  1.00  0.00     0.000 C 
BRANCH   9  10
ATOM     10  C   UNL     1       9.024   1.530  54.697  1.00  0.00     0.000 C 
BRANCH  10  11
ATOM     11  C   UNL     1       7.597   2.086  54.826  1.00  0.00     0.000 C 
BRANCH  11  12
ATOM     12  C   UNL     1       7.196   2.962  53.625  1.00  0.00     0.006 C 
BRANCH  12  13
ATOM     13  C   UNL     1       7.539   4.443  53.841  1.00  0.00     0.053 C 
BRANCH  13  14
ATOM     14  C   UNL     1       6.492   5.349  53.268  1.00  0.00     0.041 C 
ATOM     15  O   UNL     1       5.502   4.870  52.654  1.00  0.00    -0.550 OA
ATOM     16  O   UNL     1       6.642   6.727  53.358  1.00  0.00    -0.550 OA
ENDBRANCH  13  14
ENDBRANCH  12  13
ENDBRANCH  11  12
ENDBRANCH  10  11
ENDBRANCH   9  10
ENDBRANCH   8   9
ENDBRANCH   7   8
ENDBRANCH   6   7
ENDBRANCH   5   6
ENDBRANCH   4   5
ENDBRANCH   3   4
ENDBRANCH   2   3
ENDBRANCH   1   2
BRANCH   1  17
ATOM     17  C   UNL     1      10.389   4.118  48.420  1.00  0.00     0.000 C 
BRANCH  17  18
ATOM     18  C   UNL     1      11.808   4.490  47.948  1.00  0.00     0.000 C 
BRANCH  18  19
ATOM     19  C   UNL     1      12.890   4.135  48.979  1.00  0.00     0.000 C 
BRANCH  19  20
ATOM     20  C   UNL     1      13.743   5.363  49.329  1.00  0.00     0.000 C 
BRANCH  20  21
ATOM     21  C   UNL     1      12.893   6.610  49.626  1.00  0.00     0.000 C 
BRANCH  21  22
ATOM     22  C   UNL     1      13.098   7.726  48.588  1.00  0.00    -0.000 C 
BRANCH  22  23
ATOM     23  C   UNL     1      11.789   8.484  48.315  1.00  0.00    -0.000 C 
BRANCH  23  24
ATOM     24  C   UNL     1      11.527   8.687  46.814  1.00  0.00    -0.000 C 
BRANCH  24  25
ATOM     25  C   UNL     1      10.819   7.487  46.166  1.00  0.00    -0.000 C 
BRANCH  25  26
ATOM     26  C   UNL     1       9.674   7.953  45.252  1.00  0.00    -0.000 C 
BRANCH  26  27
ATOM     27  C   UNL     1       8.353   8.150  46.024  1.00  0.00    -0.000 C 
BRANCH  27  28
ATOM     28  C   UNL     1       7.840   9.600  46.004  1.00  0.00    -0.000 C 
BRANCH  28  29
ATOM     29  C   UNL     1       8.054  10.323  47.339  1.00  0.00    -0.003 C 
ATOM     30  C   UNL     1       8.082   9.330  48.497  1.00  0.00     0.004 C 
ENDBRANCH  28  29
ENDBRANCH  27  28
ENDBRANCH  26  27
ENDBRANCH  25  26
ENDBRANCH  24  25
ENDBRANCH  23  24
ENDBRANCH  22  23
ENDBRANCH  21  22
ENDBRANCH  20  21
ENDBRANCH  19  20
ENDBRANCH  18  19
ENDBRANCH  17  18
ENDBRANCH   1  17
TORSDOF 26
ENDMDL
MODEL 4
REMARK VINA RESULT:    -4.320      3.265      7.496
REMARK INTER + INTRA:         -15.103
REMARK INTER:                 -10.175
REMARK INTRA:                  -4.928
REMARK UNBOUND:                -4.217
REMARK SMILES CCCCCCCCCCCCCCCCCCCCCCCCCCCC(=O)[O-]
REMARK SMILES IDX 15 1 16 2 17 3 18 4 19 5 20 6 21 7 22 8 23 9 24 10 25 11
REMARK SMILES IDX 26 12 27 13 28 14 29 15 30 16 14 17 13 18 12 19 11 20 10 21
REMARK SMILES IDX 9 22 8 23 7 24 6 25 5 26 4 27 3 28 2 29 1 30
REMARK H PARENT
REMARK Flexibility Score: inf
ROOT
ATOM      1  C   UNL     1       6.547  10.751  44.880  1.00  0.00     0.000 C 
ENDROOT
BRANCH   1   2
ATOM      2  C   UNL     1       5.934  10.422  46.252  1.00  0.00     0.000 C 
BRANCH   2   3
ATOM      3  C   UNL     1       6.987  10.332  47.370  1.00  0.00     0.000 C 
BRANCH   3   4
ATOM      4  C   UNL     1       6.652  11.231  48.570  1.00  0.00     0.000 C 
BRANCH   4   5
ATOM      5  C   UNL     1       6.767  12.731  48.248  1.00  0.00     0.000 C 
BRANCH   5   6
ATOM      6  C   UNL     1       5.454  13.491  48.502  1.00  0.00     0.000 C 
BRANCH   6   7
ATOM      7  C   UNL     1       4.728  13.867  47.198  1.00  0.00     0.000 C 
BRANCH   7   8
ATOM      8  C   UNL     1       3.398  13.114  46.992  1.00  0.00     0.000 C 
BRANCH   8   9
ATOM      9  C   UNL     1       2.932  12.288  48.206  1.00  0.00     0.000 C 
BRANCH   9  10
ATOM     10  C   UNL     1       2.683  10.804  47.876  1.00  0.00     0.000 C 
BRANCH  10  11
ATOM     11  C   UNL     1       1.426  10.249  48.565  1.00  0.00     0.000 C 
BRANCH  11  12
ATOM     12  C   UNL     1       0.996   8.885  47.997  1.00  0.00     0.006 C 
BRANCH  12  13
ATOM     13  C   UNL     1       0.228   9.017  46.674  1.00  0.00     0.053 C 
BRANCH  13  14
ATOM     14  C   UNL     1      -1.253   8.906  46.875  1.00  0.00     0.041 C 
ATOM     15  O   UNL     1      -1.822   9.557  47.789  1.00  0.00    -0.550 OA
ATOM     16  O   UNL     1      -1.995   8.033  46.089  1.00  0.00    -0.550 OA
ENDBRANCH  13  14
ENDBRANCH  12  13
ENDBRANCH  11  12
ENDBRANCH  10  11
ENDBRANCH   9  10
ENDBRANCH   8   9
ENDBRANCH   7   8
ENDBRANCH   6   7
ENDBRANCH   5   6
ENDBRANCH   4   5
ENDBRANCH   3   4
ENDBRANCH   2   3
ENDBRANCH   1   2
BRANCH   1  17
ATOM     17  C   UNL     1       6.696  12.257  44.568  1.00  0.00     0.000 C 
BRANCH  17  18
ATOM     18  C   UNL     1       8.102  12.707  44.129  1.00  0.00     0.000 C 
BRANCH  18  19
ATOM     19  C   UNL     1       8.863  13.451  45.238  1.00  0.00     0.000 C 
BRANCH  19  20
ATOM     20  C   UNL     1       9.749  12.488  46.041  1.00  0.00     0.000 C 
BRANCH  20  21
ATOM     21  C   UNL     1      10.646  11.619  45.143  1.00  0.00     0.000 C 
BRANCH  21  22
ATOM     22  C   UNL     1      10.847  10.201  45.703  1.00  0.00    -0.000 C 
BRANCH  22  23
ATOM     23  C   UNL     1       9.995   9.173  44.942  1.00  0.00    -0.000 C 
BRANCH  23  24
ATOM     24  C   UNL     1       9.960   7.804  45.641  1.00  0.00    -0.000 C 
BRANCH  24  25
ATOM     25  C   UNL     1       8.543   7.388  46.064  1.00  0.00    -0.000 C 
BRANCH  25  26
ATOM     26  C   UNL     1       8.551   6.749  47.462  1.00  0.00    -0.000 C 
BRANCH  26  27
ATOM     27  C   UNL     1       9.958   6.749  48.096  1.00  0.00    -0.000 C 
BRANCH  27  28
ATOM     28  C   UNL     1      10.055   7.597  49.376  1.00  0.00    -0.000 C 
BRANCH  28  29
ATOM     29  C   UNL     1      10.966   8.818  49.210  1.00  0.00    -0.003 C 
ATOM     30  C   UNL     1      10.158  10.112  49.268  1.00  0.00     0.004 C 
ENDBRANCH  28  29
ENDBRANCH  27  28
ENDBRANCH  26  27
ENDBRANCH  25  26
ENDBRANCH  24  25
ENDBRANCH  23  24
ENDBRANCH  22  23
ENDBRANCH  21  22
ENDBRANCH  20  21
ENDBRANCH  19  20
ENDBRANCH  18  19
ENDBRANCH  17  18
ENDBRANCH   1  17
TORSDOF 26
ENDMDL
MODEL 5
REMARK VINA RESULT:    -4.317      6.092     10.645
REMARK INTER + INTRA:         -15.097
REMARK INTER:                 -11.681
REMARK INTRA:                  -3.416
REMARK UNBOUND:                -4.217
REMARK SMILES CCCCCCCCCCCCCCCCCCCCCCCCCCCC(=O)[O-]
REMARK SMILES IDX 15 1 16 2 17 3 18 4 19 5 20 6 21 7 22 8 23 9 24 10 25 11
REMARK SMILES IDX 26 12 27 13 28 14 29 15 30 16 14 17 13 18 12 19 11 20 10 21
REMARK SMILES IDX 9 22 8 23 7 24 6 25 5 26 4 27 3 28 2 29 1 30
REMARK H PARENT
REMARK Flexibility Score: inf
ROOT
ATOM      1  C   UNL     1       6.441   4.324  52.803  1.00  0.00     0.000 C 
ENDROOT
BRANCH   1   2
ATOM      2  C   UNL     1       6.250   5.817  53.122  1.00  0.00     0.000 C 
BRANCH   2   3
ATOM      3  C   UNL     1       7.579   6.547  53.380  1.00  0.00     0.000 C 
BRANCH   3   4
ATOM      4  C   UNL     1       7.484   8.058  53.119  1.00  0.00     0.000 C 
BRANCH   4   5
ATOM      5  C   UNL     1       8.637   8.593  52.252  1.00  0.00     0.000 C 
BRANCH   5   6
ATOM      6  C   UNL     1       8.161   9.610  51.202  1.00  0.00     0.000 C 
BRANCH   6   7
ATOM      7  C   UNL     1       8.657   9.271  49.784  1.00  0.00     0.000 C 
BRANCH   7   8
ATOM      8  C   UNL     1       7.722   9.774  48.666  1.00  0.00     0.000 C 
BRANCH   8   9
ATOM      9  C   UNL     1       6.995  11.096  48.981  1.00  0.00     0.000 C 
BRANCH   9  10
ATOM     10  C   UNL     1       5.526  11.110  48.518  1.00  0.00     0.000 C 
BRANCH  10  11
ATOM     11  C   UNL     1       4.594  11.791  49.533  1.00  0.00     0.000 C 
BRANCH  11  12
ATOM     12  C   UNL     1       3.109  11.656  49.153  1.00  0.00     0.006 C 
BRANCH  12  13
ATOM     13  C   UNL     1       2.917  11.077  47.743  1.00  0.00     0.053 C 
BRANCH  13  14
ATOM     14  C   UNL     1       1.753  10.133  47.681  1.00  0.00     0.041 C 
ATOM     15  O   UNL     1       0.909  10.102  48.614  1.00  0.00    -0.550 OA
ATOM     16  O   UNL     1       1.638   9.245  46.619  1.00  0.00    -0.550 OA
ENDBRANCH  13  14
ENDBRANCH  12  13
ENDBRANCH  11  12
ENDBRANCH  10  11
ENDBRANCH   9  10
ENDBRANCH   8   9
ENDBRANCH   7   8
ENDBRANCH   6   7
ENDBRANCH   5   6
ENDBRANCH   4   5
ENDBRANCH   3   4
ENDBRANCH   2   3
ENDBRANCH   1   2
BRANCH   1  17
ATOM     17  C   UNL     1       7.567   3.621  53.593  1.00  0.00     0.000 C 
BRANCH  17  18
ATOM     18  C   UNL     1       7.197   2.252  54.197  1.00  0.00     0.000 C 
BRANCH  18  19
ATOM     19  C   UNL     1       8.278   1.708  55.144  1.00  0.00     0.000 C 
BRANCH  19  20
ATOM     20  C   UNL     1       9.592   1.452  54.393  1.00  0.00     0.000 C 
BRANCH  20  21
ATOM     21  C   UNL     1      10.798   2.139  55.056  1.00  0.00     0.000 C 
BRANCH  21  22
ATOM     22  C   UNL     1      10.380   3.179  56.108  1.00  0.00    -0.000 C 
BRANCH  22  23
ATOM     23  C   UNL     1      10.444   4.606  55.541  1.00  0.00    -0.000 C 
BRANCH  23  24
ATOM     24  C   UNL     1      11.863   5.003  55.100  1.00  0.00    -0.000 C 
BRANCH  24  25
ATOM     25  C   UNL     1      11.889   5.683  53.723  1.00  0.00    -0.000 C 
BRANCH  25  26
ATOM     26  C   UNL     1      11.170   4.824  52.671  1.00  0.00    -0.000 C 
BRANCH  26  27
ATOM     27  C   UNL     1      10.682   5.659  51.468  1.00  0.00    -0.000 C 
BRANCH  27  28
ATOM     28  C   UNL     1       9.630   4.938  50.607  1.00  0.00    -0.000 C 
BRANCH  28  29
ATOM     29  C   UNL     1       9.066   5.828  49.493  1.00  0.00    -0.003 C 
ATOM     30  C   UNL     1       8.680   4.996  48.274  1.00  0.00     0.004 C 
ENDBRANCH  28  29
ENDBRANCH  27  28
ENDBRANCH  26  27
ENDBRANCH  25  26
ENDBRANCH  24  25
ENDBRANCH  23  24
ENDBRANCH  22  23
ENDBRANCH  21  22
ENDBRANCH  20  21
ENDBRANCH  19  20
ENDBRANCH  18  19
ENDBRANCH  17  18
ENDBRANCH   1  17
TORSDOF 26
ENDMDL
MODEL 6
REMARK VINA RESULT:    -4.314      4.525     10.042
REMARK INTER + INTRA:         -15.088
REMARK INTER:                 -10.953
REMARK INTRA:                  -4.135
REMARK UNBOUND:                -4.217
REMARK SMILES CCCCCCCCCCCCCCCCCCCCCCCCCCCC(=O)[O-]
REMARK SMILES IDX 15 1 16 2 17 3 18 4 19 5 20 6 21 7 22 8 23 9 24 10 25 11
REMARK SMILES IDX 26 12 27 13 28 14 29 15 30 16 14 17 13 18 12 19 11 20 10 21
REMARK SMILES IDX 9 22 8 23 7 24 6 25 5 26 4 27 3 28 2 29 1 30
REMARK H PARENT
REMARK Flexibility Score: inf
ROOT
ATOM      1  C   UNL     1       6.379  10.942  44.934  1.00  0.00     0.000 C 
ENDROOT
BRANCH   1   2
ATOM      2  C   UNL     1       6.653  12.441  44.724  1.00  0.00     0.000 C 
BRANCH   2   3
ATOM      3  C   UNL     1       7.998  12.709  44.026  1.00  0.00     0.000 C 
BRANCH   3   4
ATOM      4  C   UNL     1       9.160  12.862  45.021  1.00  0.00     0.000 C 
BRANCH   4   5
ATOM      5  C   UNL     1      10.224  11.761  44.877  1.00  0.00     0.000 C 
BRANCH   5   6
ATOM      6  C   UNL     1      10.671  11.193  46.234  1.00  0.00     0.000 C 
BRANCH   6   7
ATOM      7  C   UNL     1      10.823   9.660  46.212  1.00  0.00     0.000 C 
BRANCH   7   8
ATOM      8  C   UNL     1      10.174   8.994  44.982  1.00  0.00     0.000 C 
BRANCH   8   9
ATOM      9  C   UNL     1       9.413   7.689  45.283  1.00  0.00     0.000 C 
BRANCH   9  10
ATOM     10  C   UNL     1       8.510   7.783  46.528  1.00  0.00     0.000 C 
BRANCH  10  11
ATOM     11  C   UNL     1       8.637   6.554  47.443  1.00  0.00     0.000 C 
BRANCH  11  12
ATOM     12  C   UNL     1       9.344   6.880  48.771  1.00  0.00     0.006 C 
BRANCH  12  13
ATOM     13  C   UNL     1       9.200   8.357  49.163  1.00  0.00     0.053 C 
BRANCH  13  14
ATOM     14  C   UNL     1       9.041   8.529  50.644  1.00  0.00     0.041 C 
ATOM     15  O   UNL     1       9.716   7.828  51.442  1.00  0.00    -0.550 OA
ATOM     16  O   UNL     1       8.101   9.423  51.141  1.00  0.00    -0.550 OA
ENDBRANCH  13  14
ENDBRANCH  12  13
ENDBRANCH  11  12
ENDBRANCH  10  11
ENDBRANCH   9  10
ENDBRANCH   8   9
ENDBRANCH   7   8
ENDBRANCH   6   7
ENDBRANCH   5   6
ENDBRANCH   4   5
ENDBRANCH   3   4
ENDBRANCH   2   3
ENDBRANCH   1   2
BRANCH   1  17
ATOM     17  C   UNL     1       6.084  10.525  46.392  1.00  0.00     0.000 C 
BRANCH  17  18
ATOM     18  C   UNL     1       7.179  10.881  47.417  1.00  0.00     0.000 C 
BRANCH  18  19
ATOM     19  C   UNL     1       6.659  11.767  48.559  1.00  0.00     0.000 C 
BRANCH  19  20
ATOM     20  C   UNL     1       5.242  11.350  48.980  1.00  0.00     0.000 C 
BRANCH  20  21
ATOM     21  C   UNL     1       4.468  12.488  49.667  1.00  0.00     0.000 C 
BRANCH  21  22
ATOM     22  C   UNL     1       3.112  12.768  49.000  1.00  0.00    -0.000 C 
BRANCH  22  23
ATOM     23  C   UNL     1       3.214  12.683  47.469  1.00  0.00    -0.000 C 
BRANCH  23  24
ATOM     24  C   UNL     1       2.105  11.813  46.852  1.00  0.00    -0.000 C 
BRANCH  24  25
ATOM     25  C   UNL     1       2.447  10.316  46.866  1.00  0.00    -0.000 C 
BRANCH  25  26
ATOM     26  C   UNL     1       1.317   9.500  47.516  1.00  0.00    -0.000 C 
BRANCH  26  27
ATOM     27  C   UNL     1       0.375   8.870  46.468  1.00  0.00    -0.000 C 
BRANCH  27  28
ATOM     28  C   UNL     1      -1.090   9.315  46.615  1.00  0.00    -0.000 C 
BRANCH  28  29
ATOM     29  C   UNL     1      -1.337  10.133  47.888  1.00  0.00    -0.003 C 
ATOM     30  C   UNL     1      -1.961  11.485  47.554  1.00  0.00     0.004 C 
ENDBRANCH  28  29
ENDBRANCH  27  28
ENDBRANCH  26  27
ENDBRANCH  25  26
ENDBRANCH  24  25
ENDBRANCH  23  24
ENDBRANCH  22  23
ENDBRANCH  21  22
ENDBRANCH  20  21
ENDBRANCH  19  20
ENDBRANCH  18  19
ENDBRANCH  17  18
ENDBRANCH   1  17
TORSDOF 26
ENDMDL
MODEL 7
REMARK VINA RESULT:    -4.303      6.872     10.361
REMARK INTER + INTRA:         -15.060
REMARK INTER:                  -9.989
REMARK INTRA:                  -5.071
REMARK UNBOUND:                -4.217
REMARK SMILES CCCCCCCCCCCCCCCCCCCCCCCCCCCC(=O)[O-]
REMARK SMILES IDX 15 1 16 2 17 3 18 4 19 5 20 6 21 7 22 8 23 9 24 10 25 11
REMARK SMILES IDX 26 12 27 13 28 14 29 15 30 16 14 17 13 18 12 19 11 20 10 21
REMARK SMILES IDX 9 22 8 23 7 24 6 25 5 26 4 27 3 28 2 29 1 30
REMARK H PARENT
REMARK Flexibility Score: inf
ROOT
ATOM      1  C   UNL     1       8.860  11.944  44.606  1.00  0.00     0.000 C 
ENDROOT
BRANCH   1   2
ATOM      2  C   UNL     1       7.850  10.855  45.009  1.00  0.00     0.000 C 
BRANCH   2   3
ATOM      3  C   UNL     1       6.424  11.403  45.192  1.00  0.00     0.000 C 
BRANCH   3   4
ATOM      4  C   UNL     1       5.563  10.514  46.103  1.00  0.00     0.000 C 
BRANCH   4   5
ATOM      5  C   UNL     1       4.470  11.298  46.849  1.00  0.00     0.000 C 
BRANCH   5   6
ATOM      6  C   UNL     1       4.789  12.799  46.953  1.00  0.00     0.000 C 
BRANCH   6   7
ATOM      7  C   UNL     1       5.408  13.179  48.311  1.00  0.00     0.000 C 
BRANCH   7   8
ATOM      8  C   UNL     1       6.774  13.885  48.191  1.00  0.00     0.000 C 
BRANCH   8   9
ATOM      9  C   UNL     1       7.993  12.946  48.260  1.00  0.00     0.000 C 
BRANCH   9  10
ATOM     10  C   UNL     1       7.648  11.535  48.771  1.00  0.00     0.000 C 
BRANCH  10  11
ATOM     11  C   UNL     1       8.800  10.537  48.571  1.00  0.00     0.000 C 
BRANCH  11  12
ATOM     12  C   UNL     1       9.097   9.717  49.840  1.00  0.00     0.006 C 
BRANCH  12  13
ATOM     13  C   UNL     1       7.929   9.740  50.836  1.00  0.00     0.053 C 
BRANCH  13  14
ATOM     14  C   UNL     1       8.329   9.206  52.178  1.00  0.00     0.041 C 
ATOM     15  O   UNL     1       7.719   8.226  52.682  1.00  0.00    -0.550 OA
ATOM     16  O   UNL     1       9.339   9.831  52.900  1.00  0.00    -0.550 OA
ENDBRANCH  13  14
ENDBRANCH  12  13
ENDBRANCH  11  12
ENDBRANCH  10  11
ENDBRANCH   9  10
ENDBRANCH   8   9
ENDBRANCH   7   8
ENDBRANCH   6   7
ENDBRANCH   5   6
ENDBRANCH   4   5
ENDBRANCH   3   4
ENDBRANCH   2   3
ENDBRANCH   1   2
BRANCH   1  17
ATOM     17  C   UNL     1      10.183  11.944  45.404  1.00  0.00     0.000 C 
BRANCH  17  18
ATOM     18  C   UNL     1      11.435  11.525  44.610  1.00  0.00     0.000 C 
BRANCH  18  19
ATOM     19  C   UNL     1      11.751  10.027  44.743  1.00  0.00     0.000 C 
BRANCH  19  20
ATOM     20  C   UNL     1      11.481   9.531  46.171  1.00  0.00     0.000 C 
BRANCH  20  21
ATOM     21  C   UNL     1      10.908   8.104  46.204  1.00  0.00     0.000 C 
BRANCH  21  22
ATOM     22  C   UNL     1       9.870   7.858  45.098  1.00  0.00    -0.000 C 
BRANCH  22  23
ATOM     23  C   UNL     1       8.573   7.262  45.669  1.00  0.00    -0.000 C 
BRANCH  23  24
ATOM     24  C   UNL     1       8.627   7.089  47.196  1.00  0.00    -0.000 C 
BRANCH  24  25
ATOM     25  C   UNL     1       8.237   5.673  47.648  1.00  0.00    -0.000 C 
BRANCH  25  26
ATOM     26  C   UNL     1       9.262   5.113  48.647  1.00  0.00    -0.000 C 
BRANCH  26  27
ATOM     27  C   UNL     1      10.061   6.229  49.352  1.00  0.00    -0.000 C 
BRANCH  27  28
ATOM     28  C   UNL     1       9.968   6.176  50.887  1.00  0.00    -0.000 C 
BRANCH  28  29
ATOM     29  C   UNL     1       9.040   5.061  51.386  1.00  0.00    -0.003 C 
ATOM     30  C   UNL     1       9.190   4.861  52.891  1.00  0.00     0.004 C 
ENDBRANCH  28  29
ENDBRANCH  27  28
ENDBRANCH  26  27
ENDBRANCH  25  26
ENDBRANCH  24  25
ENDBRANCH  23  24
ENDBRANCH  22  23
ENDBRANCH  21  22
ENDBRANCH  20  21
ENDBRANCH  19  20
ENDBRANCH  18  19
ENDBRANCH  17  18
ENDBRANCH   1  17
TORSDOF 26
ENDMDL
MODEL 8
REMARK VINA RESULT:    -4.249      8.206     12.858
REMARK INTER + INTRA:         -14.926
REMARK INTER:                 -10.405
REMARK INTRA:                  -4.521
REMARK UNBOUND:                -4.217
REMARK SMILES CCCCCCCCCCCCCCCCCCCCCCCCCCCC(=O)[O-]
REMARK SMILES IDX 15 1 16 2 17 3 18 4 19 5 20 6 21 7 22 8 23 9 24 10 25 11
REMARK SMILES IDX 26 12 27 13 28 14 29 15 30 16 14 17 13 18 12 19 11 20 10 21
REMARK SMILES IDX 9 22 8 23 7 24 6 25 5 26 4 27 3 28 2 29 1 30
REMARK H PARENT
REMARK Flexibility Score: inf
ROOT
ATOM      1  C   UNL     1      10.921   4.277  55.842  1.00  0.00     0.000 C 
ENDROOT
BRANCH   1   2
ATOM      2  C   UNL     1      11.469   5.713  55.917  1.00  0.00     0.000 C 
BRANCH   2   3
ATOM      3  C   UNL     1      12.710   5.925  55.032  1.00  0.00     0.000 C 
BRANCH   3   4
ATOM      4  C   UNL     1      12.551   7.111  54.068  1.00  0.00     0.000 C 
BRANCH   4   5
ATOM      5  C   UNL     1      12.481   8.468  54.790  1.00  0.00     0.000 C 
BRANCH   5   6
ATOM      6  C   UNL     1      11.827   9.561  53.927  1.00  0.00     0.000 C 
BRANCH   6   7
ATOM      7  C   UNL     1      10.861   8.984  52.876  1.00  0.00     0.000 C 
BRANCH   7   8
ATOM      8  C   UNL     1       9.920  10.038  52.258  1.00  0.00     0.000 C 
BRANCH   8   9
ATOM      9  C   UNL     1       8.513   9.518  51.907  1.00  0.00     0.000 C 
BRANCH   9  10
ATOM     10  C   UNL     1       8.188   9.603  50.405  1.00  0.00     0.000 C 
BRANCH  10  11
ATOM     11  C   UNL     1       9.202   8.841  49.537  1.00  0.00     0.000 C 
BRANCH  11  12
ATOM     12  C   UNL     1       8.595   8.361  48.205  1.00  0.00     0.006 C 
BRANCH  12  13
ATOM     13  C   UNL     1       7.741   9.443  47.529  1.00  0.00     0.053 C 
BRANCH  13  14
ATOM     14  C   UNL     1       8.054   9.569  46.068  1.00  0.00     0.041 C 
ATOM     15  O   UNL     1       9.084   9.027  45.589  1.00  0.00    -0.550 OA
ATOM     16  O   UNL     1       7.238  10.340  45.248  1.00  0.00    -0.550 OA
ENDBRANCH  13  14
ENDBRANCH  12  13
ENDBRANCH  11  12
ENDBRANCH  10  11
ENDBRANCH   9  10
ENDBRANCH   8   9
ENDBRANCH   7   8
ENDBRANCH   6   7
ENDBRANCH   5   6
ENDBRANCH   4   5
ENDBRANCH   3   4
ENDBRANCH   2   3
ENDBRANCH   1   2
BRANCH   1  17
ATOM     17  C   UNL     1      11.330   3.481  54.582  1.00  0.00     0.000 C 
BRANCH  17  18
ATOM     18  C   UNL     1      10.917   1.997  54.575  1.00  0.00     0.000 C 
BRANCH  18  19
ATOM     19  C   UNL     1      10.330   1.536  55.918  1.00  0.00     0.000 C 
BRANCH  19  20
ATOM     20  C   UNL     1       8.901   1.003  55.742  1.00  0.00     0.000 C 
BRANCH  20  21
ATOM     21  C   UNL     1       8.398   1.123  54.293  1.00  0.00     0.000 C 
BRANCH  21  22
ATOM     22  C   UNL     1       7.182   2.056  54.165  1.00  0.00    -0.000 C 
BRANCH  22  23
ATOM     23  C   UNL     1       7.608   3.533  54.172  1.00  0.00    -0.000 C 
BRANCH  23  24
ATOM     24  C   UNL     1       6.721   4.406  53.270  1.00  0.00    -0.000 C 
BRANCH  24  25
ATOM     25  C   UNL     1       7.175   5.873  53.230  1.00  0.00    -0.000 C 
BRANCH  25  26
ATOM     26  C   UNL     1       8.708   5.973  53.181  1.00  0.00    -0.000 C 
BRANCH  26  27
ATOM     27  C   UNL     1       9.256   5.863  51.742  1.00  0.00    -0.000 C 
BRANCH  27  28
ATOM     28  C   UNL     1       9.943   4.519  51.447  1.00  0.00    -0.000 C 
BRANCH  28  29
ATOM     29  C   UNL     1      11.378   4.686  50.936  1.00  0.00    -0.003 C 
ATOM     30  C   UNL     1      11.645   6.132  50.527  1.00  0.00     0.004 C 
ENDBRANCH  28  29
ENDBRANCH  27  28
ENDBRANCH  26  27
ENDBRANCH  25  26
ENDBRANCH  24  25
ENDBRANCH  23  24
ENDBRANCH  22  23
ENDBRANCH  21  22
ENDBRANCH  20  21
ENDBRANCH  19  20
ENDBRANCH  18  19
ENDBRANCH  17  18
ENDBRANCH   1  17
TORSDOF 26
ENDMDL
MODEL 9
REMARK VINA RESULT:    -4.243      3.211      7.925
REMARK INTER + INTRA:         -14.910
REMARK INTER:                 -10.431
REMARK INTRA:                  -4.479
REMARK UNBOUND:                -4.217
REMARK SMILES CCCCCCCCCCCCCCCCCCCCCCCCCCCC(=O)[O-]
REMARK SMILES IDX 15 1 16 2 17 3 18 4 19 5 20 6 21 7 22 8 23 9 24 10 25 11
REMARK SMILES IDX 26 12 27 13 28 14 29 15 30 16 14 17 13 18 12 19 11 20 10 21
REMARK SMILES IDX 9 22 8 23 7 24 6 25 5 26 4 27 3 28 2 29 1 30
REMARK H PARENT
REMARK Flexibility Score: inf
ROOT
ATOM      1  C   UNL     1       8.389  12.111  44.592  1.00  0.00     0.000 C 
ENDROOT
BRANCH   1   2
ATOM      2  C   UNL     1       6.854  12.103  44.497  1.00  0.00     0.000 C 
BRANCH   2   3
ATOM      3  C   UNL     1       6.231  10.797  45.018  1.00  0.00     0.000 C 
BRANCH   3   4
ATOM      4  C   UNL     1       5.457  10.995  46.332  1.00  0.00     0.000 C 
BRANCH   4   5
ATOM      5  C   UNL     1       6.213  10.460  47.560  1.00  0.00     0.000 C 
BRANCH   5   6
ATOM      6  C   UNL     1       6.364  11.519  48.665  1.00  0.00     0.000 C 
BRANCH   6   7
ATOM      7  C   UNL     1       5.348  12.668  48.525  1.00  0.00     0.000 C 
BRANCH   7   8
ATOM      8  C   UNL     1       4.375  12.780  49.715  1.00  0.00     0.000 C 
BRANCH   8   9
ATOM      9  C   UNL     1       2.903  13.014  49.323  1.00  0.00     0.000 C 
BRANCH   9  10
ATOM     10  C   UNL     1       2.373  11.990  48.302  1.00  0.00     0.000 C 
BRANCH  10  11
ATOM     11  C   UNL     1       2.170  10.595  48.916  1.00  0.00     0.000 C 
BRANCH  11  12
ATOM     12  C   UNL     1       1.617   9.580  47.900  1.00  0.00     0.006 C 
BRANCH  12  13
ATOM     13  C   UNL     1       0.082   9.541  47.888  1.00  0.00     0.053 C 
BRANCH  13  14
ATOM     14  C   UNL     1      -0.470   9.682  46.501  1.00  0.00     0.041 C 
ATOM     15  O   UNL     1      -0.979  10.770  46.126  1.00  0.00    -0.550 OA
ATOM     16  O   UNL     1      -0.476   8.588  45.644  1.00  0.00    -0.550 OA
ENDBRANCH  13  14
ENDBRANCH  12  13
ENDBRANCH  11  12
ENDBRANCH  10  11
ENDBRANCH   9  10
ENDBRANCH   8   9
ENDBRANCH   7   8
ENDBRANCH   6   7
ENDBRANCH   5   6
ENDBRANCH   4   5
ENDBRANCH   3   4
ENDBRANCH   2   3
ENDBRANCH   1   2
BRANCH   1  17
ATOM     17  C   UNL     1       8.960  12.286  46.017  1.00  0.00     0.000 C 
BRANCH  17  18
ATOM     18  C   UNL     1       9.786  11.100  46.549  1.00  0.00     0.000 C 
BRANCH  18  19
ATOM     19  C   UNL     1      10.618  10.416  45.453  1.00  0.00     0.000 C 
BRANCH  19  20
ATOM     20  C   UNL     1      10.388   8.898  45.452  1.00  0.00     0.000 C 
BRANCH  20  21
ATOM     21  C   UNL     1       8.905   8.523  45.291  1.00  0.00     0.000 C 
BRANCH  21  22
ATOM     22  C   UNL     1       8.522   7.268  46.091  1.00  0.00    -0.000 C 
BRANCH  22  23
ATOM     23  C   UNL     1       8.481   7.557  47.600  1.00  0.00    -0.000 C 
BRANCH  23  24
ATOM     24  C   UNL     1       9.240   6.503  48.424  1.00  0.00    -0.000 C 
BRANCH  24  25
ATOM     25  C   UNL     1      10.086   7.122  49.547  1.00  0.00    -0.000 C 
BRANCH  25  26
ATOM     26  C   UNL     1      10.347   8.613  49.281  1.00  0.00    -0.000 C 
BRANCH  26  27
ATOM     27  C   UNL     1       9.918   9.503  50.466  1.00  0.00    -0.000 C 
BRANCH  27  28
ATOM     28  C   UNL     1       8.417   9.414  50.789  1.00  0.00    -0.000 C 
BRANCH  28  29
ATOM     29  C   UNL     1       8.142   9.239  52.287  1.00  0.00    -0.003 C 
ATOM     30  C   UNL     1       8.230   7.770  52.689  1.00  0.00     0.004 C 
ENDBRANCH  28  29
ENDBRANCH  27  28
ENDBRANCH  26  27
ENDBRANCH  25  26
ENDBRANCH  24  25
ENDBRANCH  23  24
ENDBRANCH  22  23
ENDBRANCH  21  22
ENDBRANCH  20  21
ENDBRANCH  19  20
ENDBRANCH  18  19
ENDBRANCH  17  18
ENDBRANCH   1  17
TORSDOF 26
ENDMDL
