MODEL 1
REMARK VINA RESULT:    -7.399      0.000      0.000
REMARK INTER + INTRA:         -13.323
REMARK INTER:                 -11.292
REMARK INTRA:                  -2.032
REMARK UNBOUND:                -2.032
REMARK SMILES CC(=O)CCC=C(C)CCC=C(C)CCC=C(C)C
REMARK SMILES IDX 10 1 11 2 12 3 13 4 14 5 15 6 16 7 18 8 17 9 19 10 9 11 7 12
REMARK SMILES IDX 6 13 8 14 5 15 4 16 2 17 3 18 1 19
REMARK H PARENT
REMARK Flexibility Score: inf
ROOT
ATOM      1  C   UNL     1      -0.609  13.686  22.886  1.00  0.00     0.032 C 
ENDROOT
BRANCH   1   2
ATOM      2  C   UNL     1       0.871  13.595  22.602  1.00  0.00    -0.028 C 
ATOM      3  C   UNL     1       1.406  13.325  21.389  1.00  0.00    -0.077 C 
ATOM      4  C   UNL     1       0.543  13.008  20.190  1.00  0.00     0.039 C 
BRANCH   3   5
ATOM      5  C   UNL     1       2.912  13.307  21.241  1.00  0.00     0.034 C 
BRANCH   5   6
ATOM      6  C   UNL     1       3.526  12.166  22.059  1.00  0.00     0.032 C 
BRANCH   6   7
ATOM      7  C   UNL     1       3.269  10.835  21.397  1.00  0.00    -0.028 C 
ATOM      8  C   UNL     1       2.383   8.554  21.177  1.00  0.00     0.039 C 
ATOM      9  C   UNL     1       2.599   9.814  21.974  1.00  0.00    -0.080 C 
ATOM     10  C   UNL     1       2.078   9.898  23.391  1.00  0.00     0.039 C 
ENDBRANCH   6   7
ENDBRANCH   5   6
ENDBRANCH   3   5
ENDBRANCH   1   2
BRANCH   1  11
ATOM     11  C   UNL     1      -0.995  15.048  23.483  1.00  0.00     0.034 C 
BRANCH  11  12
ATOM     12  C   UNL     1      -0.557  16.201  22.595  1.00  0.00    -0.077 C 
ATOM     13  C   UNL     1      -1.318  16.682  21.584  1.00  0.00    -0.028 C 
ATOM     14  C   UNL     1       0.772  16.860  22.864  1.00  0.00     0.039 C 
BRANCH  13  15
ATOM     15  C   UNL     1      -2.632  16.092  21.139  1.00  0.00     0.035 C 
BRANCH  15  16
ATOM     16  C   UNL     1      -2.437  15.207  19.904  1.00  0.00     0.079 C 
BRANCH  16  17
ATOM     17  C   UNL     1      -3.096  13.870  20.097  1.00  0.00     0.130 C 
ATOM     18  O   UNL     1      -2.991  13.011  19.234  1.00  0.00    -0.300 OA
ATOM     19  C   UNL     1      -3.863  13.576  21.350  1.00  0.00     0.087 C 
ENDBRANCH  16  17
ENDBRANCH  15  16
ENDBRANCH  13  15
ENDBRANCH  11  12
ENDBRANCH   1  11
TORSDOF 9
ENDMDL
MODEL 2
REMARK VINA RESULT:    -7.375      2.186      6.759
REMARK INTER + INTRA:         -13.287
REMARK INTER:                 -11.225
REMARK INTRA:                  -2.062
REMARK UNBOUND:                -2.032
REMARK SMILES CC(=O)CCC=C(C)CCC=C(C)CCC=C(C)C
REMARK SMILES IDX 10 1 11 2 12 3 13 4 14 5 15 6 16 7 18 8 17 9 19 10 9 11 7 12
REMARK SMILES IDX 6 13 8 14 5 15 4 16 2 17 3 18 1 19
REMARK H PARENT
REMARK Flexibility Score: inf
ROOT
ATOM      1  C   UNL     1       0.676  11.366  22.858  1.00  0.00     0.032 C 
ENDROOT
BRANCH   1   2
ATOM      2  C   UNL     1      -0.802  11.491  22.577  1.00  0.00    -0.028 C 
ATOM      3  C   UNL     1      -1.334  11.774  21.366  1.00  0.00    -0.077 C 
ATOM      4  C   UNL     1      -0.467  12.072  20.166  1.00  0.00     0.039 C 
BRANCH   3   5
ATOM      5  C   UNL     1      -2.839  11.825  21.221  1.00  0.00     0.034 C 
BRANCH   5   6
ATOM      6  C   UNL     1      -3.433  12.932  22.100  1.00  0.00     0.032 C 
BRANCH   6   7
ATOM      7  C   UNL     1      -3.216  14.286  21.473  1.00  0.00    -0.028 C 
ATOM      8  C   UNL     1      -2.305  16.557  21.259  1.00  0.00     0.039 C 
ATOM      9  C   UNL     1      -2.463  15.267  22.019  1.00  0.00    -0.080 C 
ATOM     10  C   UNL     1      -1.795  15.107  23.365  1.00  0.00     0.039 C 
ENDBRANCH   6   7
ENDBRANCH   5   6
ENDBRANCH   3   5
ENDBRANCH   1   2
BRANCH   1  11
ATOM     11  C   UNL     1       1.033   9.995  23.449  1.00  0.00     0.034 C 
BRANCH  11  12
ATOM     12  C   UNL     1       0.633   8.857  22.525  1.00  0.00    -0.077 C 
ATOM     13  C   UNL     1       1.415   8.423  21.509  1.00  0.00    -0.028 C 
ATOM     14  C   UNL     1      -0.682   8.158  22.761  1.00  0.00     0.039 C 
BRANCH  13  15
ATOM     15  C   UNL     1       2.719   9.057  21.094  1.00  0.00     0.035 C 
BRANCH  15  16
ATOM     16  C   UNL     1       2.507  10.003  19.908  1.00  0.00     0.079 C 
BRANCH  16  17
ATOM     17  C   UNL     1       3.258  11.289  20.111  1.00  0.00     0.130 C 
ATOM     18  O   UNL     1       3.325  12.104  19.202  1.00  0.00    -0.300 OA
ATOM     19  C   UNL     1       3.907  11.588  21.428  1.00  0.00     0.087 C 
ENDBRANCH  16  17
ENDBRANCH  15  16
ENDBRANCH  13  15
ENDBRANCH  11  12
ENDBRANCH   1  11
TORSDOF 9
ENDMDL
MODEL 3
REMARK VINA RESULT:    -7.374      2.023      6.381
REMARK INTER + INTRA:         -13.285
REMARK INTER:                 -11.087
REMARK INTRA:                  -2.198
REMARK UNBOUND:                -2.032
REMARK SMILES CC(=O)CCC=C(C)CCC=C(C)CCC=C(C)C
REMARK SMILES IDX 10 1 11 2 12 3 13 4 14 5 15 6 16 7 18 8 17 9 19 10 9 11 7 12
REMARK SMILES IDX 6 13 8 14 5 15 4 16 2 17 3 18 1 19
REMARK H PARENT
REMARK Flexibility Score: inf
ROOT
ATOM      1  C   UNL     1       0.898  12.288  19.896  1.00  0.00     0.032 C 
ENDROOT
BRANCH   1   2
ATOM      2  C   UNL     1      -0.517  11.896  20.248  1.00  0.00    -0.028 C 
ATOM      3  C   UNL     1      -1.097  12.108  21.451  1.00  0.00    -0.077 C 
ATOM      4  C   UNL     1      -0.334  12.709  22.609  1.00  0.00     0.039 C 
BRANCH   3   5
ATOM      5  C   UNL     1      -2.541  11.701  21.651  1.00  0.00     0.034 C 
BRANCH   5   6
ATOM      6  C   UNL     1      -3.388  12.898  22.096  1.00  0.00     0.032 C 
BRANCH   6   7
ATOM      7  C   UNL     1      -3.338  14.000  21.068  1.00  0.00    -0.028 C 
ATOM      8  C   UNL     1      -2.830  16.228  20.167  1.00  0.00     0.039 C 
ATOM      9  C   UNL     1      -2.854  15.239  21.303  1.00  0.00    -0.080 C 
ATOM     10  C   UNL     1      -2.354  15.657  22.667  1.00  0.00     0.039 C 
ENDBRANCH   6   7
ENDBRANCH   5   6
ENDBRANCH   3   5
ENDBRANCH   1   2
BRANCH   1  11
ATOM     11  C   UNL     1       1.912  11.216  20.320  1.00  0.00     0.034 C 
BRANCH  11  12
ATOM     12  C   UNL     1       2.800  11.693  21.457  1.00  0.00    -0.077 C 
ATOM     13  C   UNL     1       3.078  10.935  22.543  1.00  0.00    -0.028 C 
ATOM     14  C   UNL     1       3.425  13.062  21.364  1.00  0.00     0.039 C 
BRANCH  13  15
ATOM     15  C   UNL     1       2.478   9.580  22.824  1.00  0.00     0.035 C 
BRANCH  15  16
ATOM     16  C   UNL     1       1.262   9.707  23.746  1.00  0.00     0.079 C 
BRANCH  16  17
ATOM     17  C   UNL     1       0.071   9.005  23.156  1.00  0.00     0.130 C 
ATOM     18  O   UNL     1      -1.037   9.177  23.643  1.00  0.00    -0.300 OA
ATOM     19  C   UNL     1       0.230   8.113  21.964  1.00  0.00     0.087 C 
ENDBRANCH  16  17
ENDBRANCH  15  16
ENDBRANCH  13  15
ENDBRANCH  11  12
ENDBRANCH   1  11
TORSDOF 9
ENDMDL
MODEL 4
REMARK VINA RESULT:    -7.327      1.977      3.583
REMARK INTER + INTRA:         -13.214
REMARK INTER:                 -11.234
REMARK INTRA:                  -1.980
REMARK UNBOUND:                -2.032
REMARK SMILES CC(=O)CCC=C(C)CCC=C(C)CCC=C(C)C
REMARK SMILES IDX 10 1 11 2 12 3 13 4 14 5 15 6 16 7 18 8 17 9 19 10 9 11 7 12
REMARK SMILES IDX 6 13 8 14 5 15 4 16 2 17 3 18 1 19
REMARK H PARENT
REMARK Flexibility Score: inf
ROOT
ATOM      1  C   UNL     1       0.080  12.936  20.790  1.00  0.00     0.032 C 
ENDROOT
BRANCH   1   2
ATOM      2  C   UNL     1       0.702  11.678  20.233  1.00  0.00    -0.028 C 
ATOM      3  C   UNL     1       1.992  11.313  20.415  1.00  0.00    -0.077 C 
ATOM      4  C   UNL     1       2.974  12.194  21.151  1.00  0.00     0.039 C 
BRANCH   3   5
ATOM      5  C   UNL     1       2.470  10.000  19.833  1.00  0.00     0.034 C 
BRANCH   5   6
ATOM      6  C   UNL     1       2.584   8.930  20.925  1.00  0.00     0.032 C 
BRANCH   6   7
ATOM      7  C   UNL     1       1.219   8.542  21.437  1.00  0.00    -0.028 C 
ATOM      8  C   UNL     1      -0.672   8.476  23.003  1.00  0.00     0.039 C 
ATOM      9  C   UNL     1       0.725   8.906  22.641  1.00  0.00    -0.080 C 
ATOM     10  C   UNL     1       1.537   9.713  23.628  1.00  0.00     0.039 C 
ENDBRANCH   6   7
ENDBRANCH   5   6
ENDBRANCH   3   5
ENDBRANCH   1   2
BRANCH   1  11
ATOM     11  C   UNL     1      -0.553  12.700  22.169  1.00  0.00     0.034 C 
BRANCH  11  12
ATOM     12  C   UNL     1      -2.071  12.704  22.106  1.00  0.00    -0.077 C 
ATOM     13  C   UNL     1      -2.821  13.766  22.482  1.00  0.00    -0.028 C 
ATOM     14  C   UNL     1      -2.779  11.482  21.577  1.00  0.00     0.039 C 
BRANCH  13  15
ATOM     15  C   UNL     1      -2.277  15.030  23.098  1.00  0.00     0.035 C 
BRANCH  15  16
ATOM     16  C   UNL     1      -2.117  16.123  22.037  1.00  0.00     0.079 C 
BRANCH  16  17
ATOM     17  C   UNL     1      -0.722  16.683  22.056  1.00  0.00     0.130 C 
ATOM     18  O   UNL     1      -0.413  17.570  21.274  1.00  0.00    -0.300 OA
ATOM     19  C   UNL     1       0.286  16.176  23.041  1.00  0.00     0.087 C 
ENDBRANCH  16  17
ENDBRANCH  15  16
ENDBRANCH  13  15
ENDBRANCH  11  12
ENDBRANCH   1  11
TORSDOF 9
ENDMDL
MODEL 5
REMARK VINA RESULT:    -7.293      1.910      6.096
REMARK INTER + INTRA:         -13.161
REMARK INTER:                 -11.199
REMARK INTRA:                  -1.962
REMARK UNBOUND:                -2.032
REMARK SMILES CC(=O)CCC=C(C)CCC=C(C)CCC=C(C)C
REMARK SMILES IDX 10 1 11 2 12 3 13 4 14 5 15 6 16 7 18 8 17 9 19 10 9 11 7 12
REMARK SMILES IDX 6 13 8 14 5 15 4 16 2 17 3 18 1 19
REMARK H PARENT
REMARK Flexibility Score: inf
ROOT
ATOM      1  C   UNL     1       0.115  12.151  20.765  1.00  0.00     0.032 C 
ENDROOT
BRANCH   1   2
ATOM      2  C   UNL     1      -0.548  13.384  20.198  1.00  0.00    -0.028 C 
ATOM      3  C   UNL     1      -1.850  13.706  20.371  1.00  0.00    -0.077 C 
ATOM      4  C   UNL     1      -2.805  12.797  21.108  1.00  0.00     0.039 C 
BRANCH   3   5
ATOM      5  C   UNL     1      -2.369  14.998  19.779  1.00  0.00     0.034 C 
BRANCH   5   6
ATOM      6  C   UNL     1      -2.561  16.059  20.869  1.00  0.00     0.032 C 
BRANCH   6   7
ATOM      7  C   UNL     1      -1.228  16.550  21.376  1.00  0.00    -0.028 C 
ATOM      8  C   UNL     1       0.657  16.762  22.937  1.00  0.00     0.039 C 
ATOM      9  C   UNL     1      -0.705  16.227  22.579  1.00  0.00    -0.080 C 
ATOM     10  C   UNL     1      -1.451  15.364  23.570  1.00  0.00     0.039 C 
ENDBRANCH   6   7
ENDBRANCH   5   6
ENDBRANCH   3   5
ENDBRANCH   1   2
BRANCH   1  11
ATOM     11  C   UNL     1       0.764  12.427  22.130  1.00  0.00     0.034 C 
BRANCH  11  12
ATOM     12  C   UNL     1       2.281  12.417  22.049  1.00  0.00    -0.077 C 
ATOM     13  C   UNL     1       3.025  11.318  22.316  1.00  0.00    -0.028 C 
ATOM     14  C   UNL     1       2.994  13.677  21.630  1.00  0.00     0.039 C 
BRANCH  13  15
ATOM     15  C   UNL     1       2.476  10.006  22.817  1.00  0.00     0.035 C 
BRANCH  15  16
ATOM     16  C   UNL     1       2.103   9.093  21.644  1.00  0.00     0.079 C 
BRANCH  16  17
ATOM     17  C   UNL     1       0.784   8.417  21.895  1.00  0.00     0.130 C 
ATOM     18  O   UNL     1       0.498   7.399  21.282  1.00  0.00    -0.300 OA
ATOM     19  C   UNL     1      -0.173   8.971  22.906  1.00  0.00     0.087 C 
ENDBRANCH  16  17
ENDBRANCH  15  16
ENDBRANCH  13  15
ENDBRANCH  11  12
ENDBRANCH   1  11
TORSDOF 9
ENDMDL
MODEL 6
REMARK VINA RESULT:    -7.275      2.139      3.651
REMARK INTER + INTRA:         -13.134
REMARK INTER:                 -11.254
REMARK INTRA:                  -1.880
REMARK UNBOUND:                -2.032
REMARK SMILES CC(=O)CCC=C(C)CCC=C(C)CCC=C(C)C
REMARK SMILES IDX 10 1 11 2 12 3 13 4 14 5 15 6 16 7 18 8 17 9 19 10 9 11 7 12
REMARK SMILES IDX 6 13 8 14 5 15 4 16 2 17 3 18 1 19
REMARK H PARENT
REMARK Flexibility Score: inf
ROOT
ATOM      1  C   UNL     1      -0.506  13.198  19.822  1.00  0.00     0.032 C 
ENDROOT
BRANCH   1   2
ATOM      2  C   UNL     1       0.451  12.930  20.959  1.00  0.00    -0.028 C 
ATOM      3  C   UNL     1       1.514  12.097  20.890  1.00  0.00    -0.077 C 
ATOM      4  C   UNL     1       1.805  11.278  19.654  1.00  0.00     0.039 C 
BRANCH   3   5
ATOM      5  C   UNL     1       2.415  11.957  22.098  1.00  0.00     0.034 C 
BRANCH   5   6
ATOM      6  C   UNL     1       2.514  10.492  22.536  1.00  0.00     0.032 C 
BRANCH   6   7
ATOM      7  C   UNL     1       1.201  10.015  23.106  1.00  0.00    -0.028 C 
ATOM      8  C   UNL     1      -0.765   8.561  23.341  1.00  0.00     0.039 C 
ATOM      9  C   UNL     1       0.516   8.944  22.648  1.00  0.00    -0.080 C 
ATOM     10  C   UNL     1       0.991   8.139  21.460  1.00  0.00     0.039 C 
ENDBRANCH   6   7
ENDBRANCH   5   6
ENDBRANCH   3   5
ENDBRANCH   1   2
BRANCH   1  11
ATOM     11  C   UNL     1      -1.698  14.058  20.268  1.00  0.00     0.034 C 
BRANCH  11  12
ATOM     12  C   UNL     1      -2.510  13.381  21.359  1.00  0.00    -0.077 C 
ATOM     13  C   UNL     1      -2.815  13.984  22.532  1.00  0.00    -0.028 C 
ATOM     14  C   UNL     1      -3.023  11.983  21.121  1.00  0.00     0.039 C 
BRANCH  13  15
ATOM     15  C   UNL     1      -2.320  15.344  22.956  1.00  0.00     0.035 C 
BRANCH  15  16
ATOM     16  C   UNL     1      -0.943  15.236  23.617  1.00  0.00     0.079 C 
BRANCH  16  17
ATOM     17  C   UNL     1       0.017  16.222  23.011  1.00  0.00     0.130 C 
ATOM     18  O   UNL     1       1.148  16.323  23.462  1.00  0.00    -0.300 OA
ATOM     19  C   UNL     1      -0.398  17.066  21.844  1.00  0.00     0.087 C 
ENDBRANCH  16  17
ENDBRANCH  15  16
ENDBRANCH  13  15
ENDBRANCH  11  12
ENDBRANCH   1  11
TORSDOF 9
ENDMDL
MODEL 7
REMARK VINA RESULT:    -7.272      1.861      3.400
REMARK INTER + INTRA:         -13.130
REMARK INTER:                 -10.975
REMARK INTRA:                  -2.155
REMARK UNBOUND:                -2.032
REMARK SMILES CC(=O)CCC=C(C)CCC=C(C)CCC=C(C)C
REMARK SMILES IDX 10 1 11 2 12 3 13 4 14 5 15 6 16 7 18 8 17 9 19 10 9 11 7 12
REMARK SMILES IDX 6 13 8 14 5 15 4 16 2 17 3 18 1 19
REMARK H PARENT
REMARK Flexibility Score: inf
ROOT
ATOM      1  C   UNL     1      -0.879  12.836  19.821  1.00  0.00     0.032 C 
ENDROOT
BRANCH   1   2
ATOM      2  C   UNL     1       0.485  13.321  20.251  1.00  0.00    -0.028 C 
ATOM      3  C   UNL     1       1.057  13.049  21.446  1.00  0.00    -0.077 C 
ATOM      4  C   UNL     1       0.330  12.272  22.519  1.00  0.00     0.039 C 
BRANCH   3   5
ATOM      5  C   UNL     1       2.451  13.567  21.726  1.00  0.00     0.034 C 
BRANCH   5   6
ATOM      6  C   UNL     1       3.386  12.422  22.130  1.00  0.00     0.032 C 
BRANCH   6   7
ATOM      7  C   UNL     1       3.361  11.322  21.098  1.00  0.00    -0.028 C 
ATOM      8  C   UNL     1       2.973   9.065  20.211  1.00  0.00     0.039 C 
ATOM      9  C   UNL     1       2.986  10.049  21.351  1.00  0.00    -0.080 C 
ATOM     10  C   UNL     1       2.597   9.590  22.737  1.00  0.00     0.039 C 
ENDBRANCH   6   7
ENDBRANCH   5   6
ENDBRANCH   3   5
ENDBRANCH   1   2
BRANCH   1  11
ATOM     11  C   UNL     1      -1.989  13.820  20.218  1.00  0.00     0.034 C 
BRANCH  11  12
ATOM     12  C   UNL     1      -2.785  13.325  21.414  1.00  0.00    -0.077 C 
ATOM     13  C   UNL     1      -3.001  14.078  22.518  1.00  0.00    -0.028 C 
ATOM     14  C   UNL     1      -3.387  11.944  21.364  1.00  0.00     0.039 C 
BRANCH  13  15
ATOM     15  C   UNL     1      -2.411  15.445  22.757  1.00  0.00     0.035 C 
BRANCH  15  16
ATOM     16  C   UNL     1      -1.112  15.341  23.563  1.00  0.00     0.079 C 
BRANCH  16  17
ATOM     17  C   UNL     1      -0.056  16.244  22.989  1.00  0.00     0.130 C 
ATOM     18  O   UNL     1       1.044  16.304  23.518  1.00  0.00    -0.300 OA
ATOM     19  C   UNL     1      -0.337  17.056  21.762  1.00  0.00     0.087 C 
ENDBRANCH  16  17
ENDBRANCH  15  16
ENDBRANCH  13  15
ENDBRANCH  11  12
ENDBRANCH   1  11
TORSDOF 9
ENDMDL
MODEL 8
REMARK VINA RESULT:    -7.260      2.232      6.463
REMARK INTER + INTRA:         -13.112
REMARK INTER:                 -11.176
REMARK INTRA:                  -1.937
REMARK UNBOUND:                -2.032
REMARK SMILES CC(=O)CCC=C(C)CCC=C(C)CCC=C(C)C
REMARK SMILES IDX 10 1 11 2 12 3 13 4 14 5 15 6 16 7 18 8 17 9 19 10 9 11 7 12
REMARK SMILES IDX 6 13 8 14 5 15 4 16 2 17 3 18 1 19
REMARK H PARENT
REMARK Flexibility Score: inf
ROOT
ATOM      1  C   UNL     1      -0.689  12.102  20.456  1.00  0.00     0.032 C 
ENDROOT
BRANCH   1   2
ATOM      2  C   UNL     1      -1.026  13.526  20.082  1.00  0.00    -0.028 C 
ATOM      3  C   UNL     1      -2.263  14.069  20.159  1.00  0.00    -0.077 C 
ATOM      4  C   UNL     1      -3.467  13.254  20.568  1.00  0.00     0.039 C 
BRANCH   3   5
ATOM      5  C   UNL     1      -2.447  15.525  19.791  1.00  0.00     0.034 C 
BRANCH   5   6
ATOM      6  C   UNL     1      -2.525  16.399  21.049  1.00  0.00     0.032 C 
BRANCH   6   7
ATOM      7  C   UNL     1      -1.144  16.740  21.549  1.00  0.00    -0.028 C 
ATOM      8  C   UNL     1       0.821  16.622  23.019  1.00  0.00     0.039 C 
ATOM      9  C   UNL     1      -0.585  16.217  22.662  1.00  0.00    -0.080 C 
ATOM     10  C   UNL     1      -1.335  15.257  23.557  1.00  0.00     0.039 C 
ENDBRANCH   6   7
ENDBRANCH   5   6
ENDBRANCH   3   5
ENDBRANCH   1   2
BRANCH   1  11
ATOM     11  C   UNL     1      -0.152  11.999  21.891  1.00  0.00     0.034 C 
BRANCH  11  12
ATOM     12  C   UNL     1      -0.688  10.774  22.611  1.00  0.00    -0.077 C 
ATOM     13  C   UNL     1       0.100   9.929  23.316  1.00  0.00    -0.028 C 
ATOM     14  C   UNL     1      -2.169  10.494  22.564  1.00  0.00     0.039 C 
BRANCH  13  15
ATOM     15  C   UNL     1       1.603  10.023  23.402  1.00  0.00     0.035 C 
BRANCH  15  16
ATOM     16  C   UNL     1       2.261   9.191  22.297  1.00  0.00     0.079 C 
BRANCH  16  17
ATOM     17  C   UNL     1       2.971  10.079  21.313  1.00  0.00     0.130 C 
ATOM     18  O   UNL     1       3.585  11.057  21.711  1.00  0.00    -0.300 OA
ATOM     19  C   UNL     1       2.946   9.760  19.849  1.00  0.00     0.087 C 
ENDBRANCH  16  17
ENDBRANCH  15  16
ENDBRANCH  13  15
ENDBRANCH  11  12
ENDBRANCH   1  11
TORSDOF 9
ENDMDL
MODEL 9
REMARK VINA RESULT:    -7.235      2.144      6.045
REMARK INTER + INTRA:         -13.074
REMARK INTER:                 -10.864
REMARK INTRA:                  -2.209
REMARK UNBOUND:                -2.032
REMARK SMILES CC(=O)CCC=C(C)CCC=C(C)CCC=C(C)C
REMARK SMILES IDX 10 1 11 2 12 3 13 4 14 5 15 6 16 7 18 8 17 9 19 10 9 11 7 12
REMARK SMILES IDX 6 13 8 14 5 15 4 16 2 17 3 18 1 19
REMARK H PARENT
REMARK Flexibility Score: inf
ROOT
ATOM      1  C   UNL     1       1.742  13.855  21.755  1.00  0.00     0.032 C 
ENDROOT
BRANCH   1   2
ATOM      2  C   UNL     1       0.560  14.019  22.680  1.00  0.00    -0.028 C 
ATOM      3  C   UNL     1       0.052  15.208  23.077  1.00  0.00    -0.077 C 
ATOM      4  C   UNL     1       0.688  16.519  22.676  1.00  0.00     0.039 C 
BRANCH   3   5
ATOM      5  C   UNL     1      -1.165  15.222  23.974  1.00  0.00     0.034 C 
BRANCH   5   6
ATOM      6  C   UNL     1      -2.428  15.563  23.174  1.00  0.00     0.032 C 
BRANCH   6   7
ATOM      7  C   UNL     1      -2.983  14.332  22.503  1.00  0.00    -0.028 C 
ATOM      8  C   UNL     1      -3.649  12.883  20.635  1.00  0.00     0.039 C 
ATOM      9  C   UNL     1      -3.112  14.186  21.166  1.00  0.00    -0.080 C 
ATOM     10  C   UNL     1      -2.749  15.292  20.202  1.00  0.00     0.039 C 
ENDBRANCH   6   7
ENDBRANCH   5   6
ENDBRANCH   3   5
ENDBRANCH   1   2
BRANCH   1  11
ATOM     11  C   UNL     1       1.751  12.477  21.076  1.00  0.00     0.034 C 
BRANCH  11  12
ATOM     12  C   UNL     1       0.400  12.135  20.470  1.00  0.00    -0.077 C 
ATOM     13  C   UNL     1      -0.454  11.246  21.029  1.00  0.00    -0.028 C 
ATOM     14  C   UNL     1      -0.024  12.832  19.202  1.00  0.00     0.039 C 
BRANCH  13  15
ATOM     15  C   UNL     1      -0.154  10.413  22.249  1.00  0.00     0.035 C 
BRANCH  15  16
ATOM     16  C   UNL     1       0.431   9.056  21.847  1.00  0.00     0.079 C 
BRANCH  16  17
ATOM     17  C   UNL     1       1.908   9.010  22.123  1.00  0.00     0.130 C 
ATOM     18  O   UNL     1       2.654   8.443  21.339  1.00  0.00    -0.300 OA
ATOM     19  C   UNL     1       2.473   9.672  23.343  1.00  0.00     0.087 C 
ENDBRANCH  16  17
ENDBRANCH  15  16
ENDBRANCH  13  15
ENDBRANCH  11  12
ENDBRANCH   1  11
TORSDOF 9
ENDMDL
