MODEL 1
REMARK VINA RESULT:    -4.323      0.000      0.000
REMARK INTER + INTRA:          -7.592
REMARK INTER:                  -6.598
REMARK INTRA:                  -0.994
REMARK UNBOUND:                -0.994
REMARK SMILES CCCCCCCCCCC(=O)[O-]
REMARK SMILES IDX 7 1 8 2 9 3 10 4 11 5 12 6 13 7 6 8 5 9 4 10 3 11 2 12 1 13
REMARK H PARENT
REMARK Flexibility Score: inf
ROOT
ATOM      1  C   UNL     1     -25.651  62.726  31.053  1.00  0.00     0.000 C 
ENDROOT
BRANCH   1   2
ATOM      2  C   UNL     1     -25.199  61.409  31.701  1.00  0.00     0.000 C 
BRANCH   2   3
ATOM      3  C   UNL     1     -26.359  60.422  31.907  1.00  0.00     0.006 C 
BRANCH   3   4
ATOM      4  C   UNL     1     -27.646  61.112  32.379  1.00  0.00     0.053 C 
BRANCH   4   5
ATOM      5  C   UNL     1     -27.589  61.372  33.851  1.00  0.00     0.041 C 
ATOM      6  O   UNL     1     -27.421  60.420  34.657  1.00  0.00    -0.550 OA
ATOM      7  O   UNL     1     -27.772  62.661  34.336  1.00  0.00    -0.550 OA
ENDBRANCH   4   5
ENDBRANCH   3   4
ENDBRANCH   2   3
ENDBRANCH   1   2
BRANCH   1   8
ATOM      8  C   UNL     1     -24.743  63.097  29.874  1.00  0.00     0.000 C 
BRANCH   8   9
ATOM      9  C   UNL     1     -23.622  62.063  29.694  1.00  0.00    -0.000 C 
BRANCH   9  10
ATOM     10  C   UNL     1     -23.404  61.686  28.213  1.00  0.00    -0.000 C 
BRANCH  10  11
ATOM     11  C   UNL     1     -23.399  60.167  27.954  1.00  0.00    -0.000 C 
BRANCH  11  12
ATOM     12  C   UNL     1     -24.509  59.388  28.680  1.00  0.00    -0.003 C 
ATOM     13  C   UNL     1     -23.966  58.427  29.737  1.00  0.00     0.004 C 
ENDBRANCH  11  12
ENDBRANCH  10  11
ENDBRANCH   9  10
ENDBRANCH   8   9
ENDBRANCH   1   8
TORSDOF 9
ENDMDL
MODEL 2
REMARK VINA RESULT:    -4.308      1.925      3.042
REMARK INTER + INTRA:          -7.569
REMARK INTER:                  -6.544
REMARK INTRA:                  -1.025
REMARK UNBOUND:                -0.994
REMARK SMILES CCCCCCCCCCC(=O)[O-]
REMARK SMILES IDX 7 1 8 2 9 3 10 4 11 5 12 6 13 7 6 8 5 9 4 10 3 11 2 12 1 13
REMARK H PARENT
REMARK Flexibility Score: inf
ROOT
ATOM      1  C   UNL     1     -24.188  61.512  29.191  1.00  0.00     0.000 C 
ENDROOT
BRANCH   1   2
ATOM      2  C   UNL     1     -24.519  62.893  29.774  1.00  0.00     0.000 C 
BRANCH   2   3
ATOM      3  C   UNL     1     -25.484  62.817  30.967  1.00  0.00     0.006 C 
BRANCH   3   4
ATOM      4  C   UNL     1     -25.667  61.385  31.489  1.00  0.00     0.053 C 
BRANCH   4   5
ATOM      5  C   UNL     1     -26.876  61.300  32.365  1.00  0.00     0.041 C 
ATOM      6  O   UNL     1     -27.530  60.226  32.441  1.00  0.00    -0.550 OA
ATOM      7  O   UNL     1     -27.311  62.421  33.061  1.00  0.00    -0.550 OA
ENDBRANCH   4   5
ENDBRANCH   3   4
ENDBRANCH   2   3
ENDBRANCH   1   2
BRANCH   1   8
ATOM      8  C   UNL     1     -23.199  61.630  28.025  1.00  0.00     0.000 C 
BRANCH   8   9
ATOM      9  C   UNL     1     -21.951  60.768  28.269  1.00  0.00    -0.000 C 
BRANCH   9  10
ATOM     10  C   UNL     1     -20.717  61.617  28.643  1.00  0.00    -0.000 C 
BRANCH  10  11
ATOM     11  C   UNL     1     -20.307  61.498  30.123  1.00  0.00    -0.000 C 
BRANCH  11  12
ATOM     12  C   UNL     1     -21.090  62.412  31.081  1.00  0.00    -0.003 C 
ATOM     13  C   UNL     1     -21.847  61.635  32.157  1.00  0.00     0.004 C 
ENDBRANCH  11  12
ENDBRANCH  10  11
ENDBRANCH   9  10
ENDBRANCH   8   9
ENDBRANCH   1   8
TORSDOF 9
ENDMDL
MODEL 3
REMARK VINA RESULT:    -4.302      1.170      2.065
REMARK INTER + INTRA:          -7.560
REMARK INTER:                  -6.326
REMARK INTRA:                  -1.234
REMARK UNBOUND:                -0.994
REMARK SMILES CCCCCCCCCCC(=O)[O-]
REMARK SMILES IDX 7 1 8 2 9 3 10 4 11 5 12 6 13 7 6 8 5 9 4 10 3 11 2 12 1 13
REMARK H PARENT
REMARK Flexibility Score: inf
ROOT
ATOM      1  C   UNL     1     -23.227  62.257  30.783  1.00  0.00     0.000 C 
ENDROOT
BRANCH   1   2
ATOM      2  C   UNL     1     -24.392  63.107  30.255  1.00  0.00     0.000 C 
BRANCH   2   3
ATOM      3  C   UNL     1     -25.724  62.782  30.949  1.00  0.00     0.006 C 
BRANCH   3   4
ATOM      4  C   UNL     1     -25.598  61.639  31.965  1.00  0.00     0.053 C 
BRANCH   4   5
ATOM      5  C   UNL     1     -26.941  61.047  32.254  1.00  0.00     0.041 C 
ATOM      6  O   UNL     1     -27.105  59.800  32.223  1.00  0.00    -0.550 OA
ATOM      7  O   UNL     1     -28.025  61.878  32.509  1.00  0.00    -0.550 OA
ENDBRANCH   4   5
ENDBRANCH   3   4
ENDBRANCH   2   3
ENDBRANCH   1   2
BRANCH   1   8
ATOM      8  C   UNL     1     -22.407  61.672  29.627  1.00  0.00     0.000 C 
BRANCH   8   9
ATOM      9  C   UNL     1     -23.253  61.559  28.351  1.00  0.00    -0.000 C 
BRANCH   9  10
ATOM     10  C   UNL     1     -23.667  60.103  28.048  1.00  0.00    -0.000 C 
BRANCH  10  11
ATOM     11  C   UNL     1     -24.913  59.638  28.825  1.00  0.00    -0.000 C 
BRANCH  11  12
ATOM     12  C   UNL     1     -24.618  58.706  30.013  1.00  0.00    -0.003 C 
ATOM     13  C   UNL     1     -23.392  57.824  29.786  1.00  0.00     0.004 C 
ENDBRANCH  11  12
ENDBRANCH  10  11
ENDBRANCH   9  10
ENDBRANCH   8   9
ENDBRANCH   1   8
TORSDOF 9
ENDMDL
MODEL 4
REMARK VINA RESULT:    -4.300      1.484      2.894
REMARK INTER + INTRA:          -7.556
REMARK INTER:                  -6.195
REMARK INTRA:                  -1.361
REMARK UNBOUND:                -0.994
REMARK SMILES CCCCCCCCCCC(=O)[O-]
REMARK SMILES IDX 7 1 8 2 9 3 10 4 11 5 12 6 13 7 6 8 5 9 4 10 3 11 2 12 1 13
REMARK H PARENT
REMARK Flexibility Score: inf
ROOT
ATOM      1  C   UNL     1     -25.441  59.208  29.982  1.00  0.00     0.000 C 
ENDROOT
BRANCH   1   2
ATOM      2  C   UNL     1     -24.798  58.591  31.232  1.00  0.00     0.000 C 
BRANCH   2   3
ATOM      3  C   UNL     1     -25.404  59.129  32.537  1.00  0.00     0.006 C 
BRANCH   3   4
ATOM      4  C   UNL     1     -26.673  59.960  32.301  1.00  0.00     0.053 C 
BRANCH   4   5
ATOM      5  C   UNL     1     -26.657  61.190  33.152  1.00  0.00     0.041 C 
ATOM      6  O   UNL     1     -27.001  62.300  32.667  1.00  0.00    -0.550 OA
ATOM      7  O   UNL     1     -26.216  61.120  34.467  1.00  0.00    -0.550 OA
ENDBRANCH   4   5
ENDBRANCH   3   4
ENDBRANCH   2   3
ENDBRANCH   1   2
BRANCH   1   8
ATOM      8  C   UNL     1     -24.394  59.450  28.888  1.00  0.00     0.000 C 
BRANCH   8   9
ATOM      9  C   UNL     1     -24.228  60.951  28.605  1.00  0.00    -0.000 C 
BRANCH   9  10
ATOM     10  C   UNL     1     -25.017  61.826  29.602  1.00  0.00    -0.000 C 
BRANCH  10  11
ATOM     11  C   UNL     1     -24.124  62.724  30.481  1.00  0.00    -0.000 C 
BRANCH  11  12
ATOM     12  C   UNL     1     -22.745  62.130  30.813  1.00  0.00    -0.003 C 
ATOM     13  C   UNL     1     -22.677  61.536  32.219  1.00  0.00     0.004 C 
ENDBRANCH  11  12
ENDBRANCH  10  11
ENDBRANCH   9  10
ENDBRANCH   8   9
ENDBRANCH   1   8
TORSDOF 9
ENDMDL
MODEL 5
REMARK VINA RESULT:    -4.246     19.636     22.384
REMARK INTER + INTRA:          -7.475
REMARK INTER:                  -6.614
REMARK INTRA:                  -0.861
REMARK UNBOUND:                -0.994
REMARK SMILES CCCCCCCCCCC(=O)[O-]
REMARK SMILES IDX 7 1 8 2 9 3 10 4 11 5 12 6 13 7 6 8 5 9 4 10 3 11 2 12 1 13
REMARK H PARENT
REMARK Flexibility Score: inf
ROOT
ATOM      1  C   UNL     1     -14.741  44.094  23.563  1.00  0.00     0.000 C 
ENDROOT
BRANCH   1   2
ATOM      2  C   UNL     1     -14.517  43.174  22.355  1.00  0.00     0.000 C 
BRANCH   2   3
ATOM      3  C   UNL     1     -13.834  43.893  21.181  1.00  0.00     0.006 C 
BRANCH   3   4
ATOM      4  C   UNL     1     -12.540  43.199  20.734  1.00  0.00     0.053 C 
BRANCH   4   5
ATOM      5  C   UNL     1     -11.352  44.037  21.084  1.00  0.00     0.041 C 
ATOM      6  O   UNL     1     -11.428  45.293  21.047  1.00  0.00    -0.550 OA
ATOM      7  O   UNL     1     -10.144  43.429  21.403  1.00  0.00    -0.550 OA
ENDBRANCH   4   5
ENDBRANCH   3   4
ENDBRANCH   2   3
ENDBRANCH   1   2
BRANCH   1   8
ATOM      8  C   UNL     1     -14.165  45.491  23.303  1.00  0.00     0.000 C 
BRANCH   8   9
ATOM      9  C   UNL     1     -13.060  45.831  24.314  1.00  0.00    -0.000 C 
BRANCH   9  10
ATOM     10  C   UNL     1     -13.586  45.874  25.765  1.00  0.00    -0.000 C 
BRANCH  10  11
ATOM     11  C   UNL     1     -14.746  46.865  25.975  1.00  0.00    -0.000 C 
BRANCH  11  12
ATOM     12  C   UNL     1     -15.885  46.341  26.865  1.00  0.00    -0.003 C 
ATOM     13  C   UNL     1     -15.958  44.815  26.899  1.00  0.00     0.004 C 
ENDBRANCH  11  12
ENDBRANCH  10  11
ENDBRANCH   9  10
ENDBRANCH   8   9
ENDBRANCH   1   8
TORSDOF 9
ENDMDL
MODEL 6
REMARK VINA RESULT:    -4.178      2.179      3.186
REMARK INTER + INTRA:          -7.371
REMARK INTER:                  -6.276
REMARK INTRA:                  -1.094
REMARK UNBOUND:                -0.994
REMARK SMILES CCCCCCCCCCC(=O)[O-]
REMARK SMILES IDX 7 1 8 2 9 3 10 4 11 5 12 6 13 7 6 8 5 9 4 10 3 11 2 12 1 13
REMARK H PARENT
REMARK Flexibility Score: inf
ROOT
ATOM      1  C   UNL     1     -22.833  61.850  31.354  1.00  0.00     0.000 C 
ENDROOT
BRANCH   1   2
ATOM      2  C   UNL     1     -23.658  62.911  30.610  1.00  0.00     0.000 C 
BRANCH   2   3
ATOM      3  C   UNL     1     -25.061  62.410  30.230  1.00  0.00     0.006 C 
BRANCH   3   4
ATOM      4  C   UNL     1     -25.331  60.980  30.718  1.00  0.00     0.053 C 
BRANCH   4   5
ATOM      5  C   UNL     1     -26.405  60.978  31.758  1.00  0.00     0.041 C 
ATOM      6  O   UNL     1     -26.809  62.062  32.255  1.00  0.00    -0.550 OA
ATOM      7  O   UNL     1     -26.927  59.775  32.216  1.00  0.00    -0.550 OA
ENDBRANCH   4   5
ENDBRANCH   3   4
ENDBRANCH   2   3
ENDBRANCH   1   2
BRANCH   1   8
ATOM      8  C   UNL     1     -21.403  62.343  31.602  1.00  0.00     0.000 C 
BRANCH   8   9
ATOM      9  C   UNL     1     -20.374  61.396  30.967  1.00  0.00    -0.000 C 
BRANCH   9  10
ATOM     10  C   UNL     1     -20.868  60.807  29.628  1.00  0.00    -0.000 C 
BRANCH  10  11
ATOM     11  C   UNL     1     -20.619  61.726  28.417  1.00  0.00    -0.000 C 
BRANCH  11  12
ATOM     12  C   UNL     1     -21.761  61.753  27.387  1.00  0.00    -0.003 C 
ATOM     13  C   UNL     1     -22.880  60.765  27.714  1.00  0.00     0.004 C 
ENDBRANCH  11  12
ENDBRANCH  10  11
ENDBRANCH   9  10
ENDBRANCH   8   9
ENDBRANCH   1   8
TORSDOF 9
ENDMDL
MODEL 7
REMARK VINA RESULT:    -4.161      3.287      5.829
REMARK INTER + INTRA:          -7.344
REMARK INTER:                  -6.618
REMARK INTRA:                  -0.725
REMARK UNBOUND:                -0.994
REMARK SMILES CCCCCCCCCCC(=O)[O-]
REMARK SMILES IDX 7 1 8 2 9 3 10 4 11 5 12 6 13 7 6 8 5 9 4 10 3 11 2 12 1 13
REMARK H PARENT
REMARK Flexibility Score: inf
ROOT
ATOM      1  C   UNL     1     -24.524  62.821  30.154  1.00  0.00     0.000 C 
ENDROOT
BRANCH   1   2
ATOM      2  C   UNL     1     -23.174  62.353  30.718  1.00  0.00     0.000 C 
BRANCH   2   3
ATOM      3  C   UNL     1     -22.335  61.586  29.685  1.00  0.00     0.006 C 
BRANCH   3   4
ATOM      4  C   UNL     1     -22.983  61.567  28.293  1.00  0.00     0.053 C 
BRANCH   4   5
ATOM      5  C   UNL     1     -23.272  60.162  27.871  1.00  0.00     0.041 C 
ATOM      6  O   UNL     1     -22.556  59.602  26.999  1.00  0.00    -0.550 OA
ATOM      7  O   UNL     1     -24.362  59.486  28.405  1.00  0.00    -0.550 OA
ENDBRANCH   4   5
ENDBRANCH   3   4
ENDBRANCH   2   3
ENDBRANCH   1   2
BRANCH   1   8
ATOM      8  C   UNL     1     -25.667  62.493  31.123  1.00  0.00     0.000 C 
BRANCH   8   9
ATOM      9  C   UNL     1     -25.819  60.976  31.303  1.00  0.00    -0.000 C 
BRANCH   9  10
ATOM     10  C   UNL     1     -27.009  60.611  32.217  1.00  0.00    -0.000 C 
BRANCH  10  11
ATOM     11  C   UNL     1     -27.845  61.825  32.662  1.00  0.00    -0.000 C 
BRANCH  11  12
ATOM     12  C   UNL     1     -27.731  62.170  34.157  1.00  0.00    -0.003 C 
ATOM     13  C   UNL     1     -26.742  61.273  34.899  1.00  0.00     0.004 C 
ENDBRANCH  11  12
ENDBRANCH  10  11
ENDBRANCH   9  10
ENDBRANCH   8   9
ENDBRANCH   1   8
TORSDOF 9
ENDMDL
MODEL 8
REMARK VINA RESULT:    -4.145      2.799      5.138
REMARK INTER + INTRA:          -7.321
REMARK INTER:                  -6.104
REMARK INTRA:                  -1.217
REMARK UNBOUND:                -0.994
REMARK SMILES CCCCCCCCCCC(=O)[O-]
REMARK SMILES IDX 7 1 8 2 9 3 10 4 11 5 12 6 13 7 6 8 5 9 4 10 3 11 2 12 1 13
REMARK H PARENT
REMARK Flexibility Score: inf
ROOT
ATOM      1  C   UNL     1     -24.621  59.517  29.133  1.00  0.00     0.000 C 
ENDROOT
BRANCH   1   2
ATOM      2  C   UNL     1     -25.356  60.865  29.170  1.00  0.00     0.000 C 
BRANCH   2   3
ATOM      3  C   UNL     1     -24.394  62.063  29.157  1.00  0.00     0.006 C 
BRANCH   3   4
ATOM      4  C   UNL     1     -24.069  62.576  30.566  1.00  0.00     0.053 C 
BRANCH   4   5
ATOM      5  C   UNL     1     -22.787  61.981  31.055  1.00  0.00     0.041 C 
ATOM      6  O   UNL     1     -22.625  61.739  32.280  1.00  0.00    -0.550 OA
ATOM      7  O   UNL     1     -21.749  61.738  30.163  1.00  0.00    -0.550 OA
ENDBRANCH   4   5
ENDBRANCH   3   4
ENDBRANCH   2   3
ENDBRANCH   1   2
BRANCH   1   8
ATOM      8  C   UNL     1     -24.739  58.791  30.479  1.00  0.00     0.000 C 
BRANCH   8   9
ATOM      9  C   UNL     1     -25.923  59.330  31.295  1.00  0.00    -0.000 C 
BRANCH   9  10
ATOM     10  C   UNL     1     -25.570  59.515  32.787  1.00  0.00    -0.000 C 
BRANCH  10  11
ATOM     11  C   UNL     1     -25.882  60.924  33.328  1.00  0.00    -0.000 C 
BRANCH  11  12
ATOM     12  C   UNL     1     -27.039  61.644  32.616  1.00  0.00    -0.003 C 
ATOM     13  C   UNL     1     -28.123  62.123  33.580  1.00  0.00     0.004 C 
ENDBRANCH  11  12
ENDBRANCH  10  11
ENDBRANCH   9  10
ENDBRANCH   8   9
ENDBRANCH   1   8
TORSDOF 9
ENDMDL
MODEL 9
REMARK VINA RESULT:    -2.959      1.254      2.890
REMARK INTER + INTRA:          -5.510
REMARK INTER:                  -4.542
REMARK INTRA:                  -0.967
REMARK UNBOUND:                -0.994
REMARK SMILES CCCCCCCCCCC(=O)[O-]
REMARK SMILES IDX 7 1 8 2 9 3 10 4 11 5 12 6 13 7 6 8 5 9 4 10 3 11 2 12 1 13
REMARK H PARENT
REMARK Flexibility Score: inf
ROOT
ATOM      1  C   UNL     1     -24.373  58.605  30.513  1.00  0.00     0.000 C 
ENDROOT
BRANCH   1   2
ATOM      2  C   UNL     1     -25.705  59.336  30.737  1.00  0.00     0.000 C 
BRANCH   2   3
ATOM      3  C   UNL     1     -26.099  59.406  32.221  1.00  0.00     0.006 C 
BRANCH   3   4
ATOM      4  C   UNL     1     -25.722  60.744  32.871  1.00  0.00     0.053 C 
BRANCH   4   5
ATOM      5  C   UNL     1     -26.289  60.831  34.251  1.00  0.00     0.041 C 
ATOM      6  O   UNL     1     -25.577  61.242  35.205  1.00  0.00    -0.550 OA
ATOM      7  O   UNL     1     -27.592  60.413  34.495  1.00  0.00    -0.550 OA
ENDBRANCH   4   5
ENDBRANCH   3   4
ENDBRANCH   2   3
ENDBRANCH   1   2
BRANCH   1   8
ATOM      8  C   UNL     1     -23.797  58.927  29.128  1.00  0.00     0.000 C 
BRANCH   8   9
ATOM      9  C   UNL     1     -24.553  60.092  28.473  1.00  0.00    -0.000 C 
BRANCH   9  10
ATOM     10  C   UNL     1     -23.659  61.334  28.276  1.00  0.00    -0.000 C 
BRANCH  10  11
ATOM     11  C   UNL     1     -22.756  61.646  29.484  1.00  0.00    -0.000 C 
BRANCH  11  12
ATOM     12  C   UNL     1     -23.435  62.454  30.602  1.00  0.00    -0.003 C 
ATOM     13  C   UNL     1     -24.730  63.125  30.147  1.00  0.00     0.004 C 
ENDBRANCH  11  12
ENDBRANCH  10  11
ENDBRANCH   9  10
ENDBRANCH   8   9
ENDBRANCH   1   8
TORSDOF 9
ENDMDL
