MODEL 1
REMARK VINA RESULT:    -5.485      0.000      0.000
REMARK INTER + INTRA:          -6.630
REMARK INTER:                  -6.286
REMARK INTRA:                  -0.343
REMARK UNBOUND:                -0.343
REMARK SMILES O=C1C[C@H](c2ccc(O)cc2)Oc2cc(O)cc(O)c21
REMARK SMILES IDX 3 1 4 2 12 3 13 4 14 5 15 6 17 7 18 8 20 9 2 10 1 11 5 12
REMARK SMILES IDX 6 13 11 14 7 15 10 16 8 17 9 18 19 20 16 22
REMARK H PARENT 9 19 19 21 16 23
REMARK Flexibility Score: inf
ROOT
ATOM      1  C   UNL     1      -4.921 -18.876  17.249  1.00  0.00     0.131 C 
ATOM      2  C   UNL     1      -5.815 -17.649  16.982  1.00  0.00     0.211 C 
ATOM      3  O   UNL     1      -5.041 -16.494  16.611  1.00  0.00    -0.484 OA
ATOM      4  C   UNL     1      -3.683 -16.338  16.874  1.00  0.00     0.138 A 
ATOM      5  C   UNL     1      -3.025 -15.223  16.359  1.00  0.00     0.093 A 
ATOM      6  C   UNL     1      -1.643 -15.102  16.499  1.00  0.00     0.123 A 
ATOM      7  C   UNL     1      -0.916 -16.069  17.197  1.00  0.00     0.093 A 
ATOM      8  C   UNL     1      -1.570 -17.183  17.754  1.00  0.00     0.133 A 
ATOM      9  C   UNL     1      -2.972 -17.309  17.608  1.00  0.00     0.102 A 
ATOM     10  C   UNL     1      -3.742 -18.474  18.066  1.00  0.00     0.174 C 
ATOM     11  O   UNL     1      -3.459 -19.098  19.125  1.00  0.00    -0.294 OA
ENDROOT
BRANCH   2  12
ATOM     12  C   UNL     1      -6.834 -17.970  15.906  1.00  0.00    -0.007 A 
ATOM     13  C   UNL     1      -7.159 -17.033  14.907  1.00  0.00     0.011 A 
ATOM     14  C   UNL     1      -7.374 -19.268  15.824  1.00  0.00     0.011 A 
ATOM     15  C   UNL     1      -8.029 -17.378  13.876  1.00  0.00     0.046 A 
ATOM     16  C   UNL     1      -8.239 -19.615  14.788  1.00  0.00     0.046 A 
ATOM     17  C   UNL     1      -8.570 -18.671  13.817  1.00  0.00     0.115 A 
BRANCH  17  18
ATOM     18  O   UNL     1      -9.440 -19.023  12.789  1.00  0.00    -0.508 OA
ATOM     19  H   UNL     1     -10.429 -18.863  12.857  1.00  0.00     0.293 HD
ENDBRANCH  17  18
ENDBRANCH   2  12
BRANCH   8  20
ATOM     20  O   UNL     1      -0.779 -18.137  18.394  1.00  0.00    -0.507 OA
ATOM     21  H   UNL     1       0.216 -18.223  18.279  1.00  0.00     0.293 HD
ENDBRANCH   8  20
BRANCH   6  22
ATOM     22  O   UNL     1      -0.994 -14.021  15.919  1.00  0.00    -0.508 OA
ATOM     23  H   UNL     1      -0.188 -14.134  15.333  1.00  0.00     0.293 HD
ENDBRANCH   6  22
TORSDOF 4
ENDMDL
MODEL 2
REMARK VINA RESULT:    -5.482     13.072     15.447
REMARK INTER + INTRA:          -6.627
REMARK INTER:                  -6.278
REMARK INTRA:                  -0.349
REMARK UNBOUND:                -0.343
REMARK SMILES O=C1C[C@H](c2ccc(O)cc2)Oc2cc(O)cc(O)c21
REMARK SMILES IDX 3 1 4 2 12 3 13 4 14 5 15 6 17 7 18 8 20 9 2 10 1 11 5 12
REMARK SMILES IDX 6 13 11 14 7 15 10 16 8 17 9 18 19 20 16 22
REMARK H PARENT 9 19 19 21 16 23
REMARK Flexibility Score: inf
ROOT
ATOM      1  C   UNL     1       4.435 -17.904   7.379  1.00  0.00     0.131 C 
ATOM      2  C   UNL     1       5.838 -17.310   7.137  1.00  0.00     0.211 C 
ATOM      3  O   UNL     1       6.227 -17.408   5.754  1.00  0.00    -0.484 OA
ATOM      4  C   UNL     1       5.661 -18.287   4.837  1.00  0.00     0.138 A 
ATOM      5  C   UNL     1       6.048 -18.201   3.500  1.00  0.00     0.093 A 
ATOM      6  C   UNL     1       5.409 -18.982   2.538  1.00  0.00     0.123 A 
ATOM      7  C   UNL     1       4.414 -19.890   2.910  1.00  0.00     0.093 A 
ATOM      8  C   UNL     1       4.037 -20.015   4.259  1.00  0.00     0.133 A 
ATOM      9  C   UNL     1       4.681 -19.218   5.236  1.00  0.00     0.102 A 
ATOM     10  C   UNL     1       4.303 -19.199   6.656  1.00  0.00     0.174 C 
ATOM     11  O   UNL     1       3.917 -20.232   7.268  1.00  0.00    -0.294 OA
ENDROOT
BRANCH   2  12
ATOM     12  C   UNL     1       5.879 -15.865   7.597  1.00  0.00    -0.007 A 
ATOM     13  C   UNL     1       6.306 -14.839   6.733  1.00  0.00     0.011 A 
ATOM     14  C   UNL     1       5.367 -15.524   8.862  1.00  0.00     0.011 A 
ATOM     15  C   UNL     1       6.252 -13.509   7.144  1.00  0.00     0.046 A 
ATOM     16  C   UNL     1       5.307 -14.192   9.270  1.00  0.00     0.046 A 
ATOM     17  C   UNL     1       5.752 -13.185   8.414  1.00  0.00     0.115 A 
BRANCH  17  18
ATOM     18  O   UNL     1       5.695 -11.859   8.831  1.00  0.00    -0.508 OA
ATOM     19  H   UNL     1       6.235 -11.527   9.611  1.00  0.00     0.293 HD
ENDBRANCH  17  18
ENDBRANCH   2  12
BRANCH   8  20
ATOM     20  O   UNL     1       3.002 -20.901   4.556  1.00  0.00    -0.507 OA
ATOM     21  H   UNL     1       3.134 -21.836   4.902  1.00  0.00     0.293 HD
ENDBRANCH   8  20
BRANCH   6  22
ATOM     22  O   UNL     1       5.757 -18.832   1.203  1.00  0.00    -0.508 OA
ATOM     23  H   UNL     1       6.282 -19.527   0.706  1.00  0.00     0.293 HD
ENDBRANCH   6  22
TORSDOF 4
ENDMDL
MODEL 3
REMARK VINA RESULT:    -5.364     10.949     13.393
REMARK INTER + INTRA:          -6.492
REMARK INTER:                  -6.155
REMARK INTRA:                  -0.337
REMARK UNBOUND:                -0.343
REMARK SMILES O=C1C[C@H](c2ccc(O)cc2)Oc2cc(O)cc(O)c21
REMARK SMILES IDX 3 1 4 2 12 3 13 4 14 5 15 6 17 7 18 8 20 9 2 10 1 11 5 12
REMARK SMILES IDX 6 13 11 14 7 15 10 16 8 17 9 18 19 20 16 22
REMARK H PARENT 9 19 19 21 16 23
REMARK Flexibility Score: inf
ROOT
ATOM      1  C   UNL     1       4.606 -18.204   9.647  1.00  0.00     0.131 C 
ATOM      2  C   UNL     1       5.982 -17.918  10.279  1.00  0.00     0.211 C 
ATOM      3  O   UNL     1       6.561 -16.702   9.771  1.00  0.00    -0.484 OA
ATOM      4  C   UNL     1       6.187 -16.090   8.579  1.00  0.00     0.138 A 
ATOM      5  C   UNL     1       6.743 -14.853   8.257  1.00  0.00     0.093 A 
ATOM      6  C   UNL     1       6.297 -14.159   7.134  1.00  0.00     0.123 A 
ATOM      7  C   UNL     1       5.327 -14.716   6.296  1.00  0.00     0.093 A 
ATOM      8  C   UNL     1       4.781 -15.979   6.587  1.00  0.00     0.133 A 
ATOM      9  C   UNL     1       5.230 -16.683   7.730  1.00  0.00     0.102 A 
ATOM     10  C   UNL     1       4.664 -17.962   8.179  1.00  0.00     0.174 C 
ATOM     11  O   UNL     1       4.272 -18.850   7.372  1.00  0.00    -0.294 OA
ENDROOT
BRANCH   2  12
ATOM     12  C   UNL     1       5.860 -17.854  11.790  1.00  0.00    -0.007 A 
ATOM     13  C   UNL     1       5.410 -18.962  12.531  1.00  0.00     0.011 A 
ATOM     14  C   UNL     1       6.320 -16.715  12.477  1.00  0.00     0.011 A 
ATOM     15  C   UNL     1       5.389 -18.914  13.923  1.00  0.00     0.046 A 
ATOM     16  C   UNL     1       6.306 -16.670  13.870  1.00  0.00     0.046 A 
ATOM     17  C   UNL     1       5.838 -17.766  14.593  1.00  0.00     0.115 A 
BRANCH  17  18
ATOM     18  O   UNL     1       5.821 -17.711  15.984  1.00  0.00    -0.508 OA
ATOM     19  H   UNL     1       6.410 -17.076  16.493  1.00  0.00     0.293 HD
ENDBRANCH  17  18
ENDBRANCH   2  12
BRANCH   8  20
ATOM     20  O   UNL     1       3.781 -16.455   5.740  1.00  0.00    -0.507 OA
ATOM     21  H   UNL     1       2.862 -16.052   5.659  1.00  0.00     0.293 HD
ENDBRANCH   8  20
BRANCH   6  22
ATOM     22  O   UNL     1       6.810 -12.897   6.868  1.00  0.00    -0.508 OA
ATOM     23  H   UNL     1       6.283 -12.197   6.381  1.00  0.00     0.293 HD
ENDBRANCH   6  22
TORSDOF 4
ENDMDL
MODEL 4
REMARK VINA RESULT:    -5.297     12.049     13.991
REMARK INTER + INTRA:          -6.414
REMARK INTER:                  -6.068
REMARK INTRA:                  -0.345
REMARK UNBOUND:                -0.343
REMARK SMILES O=C1C[C@H](c2ccc(O)cc2)Oc2cc(O)cc(O)c21
REMARK SMILES IDX 3 1 4 2 12 3 13 4 14 5 15 6 17 7 18 8 20 9 2 10 1 11 5 12
REMARK SMILES IDX 6 13 11 14 7 15 10 16 8 17 9 18 19 20 16 22
REMARK H PARENT 9 19 19 21 16 23
REMARK Flexibility Score: inf
ROOT
ATOM      1  C   UNL     1       3.927 -17.997   7.090  1.00  0.00     0.131 C 
ATOM      2  C   UNL     1       4.278 -16.594   6.555  1.00  0.00     0.211 C 
ATOM      3  O   UNL     1       5.261 -15.940   7.377  1.00  0.00    -0.484 OA
ATOM      4  C   UNL     1       5.545 -16.288   8.694  1.00  0.00     0.138 A 
ATOM      5  C   UNL     1       6.602 -15.651   9.342  1.00  0.00     0.093 A 
ATOM      6  C   UNL     1       6.989 -16.065  10.616  1.00  0.00     0.123 A 
ATOM      7  C   UNL     1       6.293 -17.084  11.271  1.00  0.00     0.093 A 
ATOM      8  C   UNL     1       5.202 -17.713  10.645  1.00  0.00     0.133 A 
ATOM      9  C   UNL     1       4.811 -17.296   9.350  1.00  0.00     0.102 A 
ATOM     10  C   UNL     1       3.749 -17.944   8.567  1.00  0.00     0.174 C 
ATOM     11  O   UNL     1       2.704 -18.409   9.099  1.00  0.00    -0.294 OA
ENDROOT
BRANCH   2  12
ATOM     12  C   UNL     1       4.765 -16.688   5.122  1.00  0.00    -0.007 A 
ATOM     13  C   UNL     1       6.132 -16.564   4.808  1.00  0.00     0.011 A 
ATOM     14  C   UNL     1       3.859 -17.030   4.100  1.00  0.00     0.011 A 
ATOM     15  C   UNL     1       6.571 -16.743   3.498  1.00  0.00     0.046 A 
ATOM     16  C   UNL     1       4.300 -17.215   2.791  1.00  0.00     0.046 A 
ATOM     17  C   UNL     1       5.653 -17.069   2.488  1.00  0.00     0.115 A 
BRANCH  17  18
ATOM     18  O   UNL     1       6.084 -17.250   1.177  1.00  0.00    -0.508 OA
ATOM     19  H   UNL     1       5.959 -16.539   0.478  1.00  0.00     0.293 HD
ENDBRANCH  17  18
ENDBRANCH   2  12
BRANCH   8  20
ATOM     20  O   UNL     1       4.583 -18.757  11.332  1.00  0.00    -0.507 OA
ATOM     21  H   UNL     1       4.828 -19.728  11.234  1.00  0.00     0.293 HD
ENDBRANCH   8  20
BRANCH   6  22
ATOM     22  O   UNL     1       8.088 -15.468  11.218  1.00  0.00    -0.508 OA
ATOM     23  H   UNL     1       7.996 -14.828  11.985  1.00  0.00     0.293 HD
ENDBRANCH   6  22
TORSDOF 4
ENDMDL
MODEL 5
REMARK VINA RESULT:    -5.183     11.001     13.615
REMARK INTER + INTRA:          -6.284
REMARK INTER:                  -5.941
REMARK INTRA:                  -0.344
REMARK UNBOUND:                -0.343
REMARK SMILES O=C1C[C@H](c2ccc(O)cc2)Oc2cc(O)cc(O)c21
REMARK SMILES IDX 3 1 4 2 12 3 13 4 14 5 15 6 17 7 18 8 20 9 2 10 1 11 5 12
REMARK SMILES IDX 6 13 11 14 7 15 10 16 8 17 9 18 19 20 16 22
REMARK H PARENT 9 19 19 21 16 23
REMARK Flexibility Score: inf
ROOT
ATOM      1  C   UNL     1       6.669 -18.275   9.371  1.00  0.00     0.131 C 
ATOM      2  C   UNL     1       7.259 -17.563  10.605  1.00  0.00     0.211 C 
ATOM      3  O   UNL     1       7.002 -16.147  10.578  1.00  0.00    -0.484 OA
ATOM      4  C   UNL     1       6.674 -15.428   9.433  1.00  0.00     0.138 A 
ATOM      5  C   UNL     1       6.335 -14.082   9.561  1.00  0.00     0.093 A 
ATOM      6  C   UNL     1       5.883 -13.368   8.453  1.00  0.00     0.123 A 
ATOM      7  C   UNL     1       5.813 -13.979   7.198  1.00  0.00     0.093 A 
ATOM      8  C   UNL     1       6.185 -15.326   7.044  1.00  0.00     0.133 A 
ATOM      9  C   UNL     1       6.640 -16.053   8.170  1.00  0.00     0.102 A 
ATOM     10  C   UNL     1       6.964 -17.486   8.143  1.00  0.00     0.174 C 
ATOM     11  O   UNL     1       7.506 -18.039   7.147  1.00  0.00    -0.294 OA
ENDROOT
BRANCH   2  12
ATOM     12  C   UNL     1       6.705 -18.177  11.876  1.00  0.00    -0.007 A 
ATOM     13  C   UNL     1       6.309 -17.371  12.961  1.00  0.00     0.011 A 
ATOM     14  C   UNL     1       6.465 -19.562  11.932  1.00  0.00     0.011 A 
ATOM     15  C   UNL     1       5.720 -17.946  14.084  1.00  0.00     0.046 A 
ATOM     16  C   UNL     1       5.869 -20.136  13.054  1.00  0.00     0.046 A 
ATOM     17  C   UNL     1       5.500 -19.331  14.130  1.00  0.00     0.115 A 
BRANCH  17  18
ATOM     18  O   UNL     1       4.911 -19.913  15.249  1.00  0.00    -0.508 OA
ATOM     19  H   UNL     1       4.915 -19.456  16.144  1.00  0.00     0.293 HD
ENDBRANCH  17  18
ENDBRANCH   2  12
BRANCH   8  20
ATOM     20  O   UNL     1       6.043 -15.889   5.777  1.00  0.00    -0.507 OA
ATOM     21  H   UNL     1       6.113 -15.377   4.913  1.00  0.00     0.293 HD
ENDBRANCH   8  20
BRANCH   6  22
ATOM     22  O   UNL     1       5.482 -12.049   8.613  1.00  0.00    -0.508 OA
ATOM     23  H   UNL     1       5.224 -11.470   7.836  1.00  0.00     0.293 HD
ENDBRANCH   6  22
TORSDOF 4
ENDMDL
MODEL 6
REMARK VINA RESULT:    -5.177      3.065      4.265
REMARK INTER + INTRA:          -6.277
REMARK INTER:                  -5.965
REMARK INTRA:                  -0.312
REMARK UNBOUND:                -0.343
REMARK SMILES O=C1C[C@H](c2ccc(O)cc2)Oc2cc(O)cc(O)c21
REMARK SMILES IDX 3 1 4 2 12 3 13 4 14 5 15 6 17 7 18 8 20 9 2 10 1 11 5 12
REMARK SMILES IDX 6 13 11 14 7 15 10 16 8 17 9 18 19 20 16 22
REMARK H PARENT 9 19 19 21 16 23
REMARK Flexibility Score: inf
ROOT
ATOM      1  C   UNL     1      -2.400 -16.676  17.148  1.00  0.00     0.131 C 
ATOM      2  C   UNL     1      -2.974 -15.616  18.110  1.00  0.00     0.211 C 
ATOM      3  O   UNL     1      -2.086 -14.493  18.257  1.00  0.00    -0.484 OA
ATOM      4  C   UNL     1      -0.727 -14.519  17.960  1.00  0.00     0.138 A 
ATOM      5  C   UNL     1      -0.002 -13.331  18.037  1.00  0.00     0.093 A 
ATOM      6  C   UNL     1       1.330 -13.299  17.626  1.00  0.00     0.123 A 
ATOM      7  C   UNL     1       1.961 -14.464  17.181  1.00  0.00     0.093 A 
ATOM      8  C   UNL     1       1.254 -15.679  17.131  1.00  0.00     0.133 A 
ATOM      9  C   UNL     1      -0.100 -15.711  17.544  1.00  0.00     0.102 A 
ATOM     10  C   UNL     1      -0.958 -16.899  17.445  1.00  0.00     0.174 C 
ATOM     11  O   UNL     1      -0.522 -18.067  17.638  1.00  0.00    -0.294 OA
ENDROOT
BRANCH   2  12
ATOM     12  C   UNL     1      -4.335 -15.154  17.624  1.00  0.00    -0.007 A 
ATOM     13  C   UNL     1      -5.081 -15.920  16.709  1.00  0.00     0.011 A 
ATOM     14  C   UNL     1      -4.920 -14.004  18.187  1.00  0.00     0.011 A 
ATOM     15  C   UNL     1      -6.365 -15.524  16.344  1.00  0.00     0.046 A 
ATOM     16  C   UNL     1      -6.208 -13.612  17.827  1.00  0.00     0.046 A 
ATOM     17  C   UNL     1      -6.929 -14.368  16.904  1.00  0.00     0.115 A 
BRANCH  17  18
ATOM     18  O   UNL     1      -8.212 -13.966  16.544  1.00  0.00    -0.508 OA
ATOM     19  H   UNL     1      -8.745 -14.462  15.851  1.00  0.00     0.293 HD
ENDBRANCH  17  18
ENDBRANCH   2  12
BRANCH   8  20
ATOM     20  O   UNL     1       1.927 -16.792  16.630  1.00  0.00    -0.507 OA
ATOM     21  H   UNL     1       2.890 -16.794  16.341  1.00  0.00     0.293 HD
ENDBRANCH   8  20
BRANCH   6  22
ATOM     22  O   UNL     1       2.016 -12.093  17.642  1.00  0.00    -0.508 OA
ATOM     23  H   UNL     1       1.580 -11.234  17.922  1.00  0.00     0.293 HD
ENDBRANCH   6  22
TORSDOF 4
ENDMDL
MODEL 7
REMARK VINA RESULT:    -5.155      3.201      7.329
REMARK INTER + INTRA:          -6.252
REMARK INTER:                  -5.913
REMARK INTRA:                  -0.338
REMARK UNBOUND:                -0.343
REMARK SMILES O=C1C[C@H](c2ccc(O)cc2)Oc2cc(O)cc(O)c21
REMARK SMILES IDX 3 1 4 2 12 3 13 4 14 5 15 6 17 7 18 8 20 9 2 10 1 11 5 12
REMARK SMILES IDX 6 13 11 14 7 15 10 16 8 17 9 18 19 20 16 22
REMARK H PARENT 9 19 19 21 16 23
REMARK Flexibility Score: inf
ROOT
ATOM      1  C   UNL     1      -6.431 -13.293  18.016  1.00  0.00     0.131 C 
ATOM      2  C   UNL     1      -5.183 -13.970  18.615  1.00  0.00     0.211 C 
ATOM      3  O   UNL     1      -4.993 -15.298  18.091  1.00  0.00    -0.484 OA
ATOM      4  C   UNL     1      -5.990 -16.057  17.488  1.00  0.00     0.138 A 
ATOM      5  C   UNL     1      -5.647 -17.282  16.919  1.00  0.00     0.093 A 
ATOM      6  C   UNL     1      -6.597 -18.006  16.199  1.00  0.00     0.123 A 
ATOM      7  C   UNL     1      -7.908 -17.536  16.084  1.00  0.00     0.093 A 
ATOM      8  C   UNL     1      -8.279 -16.319  16.682  1.00  0.00     0.133 A 
ATOM      9  C   UNL     1      -7.314 -15.581  17.409  1.00  0.00     0.102 A 
ATOM     10  C   UNL     1      -7.567 -14.256  17.993  1.00  0.00     0.174 C 
ATOM     11  O   UNL     1      -8.680 -13.939  18.496  1.00  0.00    -0.294 OA
ENDROOT
BRANCH   2  12
ATOM     12  C   UNL     1      -3.953 -13.120  18.357  1.00  0.00    -0.007 A 
ATOM     13  C   UNL     1      -3.737 -11.920  19.062  1.00  0.00     0.011 A 
ATOM     14  C   UNL     1      -2.949 -13.594  17.493  1.00  0.00     0.011 A 
ATOM     15  C   UNL     1      -2.560 -11.200  18.876  1.00  0.00     0.046 A 
ATOM     16  C   UNL     1      -1.768 -12.876  17.314  1.00  0.00     0.046 A 
ATOM     17  C   UNL     1      -1.574 -11.679  18.000  1.00  0.00     0.115 A 
BRANCH  17  18
ATOM     18  O   UNL     1      -0.394 -10.964  17.810  1.00  0.00    -0.508 OA
ATOM     19  H   UNL     1      -0.249 -10.395  16.996  1.00  0.00     0.293 HD
ENDBRANCH  17  18
ENDBRANCH   2  12
BRANCH   8  20
ATOM     20  O   UNL     1      -9.588 -15.881  16.486  1.00  0.00    -0.507 OA
ATOM     21  H   UNL     1     -10.302 -15.881  17.196  1.00  0.00     0.293 HD
ENDBRANCH   8  20
BRANCH   6  22
ATOM     22  O   UNL     1      -6.220 -19.189  15.579  1.00  0.00    -0.508 OA
ATOM     23  H   UNL     1      -6.891 -19.855  15.244  1.00  0.00     0.293 HD
ENDBRANCH   6  22
TORSDOF 4
ENDMDL
MODEL 8
REMARK VINA RESULT:    -5.153      2.344      3.390
REMARK INTER + INTRA:          -6.249
REMARK INTER:                  -5.946
REMARK INTRA:                  -0.303
REMARK UNBOUND:                -0.343
REMARK SMILES O=C1C[C@H](c2ccc(O)cc2)Oc2cc(O)cc(O)c21
REMARK SMILES IDX 3 1 4 2 12 3 13 4 14 5 15 6 17 7 18 8 20 9 2 10 1 11 5 12
REMARK SMILES IDX 6 13 11 14 7 15 10 16 8 17 9 18 19 20 16 22
REMARK H PARENT 9 19 19 21 16 23
REMARK Flexibility Score: inf
ROOT
ATOM      1  C   UNL     1      -6.005 -14.841  17.829  1.00  0.00     0.131 C 
ATOM      2  C   UNL     1      -5.930 -15.432  16.407  1.00  0.00     0.211 C 
ATOM      3  O   UNL     1      -4.573 -15.516  15.935  1.00  0.00    -0.484 OA
ATOM      4  C   UNL     1      -3.511 -14.783  16.455  1.00  0.00     0.138 A 
ATOM      5  C   UNL     1      -2.225 -15.043  15.986  1.00  0.00     0.093 A 
ATOM      6  C   UNL     1      -1.128 -14.415  16.574  1.00  0.00     0.123 A 
ATOM      7  C   UNL     1      -1.312 -13.486  17.602  1.00  0.00     0.093 A 
ATOM      8  C   UNL     1      -2.606 -13.186  18.063  1.00  0.00     0.133 A 
ATOM      9  C   UNL     1      -3.720 -13.827  17.469  1.00  0.00     0.102 A 
ATOM     10  C   UNL     1      -5.104 -13.660  17.933  1.00  0.00     0.174 C 
ATOM     11  O   UNL     1      -5.544 -12.561  18.369  1.00  0.00    -0.294 OA
ENDROOT
BRANCH   2  12
ATOM     12  C   UNL     1      -6.586 -16.799  16.375  1.00  0.00    -0.007 A 
ATOM     13  C   UNL     1      -6.914 -17.477  17.564  1.00  0.00     0.011 A 
ATOM     14  C   UNL     1      -6.990 -17.348  15.143  1.00  0.00     0.011 A 
ATOM     15  C   UNL     1      -7.597 -18.690  17.515  1.00  0.00     0.046 A 
ATOM     16  C   UNL     1      -7.680 -18.558  15.095  1.00  0.00     0.046 A 
ATOM     17  C   UNL     1      -7.980 -19.231  16.278  1.00  0.00     0.115 A 
BRANCH  17  18
ATOM     18  O   UNL     1      -8.663 -20.443  16.221  1.00  0.00    -0.508 OA
ATOM     19  H   UNL     1      -8.416 -21.157  15.559  1.00  0.00     0.293 HD
ENDBRANCH  17  18
ENDBRANCH   2  12
BRANCH   8  20
ATOM     20  O   UNL     1      -2.716 -12.289  19.125  1.00  0.00    -0.507 OA
ATOM     21  H   UNL     1      -3.528 -11.725  19.313  1.00  0.00     0.293 HD
ENDBRANCH   8  20
BRANCH   6  22
ATOM     22  O   UNL     1       0.151 -14.738  16.143  1.00  0.00    -0.508 OA
ATOM     23  H   UNL     1       0.356 -14.943  15.183  1.00  0.00     0.293 HD
ENDBRANCH   6  22
TORSDOF 4
ENDMDL
