MODEL 1
REMARK VINA RESULT:    -4.553      0.000      0.000
REMARK INTER + INTRA:          -8.456
REMARK INTER:                  -7.215
REMARK INTRA:                  -1.241
REMARK UNBOUND:                -1.241
REMARK SMILES CCCCCCCCCCCC(=O)[O-]
REMARK SMILES IDX 7 1 8 2 9 3 10 4 11 5 12 6 13 7 14 8 6 9 5 10 4 11 3 12 2 13
REMARK SMILES IDX 1 14
REMARK H PARENT
REMARK Flexibility Score: inf
ROOT
ATOM      1  C   UNL     1       8.106  20.354  29.421  1.00  0.00     0.000 C 
ENDROOT
BRANCH   1   2
ATOM      2  C   UNL     1       8.506  19.556  30.672  1.00  0.00     0.000 C 
BRANCH   2   3
ATOM      3  C   UNL     1       9.390  18.345  30.343  1.00  0.00     0.000 C 
BRANCH   3   4
ATOM      4  C   UNL     1       9.799  17.599  31.623  1.00  0.00     0.006 C 
BRANCH   4   5
ATOM      5  C   UNL     1       9.154  18.201  32.879  1.00  0.00     0.053 C 
BRANCH   5   6
ATOM      6  C   UNL     1       9.708  17.598  34.133  1.00  0.00     0.041 C 
ATOM      7  O   UNL     1      10.839  17.951  34.559  1.00  0.00    -0.550 OA
ATOM      8  O   UNL     1       8.991  16.621  34.812  1.00  0.00    -0.550 OA
ENDBRANCH   5   6
ENDBRANCH   4   5
ENDBRANCH   3   4
ENDBRANCH   2   3
ENDBRANCH   1   2
BRANCH   1   9
ATOM      9  C   UNL     1       7.880  21.844  29.716  1.00  0.00     0.000 C 
BRANCH   9  10
ATOM     10  C   UNL     1       8.250  22.178  31.169  1.00  0.00    -0.000 C 
BRANCH  10  11
ATOM     11  C   UNL     1       9.163  23.410  31.279  1.00  0.00    -0.000 C 
BRANCH  11  12
ATOM     12  C   UNL     1      10.473  23.110  32.028  1.00  0.00    -0.000 C 
BRANCH  12  13
ATOM     13  C   UNL     1      10.387  21.833  32.877  1.00  0.00    -0.003 C 
ATOM     14  C   UNL     1      11.621  20.942  32.728  1.00  0.00     0.004 C 
ENDBRANCH  12  13
ENDBRANCH  11  12
ENDBRANCH  10  11
ENDBRANCH   9  10
ENDBRANCH   1   9
TORSDOF 10
ENDMDL
MODEL 2
REMARK VINA RESULT:    -4.551      1.721      3.397
REMARK INTER + INTRA:          -8.453
REMARK INTER:                  -7.852
REMARK INTRA:                  -0.602
REMARK UNBOUND:                -1.241
REMARK SMILES CCCCCCCCCCCC(=O)[O-]
REMARK SMILES IDX 7 1 8 2 9 3 10 4 11 5 12 6 13 7 14 8 6 9 5 10 4 11 3 12 2 13
REMARK SMILES IDX 1 14
REMARK H PARENT
REMARK Flexibility Score: inf
ROOT
ATOM      1  C   UNL     1       9.915  17.517  31.370  1.00  0.00     0.000 C 
ENDROOT
BRANCH   1   2
ATOM      2  C   UNL     1       9.384  18.099  32.689  1.00  0.00     0.000 C 
BRANCH   2   3
ATOM      3  C   UNL     1      10.019  17.443  33.924  1.00  0.00     0.000 C 
BRANCH   3   4
ATOM      4  C   UNL     1       8.942  16.999  34.926  1.00  0.00     0.006 C 
BRANCH   4   5
ATOM      5  C   UNL     1       8.078  18.172  35.409  1.00  0.00     0.053 C 
BRANCH   5   6
ATOM      6  C   UNL     1       8.647  18.811  36.639  1.00  0.00     0.041 C 
ATOM      7  O   UNL     1       8.297  19.974  36.969  1.00  0.00    -0.550 OA
ATOM      8  O   UNL     1       9.589  18.133  37.404  1.00  0.00    -0.550 OA
ENDBRANCH   5   6
ENDBRANCH   4   5
ENDBRANCH   3   4
ENDBRANCH   2   3
ENDBRANCH   1   2
BRANCH   1   9
ATOM      9  C   UNL     1       9.435  18.302  30.140  1.00  0.00     0.000 C 
BRANCH   9  10
ATOM     10  C   UNL     1       8.635  19.544  30.560  1.00  0.00    -0.000 C 
BRANCH  10  11
ATOM     11  C   UNL     1       8.092  20.333  29.358  1.00  0.00    -0.000 C 
BRANCH  11  12
ATOM     12  C   UNL     1       7.876  21.823  29.677  1.00  0.00    -0.000 C 
BRANCH  12  13
ATOM     13  C   UNL     1       8.002  22.129  31.177  1.00  0.00    -0.003 C 
ATOM     14  C   UNL     1       9.196  23.029  31.496  1.00  0.00     0.004 C 
ENDBRANCH  12  13
ENDBRANCH  11  12
ENDBRANCH  10  11
ENDBRANCH   9  10
ENDBRANCH   1   9
TORSDOF 10
ENDMDL
MODEL 3
REMARK VINA RESULT:    -4.464      1.279      2.446
REMARK INTER + INTRA:          -8.315
REMARK INTER:                  -7.291
REMARK INTRA:                  -1.024
REMARK UNBOUND:                -1.241
REMARK SMILES CCCCCCCCCCCC(=O)[O-]
REMARK SMILES IDX 7 1 8 2 9 3 10 4 11 5 12 6 13 7 14 8 6 9 5 10 4 11 3 12 2 13
REMARK SMILES IDX 1 14
REMARK H PARENT
REMARK Flexibility Score: inf
ROOT
ATOM      1  C   UNL     1       9.416  18.568  30.421  1.00  0.00     0.000 C 
ENDROOT
BRANCH   1   2
ATOM      2  C   UNL     1       9.802  18.035  31.809  1.00  0.00     0.000 C 
BRANCH   2   3
ATOM      3  C   UNL     1      10.403  19.120  32.714  1.00  0.00     0.000 C 
BRANCH   3   4
ATOM      4  C   UNL     1       9.395  19.564  33.785  1.00  0.00     0.006 C 
BRANCH   4   5
ATOM      5  C   UNL     1       8.310  18.508  34.036  1.00  0.00     0.053 C 
BRANCH   5   6
ATOM      6  C   UNL     1       8.463  17.861  35.378  1.00  0.00     0.041 C 
ATOM      7  O   UNL     1       9.127  18.430  36.284  1.00  0.00    -0.550 OA
ATOM      8  O   UNL     1       7.902  16.612  35.618  1.00  0.00    -0.550 OA
ENDBRANCH   5   6
ENDBRANCH   4   5
ENDBRANCH   3   4
ENDBRANCH   2   3
ENDBRANCH   1   2
BRANCH   1   9
ATOM      9  C   UNL     1       8.247  19.562  30.472  1.00  0.00     0.000 C 
BRANCH   9  10
ATOM     10  C   UNL     1       8.173  20.389  29.179  1.00  0.00    -0.000 C 
BRANCH  10  11
ATOM     11  C   UNL     1       7.991  21.891  29.447  1.00  0.00    -0.000 C 
BRANCH  11  12
ATOM     12  C   UNL     1       8.039  22.236  30.946  1.00  0.00    -0.000 C 
BRANCH  12  13
ATOM     13  C   UNL     1       9.310  23.008  31.332  1.00  0.00    -0.003 C 
ATOM     14  C   UNL     1       9.398  23.285  32.833  1.00  0.00     0.004 C 
ENDBRANCH  12  13
ENDBRANCH  11  12
ENDBRANCH  10  11
ENDBRANCH   9  10
ENDBRANCH   1   9
TORSDOF 10
ENDMDL
MODEL 4
REMARK VINA RESULT:    -4.417      2.541      4.670
REMARK INTER + INTRA:          -8.240
REMARK INTER:                  -7.188
REMARK INTRA:                  -1.052
REMARK UNBOUND:                -1.241
REMARK SMILES CCCCCCCCCCCC(=O)[O-]
REMARK SMILES IDX 7 1 8 2 9 3 10 4 11 5 12 6 13 7 14 8 6 9 5 10 4 11 3 12 2 13
REMARK SMILES IDX 1 14
REMARK H PARENT
REMARK Flexibility Score: inf
ROOT
ATOM      1  C   UNL     1       7.989  20.467  29.256  1.00  0.00     0.000 C 
ENDROOT
BRANCH   1   2
ATOM      2  C   UNL     1       7.877  21.968  29.565  1.00  0.00     0.000 C 
BRANCH   2   3
ATOM      3  C   UNL     1       8.022  22.276  31.063  1.00  0.00     0.000 C 
BRANCH   3   4
ATOM      4  C   UNL     1       9.326  23.038  31.344  1.00  0.00     0.006 C 
BRANCH   4   5
ATOM      5  C   UNL     1       9.966  22.625  32.677  1.00  0.00     0.053 C 
BRANCH   5   6
ATOM      6  C   UNL     1       9.500  23.488  33.808  1.00  0.00     0.041 C 
ATOM      7  O   UNL     1       8.998  22.967  34.839  1.00  0.00    -0.550 OA
ATOM      8  O   UNL     1       9.590  24.872  33.712  1.00  0.00    -0.550 OA
ENDBRANCH   5   6
ENDBRANCH   4   5
ENDBRANCH   3   4
ENDBRANCH   2   3
ENDBRANCH   1   2
BRANCH   1   9
ATOM      9  C   UNL     1       8.246  19.620  30.511  1.00  0.00     0.000 C 
BRANCH   9  10
ATOM     10  C   UNL     1       9.261  18.505  30.221  1.00  0.00    -0.000 C 
BRANCH  10  11
ATOM     11  C   UNL     1       9.862  17.903  31.501  1.00  0.00    -0.000 C 
BRANCH  11  12
ATOM     12  C   UNL     1      10.491  18.968  32.417  1.00  0.00    -0.000 C 
BRANCH  12  13
ATOM     13  C   UNL     1       9.803  19.045  33.789  1.00  0.00    -0.003 C 
ATOM     14  C   UNL     1       8.573  18.142  33.882  1.00  0.00     0.004 C 
ENDBRANCH  12  13
ENDBRANCH  11  12
ENDBRANCH  10  11
ENDBRANCH   9  10
ENDBRANCH   1   9
TORSDOF 10
ENDMDL
MODEL 5
REMARK VINA RESULT:    -4.338      1.708      4.113
REMARK INTER + INTRA:          -8.116
REMARK INTER:                  -7.025
REMARK INTRA:                  -1.091
REMARK UNBOUND:                -1.241
REMARK SMILES CCCCCCCCCCCC(=O)[O-]
REMARK SMILES IDX 7 1 8 2 9 3 10 4 11 5 12 6 13 7 14 8 6 9 5 10 4 11 3 12 2 13
REMARK SMILES IDX 1 14
REMARK H PARENT
REMARK Flexibility Score: inf
ROOT
ATOM      1  C   UNL     1       9.505  23.244  31.424  1.00  0.00     0.000 C 
ENDROOT
BRANCH   1   2
ATOM      2  C   UNL     1       9.562  24.049  32.732  1.00  0.00     0.000 C 
BRANCH   2   3
ATOM      3  C   UNL     1       8.663  23.461  33.829  1.00  0.00     0.000 C 
BRANCH   3   4
ATOM      4  C   UNL     1       9.500  22.750  34.904  1.00  0.00     0.006 C 
BRANCH   4   5
ATOM      5  C   UNL     1       9.321  21.226  34.867  1.00  0.00     0.053 C 
BRANCH   5   6
ATOM      6  C   UNL     1      10.592  20.525  34.498  1.00  0.00     0.041 C 
ATOM      7  O   UNL     1      10.712  19.287  34.689  1.00  0.00    -0.550 OA
ATOM      8  O   UNL     1      11.658  21.246  33.973  1.00  0.00    -0.550 OA
ENDBRANCH   5   6
ENDBRANCH   4   5
ENDBRANCH   3   4
ENDBRANCH   2   3
ENDBRANCH   1   2
BRANCH   1   9
ATOM      9  C   UNL     1       8.229  22.398  31.305  1.00  0.00     0.000 C 
BRANCH   9  10
ATOM     10  C   UNL     1       8.176  21.674  29.951  1.00  0.00    -0.000 C 
BRANCH  10  11
ATOM     11  C   UNL     1       8.218  20.144  30.096  1.00  0.00    -0.000 C 
BRANCH  11  12
ATOM     12  C   UNL     1       8.579  19.694  31.523  1.00  0.00    -0.000 C 
BRANCH  12  13
ATOM     13  C   UNL     1       9.388  18.388  31.541  1.00  0.00    -0.003 C 
ATOM     14  C   UNL     1       9.779  17.918  30.140  1.00  0.00     0.004 C 
ENDBRANCH  12  13
ENDBRANCH  11  12
ENDBRANCH  10  11
ENDBRANCH   9  10
ENDBRANCH   1   9
TORSDOF 10
ENDMDL
MODEL 6
REMARK VINA RESULT:    -4.297      1.323      1.601
REMARK INTER + INTRA:          -8.050
REMARK INTER:                  -7.467
REMARK INTRA:                  -0.583
REMARK UNBOUND:                -1.241
REMARK SMILES CCCCCCCCCCCC(=O)[O-]
REMARK SMILES IDX 7 1 8 2 9 3 10 4 11 5 12 6 13 7 14 8 6 9 5 10 4 11 3 12 2 13
REMARK SMILES IDX 1 14
REMARK H PARENT
REMARK Flexibility Score: inf
ROOT
ATOM      1  C   UNL     1       8.059  20.599  29.342  1.00  0.00     0.000 C 
ENDROOT
BRANCH   1   2
ATOM      2  C   UNL     1       8.381  19.650  30.507  1.00  0.00     0.000 C 
BRANCH   2   3
ATOM      3  C   UNL     1       9.367  18.540  30.112  1.00  0.00     0.000 C 
BRANCH   3   4
ATOM      4  C   UNL     1       9.782  17.712  31.337  1.00  0.00     0.006 C 
BRANCH   4   5
ATOM      5  C   UNL     1       9.073  18.172  32.619  1.00  0.00     0.053 C 
BRANCH   5   6
ATOM      6  C   UNL     1       9.904  17.912  33.838  1.00  0.00     0.041 C 
ATOM      7  O   UNL     1      11.132  18.191  33.839  1.00  0.00    -0.550 OA
ATOM      8  O   UNL     1       9.330  17.332  34.962  1.00  0.00    -0.550 OA
ENDBRANCH   5   6
ENDBRANCH   4   5
ENDBRANCH   3   4
ENDBRANCH   2   3
ENDBRANCH   1   2
BRANCH   1   9
ATOM      9  C   UNL     1       7.876  22.054  29.797  1.00  0.00     0.000 C 
BRANCH   9  10
ATOM     10  C   UNL     1       7.926  22.161  31.328  1.00  0.00    -0.000 C 
BRANCH  10  11
ATOM     11  C   UNL     1       9.037  23.102  31.820  1.00  0.00    -0.000 C 
BRANCH  11  12
ATOM     12  C   UNL     1       9.013  23.301  33.346  1.00  0.00    -0.000 C 
BRANCH  12  13
ATOM     13  C   UNL     1       9.892  24.476  33.801  1.00  0.00    -0.003 C 
ATOM     14  C   UNL     1      10.136  24.480  35.310  1.00  0.00     0.004 C 
ENDBRANCH  12  13
ENDBRANCH  11  12
ENDBRANCH  10  11
ENDBRANCH   9  10
ENDBRANCH   1   9
TORSDOF 10
ENDMDL
MODEL 7
REMARK VINA RESULT:    -4.290      3.216      5.364
REMARK INTER + INTRA:          -8.039
REMARK INTER:                  -7.455
REMARK INTRA:                  -0.583
REMARK UNBOUND:                -1.241
REMARK SMILES CCCCCCCCCCCC(=O)[O-]
REMARK SMILES IDX 7 1 8 2 9 3 10 4 11 5 12 6 13 7 14 8 6 9 5 10 4 11 3 12 2 13
REMARK SMILES IDX 1 14
REMARK H PARENT
REMARK Flexibility Score: inf
ROOT
ATOM      1  C   UNL     1       8.095  20.435  29.231  1.00  0.00     0.000 C 
ENDROOT
BRANCH   1   2
ATOM      2  C   UNL     1       7.899  21.925  29.551  1.00  0.00     0.000 C 
BRANCH   2   3
ATOM      3  C   UNL     1       8.056  22.234  31.047  1.00  0.00     0.000 C 
BRANCH   3   4
ATOM      4  C   UNL     1       9.476  22.729  31.360  1.00  0.00     0.006 C 
BRANCH   4   5
ATOM      5  C   UNL     1       9.477  24.108  32.034  1.00  0.00     0.053 C 
BRANCH   5   6
ATOM      6  C   UNL     1      10.821  24.765  31.956  1.00  0.00     0.041 C 
ATOM      7  O   UNL     1      11.208  25.291  30.879  1.00  0.00    -0.550 OA
ATOM      8  O   UNL     1      11.661  24.766  33.063  1.00  0.00    -0.550 OA
ENDBRANCH   5   6
ENDBRANCH   4   5
ENDBRANCH   3   4
ENDBRANCH   2   3
ENDBRANCH   1   2
BRANCH   1   9
ATOM      9  C   UNL     1       8.258  19.574  30.492  1.00  0.00     0.000 C 
BRANCH   9  10
ATOM     10  C   UNL     1       9.364  18.525  30.301  1.00  0.00    -0.000 C 
BRANCH  10  11
ATOM     11  C   UNL     1       9.756  17.833  31.616  1.00  0.00    -0.000 C 
BRANCH  11  12
ATOM     12  C   UNL     1       9.452  18.696  32.853  1.00  0.00    -0.000 C 
BRANCH  12  13
ATOM     13  C   UNL     1       8.296  18.132  33.694  1.00  0.00    -0.003 C 
ATOM     14  C   UNL     1       8.014  18.968  34.943  1.00  0.00     0.004 C 
ENDBRANCH  12  13
ENDBRANCH  11  12
ENDBRANCH  10  11
ENDBRANCH   9  10
ENDBRANCH   1   9
TORSDOF 10
ENDMDL
MODEL 8
REMARK VINA RESULT:    -4.285      2.615      4.817
REMARK INTER + INTRA:          -8.031
REMARK INTER:                  -6.705
REMARK INTRA:                  -1.326
REMARK UNBOUND:                -1.241
REMARK SMILES CCCCCCCCCCCC(=O)[O-]
REMARK SMILES IDX 7 1 8 2 9 3 10 4 11 5 12 6 13 7 14 8 6 9 5 10 4 11 3 12 2 13
REMARK SMILES IDX 1 14
REMARK H PARENT
REMARK Flexibility Score: inf
ROOT
ATOM      1  C   UNL     1      10.147  18.483  31.822  1.00  0.00     0.000 C 
ENDROOT
BRANCH   1   2
ATOM      2  C   UNL     1       9.408  18.397  30.478  1.00  0.00     0.000 C 
BRANCH   2   3
ATOM      3  C   UNL     1       8.627  19.678  30.148  1.00  0.00     0.000 C 
BRANCH   3   4
ATOM      4  C   UNL     1       8.336  20.487  31.422  1.00  0.00     0.006 C 
BRANCH   4   5
ATOM      5  C   UNL     1       8.286  21.998  31.153  1.00  0.00     0.053 C 
BRANCH   5   6
ATOM      6  C   UNL     1       9.457  22.709  31.759  1.00  0.00     0.041 C 
ATOM      7  O   UNL     1      10.505  22.073  32.048  1.00  0.00    -0.550 OA
ATOM      8  O   UNL     1       9.379  24.068  32.036  1.00  0.00    -0.550 OA
ENDBRANCH   5   6
ENDBRANCH   4   5
ENDBRANCH   3   4
ENDBRANCH   2   3
ENDBRANCH   1   2
BRANCH   1   9
ATOM      9  C   UNL     1      10.087  17.170  32.617  1.00  0.00     0.000 C 
BRANCH   9  10
ATOM     10  C   UNL     1       9.708  17.433  34.082  1.00  0.00    -0.000 C 
BRANCH  10  11
ATOM     11  C   UNL     1       8.240  17.856  34.247  1.00  0.00    -0.000 C 
BRANCH  11  12
ATOM     12  C   UNL     1       8.092  19.232  34.920  1.00  0.00    -0.000 C 
BRANCH  12  13
ATOM     13  C   UNL     1       9.446  19.910  35.179  1.00  0.00    -0.003 C 
ATOM     14  C   UNL     1       9.337  21.433  35.259  1.00  0.00     0.004 C 
ENDBRANCH  12  13
ENDBRANCH  11  12
ENDBRANCH  10  11
ENDBRANCH   9  10
ENDBRANCH   1   9
TORSDOF 10
ENDMDL
MODEL 9
REMARK VINA RESULT:    -3.496      2.706      4.852
REMARK INTER + INTRA:          -6.781
REMARK INTER:                  -5.896
REMARK INTRA:                  -0.885
REMARK UNBOUND:                -1.241
REMARK SMILES CCCCCCCCCCCC(=O)[O-]
REMARK SMILES IDX 7 1 8 2 9 3 10 4 11 5 12 6 13 7 14 8 6 9 5 10 4 11 3 12 2 13
REMARK SMILES IDX 1 14
REMARK H PARENT
REMARK Flexibility Score: inf
ROOT
ATOM      1  C   UNL     1       8.596  19.606  30.549  1.00  0.00     0.000 C 
ENDROOT
BRANCH   1   2
ATOM      2  C   UNL     1       8.117  20.502  29.395  1.00  0.00     0.000 C 
BRANCH   2   3
ATOM      3  C   UNL     1       7.875  21.953  29.834  1.00  0.00     0.000 C 
BRANCH   3   4
ATOM      4  C   UNL     1       8.292  22.162  31.298  1.00  0.00     0.006 C 
BRANCH   4   5
ATOM      5  C   UNL     1       9.498  23.104  31.431  1.00  0.00     0.053 C 
BRANCH   5   6
ATOM      6  C   UNL     1       9.377  23.995  32.629  1.00  0.00     0.041 C 
ATOM      7  O   UNL     1       9.851  25.161  32.602  1.00  0.00    -0.550 OA
ATOM      8  O   UNL     1       8.771  23.526  33.788  1.00  0.00    -0.550 OA
ENDBRANCH   5   6
ENDBRANCH   4   5
ENDBRANCH   3   4
ENDBRANCH   2   3
ENDBRANCH   1   2
BRANCH   1   9
ATOM      9  C   UNL     1       9.366  18.371  30.059  1.00  0.00     0.000 C 
BRANCH   9  10
ATOM     10  C   UNL     1       9.748  17.461  31.237  1.00  0.00    -0.000 C 
BRANCH  10  11
ATOM     11  C   UNL     1       9.410  18.084  32.600  1.00  0.00    -0.000 C 
BRANCH  11  12
ATOM     12  C   UNL     1      10.486  17.803  33.664  1.00  0.00    -0.000 C 
BRANCH  12  13
ATOM     13  C   UNL     1      11.373  19.027  33.942  1.00  0.00    -0.003 C 
ATOM     14  C   UNL     1      10.926  20.266  33.167  1.00  0.00     0.004 C 
ENDBRANCH  12  13
ENDBRANCH  11  12
ENDBRANCH  10  11
ENDBRANCH   9  10
ENDBRANCH   1   9
TORSDOF 10
ENDMDL
