MODEL 1
REMARK VINA RESULT:    51.806      0.000      0.000
REMARK INTER + INTRA:          56.753
REMARK INTER:                  56.349
REMARK INTRA:                   0.404
REMARK UNBOUND:                 0.404
REMARK SMILES C[C@@H]1[C@@H](C)CC[C@@]2(C(=O)[O-])CC[C@]3(C)C(=CC[C@H]4[C@]5(C)CC[C@H](O)C(C)(C)[C@H]5CC[C@@]43C)[C@@H]12
REMARK SMILES IDX 7 1 6 2 11 3 33 4 5 5 12 6 15 7 2 8 3 9 13 10 16 11 1 12
REMARK SMILES IDX 4 13 14 14 31 15 17 16 18 17 30 18 32 19 19 20 29 21 28 22
REMARK SMILES IDX 21 23 20 24 25 25 22 26 23 27 26 28 27 29 8 30 9 31 10 32
REMARK SMILES IDX 24 33
REMARK H PARENT 24 34
REMARK Flexibility Score: inf
ROOT
ATOM      1  C   UNL     1      -7.216  29.738   1.907  1.00  0.00     0.017 C 
ATOM      2  C   UNL     1      -7.362  28.415   1.084  1.00  0.00     0.014 C 
ATOM      3  C   UNL     1      -5.678  29.992   2.128  1.00  0.00     0.014 C 
ATOM      4  C   UNL     1      -7.967  30.936   1.168  1.00  0.00     0.030 C 
ATOM      5  C   UNL     1      -8.716  28.326   0.389  1.00  0.00     0.004 C 
ATOM      6  C   UNL     1      -5.143  31.297   1.529  1.00  0.00     0.013 C 
ATOM      7  C   UNL     1      -7.423  32.326   1.560  1.00  0.00    -0.063 C 
ATOM      8  C   UNL     1      -8.063  30.717  -0.385  1.00  0.00    -0.003 C 
ATOM      9  C   UNL     1      -8.817  29.384  -0.731  1.00  0.00    -0.011 C 
ATOM     10  C   UNL     1      -5.953  32.553   1.953  1.00  0.00    -0.006 C 
ATOM     11  C   UNL     1      -8.275  33.379   1.635  1.00  0.00    -0.027 C 
ATOM     12  C   UNL     1      -8.769  31.879  -1.111  1.00  0.00     0.008 C 
ATOM     13  C   UNL     1      -8.323  28.798  -2.067  1.00  0.00     0.008 C 
ATOM     14  C   UNL     1      -5.978  32.588   3.524  1.00  0.00     0.017 C 
ATOM     15  C   UNL     1      -5.336  33.941   1.310  1.00  0.00    -0.020 C 
ATOM     16  C   UNL     1      -7.740  34.793   1.650  1.00  0.00     0.032 C 
ATOM     17  C   UNL     1      -6.511  34.822   0.713  1.00  0.00     0.006 C 
ATOM     18  C   UNL     1      -4.353  33.700   0.115  1.00  0.00     0.008 C 
ATOM     19  C   UNL     1      -4.504  34.686   2.407  1.00  0.00     0.012 C 
ATOM     20  C   UNL     1      -6.127  36.192   0.013  1.00  0.00    -0.025 C 
ATOM     21  C   UNL     1      -3.893  34.992  -0.610  1.00  0.00     0.005 C 
ATOM     22  C   UNL     1      -5.092  35.826  -1.130  1.00  0.00     0.003 C 
ATOM     23  C   UNL     1      -7.388  36.801  -0.686  1.00  0.00     0.010 C 
ATOM     24  C   UNL     1      -5.609  37.222   1.061  1.00  0.00     0.012 C 
ATOM     25  C   UNL     1      -4.728  36.992  -2.131  1.00  0.00    -0.006 C 
ATOM     26  C   UNL     1      -7.073  37.960  -1.650  1.00  0.00     0.033 C 
ATOM     27  C   UNL     1      -6.050  37.573  -2.731  1.00  0.00     0.120 C 
ATOM     28  C   UNL     1      -3.878  36.443  -3.312  1.00  0.00     0.014 C 
ATOM     29  C   UNL     1      -3.894  38.125  -1.482  1.00  0.00     0.014 C 
ENDROOT
BRANCH   1  30
ATOM     30  C   UNL     1      -7.852  29.497   3.280  1.00  0.00     0.048 C 
ATOM     31  O   UNL     1      -8.720  28.594   3.424  1.00  0.00    -0.550 OA
ATOM     32  O   UNL     1      -7.459  30.220   4.403  1.00  0.00    -0.550 OA
ENDBRANCH   1  30
BRANCH  27  33
ATOM     33  O   UNL     1      -6.641  36.638  -3.604  1.00  0.00    -0.393 OA
ATOM     34  H   UNL     1      -7.170  36.011  -3.046  1.00  0.00     0.210 HD
ENDBRANCH  27  33
TORSDOF 2
ENDMDL
