MODEL 1
REMARK VINA RESULT:    -6.258      0.000      0.000
REMARK INTER + INTRA:         -18.403
REMARK INTER:                 -14.306
REMARK INTRA:                  -4.097
REMARK UNBOUND:                -4.097
REMARK SMILES CCCCCCCCCCCCCCCCCCCCCCCC(=O)[O-]
REMARK SMILES IDX 13 1 14 2 15 3 16 4 17 5 18 6 19 7 20 8 21 9 22 10 23 11
REMARK SMILES IDX 24 12 25 13 26 14 12 15 11 16 10 17 9 18 8 19 7 20 6 21 5 22
REMARK SMILES IDX 4 23 3 24 2 25 1 26
REMARK H PARENT
REMARK Flexibility Score: inf
ROOT
ATOM      1  C   UNL     1     -18.130 -11.388  -0.621  1.00  0.00     0.000 C 
ENDROOT
BRANCH   1   2
ATOM      2  C   UNL     1     -19.235 -10.359  -0.934  1.00  0.00     0.000 C 
BRANCH   2   3
ATOM      3  C   UNL     1     -19.083  -9.004  -0.219  1.00  0.00     0.000 C 
BRANCH   3   4
ATOM      4  C   UNL     1     -18.199  -9.085   1.034  1.00  0.00     0.000 C 
BRANCH   4   5
ATOM      5  C   UNL     1     -17.417  -7.781   1.238  1.00  0.00     0.000 C 
BRANCH   5   6
ATOM      6  C   UNL     1     -15.903  -8.042   1.227  1.00  0.00     0.000 C 
BRANCH   6   7
ATOM      7  C   UNL     1     -15.536  -9.399   0.600  1.00  0.00     0.000 C 
BRANCH   7   8
ATOM      8  C   UNL     1     -14.918  -9.322  -0.811  1.00  0.00     0.000 C 
BRANCH   8   9
ATOM      9  C   UNL     1     -14.876  -7.914  -1.432  1.00  0.00     0.000 C 
BRANCH   9  10
ATOM     10  C   UNL     1     -16.160  -7.562  -2.203  1.00  0.00     0.006 C 
BRANCH  10  11
ATOM     11  C   UNL     1     -16.710  -8.761  -2.987  1.00  0.00     0.053 C 
BRANCH  11  12
ATOM     12  C   UNL     1     -16.101  -8.862  -4.352  1.00  0.00     0.041 C 
ATOM     13  O   UNL     1     -16.578  -8.197  -5.309  1.00  0.00    -0.550 OA
ATOM     14  O   UNL     1     -14.986  -9.664  -4.560  1.00  0.00    -0.550 OA
ENDBRANCH  11  12
ENDBRANCH  10  11
ENDBRANCH   9  10
ENDBRANCH   8   9
ENDBRANCH   7   8
ENDBRANCH   6   7
ENDBRANCH   5   6
ENDBRANCH   4   5
ENDBRANCH   3   4
ENDBRANCH   2   3
ENDBRANCH   1   2
BRANCH   1  15
ATOM     15  C   UNL     1     -18.614 -12.843  -0.474  1.00  0.00     0.000 C 
BRANCH  15  16
ATOM     16  C   UNL     1     -19.738 -13.254  -1.445  1.00  0.00     0.000 C 
BRANCH  16  17
ATOM     17  C   UNL     1     -19.265 -13.676  -2.851  1.00  0.00     0.000 C 
BRANCH  17  18
ATOM     18  C   UNL     1     -18.141 -14.728  -2.867  1.00  0.00    -0.000 C 
BRANCH  18  19
ATOM     19  C   UNL     1     -16.893 -14.255  -3.633  1.00  0.00    -0.000 C 
BRANCH  19  20
ATOM     20  C   UNL     1     -16.517 -12.802  -3.308  1.00  0.00    -0.000 C 
BRANCH  20  21
ATOM     21  C   UNL     1     -15.185 -12.693  -2.546  1.00  0.00    -0.000 C 
BRANCH  21  22
ATOM     22  C   UNL     1     -15.028 -13.782  -1.472  1.00  0.00    -0.000 C 
BRANCH  22  23
ATOM     23  C   UNL     1     -13.930 -13.450  -0.450  1.00  0.00    -0.000 C 
BRANCH  23  24
ATOM     24  C   UNL     1     -14.536 -13.091   0.911  1.00  0.00    -0.000 C 
BRANCH  24  25
ATOM     25  C   UNL     1     -15.717 -14.008   1.247  1.00  0.00    -0.003 C 
ATOM     26  C   UNL     1     -15.675 -14.450   2.707  1.00  0.00     0.004 C 
ENDBRANCH  24  25
ENDBRANCH  23  24
ENDBRANCH  22  23
ENDBRANCH  21  22
ENDBRANCH  20  21
ENDBRANCH  19  20
ENDBRANCH  18  19
ENDBRANCH  17  18
ENDBRANCH  16  17
ENDBRANCH  15  16
ENDBRANCH   1  15
TORSDOF 22
ENDMDL
MODEL 2
REMARK VINA RESULT:    -6.216      2.330      6.392
REMARK INTER + INTRA:         -18.307
REMARK INTER:                 -14.377
REMARK INTRA:                  -3.931
REMARK UNBOUND:                -4.097
REMARK SMILES CCCCCCCCCCCCCCCCCCCCCCCC(=O)[O-]
REMARK SMILES IDX 13 1 14 2 15 3 16 4 17 5 18 6 19 7 20 8 21 9 22 10 23 11
REMARK SMILES IDX 24 12 25 13 26 14 12 15 11 16 10 17 9 18 8 19 7 20 6 21 5 22
REMARK SMILES IDX 4 23 3 24 2 25 1 26
REMARK H PARENT
REMARK Flexibility Score: inf
ROOT
ATOM      1  C   UNL     1     -18.192 -10.853  -0.873  1.00  0.00     0.000 C 
ENDROOT
BRANCH   1   2
ATOM      2  C   UNL     1     -19.118 -11.933  -0.280  1.00  0.00     0.000 C 
BRANCH   2   3
ATOM      3  C   UNL     1     -19.443 -13.102  -1.226  1.00  0.00     0.000 C 
BRANCH   3   4
ATOM      4  C   UNL     1     -18.814 -12.937  -2.618  1.00  0.00     0.000 C 
BRANCH   4   5
ATOM      5  C   UNL     1     -18.198 -14.256  -3.100  1.00  0.00     0.000 C 
BRANCH   5   6
ATOM      6  C   UNL     1     -16.771 -14.035  -3.625  1.00  0.00     0.000 C 
BRANCH   6   7
ATOM      7  C   UNL     1     -16.205 -12.653  -3.251  1.00  0.00     0.000 C 
BRANCH   7   8
ATOM      8  C   UNL     1     -15.233 -12.646  -2.053  1.00  0.00     0.000 C 
BRANCH   8   9
ATOM      9  C   UNL     1     -14.709 -14.030  -1.627  1.00  0.00     0.000 C 
BRANCH   9  10
ATOM     10  C   UNL     1     -15.663 -14.759  -0.665  1.00  0.00     0.006 C 
BRANCH  10  11
ATOM     11  C   UNL     1     -16.240 -13.818   0.401  1.00  0.00     0.053 C 
BRANCH  11  12
ATOM     12  C   UNL     1     -15.321 -13.675   1.576  1.00  0.00     0.041 C 
ATOM     13  O   UNL     1     -14.309 -12.931   1.501  1.00  0.00    -0.550 OA
ATOM     14  O   UNL     1     -15.600 -14.339   2.764  1.00  0.00    -0.550 OA
ENDBRANCH  11  12
ENDBRANCH  10  11
ENDBRANCH   9  10
ENDBRANCH   8   9
ENDBRANCH   7   8
ENDBRANCH   6   7
ENDBRANCH   5   6
ENDBRANCH   4   5
ENDBRANCH   3   4
ENDBRANCH   2   3
ENDBRANCH   1   2
BRANCH   1  15
ATOM     15  C   UNL     1     -18.853  -9.480  -1.106  1.00  0.00     0.000 C 
BRANCH  15  16
ATOM     16  C   UNL     1     -19.402  -8.800   0.164  1.00  0.00     0.000 C 
BRANCH  16  17
ATOM     17  C   UNL     1     -18.335  -8.396   1.201  1.00  0.00     0.000 C 
BRANCH  17  18
ATOM     18  C   UNL     1     -17.509  -7.152   0.828  1.00  0.00    -0.000 C 
BRANCH  18  19
ATOM     19  C   UNL     1     -15.994  -7.425   0.810  1.00  0.00    -0.000 C 
BRANCH  19  20
ATOM     20  C   UNL     1     -15.665  -8.925   0.857  1.00  0.00    -0.000 C 
BRANCH  20  21
ATOM     21  C   UNL     1     -14.878  -9.395  -0.379  1.00  0.00    -0.000 C 
BRANCH  21  22
ATOM     22  C   UNL     1     -15.012  -8.427  -1.566  1.00  0.00    -0.000 C 
BRANCH  22  23
ATOM     23  C   UNL     1     -14.115  -8.819  -2.751  1.00  0.00    -0.000 C 
BRANCH  23  24
ATOM     24  C   UNL     1     -14.949  -9.370  -3.914  1.00  0.00    -0.000 C 
BRANCH  24  25
ATOM     25  C   UNL     1     -16.400  -8.887  -3.827  1.00  0.00    -0.003 C 
ATOM     26  C   UNL     1     -16.719  -7.893  -4.942  1.00  0.00     0.004 C 
ENDBRANCH  24  25
ENDBRANCH  23  24
ENDBRANCH  22  23
ENDBRANCH  21  22
ENDBRANCH  20  21
ENDBRANCH  19  20
ENDBRANCH  18  19
ENDBRANCH  17  18
ENDBRANCH  16  17
ENDBRANCH  15  16
ENDBRANCH   1  15
TORSDOF 22
ENDMDL
MODEL 3
REMARK VINA RESULT:    -6.007      2.324      6.356
REMARK INTER + INTRA:         -17.829
REMARK INTER:                 -13.683
REMARK INTRA:                  -4.146
REMARK UNBOUND:                -4.097
REMARK SMILES CCCCCCCCCCCCCCCCCCCCCCCC(=O)[O-]
REMARK SMILES IDX 13 1 14 2 15 3 16 4 17 5 18 6 19 7 20 8 21 9 22 10 23 11
REMARK SMILES IDX 24 12 25 13 26 14 12 15 11 16 10 17 9 18 8 19 7 20 6 21 5 22
REMARK SMILES IDX 4 23 3 24 2 25 1 26
REMARK H PARENT
REMARK Flexibility Score: inf
ROOT
ATOM      1  C   UNL     1     -18.673  -9.465  -1.207  1.00  0.00     0.000 C 
ENDROOT
BRANCH   1   2
ATOM      2  C   UNL     1     -18.167 -10.920  -1.146  1.00  0.00     0.000 C 
BRANCH   2   3
ATOM      3  C   UNL     1     -19.014 -11.868  -0.279  1.00  0.00     0.000 C 
BRANCH   3   4
ATOM      4  C   UNL     1     -19.708 -12.967  -1.098  1.00  0.00     0.000 C 
BRANCH   4   5
ATOM      5  C   UNL     1     -19.159 -13.012  -2.529  1.00  0.00     0.000 C 
BRANCH   5   6
ATOM      6  C   UNL     1     -18.892 -14.460  -2.968  1.00  0.00     0.000 C 
BRANCH   6   7
ATOM      7  C   UNL     1     -17.390 -14.780  -3.084  1.00  0.00     0.000 C 
BRANCH   7   8
ATOM      8  C   UNL     1     -16.467 -13.552  -3.222  1.00  0.00     0.000 C 
BRANCH   8   9
ATOM      9  C   UNL     1     -15.429 -13.383  -2.097  1.00  0.00     0.000 C 
BRANCH   9  10
ATOM     10  C   UNL     1     -15.604 -14.409  -0.965  1.00  0.00     0.006 C 
BRANCH  10  11
ATOM     11  C   UNL     1     -16.272 -13.797   0.273  1.00  0.00     0.053 C 
BRANCH  11  12
ATOM     12  C   UNL     1     -15.319 -13.684   1.424  1.00  0.00     0.041 C 
ATOM     13  O   UNL     1     -15.530 -14.327   2.486  1.00  0.00    -0.550 OA
ATOM     14  O   UNL     1     -14.181 -12.896   1.312  1.00  0.00    -0.550 OA
ENDBRANCH  11  12
ENDBRANCH  10  11
ENDBRANCH   9  10
ENDBRANCH   8   9
ENDBRANCH   7   8
ENDBRANCH   6   7
ENDBRANCH   5   6
ENDBRANCH   4   5
ENDBRANCH   3   4
ENDBRANCH   2   3
ENDBRANCH   1   2
BRANCH   1  15
ATOM     15  C   UNL     1     -19.203  -8.901   0.126  1.00  0.00     0.000 C 
BRANCH  15  16
ATOM     16  C   UNL     1     -18.124  -8.633   1.193  1.00  0.00     0.000 C 
BRANCH  16  17
ATOM     17  C   UNL     1     -17.153  -7.481   0.865  1.00  0.00     0.000 C 
BRANCH  17  18
ATOM     18  C   UNL     1     -15.693  -7.910   0.637  1.00  0.00    -0.000 C 
BRANCH  18  19
ATOM     19  C   UNL     1     -15.526  -9.438   0.551  1.00  0.00    -0.000 C 
BRANCH  19  20
ATOM     20  C   UNL     1     -14.619  -9.867  -0.611  1.00  0.00    -0.000 C 
BRANCH  20  21
ATOM     21  C   UNL     1     -13.993  -8.667  -1.344  1.00  0.00    -0.000 C 
BRANCH  21  22
ATOM     22  C   UNL     1     -14.210  -8.725  -2.864  1.00  0.00    -0.000 C 
BRANCH  22  23
ATOM     23  C   UNL     1     -14.988  -9.975  -3.303  1.00  0.00    -0.000 C 
BRANCH  23  24
ATOM     24  C   UNL     1     -16.361  -9.598  -3.870  1.00  0.00    -0.000 C 
BRANCH  24  25
ATOM     25  C   UNL     1     -16.560  -8.079  -3.864  1.00  0.00    -0.003 C 
ATOM     26  C   UNL     1     -16.747  -7.541  -5.281  1.00  0.00     0.004 C 
ENDBRANCH  24  25
ENDBRANCH  23  24
ENDBRANCH  22  23
ENDBRANCH  21  22
ENDBRANCH  20  21
ENDBRANCH  19  20
ENDBRANCH  18  19
ENDBRANCH  17  18
ENDBRANCH  16  17
ENDBRANCH  15  16
ENDBRANCH   1  15
TORSDOF 22
ENDMDL
MODEL 4
REMARK VINA RESULT:    -5.709      2.204      5.820
REMARK INTER + INTRA:         -17.149
REMARK INTER:                 -13.585
REMARK INTRA:                  -3.564
REMARK UNBOUND:                -4.097
REMARK SMILES CCCCCCCCCCCCCCCCCCCCCCCC(=O)[O-]
REMARK SMILES IDX 13 1 14 2 15 3 16 4 17 5 18 6 19 7 20 8 21 9 22 10 23 11
REMARK SMILES IDX 24 12 25 13 26 14 12 15 11 16 10 17 9 18 8 19 7 20 6 21 5 22
REMARK SMILES IDX 4 23 3 24 2 25 1 26
REMARK H PARENT
REMARK Flexibility Score: inf
ROOT
ATOM      1  C   UNL     1     -15.091  -9.110  -0.462  1.00  0.00     0.000 C 
ENDROOT
BRANCH   1   2
ATOM      2  C   UNL     1     -14.784  -7.913  -1.384  1.00  0.00     0.000 C 
BRANCH   2   3
ATOM      3  C   UNL     1     -15.999  -7.347  -2.141  1.00  0.00     0.000 C 
BRANCH   3   4
ATOM      4  C   UNL     1     -16.719  -8.403  -2.991  1.00  0.00     0.000 C 
BRANCH   4   5
ATOM      5  C   UNL     1     -15.892  -8.765  -4.231  1.00  0.00     0.000 C 
BRANCH   5   6
ATOM      6  C   UNL     1     -15.161 -10.101  -4.032  1.00  0.00     0.000 C 
BRANCH   6   7
ATOM      7  C   UNL     1     -15.999 -11.130  -3.251  1.00  0.00     0.000 C 
BRANCH   7   8
ATOM      8  C   UNL     1     -15.270 -11.810  -2.074  1.00  0.00     0.000 C 
BRANCH   8   9
ATOM      9  C   UNL     1     -14.705 -13.210  -2.375  1.00  0.00     0.000 C 
BRANCH   9  10
ATOM     10  C   UNL     1     -14.197 -13.933  -1.115  1.00  0.00     0.006 C 
BRANCH  10  11
ATOM     11  C   UNL     1     -15.331 -14.238  -0.128  1.00  0.00     0.053 C 
BRANCH  11  12
ATOM     12  C   UNL     1     -15.096 -13.598   1.207  1.00  0.00     0.041 C 
ATOM     13  O   UNL     1     -14.433 -12.531   1.289  1.00  0.00    -0.550 OA
ATOM     14  O   UNL     1     -15.637 -14.163   2.355  1.00  0.00    -0.550 OA
ENDBRANCH  11  12
ENDBRANCH  10  11
ENDBRANCH   9  10
ENDBRANCH   8   9
ENDBRANCH   7   8
ENDBRANCH   6   7
ENDBRANCH   5   6
ENDBRANCH   4   5
ENDBRANCH   3   4
ENDBRANCH   2   3
ENDBRANCH   1   2
BRANCH   1  15
ATOM     15  C   UNL     1     -15.554  -8.737   0.960  1.00  0.00     0.000 C 
BRANCH  15  16
ATOM     16  C   UNL     1     -16.363  -7.430   1.057  1.00  0.00     0.000 C 
BRANCH  16  17
ATOM     17  C   UNL     1     -17.877  -7.615   1.285  1.00  0.00     0.000 C 
BRANCH  17  18
ATOM     18  C   UNL     1     -18.423  -9.005   0.914  1.00  0.00    -0.000 C 
BRANCH  18  19
ATOM     19  C   UNL     1     -18.997  -9.059  -0.513  1.00  0.00    -0.000 C 
BRANCH  19  20
ATOM     20  C   UNL     1     -19.049 -10.487  -1.074  1.00  0.00    -0.000 C 
BRANCH  20  21
ATOM     21  C   UNL     1     -18.388 -11.513  -0.137  1.00  0.00    -0.000 C 
BRANCH  21  22
ATOM     22  C   UNL     1     -18.464 -12.948  -0.683  1.00  0.00    -0.000 C 
BRANCH  22  23
ATOM     23  C   UNL     1     -19.797 -13.240  -1.391  1.00  0.00    -0.000 C 
BRANCH  23  24
ATOM     24  C   UNL     1     -19.580 -14.112  -2.633  1.00  0.00    -0.000 C 
BRANCH  24  25
ATOM     25  C   UNL     1     -18.157 -13.950  -3.178  1.00  0.00    -0.003 C 
ATOM     26  C   UNL     1     -17.404 -15.278  -3.160  1.00  0.00     0.004 C 
ENDBRANCH  24  25
ENDBRANCH  23  24
ENDBRANCH  22  23
ENDBRANCH  21  22
ENDBRANCH  20  21
ENDBRANCH  19  20
ENDBRANCH  18  19
ENDBRANCH  17  18
ENDBRANCH  16  17
ENDBRANCH  15  16
ENDBRANCH   1  15
TORSDOF 22
ENDMDL
MODEL 5
REMARK VINA RESULT:    -5.695      2.043      4.309
REMARK INTER + INTRA:         -17.117
REMARK INTER:                 -13.707
REMARK INTRA:                  -3.410
REMARK UNBOUND:                -4.097
REMARK SMILES CCCCCCCCCCCCCCCCCCCCCCCC(=O)[O-]
REMARK SMILES IDX 13 1 14 2 15 3 16 4 17 5 18 6 19 7 20 8 21 9 22 10 23 11
REMARK SMILES IDX 24 12 25 13 26 14 12 15 11 16 10 17 9 18 8 19 7 20 6 21 5 22
REMARK SMILES IDX 4 23 3 24 2 25 1 26
REMARK H PARENT
REMARK Flexibility Score: inf
ROOT
ATOM      1  C   UNL     1     -14.701  -8.001  -1.700  1.00  0.00     0.000 C 
ENDROOT
BRANCH   1   2
ATOM      2  C   UNL     1     -14.487  -9.035  -0.576  1.00  0.00     0.000 C 
BRANCH   2   3
ATOM      3  C   UNL     1     -15.684  -9.224   0.372  1.00  0.00     0.000 C 
BRANCH   3   4
ATOM      4  C   UNL     1     -15.941  -7.998   1.262  1.00  0.00     0.000 C 
BRANCH   4   5
ATOM      5  C   UNL     1     -17.428  -7.621   1.258  1.00  0.00     0.000 C 
BRANCH   5   6
ATOM      6  C   UNL     1     -18.310  -8.867   1.086  1.00  0.00     0.000 C 
BRANCH   6   7
ATOM      7  C   UNL     1     -19.119  -8.848  -0.224  1.00  0.00     0.000 C 
BRANCH   7   8
ATOM      8  C   UNL     1     -19.281 -10.218  -0.913  1.00  0.00     0.000 C 
BRANCH   8   9
ATOM      9  C   UNL     1     -18.725 -11.418  -0.124  1.00  0.00     0.000 C 
BRANCH   9  10
ATOM     10  C   UNL     1     -19.022 -12.767  -0.801  1.00  0.00     0.006 C 
BRANCH  10  11
ATOM     11  C   UNL     1     -18.665 -12.756  -2.293  1.00  0.00     0.053 C 
BRANCH  11  12
ATOM     12  C   UNL     1     -18.998 -14.057  -2.957  1.00  0.00     0.041 C 
ATOM     13  O   UNL     1     -20.190 -14.324  -3.263  1.00  0.00    -0.550 OA
ATOM     14  O   UNL     1     -17.989 -14.960  -3.267  1.00  0.00    -0.550 OA
ENDBRANCH  11  12
ENDBRANCH  10  11
ENDBRANCH   9  10
ENDBRANCH   8   9
ENDBRANCH   7   8
ENDBRANCH   6   7
ENDBRANCH   5   6
ENDBRANCH   4   5
ENDBRANCH   3   4
ENDBRANCH   2   3
ENDBRANCH   1   2
BRANCH   1  15
ATOM     15  C   UNL     1     -16.174  -7.702  -2.040  1.00  0.00     0.000 C 
BRANCH  15  16
ATOM     16  C   UNL     1     -16.771  -8.574  -3.162  1.00  0.00     0.000 C 
BRANCH  16  17
ATOM     17  C   UNL     1     -15.807  -8.897  -4.320  1.00  0.00     0.000 C 
BRANCH  17  18
ATOM     18  C   UNL     1     -15.036 -10.221  -4.171  1.00  0.00    -0.000 C 
BRANCH  18  19
ATOM     19  C   UNL     1     -15.715 -11.199  -3.195  1.00  0.00    -0.000 C 
BRANCH  19  20
ATOM     20  C   UNL     1     -15.327 -12.661  -3.462  1.00  0.00    -0.000 C 
BRANCH  20  21
ATOM     21  C   UNL     1     -14.651 -13.323  -2.249  1.00  0.00    -0.000 C 
BRANCH  21  22
ATOM     22  C   UNL     1     -15.429 -14.543  -1.731  1.00  0.00    -0.000 C 
BRANCH  22  23
ATOM     23  C   UNL     1     -15.819 -14.410  -0.251  1.00  0.00    -0.000 C 
BRANCH  23  24
ATOM     24  C   UNL     1     -15.412 -13.040   0.305  1.00  0.00    -0.000 C 
BRANCH  24  25
ATOM     25  C   UNL     1     -15.033 -13.138   1.786  1.00  0.00    -0.003 C 
ATOM     26  C   UNL     1     -15.653 -14.373   2.435  1.00  0.00     0.004 C 
ENDBRANCH  24  25
ENDBRANCH  23  24
ENDBRANCH  22  23
ENDBRANCH  21  22
ENDBRANCH  20  21
ENDBRANCH  19  20
ENDBRANCH  18  19
ENDBRANCH  17  18
ENDBRANCH  16  17
ENDBRANCH  15  16
ENDBRANCH   1  15
TORSDOF 22
ENDMDL
MODEL 6
REMARK VINA RESULT:    -5.657      2.032      5.162
REMARK INTER + INTRA:         -17.028
REMARK INTER:                 -13.383
REMARK INTRA:                  -3.645
REMARK UNBOUND:                -4.097
REMARK SMILES CCCCCCCCCCCCCCCCCCCCCCCC(=O)[O-]
REMARK SMILES IDX 13 1 14 2 15 3 16 4 17 5 18 6 19 7 20 8 21 9 22 10 23 11
REMARK SMILES IDX 24 12 25 13 26 14 12 15 11 16 10 17 9 18 8 19 7 20 6 21 5 22
REMARK SMILES IDX 4 23 3 24 2 25 1 26
REMARK H PARENT
REMARK Flexibility Score: inf
ROOT
ATOM      1  C   UNL     1     -15.582  -9.020   0.823  1.00  0.00     0.000 C 
ENDROOT
BRANCH   1   2
ATOM      2  C   UNL     1     -16.311  -7.710   1.184  1.00  0.00     0.000 C 
BRANCH   2   3
ATOM      3  C   UNL     1     -17.844  -7.818   1.260  1.00  0.00     0.000 C 
BRANCH   3   4
ATOM      4  C   UNL     1     -18.362  -9.224   0.921  1.00  0.00     0.000 C 
BRANCH   4   5
ATOM      5  C   UNL     1     -19.045  -9.239  -0.452  1.00  0.00     0.000 C 
BRANCH   5   6
ATOM      6  C   UNL     1     -18.868 -10.603  -1.138  1.00  0.00     0.000 C 
BRANCH   6   7
ATOM      7  C   UNL     1     -19.206 -11.785  -0.211  1.00  0.00     0.000 C 
BRANCH   7   8
ATOM      8  C   UNL     1     -18.097 -12.847  -0.073  1.00  0.00     0.000 C 
BRANCH   8   9
ATOM      9  C   UNL     1     -16.729 -12.310   0.388  1.00  0.00     0.000 C 
BRANCH   9  10
ATOM     10  C   UNL     1     -15.752 -13.430   0.787  1.00  0.00     0.006 C 
BRANCH  10  11
ATOM     11  C   UNL     1     -14.364 -13.236   0.163  1.00  0.00     0.053 C 
BRANCH  11  12
ATOM     12  C   UNL     1     -14.160 -14.119  -1.030  1.00  0.00     0.041 C 
ATOM     13  O   UNL     1     -15.059 -14.929  -1.379  1.00  0.00    -0.550 OA
ATOM     14  O   UNL     1     -12.992 -14.025  -1.775  1.00  0.00    -0.550 OA
ENDBRANCH  11  12
ENDBRANCH  10  11
ENDBRANCH   9  10
ENDBRANCH   8   9
ENDBRANCH   7   8
ENDBRANCH   6   7
ENDBRANCH   5   6
ENDBRANCH   4   5
ENDBRANCH   3   4
ENDBRANCH   2   3
ENDBRANCH   1   2
BRANCH   1  15
ATOM     15  C   UNL     1     -14.985  -9.065  -0.597  1.00  0.00     0.000 C 
BRANCH  15  16
ATOM     16  C   UNL     1     -15.058  -7.737  -1.376  1.00  0.00     0.000 C 
BRANCH  16  17
ATOM     17  C   UNL     1     -16.354  -7.525  -2.184  1.00  0.00     0.000 C 
BRANCH  17  18
ATOM     18  C   UNL     1     -16.746  -8.700  -3.098  1.00  0.00    -0.000 C 
BRANCH  18  19
ATOM     19  C   UNL     1     -15.908  -8.758  -4.388  1.00  0.00    -0.000 C 
BRANCH  19  20
ATOM     20  C   UNL     1     -14.875  -9.894  -4.369  1.00  0.00    -0.000 C 
BRANCH  20  21
ATOM     21  C   UNL     1     -15.136 -10.909  -3.242  1.00  0.00    -0.000 C 
BRANCH  21  22
ATOM     22  C   UNL     1     -15.541 -12.292  -3.776  1.00  0.00    -0.000 C 
BRANCH  22  23
ATOM     23  C   UNL     1     -16.868 -12.789  -3.182  1.00  0.00    -0.000 C 
BRANCH  23  24
ATOM     24  C   UNL     1     -17.218 -14.185  -3.708  1.00  0.00    -0.000 C 
BRANCH  24  25
ATOM     25  C   UNL     1     -18.287 -14.851  -2.835  1.00  0.00    -0.003 C 
ATOM     26  C   UNL     1     -19.671 -14.272  -3.117  1.00  0.00     0.004 C 
ENDBRANCH  24  25
ENDBRANCH  23  24
ENDBRANCH  22  23
ENDBRANCH  21  22
ENDBRANCH  20  21
ENDBRANCH  19  20
ENDBRANCH  18  19
ENDBRANCH  17  18
ENDBRANCH  16  17
ENDBRANCH  15  16
ENDBRANCH   1  15
TORSDOF 22
ENDMDL
MODEL 7
REMARK VINA RESULT:    -5.572      0.816      3.084
REMARK INTER + INTRA:         -16.835
REMARK INTER:                 -12.756
REMARK INTRA:                  -4.079
REMARK UNBOUND:                -4.097
REMARK SMILES CCCCCCCCCCCCCCCCCCCCCCCC(=O)[O-]
REMARK SMILES IDX 13 1 14 2 15 3 16 4 17 5 18 6 19 7 20 8 21 9 22 10 23 11
REMARK SMILES IDX 24 12 25 13 26 14 12 15 11 16 10 17 9 18 8 19 7 20 6 21 5 22
REMARK SMILES IDX 4 23 3 24 2 25 1 26
REMARK H PARENT
REMARK Flexibility Score: inf
ROOT
ATOM      1  C   UNL     1     -19.075 -11.810  -0.241  1.00  0.00     0.000 C 
ENDROOT
BRANCH   1   2
ATOM      2  C   UNL     1     -19.333 -10.785  -1.364  1.00  0.00     0.000 C 
BRANCH   2   3
ATOM      3  C   UNL     1     -18.740  -9.386  -1.116  1.00  0.00     0.000 C 
BRANCH   3   4
ATOM      4  C   UNL     1     -19.258  -8.738   0.177  1.00  0.00     0.000 C 
BRANCH   4   5
ATOM      5  C   UNL     1     -18.131  -8.598   1.208  1.00  0.00     0.000 C 
BRANCH   5   6
ATOM      6  C   UNL     1     -17.368  -7.280   1.011  1.00  0.00     0.000 C 
BRANCH   6   7
ATOM      7  C   UNL     1     -15.904  -7.496   0.585  1.00  0.00     0.000 C 
BRANCH   7   8
ATOM      8  C   UNL     1     -15.443  -8.967   0.550  1.00  0.00     0.000 C 
BRANCH   8   9
ATOM      9  C   UNL     1     -15.110  -9.517  -0.850  1.00  0.00     0.000 C 
BRANCH   9  10
ATOM     10  C   UNL     1     -14.870  -8.405  -1.886  1.00  0.00     0.006 C 
BRANCH  10  11
ATOM     11  C   UNL     1     -16.116  -8.130  -2.738  1.00  0.00     0.053 C 
BRANCH  11  12
ATOM     12  C   UNL     1     -15.958  -8.642  -4.137  1.00  0.00     0.041 C 
ATOM     13  O   UNL     1     -16.630  -8.137  -5.075  1.00  0.00    -0.550 OA
ATOM     14  O   UNL     1     -15.046  -9.653  -4.412  1.00  0.00    -0.550 OA
ENDBRANCH  11  12
ENDBRANCH  10  11
ENDBRANCH   9  10
ENDBRANCH   8   9
ENDBRANCH   7   8
ENDBRANCH   6   7
ENDBRANCH   5   6
ENDBRANCH   4   5
ENDBRANCH   3   4
ENDBRANCH   2   3
ENDBRANCH   1   2
BRANCH   1  15
ATOM     15  C   UNL     1     -17.592 -12.138   0.017  1.00  0.00     0.000 C 
BRANCH  15  16
ATOM     16  C   UNL     1     -17.302 -13.615   0.350  1.00  0.00     0.000 C 
BRANCH  16  17
ATOM     17  C   UNL     1     -15.965 -13.870   1.074  1.00  0.00     0.000 C 
BRANCH  17  18
ATOM     18  C   UNL     1     -14.887 -12.796   0.840  1.00  0.00    -0.000 C 
BRANCH  18  19
ATOM     19  C   UNL     1     -13.705 -13.311  -0.001  1.00  0.00    -0.000 C 
BRANCH  19  20
ATOM     20  C   UNL     1     -14.148 -13.873  -1.359  1.00  0.00    -0.000 C 
BRANCH  20  21
ATOM     21  C   UNL     1     -14.753 -12.794  -2.275  1.00  0.00    -0.000 C 
BRANCH  21  22
ATOM     22  C   UNL     1     -15.963 -13.306  -3.071  1.00  0.00    -0.000 C 
BRANCH  22  23
ATOM     23  C   UNL     1     -16.350 -14.746  -2.698  1.00  0.00    -0.000 C 
BRANCH  23  24
ATOM     24  C   UNL     1     -17.758 -15.085  -3.200  1.00  0.00    -0.000 C 
BRANCH  24  25
ATOM     25  C   UNL     1     -18.650 -13.840  -3.221  1.00  0.00    -0.003 C 
ATOM     26  C   UNL     1     -20.075 -14.174  -2.788  1.00  0.00     0.004 C 
ENDBRANCH  24  25
ENDBRANCH  23  24
ENDBRANCH  22  23
ENDBRANCH  21  22
ENDBRANCH  20  21
ENDBRANCH  19  20
ENDBRANCH  18  19
ENDBRANCH  17  18
ENDBRANCH  16  17
ENDBRANCH  15  16
ENDBRANCH   1  15
TORSDOF 22
ENDMDL
MODEL 8
REMARK VINA RESULT:    -5.519      2.390      6.353
REMARK INTER + INTRA:         -16.713
REMARK INTER:                 -13.136
REMARK INTRA:                  -3.577
REMARK UNBOUND:                -4.097
REMARK SMILES CCCCCCCCCCCCCCCCCCCCCCCC(=O)[O-]
REMARK SMILES IDX 13 1 14 2 15 3 16 4 17 5 18 6 19 7 20 8 21 9 22 10 23 11
REMARK SMILES IDX 24 12 25 13 26 14 12 15 11 16 10 17 9 18 8 19 7 20 6 21 5 22
REMARK SMILES IDX 4 23 3 24 2 25 1 26
REMARK H PARENT
REMARK Flexibility Score: inf
ROOT
ATOM      1  C   UNL     1     -16.073  -7.274  -2.204  1.00  0.00     0.000 C 
ENDROOT
BRANCH   1   2
ATOM      2  C   UNL     1     -16.654  -8.489  -2.955  1.00  0.00     0.000 C 
BRANCH   2   3
ATOM      3  C   UNL     1     -16.012  -8.776  -4.324  1.00  0.00     0.000 C 
BRANCH   3   4
ATOM      4  C   UNL     1     -15.149 -10.046  -4.324  1.00  0.00     0.000 C 
BRANCH   4   5
ATOM      5  C   UNL     1     -15.711 -11.091  -3.353  1.00  0.00     0.000 C 
BRANCH   5   6
ATOM      6  C   UNL     1     -15.129 -12.482  -3.646  1.00  0.00     0.000 C 
BRANCH   6   7
ATOM      7  C   UNL     1     -15.946 -13.618  -3.003  1.00  0.00     0.000 C 
BRANCH   7   8
ATOM      8  C   UNL     1     -15.210 -14.412  -1.903  1.00  0.00     0.000 C 
BRANCH   8   9
ATOM      9  C   UNL     1     -14.092 -13.642  -1.176  1.00  0.00     0.000 C 
BRANCH   9  10
ATOM     10  C   UNL     1     -14.633 -12.624  -0.158  1.00  0.00     0.006 C 
BRANCH  10  11
ATOM     11  C   UNL     1     -14.434 -13.093   1.289  1.00  0.00     0.053 C 
BRANCH  11  12
ATOM     12  C   UNL     1     -15.578 -13.933   1.767  1.00  0.00     0.041 C 
ATOM     13  O   UNL     1     -16.664 -13.944   1.130  1.00  0.00    -0.550 OA
ATOM     14  O   UNL     1     -15.435 -14.730   2.895  1.00  0.00    -0.550 OA
ENDBRANCH  11  12
ENDBRANCH  10  11
ENDBRANCH   9  10
ENDBRANCH   8   9
ENDBRANCH   7   8
ENDBRANCH   6   7
ENDBRANCH   5   6
ENDBRANCH   4   5
ENDBRANCH   3   4
ENDBRANCH   2   3
ENDBRANCH   1   2
BRANCH   1  15
ATOM     15  C   UNL     1     -14.856  -7.580  -1.310  1.00  0.00     0.000 C 
BRANCH  15  16
ATOM     16  C   UNL     1     -14.785  -9.026  -0.781  1.00  0.00     0.000 C 
BRANCH  16  17
ATOM     17  C   UNL     1     -15.443  -9.250   0.596  1.00  0.00     0.000 C 
BRANCH  17  18
ATOM     18  C   UNL     1     -15.972  -7.975   1.276  1.00  0.00    -0.000 C 
BRANCH  18  19
ATOM     19  C   UNL     1     -17.486  -7.779   1.080  1.00  0.00    -0.000 C 
BRANCH  19  20
ATOM     20  C   UNL     1     -18.233  -9.107   0.891  1.00  0.00    -0.000 C 
BRANCH  20  21
ATOM     21  C   UNL     1     -19.187  -9.081  -0.316  1.00  0.00    -0.000 C 
BRANCH  21  22
ATOM     22  C   UNL     1     -19.010 -10.300  -1.236  1.00  0.00    -0.000 C 
BRANCH  22  23
ATOM     23  C   UNL     1     -18.435 -11.518  -0.497  1.00  0.00    -0.000 C 
BRANCH  23  24
ATOM     24  C   UNL     1     -19.100 -12.815  -0.973  1.00  0.00    -0.000 C 
BRANCH  24  25
ATOM     25  C   UNL     1     -19.016 -12.948  -2.498  1.00  0.00    -0.003 C 
ATOM     26  C   UNL     1     -19.596 -14.279  -2.968  1.00  0.00     0.004 C 
ENDBRANCH  24  25
ENDBRANCH  23  24
ENDBRANCH  22  23
ENDBRANCH  21  22
ENDBRANCH  20  21
ENDBRANCH  19  20
ENDBRANCH  18  19
ENDBRANCH  17  18
ENDBRANCH  16  17
ENDBRANCH  15  16
ENDBRANCH   1  15
TORSDOF 22
ENDMDL
MODEL 9
REMARK VINA RESULT:    -5.479      2.233      5.181
REMARK INTER + INTRA:         -16.623
REMARK INTER:                 -12.690
REMARK INTRA:                  -3.933
REMARK UNBOUND:                -4.097
REMARK SMILES CCCCCCCCCCCCCCCCCCCCCCCC(=O)[O-]
REMARK SMILES IDX 13 1 14 2 15 3 16 4 17 5 18 6 19 7 20 8 21 9 22 10 23 11
REMARK SMILES IDX 24 12 25 13 26 14 12 15 11 16 10 17 9 18 8 19 7 20 6 21 5 22
REMARK SMILES IDX 4 23 3 24 2 25 1 26
REMARK H PARENT
REMARK Flexibility Score: inf
ROOT
ATOM      1  C   UNL     1     -14.317  -8.843  -0.592  1.00  0.00     0.000 C 
ENDROOT
BRANCH   1   2
ATOM      2  C   UNL     1     -15.543  -9.137   0.296  1.00  0.00     0.000 C 
BRANCH   2   3
ATOM      3  C   UNL     1     -15.937  -8.002   1.258  1.00  0.00     0.000 C 
BRANCH   3   4
ATOM      4  C   UNL     1     -17.445  -7.708   1.249  1.00  0.00     0.000 C 
BRANCH   4   5
ATOM      5  C   UNL     1     -18.255  -9.003   1.125  1.00  0.00     0.000 C 
BRANCH   5   6
ATOM      6  C   UNL     1     -19.401  -8.839   0.116  1.00  0.00     0.000 C 
BRANCH   6   7
ATOM      7  C   UNL     1     -19.302  -9.821  -1.066  1.00  0.00     0.000 C 
BRANCH   7   8
ATOM      8  C   UNL     1     -18.250 -10.937  -0.903  1.00  0.00     0.000 C 
BRANCH   8   9
ATOM      9  C   UNL     1     -18.770 -12.239  -0.265  1.00  0.00     0.000 C 
BRANCH   9  10
ATOM     10  C   UNL     1     -17.637 -13.190   0.158  1.00  0.00     0.006 C 
BRANCH  10  11
ATOM     11  C   UNL     1     -16.370 -12.432   0.574  1.00  0.00     0.053 C 
BRANCH  11  12
ATOM     12  C   UNL     1     -15.327 -13.351   1.133  1.00  0.00     0.041 C 
ATOM     13  O   UNL     1     -14.147 -13.309   0.697  1.00  0.00    -0.550 OA
ATOM     14  O   UNL     1     -15.651 -14.232   2.157  1.00  0.00    -0.550 OA
ENDBRANCH  11  12
ENDBRANCH  10  11
ENDBRANCH   9  10
ENDBRANCH   8   9
ENDBRANCH   7   8
ENDBRANCH   6   7
ENDBRANCH   5   6
ENDBRANCH   4   5
ENDBRANCH   3   4
ENDBRANCH   2   3
ENDBRANCH   1   2
BRANCH   1  15
ATOM     15  C   UNL     1     -14.594  -7.941  -1.810  1.00  0.00     0.000 C 
BRANCH  15  16
ATOM     16  C   UNL     1     -16.077  -7.581  -2.028  1.00  0.00     0.000 C 
BRANCH  16  17
ATOM     17  C   UNL     1     -16.766  -8.327  -3.188  1.00  0.00     0.000 C 
BRANCH  17  18
ATOM     18  C   UNL     1     -15.854  -8.646  -4.385  1.00  0.00    -0.000 C 
BRANCH  18  19
ATOM     19  C   UNL     1     -15.185 -10.028  -4.274  1.00  0.00    -0.000 C 
BRANCH  19  20
ATOM     20  C   UNL     1     -15.980 -10.998  -3.388  1.00  0.00    -0.000 C 
BRANCH  20  21
ATOM     21  C   UNL     1     -15.070 -11.883  -2.518  1.00  0.00    -0.000 C 
BRANCH  21  22
ATOM     22  C   UNL     1     -15.279 -13.383  -2.782  1.00  0.00    -0.000 C 
BRANCH  22  23
ATOM     23  C   UNL     1     -16.639 -13.685  -3.429  1.00  0.00    -0.000 C 
BRANCH  23  24
ATOM     24  C   UNL     1     -17.148 -15.071  -3.018  1.00  0.00    -0.000 C 
BRANCH  24  25
ATOM     25  C   UNL     1     -18.646 -15.034  -2.695  1.00  0.00    -0.003 C 
ATOM     26  C   UNL     1     -19.294 -13.759  -3.230  1.00  0.00     0.004 C 
ENDBRANCH  24  25
ENDBRANCH  23  24
ENDBRANCH  22  23
ENDBRANCH  21  22
ENDBRANCH  20  21
ENDBRANCH  19  20
ENDBRANCH  18  19
ENDBRANCH  17  18
ENDBRANCH  16  17
ENDBRANCH  15  16
ENDBRANCH   1  15
TORSDOF 22
ENDMDL
