MODEL 1
REMARK VINA RESULT:    -4.221      0.000      0.000
REMARK INTER + INTRA:          -4.991
REMARK INTER:                  -4.961
REMARK INTRA:                  -0.030
REMARK UNBOUND:                -0.030
REMARK SMILES O=C([O-])CCC(=O)[O-]
REMARK SMILES IDX 4 1 2 2 1 3 3 4 5 5 6 6 7 7 8 8
REMARK H PARENT
REMARK Flexibility Score: inf
ROOT
ATOM      1  C   UNL     1      18.861  26.120   0.913  1.00  0.00     0.059 C 
ENDROOT
BRANCH   1   2
ATOM      2  C   UNL     1      18.355  25.992  -0.491  1.00  0.00     0.042 C 
ATOM      3  O   UNL     1      17.212  26.426  -0.796  1.00  0.00    -0.550 OA
ATOM      4  O   UNL     1      19.129  25.358  -1.454  1.00  0.00    -0.550 OA
ENDBRANCH   1   2
BRANCH   1   5
ATOM      5  C   UNL     1      19.273  24.761   1.490  1.00  0.00     0.059 C 
BRANCH   5   6
ATOM      6  C   UNL     1      19.792  24.889   2.890  1.00  0.00     0.042 C 
ATOM      7  O   UNL     1      19.179  25.598   3.730  1.00  0.00    -0.550 OA
ATOM      8  O   UNL     1      20.929  24.192   3.278  1.00  0.00    -0.550 OA
ENDBRANCH   5   6
ENDBRANCH   1   5
TORSDOF 3
ENDMDL
MODEL 2
REMARK VINA RESULT:    -4.212      0.034      4.157
REMARK INTER + INTRA:          -4.980
REMARK INTER:                  -4.950
REMARK INTRA:                  -0.030
REMARK UNBOUND:                -0.030
REMARK SMILES O=C([O-])CCC(=O)[O-]
REMARK SMILES IDX 4 1 2 2 1 3 3 4 5 5 6 6 7 7 8 8
REMARK H PARENT
REMARK Flexibility Score: inf
ROOT
ATOM      1  C   UNL     1      19.276  24.753   1.488  1.00  0.00     0.059 C 
ENDROOT
BRANCH   1   2
ATOM      2  C   UNL     1      19.775  24.893   2.895  1.00  0.00     0.042 C 
ATOM      3  O   UNL     1      19.174  25.641   3.710  1.00  0.00    -0.550 OA
ATOM      4  O   UNL     1      20.928  24.227   3.292  1.00  0.00    -0.550 OA
ENDBRANCH   1   2
BRANCH   1   5
ATOM      5  C   UNL     1      18.875  26.108   0.895  1.00  0.00     0.059 C 
BRANCH   5   6
ATOM      6  C   UNL     1      18.329  25.963  -0.493  1.00  0.00     0.042 C 
ATOM      7  O   UNL     1      17.189  26.415  -0.775  1.00  0.00    -0.550 OA
ATOM      8  O   UNL     1      19.098  25.367  -1.485  1.00  0.00    -0.550 OA
ENDBRANCH   5   6
ENDBRANCH   1   5
TORSDOF 3
ENDMDL
MODEL 3
REMARK VINA RESULT:    -4.184      0.121      4.309
REMARK INTER + INTRA:          -4.948
REMARK INTER:                  -4.918
REMARK INTRA:                  -0.030
REMARK UNBOUND:                -0.030
REMARK SMILES O=C([O-])CCC(=O)[O-]
REMARK SMILES IDX 4 1 2 2 1 3 3 4 5 5 6 6 7 7 8 8
REMARK H PARENT
REMARK Flexibility Score: inf
ROOT
ATOM      1  C   UNL     1      19.248  24.716   1.531  1.00  0.00     0.059 C 
ENDROOT
BRANCH   1   2
ATOM      2  C   UNL     1      19.773  24.868   2.926  1.00  0.00     0.042 C 
ATOM      3  O   UNL     1      19.187  25.623   3.746  1.00  0.00    -0.550 OA
ATOM      4  O   UNL     1      20.933  24.207   3.308  1.00  0.00    -0.550 OA
ENDBRANCH   1   2
BRANCH   1   5
ATOM      5  C   UNL     1      18.870  26.070   0.920  1.00  0.00     0.059 C 
BRANCH   5   6
ATOM      6  C   UNL     1      18.325  25.918  -0.468  1.00  0.00     0.042 C 
ATOM      7  O   UNL     1      19.052  25.456  -1.387  1.00  0.00    -0.550 OA
ATOM      8  O   UNL     1      17.002  26.246  -0.736  1.00  0.00    -0.550 OA
ENDBRANCH   5   6
ENDBRANCH   1   5
TORSDOF 3
ENDMDL
MODEL 4
REMARK VINA RESULT:    -4.142      0.136      1.153
REMARK INTER + INTRA:          -4.899
REMARK INTER:                  -4.868
REMARK INTRA:                  -0.031
REMARK UNBOUND:                -0.030
REMARK SMILES O=C([O-])CCC(=O)[O-]
REMARK SMILES IDX 4 1 2 2 1 3 3 4 5 5 6 6 7 7 8 8
REMARK H PARENT
REMARK Flexibility Score: inf
ROOT
ATOM      1  C   UNL     1      18.838  26.027   0.976  1.00  0.00     0.059 C 
ENDROOT
BRANCH   1   2
ATOM      2  C   UNL     1      18.414  25.966  -0.460  1.00  0.00     0.042 C 
ATOM      3  O   UNL     1      17.355  26.537  -0.833  1.00  0.00    -0.550 OA
ATOM      4  O   UNL     1      19.167  25.245  -1.377  1.00  0.00    -0.550 OA
ENDBRANCH   1   2
BRANCH   1   5
ATOM      5  C   UNL     1      19.458  24.704   1.438  1.00  0.00     0.059 C 
BRANCH   5   6
ATOM      6  C   UNL     1      19.890  24.766   2.871  1.00  0.00     0.042 C 
ATOM      7  O   UNL     1      20.902  24.122   3.256  1.00  0.00    -0.550 OA
ATOM      8  O   UNL     1      19.201  25.567   3.772  1.00  0.00    -0.550 OA
ENDBRANCH   5   6
ENDBRANCH   1   5
TORSDOF 3
ENDMDL
MODEL 5
REMARK VINA RESULT:    -4.068      1.502      4.181
REMARK INTER + INTRA:          -4.811
REMARK INTER:                  -4.742
REMARK INTRA:                  -0.069
REMARK UNBOUND:                -0.030
REMARK SMILES O=C([O-])CCC(=O)[O-]
REMARK SMILES IDX 4 1 2 2 1 3 3 4 5 5 6 6 7 7 8 8
REMARK H PARENT
REMARK Flexibility Score: inf
ROOT
ATOM      1  C   UNL     1      18.545  26.429   0.722  1.00  0.00     0.059 C 
ENDROOT
BRANCH   1   2
ATOM      2  C   UNL     1      19.232  25.467   1.644  1.00  0.00     0.042 C 
ATOM      3  O   UNL     1      19.782  24.432   1.186  1.00  0.00    -0.550 OA
ATOM      4  O   UNL     1      19.229  25.696   3.014  1.00  0.00    -0.550 OA
ENDBRANCH   1   2
BRANCH   1   5
ATOM      5  C   UNL     1      18.600  25.951  -0.733  1.00  0.00     0.059 C 
BRANCH   5   6
ATOM      6  C   UNL     1      17.335  25.256  -1.135  1.00  0.00     0.042 C 
ATOM      7  O   UNL     1      16.630  25.716  -2.071  1.00  0.00    -0.550 OA
ATOM      8  O   UNL     1      16.957  24.078  -0.503  1.00  0.00    -0.550 OA
ENDBRANCH   5   6
ENDBRANCH   1   5
TORSDOF 3
ENDMDL
MODEL 6
REMARK VINA RESULT:    -4.008      2.358      3.363
REMARK INTER + INTRA:          -4.741
REMARK INTER:                  -4.689
REMARK INTRA:                  -0.052
REMARK UNBOUND:                -0.030
REMARK SMILES O=C([O-])CCC(=O)[O-]
REMARK SMILES IDX 4 1 2 2 1 3 3 4 5 5 6 6 7 7 8 8
REMARK H PARENT
REMARK Flexibility Score: inf
ROOT
ATOM      1  C   UNL     1      17.033  25.414  -1.807  1.00  0.00     0.059 C 
ENDROOT
BRANCH   1   2
ATOM      2  C   UNL     1      15.565  25.414  -2.106  1.00  0.00     0.042 C 
ATOM      3  O   UNL     1      14.727  25.341  -1.169  1.00  0.00    -0.550 OA
ATOM      4  O   UNL     1      15.124  25.454  -3.422  1.00  0.00    -0.550 OA
ENDBRANCH   1   2
BRANCH   1   5
ATOM      5  C   UNL     1      17.353  26.234  -0.552  1.00  0.00     0.059 C 
BRANCH   5   6
ATOM      6  C   UNL     1      18.468  25.621   0.240  1.00  0.00     0.042 C 
ATOM      7  O   UNL     1      18.821  26.131   1.336  1.00  0.00    -0.550 OA
ATOM      8  O   UNL     1      19.088  24.463  -0.212  1.00  0.00    -0.550 OA
ENDBRANCH   5   6
ENDBRANCH   1   5
TORSDOF 3
ENDMDL
MODEL 7
REMARK VINA RESULT:    -3.999      2.245      4.985
REMARK INTER + INTRA:          -4.730
REMARK INTER:                  -4.674
REMARK INTRA:                  -0.056
REMARK UNBOUND:                -0.030
REMARK SMILES O=C([O-])CCC(=O)[O-]
REMARK SMILES IDX 4 1 2 2 1 3 3 4 5 5 6 6 7 7 8 8
REMARK H PARENT
REMARK Flexibility Score: inf
ROOT
ATOM      1  C   UNL     1      17.486  26.208  -0.495  1.00  0.00     0.059 C 
ENDROOT
BRANCH   1   2
ATOM      2  C   UNL     1      18.583  25.545   0.282  1.00  0.00     0.042 C 
ATOM      3  O   UNL     1      19.195  24.556  -0.200  1.00  0.00    -0.550 OA
ATOM      4  O   UNL     1      18.902  25.997   1.557  1.00  0.00    -0.550 OA
ENDBRANCH   1   2
BRANCH   1   5
ATOM      5  C   UNL     1      17.134  25.416  -1.759  1.00  0.00     0.059 C 
BRANCH   5   6
ATOM      6  C   UNL     1      15.658  25.413  -2.016  1.00  0.00     0.042 C 
ATOM      7  O   UNL     1      14.847  25.448  -1.053  1.00  0.00    -0.550 OA
ATOM      8  O   UNL     1      15.178  25.414  -3.320  1.00  0.00    -0.550 OA
ENDBRANCH   5   6
ENDBRANCH   1   5
TORSDOF 3
ENDMDL
MODEL 8
REMARK VINA RESULT:    -3.931      9.280     11.503
REMARK INTER + INTRA:          -4.650
REMARK INTER:                  -4.621
REMARK INTRA:                  -0.029
REMARK UNBOUND:                -0.030
REMARK SMILES O=C([O-])CCC(=O)[O-]
REMARK SMILES IDX 4 1 2 2 1 3 3 4 5 5 6 6 7 7 8 8
REMARK H PARENT
REMARK Flexibility Score: inf
ROOT
ATOM      1  C   UNL     1      16.963  23.538  11.909  1.00  0.00     0.059 C 
ENDROOT
BRANCH   1   2
ATOM      2  C   UNL     1      16.659  23.828  13.347  1.00  0.00     0.042 C 
ATOM      3  O   UNL     1      16.882  22.959  14.231  1.00  0.00    -0.550 OA
ATOM      4  O   UNL     1      16.091  25.044  13.706  1.00  0.00    -0.550 OA
ENDBRANCH   1   2
BRANCH   1   5
ATOM      5  C   UNL     1      17.874  24.609  11.298  1.00  0.00     0.059 C 
BRANCH   5   6
ATOM      6  C   UNL     1      18.947  24.001  10.448  1.00  0.00     0.042 C 
ATOM      7  O   UNL     1      18.648  23.188   9.534  1.00  0.00    -0.550 OA
ATOM      8  O   UNL     1      20.275  24.365  10.637  1.00  0.00    -0.550 OA
ENDBRANCH   5   6
ENDBRANCH   1   5
TORSDOF 3
ENDMDL
MODEL 9
REMARK VINA RESULT:    -3.930      9.261     11.147
REMARK INTER + INTRA:          -4.650
REMARK INTER:                  -4.621
REMARK INTRA:                  -0.029
REMARK UNBOUND:                -0.030
REMARK SMILES O=C([O-])CCC(=O)[O-]
REMARK SMILES IDX 4 1 2 2 1 3 3 4 5 5 6 6 7 7 8 8
REMARK H PARENT
REMARK Flexibility Score: inf
ROOT
ATOM      1  C   UNL     1      17.859  24.616  11.295  1.00  0.00     0.059 C 
ENDROOT
BRANCH   1   2
ATOM      2  C   UNL     1      18.944  24.004  10.462  1.00  0.00     0.042 C 
ATOM      3  O   UNL     1      20.146  24.327  10.648  1.00  0.00    -0.550 OA
ATOM      4  O   UNL     1      18.622  23.106   9.452  1.00  0.00    -0.550 OA
ENDBRANCH   1   2
BRANCH   1   5
ATOM      5  C   UNL     1      16.941  23.547  11.898  1.00  0.00     0.059 C 
BRANCH   5   6
ATOM      6  C   UNL     1      16.626  23.836  13.335  1.00  0.00     0.042 C 
ATOM      7  O   UNL     1      16.883  22.981  14.223  1.00  0.00    -0.550 OA
ATOM      8  O   UNL     1      16.087  25.064  13.696  1.00  0.00    -0.550 OA
ENDBRANCH   5   6
ENDBRANCH   1   5
TORSDOF 3
ENDMDL
