MODEL 1
REMARK VINA RESULT:    -9.568      0.000      0.000
REMARK INTER + INTRA:         -29.077
REMARK INTER:                 -22.712
REMARK INTRA:                  -6.365
REMARK UNBOUND:                -6.365
REMARK SMILES O=C(OC[C@@H]1O[C@@H](OC(=O)c2cc(O)c(O)c(O)c2)[C@@H](OC(=O)c2cc(O)c(O)c(O)c2)[C@H](OC(=O)c2cc(O)c(O)c(O)c2)[C@@H]1OC(=O)c1cc(O)c(O)c(O)c1)c1cc(O)c(O)c(O)c1
REMARK SMILES IDX 5 1 46 2 33 3 20 4 7 5 6 6 4 7 3 8 2 9 1 10 59 11 60 12
REMARK SMILES IDX 61 13 67 14 63 15 65 16 62 17 64 19 66 21 47 23 48 24 49 25
REMARK SMILES IDX 50 26 58 27 51 28 56 29 52 30 54 31 57 32 53 34 55 36 34 38
REMARK SMILES IDX 35 39 36 40 37 41 45 42 38 43 43 44 39 45 41 46 44 47 40 49
REMARK SMILES IDX 42 51 8 53 9 54 10 55 11 56 19 57 12 58 17 59 13 60 15 61
REMARK SMILES IDX 18 62 14 64 16 66 21 68 22 69 23 70 24 71 32 72 25 73 30 74
REMARK SMILES IDX 26 75 28 76 31 77 27 79 29 81
REMARK H PARENT 62 18 64 20 66 22 57 33 53 35 55 37 44 48 40 50 42 52 18 63
REMARK H PARENT 14 65 16 67 31 78 27 80 29 82
REMARK Flexibility Score: inf
ROOT
ATOM      1  C   UNL     1      25.121  51.876  11.706  1.00  0.00     0.205 C 
ATOM      2  C   UNL     1      25.817  51.490  13.030  1.00  0.00     0.254 C 
ATOM      3  C   UNL     1      24.761  51.399  14.149  1.00  0.00     0.267 C 
ATOM      4  C   UNL     1      23.928  52.693  14.198  1.00  0.00     0.290 C 
ATOM      5  C   UNL     1      23.393  53.031  12.795  1.00  0.00     0.357 C 
ATOM      6  O   UNL     1      24.444  53.116  11.845  1.00  0.00    -0.329 OA
ENDROOT
BRANCH   1   7
ATOM      7  C   UNL     1      26.137  51.981  10.556  1.00  0.00     0.269 C 
BRANCH   7   8
ATOM      8  O   UNL     1      26.379  53.346  10.222  1.00  0.00    -0.459 OA
BRANCH   8   9
ATOM      9  C   UNL     1      27.384  54.130  10.799  1.00  0.00     0.338 C 
ATOM     10  O   UNL     1      28.595  53.804  10.673  1.00  0.00    -0.246 OA
BRANCH   9  11
ATOM     11  C   UNL     1      27.019  55.364  11.530  1.00  0.00     0.067 A 
ATOM     12  C   UNL     1      27.908  55.922  12.459  1.00  0.00     0.066 A 
ATOM     13  C   UNL     1      27.569  57.076  13.167  1.00  0.00     0.162 A 
ATOM     14  C   UNL     1      25.782  55.987  11.311  1.00  0.00     0.066 A 
ATOM     15  C   UNL     1      26.324  57.695  12.956  1.00  0.00     0.200 A 
ATOM     16  C   UNL     1      25.425  57.146  12.008  1.00  0.00     0.162 A 
BRANCH  13  17
ATOM     17  O   UNL     1      28.479  57.588  14.096  1.00  0.00    -0.504 OA
ATOM     18  H   UNL     1      29.184  58.270  13.845  1.00  0.00     0.293 HD
ENDBRANCH  13  17
BRANCH  15  19
ATOM     19  O   UNL     1      26.015  58.838  13.701  1.00  0.00    -0.502 OA
ATOM     20  H   UNL     1      26.326  59.767  13.466  1.00  0.00     0.293 HD
ENDBRANCH  15  19
BRANCH  16  21
ATOM     21  O   UNL     1      24.181  57.718  11.726  1.00  0.00    -0.504 OA
ATOM     22  H   UNL     1      23.311  57.211  11.722  1.00  0.00     0.293 HD
ENDBRANCH  16  21
ENDBRANCH   9  11
ENDBRANCH   8   9
ENDBRANCH   7   8
ENDBRANCH   1   7
BRANCH   2  23
ATOM     23  O   UNL     1      26.790  52.481  13.362  1.00  0.00    -0.452 OA
BRANCH  23  24
ATOM     24  C   UNL     1      28.080  52.189  13.827  1.00  0.00     0.338 C 
ATOM     25  O   UNL     1      28.760  51.274  13.286  1.00  0.00    -0.246 OA
BRANCH  24  26
ATOM     26  C   UNL     1      28.640  52.962  14.954  1.00  0.00     0.067 A 
ATOM     27  C   UNL     1      27.823  53.363  16.025  1.00  0.00     0.066 A 
ATOM     28  C   UNL     1      30.002  53.297  14.969  1.00  0.00     0.066 A 
ATOM     29  C   UNL     1      28.356  54.086  17.095  1.00  0.00     0.162 A 
ATOM     30  C   UNL     1      30.543  54.025  16.032  1.00  0.00     0.162 A 
ATOM     31  C   UNL     1      29.720  54.425  17.100  1.00  0.00     0.200 A 
BRANCH  29  32
ATOM     32  O   UNL     1      27.521  54.442  18.155  1.00  0.00    -0.504 OA
ATOM     33  H   UNL     1      26.726  55.056  18.027  1.00  0.00     0.293 HD
ENDBRANCH  29  32
BRANCH  30  34
ATOM     34  O   UNL     1      31.898  54.363  16.031  1.00  0.00    -0.504 OA
ATOM     35  H   UNL     1      32.227  55.211  15.583  1.00  0.00     0.293 HD
ENDBRANCH  30  34
BRANCH  31  36
ATOM     36  O   UNL     1      30.246  55.149  18.172  1.00  0.00    -0.502 OA
ATOM     37  H   UNL     1      30.533  56.119  18.081  1.00  0.00     0.293 HD
ENDBRANCH  31  36
ENDBRANCH  24  26
ENDBRANCH  23  24
ENDBRANCH   2  23
BRANCH   3  38
ATOM     38  O   UNL     1      25.383  51.199  15.419  1.00  0.00    -0.450 OA
BRANCH  38  39
ATOM     39  C   UNL     1      25.658  49.947  15.978  1.00  0.00     0.338 C 
ATOM     40  O   UNL     1      24.793  49.368  16.691  1.00  0.00    -0.246 OA
BRANCH  39  41
ATOM     41  C   UNL     1      26.974  49.310  15.734  1.00  0.00     0.067 A 
ATOM     42  C   UNL     1      27.214  48.554  14.574  1.00  0.00     0.066 A 
ATOM     43  C   UNL     1      28.004  49.452  16.676  1.00  0.00     0.066 A 
ATOM     44  C   UNL     1      28.449  47.922  14.373  1.00  0.00     0.162 A 
ATOM     45  C   UNL     1      29.238  48.825  16.486  1.00  0.00     0.162 A 
ATOM     46  C   UNL     1      29.464  48.052  15.336  1.00  0.00     0.200 A 
BRANCH  44  47
ATOM     47  O   UNL     1      28.673  47.162  13.221  1.00  0.00    -0.504 OA
ATOM     48  H   UNL     1      29.196  47.528  12.432  1.00  0.00     0.293 HD
ENDBRANCH  44  47
BRANCH  45  49
ATOM     49  O   UNL     1      30.235  48.983  17.450  1.00  0.00    -0.504 OA
ATOM     50  H   UNL     1      31.143  49.367  17.224  1.00  0.00     0.293 HD
ENDBRANCH  45  49
BRANCH  46  51
ATOM     51  O   UNL     1      30.698  47.425  15.161  1.00  0.00    -0.502 OA
ATOM     52  H   UNL     1      31.361  47.306  15.919  1.00  0.00     0.293 HD
ENDBRANCH  46  51
ENDBRANCH  39  41
ENDBRANCH  38  39
ENDBRANCH   3  38
BRANCH   5  53
ATOM     53  O   UNL     1      22.413  52.077  12.380  1.00  0.00    -0.428 OA
BRANCH  53  54
ATOM     54  C   UNL     1      21.213  52.427  11.750  1.00  0.00     0.340 C 
ATOM     55  O   UNL     1      21.204  52.724  10.524  1.00  0.00    -0.246 OA
BRANCH  54  56
ATOM     56  C   UNL     1      19.963  52.476  12.540  1.00  0.00     0.067 A 
ATOM     57  C   UNL     1      18.921  51.574  12.266  1.00  0.00     0.066 A 
ATOM     58  C   UNL     1      19.809  53.410  13.578  1.00  0.00     0.066 A 
ATOM     59  C   UNL     1      17.734  51.611  13.012  1.00  0.00     0.162 A 
ATOM     60  C   UNL     1      18.628  53.446  14.332  1.00  0.00     0.162 A 
ATOM     61  C   UNL     1      17.584  52.552  14.046  1.00  0.00     0.200 A 
BRANCH  59  62
ATOM     62  O   UNL     1      16.703  50.718  12.732  1.00  0.00    -0.504 OA
ATOM     63  H   UNL     1      16.197  50.747  11.854  1.00  0.00     0.293 HD
ENDBRANCH  59  62
BRANCH  60  64
ATOM     64  O   UNL     1      18.497  54.386  15.354  1.00  0.00    -0.504 OA
ATOM     65  H   UNL     1      19.303  54.807  15.801  1.00  0.00     0.293 HD
ENDBRANCH  60  64
BRANCH  61  66
ATOM     66  O   UNL     1      16.408  52.609  14.798  1.00  0.00    -0.502 OA
ATOM     67  H   UNL     1      16.380  53.041  15.721  1.00  0.00     0.293 HD
ENDBRANCH  61  66
ENDBRANCH  54  56
ENDBRANCH  53  54
ENDBRANCH   5  53
BRANCH   4  68
ATOM     68  O   UNL     1      22.829  52.542  15.102  1.00  0.00    -0.448 OA
BRANCH  68  69
ATOM     69  C   UNL     1      22.597  53.398  16.188  1.00  0.00     0.339 C 
ATOM     70  O   UNL     1      21.709  54.290  16.111  1.00  0.00    -0.246 OA
BRANCH  69  71
ATOM     71  C   UNL     1      23.364  53.230  17.441  1.00  0.00     0.067 A 
ATOM     72  C   UNL     1      23.970  54.337  18.062  1.00  0.00     0.066 A 
ATOM     73  C   UNL     1      23.493  51.962  18.029  1.00  0.00     0.066 A 
ATOM     74  C   UNL     1      24.665  54.183  19.270  1.00  0.00     0.162 A 
ATOM     75  C   UNL     1      24.199  51.791  19.227  1.00  0.00     0.162 A 
ATOM     76  C   UNL     1      24.775  52.918  19.866  1.00  0.00     0.200 A 
BRANCH  74  77
ATOM     77  O   UNL     1      25.242  55.288  19.897  1.00  0.00    -0.504 OA
ATOM     78  H   UNL     1      25.189  55.414  20.896  1.00  0.00     0.293 HD
ENDBRANCH  74  77
BRANCH  75  79
ATOM     79  O   UNL     1      24.309  50.493  19.734  1.00  0.00    -0.504 OA
ATOM     80  H   UNL     1      23.692  49.736  19.487  1.00  0.00     0.293 HD
ENDBRANCH  75  79
BRANCH  76  81
ATOM     81  O   UNL     1      25.448  52.821  21.086  1.00  0.00    -0.502 OA
ATOM     82  H   UNL     1      25.311  53.463  21.847  1.00  0.00     0.293 HD
ENDBRANCH  76  81
ENDBRANCH  69  71
ENDBRANCH  68  69
ENDBRANCH   4  68
TORSDOF 31
ENDMDL
MODEL 2
REMARK VINA RESULT:    -9.554      0.081      2.061
REMARK INTER + INTRA:         -29.045
REMARK INTER:                 -22.652
REMARK INTRA:                  -6.393
REMARK UNBOUND:                -6.365
REMARK SMILES O=C(OC[C@@H]1O[C@@H](OC(=O)c2cc(O)c(O)c(O)c2)[C@@H](OC(=O)c2cc(O)c(O)c(O)c2)[C@H](OC(=O)c2cc(O)c(O)c(O)c2)[C@@H]1OC(=O)c1cc(O)c(O)c(O)c1)c1cc(O)c(O)c(O)c1
REMARK SMILES IDX 5 1 46 2 33 3 20 4 7 5 6 6 4 7 3 8 2 9 1 10 59 11 60 12
REMARK SMILES IDX 61 13 67 14 63 15 65 16 62 17 64 19 66 21 47 23 48 24 49 25
REMARK SMILES IDX 50 26 58 27 51 28 56 29 52 30 54 31 57 32 53 34 55 36 34 38
REMARK SMILES IDX 35 39 36 40 37 41 45 42 38 43 43 44 39 45 41 46 44 47 40 49
REMARK SMILES IDX 42 51 8 53 9 54 10 55 11 56 19 57 12 58 17 59 13 60 15 61
REMARK SMILES IDX 18 62 14 64 16 66 21 68 22 69 23 70 24 71 32 72 25 73 30 74
REMARK SMILES IDX 26 75 28 76 31 77 27 79 29 81
REMARK H PARENT 62 18 64 20 66 22 57 33 53 35 55 37 44 48 40 50 42 52 18 63
REMARK H PARENT 14 65 16 67 31 78 27 80 29 82
REMARK Flexibility Score: inf
ROOT
ATOM      1  C   UNL     1      25.142  51.892  11.683  1.00  0.00     0.205 C 
ATOM      2  C   UNL     1      25.822  51.488  13.010  1.00  0.00     0.254 C 
ATOM      3  C   UNL     1      24.756  51.405  14.120  1.00  0.00     0.267 C 
ATOM      4  C   UNL     1      23.942  52.711  14.170  1.00  0.00     0.290 C 
ATOM      5  C   UNL     1      23.423  53.066  12.765  1.00  0.00     0.357 C 
ATOM      6  O   UNL     1      24.482  53.141  11.824  1.00  0.00    -0.329 OA
ENDROOT
BRANCH   1   7
ATOM      7  C   UNL     1      26.169  51.990  10.542  1.00  0.00     0.269 C 
BRANCH   7   8
ATOM      8  O   UNL     1      26.422  53.353  10.208  1.00  0.00    -0.459 OA
BRANCH   8   9
ATOM      9  C   UNL     1      27.427  54.132  10.794  1.00  0.00     0.338 C 
ATOM     10  O   UNL     1      28.640  53.822  10.641  1.00  0.00    -0.246 OA
BRANCH   9  11
ATOM     11  C   UNL     1      27.060  55.340  11.564  1.00  0.00     0.067 A 
ATOM     12  C   UNL     1      25.830  55.972  11.339  1.00  0.00     0.066 A 
ATOM     13  C   UNL     1      25.478  57.123  12.047  1.00  0.00     0.162 A 
ATOM     14  C   UNL     1      27.936  55.873  12.521  1.00  0.00     0.066 A 
ATOM     15  C   UNL     1      26.360  57.664  12.999  1.00  0.00     0.200 A 
ATOM     16  C   UNL     1      27.601  57.024  13.243  1.00  0.00     0.162 A 
BRANCH  13  17
ATOM     17  O   UNL     1      24.249  57.730  11.778  1.00  0.00    -0.504 OA
ATOM     18  H   UNL     1      24.008  58.082  10.860  1.00  0.00     0.293 HD
ENDBRANCH  13  17
BRANCH  15  19
ATOM     19  O   UNL     1      25.980  58.830  13.672  1.00  0.00    -0.502 OA
ATOM     20  H   UNL     1      26.343  59.108  14.570  1.00  0.00     0.293 HD
ENDBRANCH  15  19
BRANCH  16  21
ATOM     21  O   UNL     1      28.519  57.488  14.189  1.00  0.00    -0.504 OA
ATOM     22  H   UNL     1      28.787  56.981  15.016  1.00  0.00     0.293 HD
ENDBRANCH  16  21
ENDBRANCH   9  11
ENDBRANCH   8   9
ENDBRANCH   7   8
ENDBRANCH   1   7
BRANCH   2  23
ATOM     23  O   UNL     1      26.806  52.463  13.355  1.00  0.00    -0.452 OA
BRANCH  23  24
ATOM     24  C   UNL     1      28.086  52.149  13.833  1.00  0.00     0.338 C 
ATOM     25  O   UNL     1      28.750  51.212  13.309  1.00  0.00    -0.246 OA
BRANCH  24  26
ATOM     26  C   UNL     1      28.656  52.925  14.953  1.00  0.00     0.067 A 
ATOM     27  C   UNL     1      30.014  53.290  14.955  1.00  0.00     0.066 A 
ATOM     28  C   UNL     1      27.842  53.315  16.026  1.00  0.00     0.066 A 
ATOM     29  C   UNL     1      30.550  54.033  16.010  1.00  0.00     0.162 A 
ATOM     30  C   UNL     1      28.370  54.052  17.089  1.00  0.00     0.162 A 
ATOM     31  C   UNL     1      29.729  54.412  17.087  1.00  0.00     0.200 A 
BRANCH  29  32
ATOM     32  O   UNL     1      31.895  54.402  15.965  1.00  0.00    -0.504 OA
ATOM     33  H   UNL     1      32.384  54.743  16.784  1.00  0.00     0.293 HD
ENDBRANCH  29  32
BRANCH  30  34
ATOM     34  O   UNL     1      27.552  54.424  18.158  1.00  0.00    -0.504 OA
ATOM     35  H   UNL     1      27.805  54.203  19.115  1.00  0.00     0.293 HD
ENDBRANCH  30  34
BRANCH  31  36
ATOM     36  O   UNL     1      30.272  55.153  18.138  1.00  0.00    -0.502 OA
ATOM     37  H   UNL     1      31.116  54.865  18.624  1.00  0.00     0.293 HD
ENDBRANCH  31  36
ENDBRANCH  24  26
ENDBRANCH  23  24
ENDBRANCH   2  23
BRANCH   3  38
ATOM     38  O   UNL     1      25.365  51.189  15.393  1.00  0.00    -0.450 OA
BRANCH  38  39
ATOM     39  C   UNL     1      25.579  49.930  15.965  1.00  0.00     0.338 C 
ATOM     40  O   UNL     1      24.676  49.389  16.660  1.00  0.00    -0.246 OA
BRANCH  39  41
ATOM     41  C   UNL     1      26.875  49.244  15.756  1.00  0.00     0.067 A 
ATOM     42  C   UNL     1      27.927  49.377  16.679  1.00  0.00     0.066 A 
ATOM     43  C   UNL     1      27.071  48.450  14.615  1.00  0.00     0.066 A 
ATOM     44  C   UNL     1      29.164  48.757  16.451  1.00  0.00     0.162 A 
ATOM     45  C   UNL     1      28.300  47.829  14.378  1.00  0.00     0.162 A 
ATOM     46  C   UNL     1      29.354  47.985  15.292  1.00  0.00     0.200 A 
BRANCH  44  47
ATOM     47  O   UNL     1      30.206  48.905  17.371  1.00  0.00    -0.504 OA
ATOM     48  H   UNL     1      30.865  48.156  17.559  1.00  0.00     0.293 HD
ENDBRANCH  44  47
BRANCH  45  49
ATOM     49  O   UNL     1      28.458  47.055  13.227  1.00  0.00    -0.504 OA
ATOM     50  H   UNL     1      29.166  47.261  12.536  1.00  0.00     0.293 HD
ENDBRANCH  45  49
BRANCH  46  51
ATOM     51  O   UNL     1      30.578  47.365  15.041  1.00  0.00    -0.502 OA
ATOM     52  H   UNL     1      31.009  46.722  15.696  1.00  0.00     0.293 HD
ENDBRANCH  46  51
ENDBRANCH  39  41
ENDBRANCH  38  39
ENDBRANCH   3  38
BRANCH   5  53
ATOM     53  O   UNL     1      22.433  52.128  12.336  1.00  0.00    -0.428 OA
BRANCH  53  54
ATOM     54  C   UNL     1      21.223  52.503  11.739  1.00  0.00     0.340 C 
ATOM     55  O   UNL     1      21.198  52.866  10.531  1.00  0.00    -0.246 OA
BRANCH  54  56
ATOM     56  C   UNL     1      19.981  52.499  12.543  1.00  0.00     0.067 A 
ATOM     57  C   UNL     1      19.824  53.410  13.601  1.00  0.00     0.066 A 
ATOM     58  C   UNL     1      18.944  51.597  12.253  1.00  0.00     0.066 A 
ATOM     59  C   UNL     1      18.649  53.414  14.367  1.00  0.00     0.162 A 
ATOM     60  C   UNL     1      17.765  51.602  13.010  1.00  0.00     0.162 A 
ATOM     61  C   UNL     1      17.617  52.506  14.074  1.00  0.00     0.200 A 
BRANCH  59  62
ATOM     62  O   UNL     1      18.502  54.316  15.418  1.00  0.00    -0.504 OA
ATOM     63  H   UNL     1      17.796  54.189  16.134  1.00  0.00     0.293 HD
ENDBRANCH  59  62
BRANCH  60  64
ATOM     64  O   UNL     1      16.751  50.694  12.705  1.00  0.00    -0.504 OA
ATOM     65  H   UNL     1      16.665  50.277  11.785  1.00  0.00     0.293 HD
ENDBRANCH  60  64
BRANCH  61  66
ATOM     66  O   UNL     1      16.441  52.490  14.828  1.00  0.00    -0.502 OA
ATOM     67  H   UNL     1      16.231  53.216  15.513  1.00  0.00     0.293 HD
ENDBRANCH  61  66
ENDBRANCH  54  56
ENDBRANCH  53  54
ENDBRANCH   5  53
BRANCH   4  68
ATOM     68  O   UNL     1      22.833  52.571  15.064  1.00  0.00    -0.448 OA
BRANCH  68  69
ATOM     69  C   UNL     1      22.603  53.425  16.153  1.00  0.00     0.339 C 
ATOM     70  O   UNL     1      21.720  54.321  16.077  1.00  0.00    -0.246 OA
BRANCH  69  71
ATOM     71  C   UNL     1      23.367  53.249  17.406  1.00  0.00     0.067 A 
ATOM     72  C   UNL     1      23.984  54.349  18.029  1.00  0.00     0.066 A 
ATOM     73  C   UNL     1      23.484  51.979  17.994  1.00  0.00     0.066 A 
ATOM     74  C   UNL     1      24.677  54.188  19.237  1.00  0.00     0.162 A 
ATOM     75  C   UNL     1      24.187  51.801  19.193  1.00  0.00     0.162 A 
ATOM     76  C   UNL     1      24.774  52.922  19.832  1.00  0.00     0.200 A 
BRANCH  74  77
ATOM     77  O   UNL     1      25.264  55.287  19.864  1.00  0.00    -0.504 OA
ATOM     78  H   UNL     1      26.020  55.797  19.435  1.00  0.00     0.293 HD
ENDBRANCH  74  77
BRANCH  75  79
ATOM     79  O   UNL     1      24.284  50.501  19.699  1.00  0.00    -0.504 OA
ATOM     80  H   UNL     1      24.915  49.801  19.343  1.00  0.00     0.293 HD
ENDBRANCH  75  79
BRANCH  76  81
ATOM     81  O   UNL     1      25.445  52.817  21.052  1.00  0.00    -0.502 OA
ATOM     82  H   UNL     1      26.442  52.719  21.131  1.00  0.00     0.293 HD
ENDBRANCH  76  81
ENDBRANCH  69  71
ENDBRANCH  68  69
ENDBRANCH   4  68
TORSDOF 31
ENDMDL
MODEL 3
REMARK VINA RESULT:    -9.470      2.183      7.638
REMARK INTER + INTRA:         -28.845
REMARK INTER:                 -24.026
REMARK INTRA:                  -4.819
REMARK UNBOUND:                -6.365
REMARK SMILES O=C(OC[C@@H]1O[C@@H](OC(=O)c2cc(O)c(O)c(O)c2)[C@@H](OC(=O)c2cc(O)c(O)c(O)c2)[C@H](OC(=O)c2cc(O)c(O)c(O)c2)[C@@H]1OC(=O)c1cc(O)c(O)c(O)c1)c1cc(O)c(O)c(O)c1
REMARK SMILES IDX 5 1 46 2 33 3 20 4 7 5 6 6 4 7 3 8 2 9 1 10 59 11 60 12
REMARK SMILES IDX 61 13 67 14 63 15 65 16 62 17 64 19 66 21 47 23 48 24 49 25
REMARK SMILES IDX 50 26 58 27 51 28 56 29 52 30 54 31 57 32 53 34 55 36 34 38
REMARK SMILES IDX 35 39 36 40 37 41 45 42 38 43 43 44 39 45 41 46 44 47 40 49
REMARK SMILES IDX 42 51 8 53 9 54 10 55 11 56 19 57 12 58 17 59 13 60 15 61
REMARK SMILES IDX 18 62 14 64 16 66 21 68 22 69 23 70 24 71 32 72 25 73 30 74
REMARK SMILES IDX 26 75 28 76 31 77 27 79 29 81
REMARK H PARENT 62 18 64 20 66 22 57 33 53 35 55 37 44 48 40 50 42 52 18 63
REMARK H PARENT 14 65 16 67 31 78 27 80 29 82
REMARK Flexibility Score: inf
ROOT
ATOM      1  C   UNL     1      28.736  51.607  13.897  1.00  0.00     0.205 C 
ATOM      2  C   UNL     1      27.635  52.213  14.795  1.00  0.00     0.254 C 
ATOM      3  C   UNL     1      26.465  52.688  13.910  1.00  0.00     0.267 C 
ATOM      4  C   UNL     1      26.987  53.613  12.795  1.00  0.00     0.290 C 
ATOM      5  C   UNL     1      28.160  52.943  12.056  1.00  0.00     0.357 C 
ATOM      6  O   UNL     1      29.191  52.566  12.955  1.00  0.00    -0.329 OA
ENDROOT
BRANCH   1   7
ATOM      7  C   UNL     1      29.928  51.118  14.737  1.00  0.00     0.269 C 
BRANCH   7   8
ATOM      8  O   UNL     1      29.762  49.748  15.097  1.00  0.00    -0.459 OA
BRANCH   8   9
ATOM      9  C   UNL     1      28.937  49.303  16.137  1.00  0.00     0.338 C 
ATOM     10  O   UNL     1      29.360  49.297  17.324  1.00  0.00    -0.246 OA
BRANCH   9  11
ATOM     11  C   UNL     1      27.554  48.873  15.838  1.00  0.00     0.067 A 
ATOM     12  C   UNL     1      27.304  47.981  14.787  1.00  0.00     0.066 A 
ATOM     13  C   UNL     1      26.001  47.580  14.484  1.00  0.00     0.162 A 
ATOM     14  C   UNL     1      26.475  49.355  16.595  1.00  0.00     0.066 A 
ATOM     15  C   UNL     1      24.918  48.072  15.235  1.00  0.00     0.200 A 
ATOM     16  C   UNL     1      25.162  48.964  16.309  1.00  0.00     0.162 A 
BRANCH  13  17
ATOM     17  O   UNL     1      25.797  46.703  13.417  1.00  0.00    -0.504 OA
ATOM     18  H   UNL     1      25.871  45.698  13.519  1.00  0.00     0.293 HD
ENDBRANCH  13  17
BRANCH  15  19
ATOM     19  O   UNL     1      23.627  47.663  14.887  1.00  0.00    -0.502 OA
ATOM     20  H   UNL     1      23.317  47.519  13.938  1.00  0.00     0.293 HD
ENDBRANCH  15  19
BRANCH  16  21
ATOM     21  O   UNL     1      24.141  49.475  17.115  1.00  0.00    -0.504 OA
ATOM     22  H   UNL     1      23.360  48.936  17.452  1.00  0.00     0.293 HD
ENDBRANCH  16  21
ENDBRANCH   9  11
ENDBRANCH   8   9
ENDBRANCH   7   8
ENDBRANCH   1   7
BRANCH   2  23
ATOM     23  O   UNL     1      28.170  53.318  15.523  1.00  0.00    -0.452 OA
BRANCH  23  24
ATOM     24  C   UNL     1      28.531  53.263  16.877  1.00  0.00     0.338 C 
ATOM     25  O   UNL     1      29.746  53.200  17.211  1.00  0.00    -0.246 OA
BRANCH  24  26
ATOM     26  C   UNL     1      27.477  53.284  17.912  1.00  0.00     0.067 A 
ATOM     27  C   UNL     1      27.237  54.446  18.668  1.00  0.00     0.066 A 
ATOM     28  C   UNL     1      26.697  52.143  18.146  1.00  0.00     0.066 A 
ATOM     29  C   UNL     1      26.234  54.467  19.640  1.00  0.00     0.162 A 
ATOM     30  C   UNL     1      25.696  52.153  19.121  1.00  0.00     0.162 A 
ATOM     31  C   UNL     1      25.461  53.316  19.875  1.00  0.00     0.200 A 
BRANCH  29  32
ATOM     32  O   UNL     1      26.004  55.646  20.351  1.00  0.00    -0.504 OA
ATOM     33  H   UNL     1      26.535  56.490  20.173  1.00  0.00     0.293 HD
ENDBRANCH  29  32
BRANCH  30  34
ATOM     34  O   UNL     1      24.933  51.006  19.352  1.00  0.00    -0.504 OA
ATOM     35  H   UNL     1      25.309  50.222  19.876  1.00  0.00     0.293 HD
ENDBRANCH  30  34
BRANCH  31  36
ATOM     36  O   UNL     1      24.462  53.345  20.848  1.00  0.00    -0.502 OA
ATOM     37  H   UNL     1      23.883  52.535  21.054  1.00  0.00     0.293 HD
ENDBRANCH  31  36
ENDBRANCH  24  26
ENDBRANCH  23  24
ENDBRANCH   2  23
BRANCH   3  38
ATOM     38  O   UNL     1      25.497  53.396  14.685  1.00  0.00    -0.450 OA
BRANCH  38  39
ATOM     39  C   UNL     1      24.113  53.236  14.562  1.00  0.00     0.338 C 
ATOM     40  O   UNL     1      23.623  52.753  13.504  1.00  0.00    -0.246 OA
BRANCH  39  41
ATOM     41  C   UNL     1      23.228  53.644  15.678  1.00  0.00     0.067 A 
ATOM     42  C   UNL     1      21.846  53.392  15.642  1.00  0.00     0.066 A 
ATOM     43  C   UNL     1      23.769  54.304  16.793  1.00  0.00     0.066 A 
ATOM     44  C   UNL     1      21.011  53.820  16.684  1.00  0.00     0.162 A 
ATOM     45  C   UNL     1      22.945  54.736  17.836  1.00  0.00     0.162 A 
ATOM     46  C   UNL     1      21.562  54.501  17.784  1.00  0.00     0.200 A 
BRANCH  44  47
ATOM     47  O   UNL     1      19.637  53.573  16.633  1.00  0.00    -0.504 OA
ATOM     48  H   UNL     1      19.020  53.813  17.402  1.00  0.00     0.293 HD
ENDBRANCH  44  47
BRANCH  45  49
ATOM     49  O   UNL     1      23.519  55.396  18.924  1.00  0.00    -0.504 OA
ATOM     50  H   UNL     1      23.015  55.542  19.789  1.00  0.00     0.293 HD
ENDBRANCH  45  49
BRANCH  46  51
ATOM     51  O   UNL     1      20.750  54.943  18.828  1.00  0.00    -0.502 OA
ATOM     52  H   UNL     1      19.895  54.467  19.093  1.00  0.00     0.293 HD
ENDBRANCH  46  51
ENDBRANCH  39  41
ENDBRANCH  38  39
ENDBRANCH   3  38
BRANCH   5  53
ATOM     53  O   UNL     1      27.709  51.814  11.304  1.00  0.00    -0.428 OA
BRANCH  53  54
ATOM     54  C   UNL     1      27.502  51.843   9.919  1.00  0.00     0.340 C 
ATOM     55  O   UNL     1      28.481  51.734   9.130  1.00  0.00    -0.246 OA
BRANCH  54  56
ATOM     56  C   UNL     1      26.133  52.032   9.390  1.00  0.00     0.067 A 
ATOM     57  C   UNL     1      25.940  52.391   8.046  1.00  0.00     0.066 A 
ATOM     58  C   UNL     1      25.015  51.844  10.219  1.00  0.00     0.066 A 
ATOM     59  C   UNL     1      24.646  52.570   7.537  1.00  0.00     0.162 A 
ATOM     60  C   UNL     1      23.719  52.013   9.714  1.00  0.00     0.162 A 
ATOM     61  C   UNL     1      23.531  52.385   8.373  1.00  0.00     0.200 A 
BRANCH  59  62
ATOM     62  O   UNL     1      24.461  52.931   6.204  1.00  0.00    -0.504 OA
ATOM     63  H   UNL     1      23.650  53.457   5.903  1.00  0.00     0.293 HD
ENDBRANCH  59  62
BRANCH  60  64
ATOM     64  O   UNL     1      22.624  51.824  10.557  1.00  0.00    -0.504 OA
ATOM     65  H   UNL     1      21.712  52.212  10.345  1.00  0.00     0.293 HD
ENDBRANCH  60  64
BRANCH  61  66
ATOM     66  O   UNL     1      22.233  52.562   7.886  1.00  0.00    -0.502 OA
ATOM     67  H   UNL     1      21.421  52.543   8.502  1.00  0.00     0.293 HD
ENDBRANCH  61  66
ENDBRANCH  54  56
ENDBRANCH  53  54
ENDBRANCH   5  53
BRANCH   4  68
ATOM     68  O   UNL     1      25.942  53.903  11.862  1.00  0.00    -0.448 OA
BRANCH  68  69
ATOM     69  C   UNL     1      25.797  55.144  11.222  1.00  0.00     0.339 C 
ATOM     70  O   UNL     1      24.835  55.337  10.430  1.00  0.00    -0.246 OA
BRANCH  69  71
ATOM     71  C   UNL     1      26.748  56.239  11.506  1.00  0.00     0.067 A 
ATOM     72  C   UNL     1      26.506  57.142  12.556  1.00  0.00     0.066 A 
ATOM     73  C   UNL     1      27.910  56.388  10.732  1.00  0.00     0.066 A 
ATOM     74  C   UNL     1      27.427  58.158  12.849  1.00  0.00     0.162 A 
ATOM     75  C   UNL     1      28.831  57.409  11.004  1.00  0.00     0.162 A 
ATOM     76  C   UNL     1      28.596  58.292  12.087  1.00  0.00     0.200 A 
BRANCH  74  77
ATOM     77  O   UNL     1      27.195  59.035  13.909  1.00  0.00    -0.504 OA
ATOM     78  H   UNL     1      27.006  60.014  13.751  1.00  0.00     0.293 HD
ENDBRANCH  74  77
BRANCH  75  79
ATOM     79  O   UNL     1      29.949  57.510  10.169  1.00  0.00    -0.504 OA
ATOM     80  H   UNL     1      30.268  56.774   9.560  1.00  0.00     0.293 HD
ENDBRANCH  75  79
BRANCH  76  81
ATOM     81  O   UNL     1      29.500  59.297  12.439  1.00  0.00    -0.502 OA
ATOM     82  H   UNL     1      29.766  59.497  13.387  1.00  0.00     0.293 HD
ENDBRANCH  76  81
ENDBRANCH  69  71
ENDBRANCH  68  69
ENDBRANCH   4  68
TORSDOF 31
ENDMDL
MODEL 4
REMARK VINA RESULT:    -9.428      2.190      7.700
REMARK INTER + INTRA:         -28.745
REMARK INTER:                 -23.823
REMARK INTRA:                  -4.921
REMARK UNBOUND:                -6.365
REMARK SMILES O=C(OC[C@@H]1O[C@@H](OC(=O)c2cc(O)c(O)c(O)c2)[C@@H](OC(=O)c2cc(O)c(O)c(O)c2)[C@H](OC(=O)c2cc(O)c(O)c(O)c2)[C@@H]1OC(=O)c1cc(O)c(O)c(O)c1)c1cc(O)c(O)c(O)c1
REMARK SMILES IDX 5 1 46 2 33 3 20 4 7 5 6 6 4 7 3 8 2 9 1 10 59 11 60 12
REMARK SMILES IDX 61 13 67 14 63 15 65 16 62 17 64 19 66 21 47 23 48 24 49 25
REMARK SMILES IDX 50 26 58 27 51 28 56 29 52 30 54 31 57 32 53 34 55 36 34 38
REMARK SMILES IDX 35 39 36 40 37 41 45 42 38 43 43 44 39 45 41 46 44 47 40 49
REMARK SMILES IDX 42 51 8 53 9 54 10 55 11 56 19 57 12 58 17 59 13 60 15 61
REMARK SMILES IDX 18 62 14 64 16 66 21 68 22 69 23 70 24 71 32 72 25 73 30 74
REMARK SMILES IDX 26 75 28 76 31 77 27 79 29 81
REMARK H PARENT 62 18 64 20 66 22 57 33 53 35 55 37 44 48 40 50 42 52 18 63
REMARK H PARENT 14 65 16 67 31 78 27 80 29 82
REMARK Flexibility Score: inf
ROOT
ATOM      1  C   UNL     1      28.755  51.606  13.896  1.00  0.00     0.205 C 
ATOM      2  C   UNL     1      27.658  52.226  14.788  1.00  0.00     0.254 C 
ATOM      3  C   UNL     1      26.491  52.701  13.899  1.00  0.00     0.267 C 
ATOM      4  C   UNL     1      27.019  53.614  12.778  1.00  0.00     0.290 C 
ATOM      5  C   UNL     1      28.188  52.931  12.044  1.00  0.00     0.357 C 
ATOM      6  O   UNL     1      29.217  52.555  12.946  1.00  0.00    -0.329 OA
ENDROOT
BRANCH   1   7
ATOM      7  C   UNL     1      29.944  51.117  14.740  1.00  0.00     0.269 C 
BRANCH   7   8
ATOM      8  O   UNL     1      29.772  49.749  15.107  1.00  0.00    -0.459 OA
BRANCH   8   9
ATOM      9  C   UNL     1      28.938  49.313  16.144  1.00  0.00     0.338 C 
ATOM     10  O   UNL     1      29.353  49.315  17.334  1.00  0.00    -0.246 OA
BRANCH   9  11
ATOM     11  C   UNL     1      27.557  48.882  15.838  1.00  0.00     0.067 A 
ATOM     12  C   UNL     1      27.312  47.992  14.784  1.00  0.00     0.066 A 
ATOM     13  C   UNL     1      26.012  47.591  14.474  1.00  0.00     0.162 A 
ATOM     14  C   UNL     1      26.474  49.360  16.592  1.00  0.00     0.066 A 
ATOM     15  C   UNL     1      24.925  48.078  15.222  1.00  0.00     0.200 A 
ATOM     16  C   UNL     1      25.163  48.968  16.299  1.00  0.00     0.162 A 
BRANCH  13  17
ATOM     17  O   UNL     1      25.814  46.716  13.404  1.00  0.00    -0.504 OA
ATOM     18  H   UNL     1      25.168  45.937  13.452  1.00  0.00     0.293 HD
ENDBRANCH  13  17
BRANCH  15  19
ATOM     19  O   UNL     1      23.636  47.668  14.867  1.00  0.00    -0.502 OA
ATOM     20  H   UNL     1      22.796  48.166  15.118  1.00  0.00     0.293 HD
ENDBRANCH  15  19
BRANCH  16  21
ATOM     21  O   UNL     1      24.138  49.475  17.103  1.00  0.00    -0.504 OA
ATOM     22  H   UNL     1      23.285  49.876  16.749  1.00  0.00     0.293 HD
ENDBRANCH  16  21
ENDBRANCH   9  11
ENDBRANCH   8   9
ENDBRANCH   7   8
ENDBRANCH   1   7
BRANCH   2  23
ATOM     23  O   UNL     1      28.200  53.333  15.508  1.00  0.00    -0.452 OA
BRANCH  23  24
ATOM     24  C   UNL     1      28.552  53.289  16.865  1.00  0.00     0.338 C 
ATOM     25  O   UNL     1      29.766  53.239  17.206  1.00  0.00    -0.246 OA
BRANCH  24  26
ATOM     26  C   UNL     1      27.492  53.304  17.893  1.00  0.00     0.067 A 
ATOM     27  C   UNL     1      26.712  52.160  18.136  1.00  0.00     0.066 A 
ATOM     28  C   UNL     1      27.260  54.464  18.647  1.00  0.00     0.066 A 
ATOM     29  C   UNL     1      25.716  52.173  19.116  1.00  0.00     0.162 A 
ATOM     30  C   UNL     1      26.261  54.488  19.624  1.00  0.00     0.162 A 
ATOM     31  C   UNL     1      25.483  53.342  19.862  1.00  0.00     0.200 A 
BRANCH  29  32
ATOM     32  O   UNL     1      24.981  51.010  19.350  1.00  0.00    -0.504 OA
ATOM     33  H   UNL     1      25.319  50.277  19.961  1.00  0.00     0.293 HD
ENDBRANCH  29  32
BRANCH  30  34
ATOM     34  O   UNL     1      26.031  55.652  20.361  1.00  0.00    -0.504 OA
ATOM     35  H   UNL     1      25.951  56.555  19.904  1.00  0.00     0.293 HD
ENDBRANCH  30  34
BRANCH  31  36
ATOM     36  O   UNL     1      24.486  53.348  20.838  1.00  0.00    -0.502 OA
ATOM     37  H   UNL     1      24.682  53.146  21.814  1.00  0.00     0.293 HD
ENDBRANCH  31  36
ENDBRANCH  24  26
ENDBRANCH  23  24
ENDBRANCH   2  23
BRANCH   3  38
ATOM     38  O   UNL     1      25.528  53.421  14.669  1.00  0.00    -0.450 OA
BRANCH  38  39
ATOM     39  C   UNL     1      24.144  53.232  14.583  1.00  0.00     0.338 C 
ATOM     40  O   UNL     1      23.643  52.676  13.567  1.00  0.00    -0.246 OA
BRANCH  39  41
ATOM     41  C   UNL     1      23.273  53.698  15.687  1.00  0.00     0.067 A 
ATOM     42  C   UNL     1      23.805  54.371  16.800  1.00  0.00     0.066 A 
ATOM     43  C   UNL     1      21.891  53.461  15.634  1.00  0.00     0.066 A 
ATOM     44  C   UNL     1      22.978  54.772  17.859  1.00  0.00     0.162 A 
ATOM     45  C   UNL     1      21.058  53.854  16.685  1.00  0.00     0.162 A 
ATOM     46  C   UNL     1      21.598  54.506  17.805  1.00  0.00     0.200 A 
BRANCH  44  47
ATOM     47  O   UNL     1      23.519  55.431  18.966  1.00  0.00    -0.504 OA
ATOM     48  H   UNL     1      23.618  56.441  18.993  1.00  0.00     0.293 HD
ENDBRANCH  44  47
BRANCH  45  49
ATOM     49  O   UNL     1      19.689  53.593  16.600  1.00  0.00    -0.504 OA
ATOM     50  H   UNL     1      19.075  53.684  17.398  1.00  0.00     0.293 HD
ENDBRANCH  45  49
BRANCH  46  51
ATOM     51  O   UNL     1      20.757  54.888  18.850  1.00  0.00    -0.502 OA
ATOM     52  H   UNL     1      20.974  55.661  19.470  1.00  0.00     0.293 HD
ENDBRANCH  46  51
ENDBRANCH  39  41
ENDBRANCH  38  39
ENDBRANCH   3  38
BRANCH   5  53
ATOM     53  O   UNL     1      27.730  51.800  11.300  1.00  0.00    -0.428 OA
BRANCH  53  54
ATOM     54  C   UNL     1      27.520  51.820   9.916  1.00  0.00     0.340 C 
ATOM     55  O   UNL     1      28.497  51.708   9.126  1.00  0.00    -0.246 OA
BRANCH  54  56
ATOM     56  C   UNL     1      26.150  52.005   9.389  1.00  0.00     0.067 A 
ATOM     57  C   UNL     1      25.041  51.830  10.234  1.00  0.00     0.066 A 
ATOM     58  C   UNL     1      25.942  52.367   8.049  1.00  0.00     0.066 A 
ATOM     59  C   UNL     1      23.739  52.005   9.744  1.00  0.00     0.162 A 
ATOM     60  C   UNL     1      24.643  52.552   7.555  1.00  0.00     0.162 A 
ATOM     61  C   UNL     1      23.538  52.363   8.400  1.00  0.00     0.200 A 
BRANCH  59  62
ATOM     62  O   UNL     1      22.644  51.825  10.586  1.00  0.00    -0.504 OA
ATOM     63  H   UNL     1      22.432  50.924  10.998  1.00  0.00     0.293 HD
ENDBRANCH  59  62
BRANCH  60  64
ATOM     64  O   UNL     1      24.462  52.908   6.219  1.00  0.00    -0.504 OA
ATOM     65  H   UNL     1      23.563  52.822   5.759  1.00  0.00     0.293 HD
ENDBRANCH  60  64
BRANCH  61  66
ATOM     66  O   UNL     1      22.248  52.539   7.891  1.00  0.00    -0.502 OA
ATOM     67  H   UNL     1      21.531  53.048   8.406  1.00  0.00     0.293 HD
ENDBRANCH  61  66
ENDBRANCH  54  56
ENDBRANCH  53  54
ENDBRANCH   5  53
BRANCH   4  68
ATOM     68  O   UNL     1      25.976  53.904  11.842  1.00  0.00    -0.448 OA
BRANCH  68  69
ATOM     69  C   UNL     1      25.822  55.149  11.214  1.00  0.00     0.339 C 
ATOM     70  O   UNL     1      24.853  55.347  10.432  1.00  0.00    -0.246 OA
BRANCH  69  71
ATOM     71  C   UNL     1      26.772  56.245  11.500  1.00  0.00     0.067 A 
ATOM     72  C   UNL     1      26.525  57.151  12.547  1.00  0.00     0.066 A 
ATOM     73  C   UNL     1      27.938  56.392  10.732  1.00  0.00     0.066 A 
ATOM     74  C   UNL     1      27.444  58.168  12.842  1.00  0.00     0.162 A 
ATOM     75  C   UNL     1      28.858  57.413  11.005  1.00  0.00     0.162 A 
ATOM     76  C   UNL     1      28.618  58.299  12.085  1.00  0.00     0.200 A 
BRANCH  74  77
ATOM     77  O   UNL     1      27.208  59.048  13.898  1.00  0.00    -0.504 OA
ATOM     78  H   UNL     1      26.271  59.303  14.171  1.00  0.00     0.293 HD
ENDBRANCH  74  77
BRANCH  75  79
ATOM     79  O   UNL     1      29.979  57.512  10.176  1.00  0.00    -0.504 OA
ATOM     80  H   UNL     1      30.190  56.868   9.430  1.00  0.00     0.293 HD
ENDBRANCH  75  79
BRANCH  76  81
ATOM     81  O   UNL     1      29.520  59.305  12.438  1.00  0.00    -0.502 OA
ATOM     82  H   UNL     1      29.359  60.281  12.261  1.00  0.00     0.293 HD
ENDBRANCH  76  81
ENDBRANCH  69  71
ENDBRANCH  68  69
ENDBRANCH   4  68
TORSDOF 31
ENDMDL
MODEL 5
REMARK VINA RESULT:    -9.385      1.993      7.298
REMARK INTER + INTRA:         -28.644
REMARK INTER:                 -24.010
REMARK INTRA:                  -4.634
REMARK UNBOUND:                -6.365
REMARK SMILES O=C(OC[C@@H]1O[C@@H](OC(=O)c2cc(O)c(O)c(O)c2)[C@@H](OC(=O)c2cc(O)c(O)c(O)c2)[C@H](OC(=O)c2cc(O)c(O)c(O)c2)[C@@H]1OC(=O)c1cc(O)c(O)c(O)c1)c1cc(O)c(O)c(O)c1
REMARK SMILES IDX 5 1 46 2 33 3 20 4 7 5 6 6 4 7 3 8 2 9 1 10 59 11 60 12
REMARK SMILES IDX 61 13 67 14 63 15 65 16 62 17 64 19 66 21 47 23 48 24 49 25
REMARK SMILES IDX 50 26 58 27 51 28 56 29 52 30 54 31 57 32 53 34 55 36 34 38
REMARK SMILES IDX 35 39 36 40 37 41 45 42 38 43 43 44 39 45 41 46 44 47 40 49
REMARK SMILES IDX 42 51 8 53 9 54 10 55 11 56 19 57 12 58 17 59 13 60 15 61
REMARK SMILES IDX 18 62 14 64 16 66 21 68 22 69 23 70 24 71 32 72 25 73 30 74
REMARK SMILES IDX 26 75 28 76 31 77 27 79 29 81
REMARK H PARENT 62 18 64 20 66 22 57 33 53 35 55 37 44 48 40 50 42 52 18 63
REMARK H PARENT 14 65 16 67 31 78 27 80 29 82
REMARK Flexibility Score: inf
ROOT
ATOM      1  C   UNL     1      28.774  54.079  12.859  1.00  0.00     0.205 C 
ATOM      2  C   UNL     1      27.569  53.475  12.105  1.00  0.00     0.254 C 
ATOM      3  C   UNL     1      26.473  53.098  13.123  1.00  0.00     0.267 C 
ATOM      4  C   UNL     1      27.066  52.211  14.233  1.00  0.00     0.290 C 
ATOM      5  C   UNL     1      28.329  52.867  14.818  1.00  0.00     0.357 C 
ATOM      6  O   UNL     1      29.282  53.152  13.806  1.00  0.00    -0.329 OA
ENDROOT
BRANCH   1   7
ATOM      7  C   UNL     1      29.896  54.471  11.883  1.00  0.00     0.269 C 
BRANCH   7   8
ATOM      8  O   UNL     1      29.384  55.278  10.824  1.00  0.00    -0.459 OA
BRANCH   8   9
ATOM      9  C   UNL     1      29.254  56.670  10.889  1.00  0.00     0.338 C 
ATOM     10  O   UNL     1      30.030  57.412  10.229  1.00  0.00    -0.246 OA
BRANCH   9  11
ATOM     11  C   UNL     1      28.178  57.266  11.711  1.00  0.00     0.067 A 
ATOM     12  C   UNL     1      26.834  57.043  11.382  1.00  0.00     0.066 A 
ATOM     13  C   UNL     1      25.809  57.613  12.139  1.00  0.00     0.162 A 
ATOM     14  C   UNL     1      28.484  58.064  12.823  1.00  0.00     0.066 A 
ATOM     15  C   UNL     1      26.115  58.423  13.248  1.00  0.00     0.200 A 
ATOM     16  C   UNL     1      27.472  58.642  13.596  1.00  0.00     0.162 A 
BRANCH  13  17
ATOM     17  O   UNL     1      24.484  57.378  11.764  1.00  0.00    -0.504 OA
ATOM     18  H   UNL     1      24.241  56.890  10.910  1.00  0.00     0.293 HD
ENDBRANCH  13  17
BRANCH  15  19
ATOM     19  O   UNL     1      25.060  58.992  13.967  1.00  0.00    -0.502 OA
ATOM     20  H   UNL     1      25.057  59.940  14.310  1.00  0.00     0.293 HD
ENDBRANCH  15  19
BRANCH  16  21
ATOM     21  O   UNL     1      27.854  59.413  14.697  1.00  0.00    -0.504 OA
ATOM     22  H   UNL     1      27.249  60.062  15.174  1.00  0.00     0.293 HD
ENDBRANCH  16  21
ENDBRANCH   9  11
ENDBRANCH   8   9
ENDBRANCH   7   8
ENDBRANCH   1   7
BRANCH   2  23
ATOM     23  O   UNL     1      27.989  52.311  11.392  1.00  0.00    -0.452 OA
BRANCH  23  24
ATOM     24  C   UNL     1      27.911  52.175   9.999  1.00  0.00     0.338 C 
ATOM     25  O   UNL     1      28.777  51.502   9.375  1.00  0.00    -0.246 OA
BRANCH  24  26
ATOM     26  C   UNL     1      26.805  52.823   9.265  1.00  0.00     0.067 A 
ATOM     27  C   UNL     1      26.234  54.018   9.737  1.00  0.00     0.066 A 
ATOM     28  C   UNL     1      26.319  52.254   8.079  1.00  0.00     0.066 A 
ATOM     29  C   UNL     1      25.194  54.635   9.036  1.00  0.00     0.162 A 
ATOM     30  C   UNL     1      25.275  52.860   7.375  1.00  0.00     0.162 A 
ATOM     31  C   UNL     1      24.706  54.054   7.852  1.00  0.00     0.200 A 
BRANCH  29  32
ATOM     32  O   UNL     1      24.671  55.836   9.518  1.00  0.00    -0.504 OA
ATOM     33  H   UNL     1      25.057  56.299  10.332  1.00  0.00     0.293 HD
ENDBRANCH  29  32
BRANCH  30  34
ATOM     34  O   UNL     1      24.791  52.278   6.202  1.00  0.00    -0.504 OA
ATOM     35  H   UNL     1      23.821  51.992   6.118  1.00  0.00     0.293 HD
ENDBRANCH  30  34
BRANCH  31  36
ATOM     36  O   UNL     1      23.667  54.676   7.158  1.00  0.00    -0.502 OA
ATOM     37  H   UNL     1      23.344  55.610   7.390  1.00  0.00     0.293 HD
ENDBRANCH  31  36
ENDBRANCH  24  26
ENDBRANCH  23  24
ENDBRANCH   2  23
BRANCH   3  38
ATOM     38  O   UNL     1      25.409  52.393  12.484  1.00  0.00    -0.450 OA
BRANCH  38  39
ATOM     39  C   UNL     1      24.052  52.694  12.642  1.00  0.00     0.338 C 
ATOM     40  O   UNL     1      23.660  53.335  13.656  1.00  0.00    -0.246 OA
BRANCH  39  41
ATOM     41  C   UNL     1      23.080  52.247  11.618  1.00  0.00     0.067 A 
ATOM     42  C   UNL     1      21.695  52.386  11.817  1.00  0.00     0.066 A 
ATOM     43  C   UNL     1      23.538  51.665  10.425  1.00  0.00     0.066 A 
ATOM     44  C   UNL     1      20.782  51.922  10.859  1.00  0.00     0.162 A 
ATOM     45  C   UNL     1      22.637  51.198   9.465  1.00  0.00     0.162 A 
ATOM     46  C   UNL     1      21.254  51.319   9.681  1.00  0.00     0.200 A 
BRANCH  44  47
ATOM     47  O   UNL     1      19.407  52.055  11.074  1.00  0.00    -0.504 OA
ATOM     48  H   UNL     1      18.774  51.267  10.989  1.00  0.00     0.293 HD
ENDBRANCH  44  47
BRANCH  45  49
ATOM     49  O   UNL     1      23.131  50.618   8.296  1.00  0.00    -0.504 OA
ATOM     50  H   UNL     1      23.365  51.169   7.481  1.00  0.00     0.293 HD
ENDBRANCH  45  49
BRANCH  46  51
ATOM     51  O   UNL     1      20.365  50.842   8.718  1.00  0.00    -0.502 OA
ATOM     52  H   UNL     1      19.740  50.062   8.891  1.00  0.00     0.293 HD
ENDBRANCH  46  51
ENDBRANCH  39  41
ENDBRANCH  38  39
ENDBRANCH   3  38
BRANCH   5  53
ATOM     53  O   UNL     1      27.996  54.052  15.545  1.00  0.00    -0.428 OA
BRANCH  53  54
ATOM     54  C   UNL     1      28.013  54.129  16.944  1.00  0.00     0.340 C 
ATOM     55  O   UNL     1      29.106  54.266  17.558  1.00  0.00    -0.246 OA
BRANCH  54  56
ATOM     56  C   UNL     1      26.741  54.018  17.694  1.00  0.00     0.067 A 
ATOM     57  C   UNL     1      26.758  53.744  19.071  1.00  0.00     0.066 A 
ATOM     58  C   UNL     1      25.510  54.197  17.043  1.00  0.00     0.066 A 
ATOM     59  C   UNL     1      25.558  53.640  19.790  1.00  0.00     0.162 A 
ATOM     60  C   UNL     1      24.308  54.102  17.758  1.00  0.00     0.162 A 
ATOM     61  C   UNL     1      24.329  53.816  19.132  1.00  0.00     0.200 A 
BRANCH  59  62
ATOM     62  O   UNL     1      25.582  53.364  21.155  1.00  0.00    -0.504 OA
ATOM     63  H   UNL     1      24.731  53.184  21.676  1.00  0.00     0.293 HD
ENDBRANCH  59  62
BRANCH  60  64
ATOM     64  O   UNL     1      23.097  54.280  17.089  1.00  0.00    -0.504 OA
ATOM     65  H   UNL     1      22.408  54.955  17.400  1.00  0.00     0.293 HD
ENDBRANCH  60  64
BRANCH  61  66
ATOM     66  O   UNL     1      23.122  53.712  19.828  1.00  0.00    -0.502 OA
ATOM     67  H   UNL     1      22.572  54.534  20.077  1.00  0.00     0.293 HD
ENDBRANCH  61  66
ENDBRANCH  54  56
ENDBRANCH  53  54
ENDBRANCH   5  53
BRANCH   4  68
ATOM     68  O   UNL     1      26.106  52.015  15.276  1.00  0.00    -0.448 OA
BRANCH  68  69
ATOM     69  C   UNL     1      26.034  50.849  16.053  1.00  0.00     0.339 C 
ATOM     70  O   UNL     1      25.091  50.697  16.877  1.00  0.00    -0.246 OA
BRANCH  69  71
ATOM     71  C   UNL     1      27.039  49.780  15.880  1.00  0.00     0.067 A 
ATOM     72  C   UNL     1      26.883  48.807  14.876  1.00  0.00     0.066 A 
ATOM     73  C   UNL     1      28.168  49.725  16.714  1.00  0.00     0.066 A 
ATOM     74  C   UNL     1      27.856  47.815  14.688  1.00  0.00     0.162 A 
ATOM     75  C   UNL     1      29.140  48.730  16.547  1.00  0.00     0.162 A 
ATOM     76  C   UNL     1      28.992  47.775  15.510  1.00  0.00     0.200 A 
BRANCH  74  77
ATOM     77  O   UNL     1      27.710  46.869  13.674  1.00  0.00    -0.504 OA
ATOM     78  H   UNL     1      26.976  46.177  13.700  1.00  0.00     0.293 HD
ENDBRANCH  74  77
BRANCH  75  79
ATOM     79  O   UNL     1      30.219  48.724  17.436  1.00  0.00    -0.504 OA
ATOM     80  H   UNL     1      31.093  49.197  17.267  1.00  0.00     0.293 HD
ENDBRANCH  75  79
BRANCH  76  81
ATOM     81  O   UNL     1      29.950  46.790  15.261  1.00  0.00    -0.502 OA
ATOM     82  H   UNL     1      29.946  46.207  14.443  1.00  0.00     0.293 HD
ENDBRANCH  76  81
ENDBRANCH  69  71
ENDBRANCH  68  69
ENDBRANCH   4  68
TORSDOF 31
ENDMDL
MODEL 6
REMARK VINA RESULT:    -9.356      1.884      5.161
REMARK INTER + INTRA:         -28.575
REMARK INTER:                 -24.103
REMARK INTRA:                  -4.472
REMARK UNBOUND:                -6.365
REMARK SMILES O=C(OC[C@@H]1O[C@@H](OC(=O)c2cc(O)c(O)c(O)c2)[C@@H](OC(=O)c2cc(O)c(O)c(O)c2)[C@H](OC(=O)c2cc(O)c(O)c(O)c2)[C@@H]1OC(=O)c1cc(O)c(O)c(O)c1)c1cc(O)c(O)c(O)c1
REMARK SMILES IDX 5 1 46 2 33 3 20 4 7 5 6 6 4 7 3 8 2 9 1 10 59 11 60 12
REMARK SMILES IDX 61 13 67 14 63 15 65 16 62 17 64 19 66 21 47 23 48 24 49 25
REMARK SMILES IDX 50 26 58 27 51 28 56 29 52 30 54 31 57 32 53 34 55 36 34 38
REMARK SMILES IDX 35 39 36 40 37 41 45 42 38 43 43 44 39 45 41 46 44 47 40 49
REMARK SMILES IDX 42 51 8 53 9 54 10 55 11 56 19 57 12 58 17 59 13 60 15 61
REMARK SMILES IDX 18 62 14 64 16 66 21 68 22 69 23 70 24 71 32 72 25 73 30 74
REMARK SMILES IDX 26 75 28 76 31 77 27 79 29 81
REMARK H PARENT 62 18 64 20 66 22 57 33 53 35 55 37 44 48 40 50 42 52 18 63
REMARK H PARENT 14 65 16 67 31 78 27 80 29 82
REMARK Flexibility Score: inf
ROOT
ATOM      1  C   UNL     1      27.112  52.210  11.822  1.00  0.00     0.205 C 
ATOM      2  C   UNL     1      27.135  51.861  13.327  1.00  0.00     0.254 C 
ATOM      3  C   UNL     1      25.707  51.506  13.786  1.00  0.00     0.267 C 
ATOM      4  C   UNL     1      24.729  52.626  13.386  1.00  0.00     0.290 C 
ATOM      5  C   UNL     1      24.890  52.962  11.892  1.00  0.00     0.357 C 
ATOM      6  O   UNL     1      26.233  53.298  11.579  1.00  0.00    -0.329 OA
ENDROOT
BRANCH   1   7
ATOM      7  C   UNL     1      28.518  52.573  11.317  1.00  0.00     0.269 C 
BRANCH   7   8
ATOM      8  O   UNL     1      28.484  53.781  10.558  1.00  0.00    -0.459 OA
BRANCH   8   9
ATOM      9  C   UNL     1      29.023  54.997  10.993  1.00  0.00     0.338 C 
ATOM     10  O   UNL     1      30.243  55.254  10.806  1.00  0.00    -0.246 OA
BRANCH   9  11
ATOM     11  C   UNL     1      28.145  55.995  11.642  1.00  0.00     0.067 A 
ATOM     12  C   UNL     1      28.634  56.791  12.687  1.00  0.00     0.066 A 
ATOM     13  C   UNL     1      27.811  57.724  13.320  1.00  0.00     0.162 A 
ATOM     14  C   UNL     1      26.814  56.155  11.229  1.00  0.00     0.066 A 
ATOM     15  C   UNL     1      26.473  57.877  12.914  1.00  0.00     0.200 A 
ATOM     16  C   UNL     1      25.973  57.086  11.849  1.00  0.00     0.162 A 
BRANCH  13  17
ATOM     17  O   UNL     1      28.336  58.484  14.367  1.00  0.00    -0.504 OA
ATOM     18  H   UNL     1      28.493  58.098  15.291  1.00  0.00     0.293 HD
ENDBRANCH  13  17
BRANCH  15  19
ATOM     19  O   UNL     1      25.676  58.808  13.587  1.00  0.00    -0.502 OA
ATOM     20  H   UNL     1      26.040  59.572  14.134  1.00  0.00     0.293 HD
ENDBRANCH  15  19
BRANCH  16  21
ATOM     21  O   UNL     1      24.664  57.197  11.374  1.00  0.00    -0.504 OA
ATOM     22  H   UNL     1      23.864  57.395  11.953  1.00  0.00     0.293 HD
ENDBRANCH  16  21
ENDBRANCH   9  11
ENDBRANCH   8   9
ENDBRANCH   7   8
ENDBRANCH   1   7
BRANCH   2  23
ATOM     23  O   UNL     1      27.617  52.983  14.067  1.00  0.00    -0.452 OA
BRANCH  23  24
ATOM     24  C   UNL     1      28.312  52.881  15.280  1.00  0.00     0.338 C 
ATOM     25  O   UNL     1      29.440  52.317  15.322  1.00  0.00    -0.246 OA
BRANCH  24  26
ATOM     26  C   UNL     1      27.718  53.443  16.510  1.00  0.00     0.067 A 
ATOM     27  C   UNL     1      28.536  53.899  17.558  1.00  0.00     0.066 A 
ATOM     28  C   UNL     1      26.325  53.537  16.639  1.00  0.00     0.066 A 
ATOM     29  C   UNL     1      27.973  54.440  18.717  1.00  0.00     0.162 A 
ATOM     30  C   UNL     1      25.752  54.069  17.797  1.00  0.00     0.162 A 
ATOM     31  C   UNL     1      26.575  54.522  18.844  1.00  0.00     0.200 A 
BRANCH  29  32
ATOM     32  O   UNL     1      28.817  54.908  19.726  1.00  0.00    -0.504 OA
ATOM     33  H   UNL     1      29.653  54.407  19.999  1.00  0.00     0.293 HD
ENDBRANCH  29  32
BRANCH  30  34
ATOM     34  O   UNL     1      24.363  54.146  17.919  1.00  0.00    -0.504 OA
ATOM     35  H   UNL     1      23.772  54.300  17.109  1.00  0.00     0.293 HD
ENDBRANCH  30  34
BRANCH  31  36
ATOM     36  O   UNL     1      26.019  55.062  20.005  1.00  0.00    -0.502 OA
ATOM     37  H   UNL     1      25.584  54.482  20.717  1.00  0.00     0.293 HD
ENDBRANCH  31  36
ENDBRANCH  24  26
ENDBRANCH  23  24
ENDBRANCH   2  23
BRANCH   3  38
ATOM     38  O   UNL     1      25.658  51.331  15.202  1.00  0.00    -0.450 OA
BRANCH  38  39
ATOM     39  C   UNL     1      25.808  50.103  15.854  1.00  0.00     0.338 C 
ATOM     40  O   UNL     1      24.879  49.654  16.580  1.00  0.00    -0.246 OA
BRANCH  39  41
ATOM     41  C   UNL     1      27.067  49.338  15.693  1.00  0.00     0.067 A 
ATOM     42  C   UNL     1      28.107  49.442  16.632  1.00  0.00     0.066 A 
ATOM     43  C   UNL     1      27.237  48.499  14.581  1.00  0.00     0.066 A 
ATOM     44  C   UNL     1      29.311  48.747  16.449  1.00  0.00     0.162 A 
ATOM     45  C   UNL     1      28.434  47.802  14.388  1.00  0.00     0.162 A 
ATOM     46  C   UNL     1      29.478  47.928  15.318  1.00  0.00     0.200 A 
BRANCH  44  47
ATOM     47  O   UNL     1      30.343  48.866  17.383  1.00  0.00    -0.504 OA
ATOM     48  H   UNL     1      31.317  48.918  17.102  1.00  0.00     0.293 HD
ENDBRANCH  44  47
BRANCH  45  49
ATOM     49  O   UNL     1      28.568  46.984  13.266  1.00  0.00    -0.504 OA
ATOM     50  H   UNL     1      27.865  46.949  12.540  1.00  0.00     0.293 HD
ENDBRANCH  45  49
BRANCH  46  51
ATOM     51  O   UNL     1      30.669  47.233  15.111  1.00  0.00    -0.502 OA
ATOM     52  H   UNL     1      31.303  46.998  15.867  1.00  0.00     0.293 HD
ENDBRANCH  46  51
ENDBRANCH  39  41
ENDBRANCH  38  39
ENDBRANCH   3  38
BRANCH   5  53
ATOM     53  O   UNL     1      24.437  51.881  11.075  1.00  0.00    -0.428 OA
BRANCH  53  54
ATOM     54  C   UNL     1      23.645  52.056   9.933  1.00  0.00     0.340 C 
ATOM     55  O   UNL     1      22.589  51.383   9.785  1.00  0.00    -0.246 OA
BRANCH  54  56
ATOM     56  C   UNL     1      24.073  53.016   8.891  1.00  0.00     0.067 A 
ATOM     57  C   UNL     1      24.099  54.393   9.169  1.00  0.00     0.066 A 
ATOM     58  C   UNL     1      24.469  52.563   7.622  1.00  0.00     0.066 A 
ATOM     59  C   UNL     1      24.506  55.309   8.188  1.00  0.00     0.162 A 
ATOM     60  C   UNL     1      24.884  53.473   6.640  1.00  0.00     0.162 A 
ATOM     61  C   UNL     1      24.897  54.849   6.918  1.00  0.00     0.200 A 
BRANCH  59  62
ATOM     62  O   UNL     1      24.526  56.672   8.468  1.00  0.00    -0.504 OA
ATOM     63  H   UNL     1      24.482  57.368   7.732  1.00  0.00     0.293 HD
ENDBRANCH  59  62
BRANCH  60  64
ATOM     64  O   UNL     1      25.268  52.999   5.386  1.00  0.00    -0.504 OA
ATOM     65  H   UNL     1      24.616  52.943   4.612  1.00  0.00     0.293 HD
ENDBRANCH  60  64
BRANCH  61  66
ATOM     66  O   UNL     1      25.301  55.745   5.925  1.00  0.00    -0.502 OA
ATOM     67  H   UNL     1      25.077  55.595   4.942  1.00  0.00     0.293 HD
ENDBRANCH  61  66
ENDBRANCH  54  56
ENDBRANCH  53  54
ENDBRANCH   5  53
BRANCH   4  68
ATOM     68  O   UNL     1      23.380  52.220  13.638  1.00  0.00    -0.448 OA
BRANCH  68  69
ATOM     69  C   UNL     1      22.461  52.992  14.365  1.00  0.00     0.339 C 
ATOM     70  O   UNL     1      22.850  53.669  15.355  1.00  0.00    -0.246 OA
BRANCH  69  71
ATOM     71  C   UNL     1      21.044  53.044  13.947  1.00  0.00     0.067 A 
ATOM     72  C   UNL     1      20.042  53.410  14.863  1.00  0.00     0.066 A 
ATOM     73  C   UNL     1      20.681  52.733  12.627  1.00  0.00     0.066 A 
ATOM     74  C   UNL     1      18.702  53.495  14.457  1.00  0.00     0.162 A 
ATOM     75  C   UNL     1      19.345  52.799  12.211  1.00  0.00     0.162 A 
ATOM     76  C   UNL     1      18.346  53.204  13.133  1.00  0.00     0.200 A 
BRANCH  74  77
ATOM     77  O   UNL     1      17.715  53.884  15.363  1.00  0.00    -0.504 OA
ATOM     78  H   UNL     1      17.363  53.249  16.063  1.00  0.00     0.293 HD
ENDBRANCH  74  77
BRANCH  75  79
ATOM     79  O   UNL     1      19.060  52.446  10.889  1.00  0.00    -0.504 OA
ATOM     80  H   UNL     1      19.745  52.422  10.151  1.00  0.00     0.293 HD
ENDBRANCH  75  79
BRANCH  76  81
ATOM     81  O   UNL     1      17.005  53.337  12.767  1.00  0.00    -0.502 OA
ATOM     82  H   UNL     1      16.248  53.345  13.428  1.00  0.00     0.293 HD
ENDBRANCH  76  81
ENDBRANCH  69  71
ENDBRANCH  68  69
ENDBRANCH   4  68
TORSDOF 31
ENDMDL
MODEL 7
REMARK VINA RESULT:    -9.309      2.176      7.491
REMARK INTER + INTRA:         -28.463
REMARK INTER:                 -22.310
REMARK INTRA:                  -6.152
REMARK UNBOUND:                -6.365
REMARK SMILES O=C(OC[C@@H]1O[C@@H](OC(=O)c2cc(O)c(O)c(O)c2)[C@@H](OC(=O)c2cc(O)c(O)c(O)c2)[C@H](OC(=O)c2cc(O)c(O)c(O)c2)[C@@H]1OC(=O)c1cc(O)c(O)c(O)c1)c1cc(O)c(O)c(O)c1
REMARK SMILES IDX 5 1 46 2 33 3 20 4 7 5 6 6 4 7 3 8 2 9 1 10 59 11 60 12
REMARK SMILES IDX 61 13 67 14 63 15 65 16 62 17 64 19 66 21 47 23 48 24 49 25
REMARK SMILES IDX 50 26 58 27 51 28 56 29 52 30 54 31 57 32 53 34 55 36 34 38
REMARK SMILES IDX 35 39 36 40 37 41 45 42 38 43 43 44 39 45 41 46 44 47 40 49
REMARK SMILES IDX 42 51 8 53 9 54 10 55 11 56 19 57 12 58 17 59 13 60 15 61
REMARK SMILES IDX 18 62 14 64 16 66 21 68 22 69 23 70 24 71 32 72 25 73 30 74
REMARK SMILES IDX 26 75 28 76 31 77 27 79 29 81
REMARK H PARENT 62 18 64 20 66 22 57 33 53 35 55 37 44 48 40 50 42 52 18 63
REMARK H PARENT 14 65 16 67 31 78 27 80 29 82
REMARK Flexibility Score: inf
ROOT
ATOM      1  C   UNL     1      25.050  54.110  15.989  1.00  0.00     0.205 C 
ATOM      2  C   UNL     1      25.752  54.550  14.686  1.00  0.00     0.254 C 
ATOM      3  C   UNL     1      24.713  54.617  13.549  1.00  0.00     0.267 C 
ATOM      4  C   UNL     1      23.939  53.288  13.462  1.00  0.00     0.290 C 
ATOM      5  C   UNL     1      23.394  52.900  14.848  1.00  0.00     0.357 C 
ATOM      6  O   UNL     1      24.431  52.844  15.815  1.00  0.00    -0.329 OA
ENDROOT
BRANCH   1   7
ATOM      7  C   UNL     1      26.049  54.028  17.155  1.00  0.00     0.269 C 
BRANCH   7   8
ATOM      8  O   UNL     1      26.339  52.668  17.475  1.00  0.00    -0.459 OA
BRANCH   8   9
ATOM      9  C   UNL     1      27.381  51.931  16.902  1.00  0.00     0.338 C 
ATOM     10  O   UNL     1      28.577  52.303  17.047  1.00  0.00    -0.246 OA
BRANCH   9  11
ATOM     11  C   UNL     1      27.074  50.692  16.153  1.00  0.00     0.067 A 
ATOM     12  C   UNL     1      28.018  50.149  15.271  1.00  0.00     0.066 A 
ATOM     13  C   UNL     1      27.735  48.990  14.546  1.00  0.00     0.162 A 
ATOM     14  C   UNL     1      25.838  50.049  16.308  1.00  0.00     0.066 A 
ATOM     15  C   UNL     1      26.491  48.351  14.692  1.00  0.00     0.200 A 
ATOM     16  C   UNL     1      25.535  48.886  15.592  1.00  0.00     0.162 A 
BRANCH  13  17
ATOM     17  O   UNL     1      28.700  48.495  13.665  1.00  0.00    -0.504 OA
ATOM     18  H   UNL     1      28.959  47.516  13.640  1.00  0.00     0.293 HD
ENDBRANCH  13  17
BRANCH  15  19
ATOM     19  O   UNL     1      26.239  47.205  13.932  1.00  0.00    -0.502 OA
ATOM     20  H   UNL     1      26.862  46.847  13.226  1.00  0.00     0.293 HD
ENDBRANCH  15  19
BRANCH  16  21
ATOM     21  O   UNL     1      24.288  48.294  15.810  1.00  0.00    -0.504 OA
ATOM     22  H   UNL     1      24.096  47.623  16.536  1.00  0.00     0.293 HD
ENDBRANCH  16  21
ENDBRANCH   9  11
ENDBRANCH   8   9
ENDBRANCH   7   8
ENDBRANCH   1   7
BRANCH   2  23
ATOM     23  O   UNL     1      26.773  53.609  14.354  1.00  0.00    -0.452 OA
BRANCH  23  24
ATOM     24  C   UNL     1      28.030  53.963  13.843  1.00  0.00     0.338 C 
ATOM     25  O   UNL     1      28.674  54.924  14.348  1.00  0.00    -0.246 OA
BRANCH  24  26
ATOM     26  C   UNL     1      28.597  53.202  12.712  1.00  0.00     0.067 A 
ATOM     27  C   UNL     1      29.970  52.903  12.666  1.00  0.00     0.066 A 
ATOM     28  C   UNL     1      27.765  52.761  11.673  1.00  0.00     0.066 A 
ATOM     29  C   UNL     1      30.504  52.174  11.599  1.00  0.00     0.162 A 
ATOM     30  C   UNL     1      28.291  52.038  10.599  1.00  0.00     0.162 A 
ATOM     31  C   UNL     1      29.665  51.743  10.557  1.00  0.00     0.200 A 
BRANCH  29  32
ATOM     32  O   UNL     1      31.866  51.870  11.601  1.00  0.00    -0.504 OA
ATOM     33  H   UNL     1      32.205  50.933  11.783  1.00  0.00     0.293 HD
ENDBRANCH  29  32
BRANCH  30  34
ATOM     34  O   UNL     1      27.454  51.614   9.564  1.00  0.00    -0.504 OA
ATOM     35  H   UNL     1      27.734  51.703   8.592  1.00  0.00     0.293 HD
ENDBRANCH  30  34
BRANCH  31  36
ATOM     36  O   UNL     1      30.205  51.017   9.494  1.00  0.00    -0.502 OA
ATOM     37  H   UNL     1      30.411  51.444   8.596  1.00  0.00     0.293 HD
ENDBRANCH  31  36
ENDBRANCH  24  26
ENDBRANCH  23  24
ENDBRANCH   2  23
BRANCH   3  38
ATOM     38  O   UNL     1      25.348  54.867  12.295  1.00  0.00    -0.450 OA
BRANCH  38  39
ATOM     39  C   UNL     1      25.521  56.137  11.734  1.00  0.00     0.338 C 
ATOM     40  O   UNL     1      24.587  56.670  11.074  1.00  0.00    -0.246 OA
BRANCH  39  41
ATOM     41  C   UNL     1      26.809  56.846  11.914  1.00  0.00     0.067 A 
ATOM     42  C   UNL     1      27.812  56.794  10.931  1.00  0.00     0.066 A 
ATOM     43  C   UNL     1      27.046  57.579  13.087  1.00  0.00     0.066 A 
ATOM     44  C   UNL     1      29.044  57.434  11.128  1.00  0.00     0.162 A 
ATOM     45  C   UNL     1      28.271  58.220  13.294  1.00  0.00     0.162 A 
ATOM     46  C   UNL     1      29.277  58.145  12.318  1.00  0.00     0.200 A 
BRANCH  44  47
ATOM     47  O   UNL     1      30.039  57.366  10.148  1.00  0.00    -0.504 OA
ATOM     48  H   UNL     1      29.832  57.505   9.165  1.00  0.00     0.293 HD
ENDBRANCH  44  47
BRANCH  45  49
ATOM     49  O   UNL     1      28.471  58.932  14.477  1.00  0.00    -0.504 OA
ATOM     50  H   UNL     1      27.701  59.242  15.054  1.00  0.00     0.293 HD
ENDBRANCH  45  49
BRANCH  46  51
ATOM     51  O   UNL     1      30.498  58.782  12.540  1.00  0.00    -0.502 OA
ATOM     52  H   UNL     1      30.864  58.950  13.471  1.00  0.00     0.293 HD
ENDBRANCH  46  51
ENDBRANCH  39  41
ENDBRANCH  38  39
ENDBRANCH   3  38
BRANCH   5  53
ATOM     53  O   UNL     1      22.366  53.803  15.262  1.00  0.00    -0.428 OA
BRANCH  53  54
ATOM     54  C   UNL     1      21.190  53.392  15.902  1.00  0.00     0.340 C 
ATOM     55  O   UNL     1      21.226  52.996  17.099  1.00  0.00    -0.246 OA
BRANCH  54  56
ATOM     56  C   UNL     1      19.914  53.399  15.153  1.00  0.00     0.067 A 
ATOM     57  C   UNL     1      19.702  52.478  14.114  1.00  0.00     0.066 A 
ATOM     58  C   UNL     1      18.899  54.313  15.480  1.00  0.00     0.066 A 
ATOM     59  C   UNL     1      18.494  52.476  13.401  1.00  0.00     0.162 A 
ATOM     60  C   UNL     1      17.687  54.310  14.776  1.00  0.00     0.162 A 
ATOM     61  C   UNL     1      17.484  53.396  13.730  1.00  0.00     0.200 A 
BRANCH  59  62
ATOM     62  O   UNL     1      18.292  51.564  12.368  1.00  0.00    -0.504 OA
ATOM     63  H   UNL     1      17.660  51.760  11.601  1.00  0.00     0.293 HD
ENDBRANCH  59  62
BRANCH  60  64
ATOM     64  O   UNL     1      16.695  55.230  15.116  1.00  0.00    -0.504 OA
ATOM     65  H   UNL     1      16.827  55.911  15.855  1.00  0.00     0.293 HD
ENDBRANCH  60  64
BRANCH  61  66
ATOM     66  O   UNL     1      16.275  53.414  13.029  1.00  0.00    -0.502 OA
ATOM     67  H   UNL     1      15.772  52.556  12.804  1.00  0.00     0.293 HD
ENDBRANCH  61  66
ENDBRANCH  54  56
ENDBRANCH  53  54
ENDBRANCH   5  53
BRANCH   4  68
ATOM     68  O   UNL     1      22.850  53.408  12.541  1.00  0.00    -0.448 OA
BRANCH  68  69
ATOM     69  C   UNL     1      22.659  52.546  11.450  1.00  0.00     0.339 C 
ATOM     70  O   UNL     1      21.834  51.596  11.533  1.00  0.00    -0.246 OA
BRANCH  69  71
ATOM     71  C   UNL     1      23.395  52.774  10.189  1.00  0.00     0.067 A 
ATOM     72  C   UNL     1      24.024  51.705   9.524  1.00  0.00     0.066 A 
ATOM     73  C   UNL     1      23.472  54.061   9.634  1.00  0.00     0.066 A 
ATOM     74  C   UNL     1      24.690  51.915   8.309  1.00  0.00     0.162 A 
ATOM     75  C   UNL     1      24.147  54.289   8.428  1.00  0.00     0.162 A 
ATOM     76  C   UNL     1      24.747  53.199   7.747  1.00  0.00     0.200 A 
BRANCH  74  77
ATOM     77  O   UNL     1      25.289  50.848   7.640  1.00  0.00    -0.504 OA
ATOM     78  H   UNL     1      26.233  50.908   7.291  1.00  0.00     0.293 HD
ENDBRANCH  74  77
BRANCH  75  79
ATOM     79  O   UNL     1      24.205  55.603   7.956  1.00  0.00    -0.504 OA
ATOM     80  H   UNL     1      24.985  55.988   7.448  1.00  0.00     0.293 HD
ENDBRANCH  75  79
BRANCH  76  81
ATOM     81  O   UNL     1      25.391  53.352   6.518  1.00  0.00    -0.502 OA
ATOM     82  H   UNL     1      26.358  53.123   6.366  1.00  0.00     0.293 HD
ENDBRANCH  76  81
ENDBRANCH  69  71
ENDBRANCH  68  69
ENDBRANCH   4  68
TORSDOF 31
ENDMDL
MODEL 8
REMARK VINA RESULT:    -9.265      1.964      4.559
REMARK INTER + INTRA:         -28.359
REMARK INTER:                 -23.305
REMARK INTRA:                  -5.054
REMARK UNBOUND:                -6.365
REMARK SMILES O=C(OC[C@@H]1O[C@@H](OC(=O)c2cc(O)c(O)c(O)c2)[C@@H](OC(=O)c2cc(O)c(O)c(O)c2)[C@H](OC(=O)c2cc(O)c(O)c(O)c2)[C@@H]1OC(=O)c1cc(O)c(O)c(O)c1)c1cc(O)c(O)c(O)c1
REMARK SMILES IDX 5 1 46 2 33 3 20 4 7 5 6 6 4 7 3 8 2 9 1 10 59 11 60 12
REMARK SMILES IDX 61 13 67 14 63 15 65 16 62 17 64 19 66 21 47 23 48 24 49 25
REMARK SMILES IDX 50 26 58 27 51 28 56 29 52 30 54 31 57 32 53 34 55 36 34 38
REMARK SMILES IDX 35 39 36 40 37 41 45 42 38 43 43 44 39 45 41 46 44 47 40 49
REMARK SMILES IDX 42 51 8 53 9 54 10 55 11 56 19 57 12 58 17 59 13 60 15 61
REMARK SMILES IDX 18 62 14 64 16 66 21 68 22 69 23 70 24 71 32 72 25 73 30 74
REMARK SMILES IDX 26 75 28 76 31 77 27 79 29 81
REMARK H PARENT 62 18 64 20 66 22 57 33 53 35 55 37 44 48 40 50 42 52 18 63
REMARK H PARENT 14 65 16 67 31 78 27 80 29 82
REMARK Flexibility Score: inf
ROOT
ATOM      1  C   UNL     1      27.264  52.211  11.749  1.00  0.00     0.205 C 
ATOM      2  C   UNL     1      27.065  51.742  13.207  1.00  0.00     0.254 C 
ATOM      3  C   UNL     1      25.618  51.239  13.383  1.00  0.00     0.267 C 
ATOM      4  C   UNL     1      24.624  52.308  12.895  1.00  0.00     0.290 C 
ATOM      5  C   UNL     1      25.003  52.778  11.480  1.00  0.00     0.357 C 
ATOM      6  O   UNL     1      26.343  53.243  11.429  1.00  0.00    -0.329 OA
ENDROOT
BRANCH   1   7
ATOM      7  C   UNL     1      28.696  52.724  11.523  1.00  0.00     0.269 C 
BRANCH   7   8
ATOM      8  O   UNL     1      28.696  53.847  10.643  1.00  0.00    -0.459 OA
BRANCH   8   9
ATOM      9  C   UNL     1      29.160  55.120  10.993  1.00  0.00     0.338 C 
ATOM     10  O   UNL     1      30.344  55.460  10.725  1.00  0.00    -0.246 OA
BRANCH   9  11
ATOM     11  C   UNL     1      28.243  56.077  11.650  1.00  0.00     0.067 A 
ATOM     12  C   UNL     1      28.702  56.890  12.695  1.00  0.00     0.066 A 
ATOM     13  C   UNL     1      27.843  57.786  13.334  1.00  0.00     0.162 A 
ATOM     14  C   UNL     1      26.904  56.180  11.244  1.00  0.00     0.066 A 
ATOM     15  C   UNL     1      26.498  57.881  12.935  1.00  0.00     0.200 A 
ATOM     16  C   UNL     1      26.028  57.073  11.870  1.00  0.00     0.162 A 
BRANCH  13  17
ATOM     17  O   UNL     1      28.340  58.564  14.382  1.00  0.00    -0.504 OA
ATOM     18  H   UNL     1      29.285  58.929  14.386  1.00  0.00     0.293 HD
ENDBRANCH  13  17
BRANCH  15  19
ATOM     19  O   UNL     1      25.665  58.775  13.615  1.00  0.00    -0.502 OA
ATOM     20  H   UNL     1      25.947  59.307  14.423  1.00  0.00     0.293 HD
ENDBRANCH  15  19
BRANCH  16  21
ATOM     21  O   UNL     1      24.712  57.129  11.402  1.00  0.00    -0.504 OA
ATOM     22  H   UNL     1      24.182  56.328  11.100  1.00  0.00     0.293 HD
ENDBRANCH  16  21
ENDBRANCH   9  11
ENDBRANCH   8   9
ENDBRANCH   7   8
ENDBRANCH   1   7
BRANCH   2  23
ATOM     23  O   UNL     1      27.310  52.833  14.094  1.00  0.00    -0.452 OA
BRANCH  23  24
ATOM     24  C   UNL     1      28.078  52.735  15.264  1.00  0.00     0.338 C 
ATOM     25  O   UNL     1      29.248  52.265  15.220  1.00  0.00    -0.246 OA
BRANCH  24  26
ATOM     26  C   UNL     1      27.508  53.189  16.548  1.00  0.00     0.067 A 
ATOM     27  C   UNL     1      26.154  52.963  16.853  1.00  0.00     0.066 A 
ATOM     28  C   UNL     1      28.320  53.845  17.485  1.00  0.00     0.066 A 
ATOM     29  C   UNL     1      25.619  53.384  18.073  1.00  0.00     0.162 A 
ATOM     30  C   UNL     1      27.792  54.276  18.705  1.00  0.00     0.162 A 
ATOM     31  C   UNL     1      26.437  54.049  19.004  1.00  0.00     0.200 A 
BRANCH  29  32
ATOM     32  O   UNL     1      24.278  53.117  18.353  1.00  0.00    -0.504 OA
ATOM     33  H   UNL     1      23.761  52.400  17.859  1.00  0.00     0.293 HD
ENDBRANCH  29  32
BRANCH  30  34
ATOM     34  O   UNL     1      28.607  54.938  19.625  1.00  0.00    -0.504 OA
ATOM     35  H   UNL     1      28.547  55.943  19.752  1.00  0.00     0.293 HD
ENDBRANCH  30  34
BRANCH  31  36
ATOM     36  O   UNL     1      25.895  54.468  20.220  1.00  0.00    -0.502 OA
ATOM     37  H   UNL     1      26.419  54.426  21.089  1.00  0.00     0.293 HD
ENDBRANCH  31  36
ENDBRANCH  24  26
ENDBRANCH  23  24
ENDBRANCH   2  23
BRANCH   3  38
ATOM     38  O   UNL     1      25.348  50.944  14.753  1.00  0.00    -0.450 OA
BRANCH  38  39
ATOM     39  C   UNL     1      25.585  49.705  15.359  1.00  0.00     0.338 C 
ATOM     40  O   UNL     1      24.652  49.106  15.961  1.00  0.00    -0.246 OA
BRANCH  39  41
ATOM     41  C   UNL     1      26.939  49.107  15.295  1.00  0.00     0.067 A 
ATOM     42  C   UNL     1      27.355  48.362  14.179  1.00  0.00     0.066 A 
ATOM     43  C   UNL     1      27.828  49.276  16.368  1.00  0.00     0.066 A 
ATOM     44  C   UNL     1      28.623  47.766  14.147  1.00  0.00     0.162 A 
ATOM     45  C   UNL     1      29.094  48.685  16.347  1.00  0.00     0.162 A 
ATOM     46  C   UNL     1      29.495  47.922  15.238  1.00  0.00     0.200 A 
BRANCH  44  47
ATOM     47  O   UNL     1      29.022  47.017  13.036  1.00  0.00    -0.504 OA
ATOM     48  H   UNL     1      29.102  47.430  12.112  1.00  0.00     0.293 HD
ENDBRANCH  44  47
BRANCH  45  49
ATOM     49  O   UNL     1      29.947  48.869  17.436  1.00  0.00    -0.504 OA
ATOM     50  H   UNL     1      29.604  48.897  18.387  1.00  0.00     0.293 HD
ENDBRANCH  45  49
BRANCH  46  51
ATOM     51  O   UNL     1      30.759  47.331  15.231  1.00  0.00    -0.502 OA
ATOM     52  H   UNL     1      31.578  47.791  15.616  1.00  0.00     0.293 HD
ENDBRANCH  46  51
ENDBRANCH  39  41
ENDBRANCH  38  39
ENDBRANCH   3  38
BRANCH   5  53
ATOM     53  O   UNL     1      24.795  51.736  10.524  1.00  0.00    -0.428 OA
BRANCH  53  54
ATOM     54  C   UNL     1      24.135  51.929   9.304  1.00  0.00     0.340 C 
ATOM     55  O   UNL     1      23.320  51.064   8.881  1.00  0.00    -0.246 OA
BRANCH  54  56
ATOM     56  C   UNL     1      24.424  53.139   8.503  1.00  0.00     0.067 A 
ATOM     57  C   UNL     1      24.971  53.018   7.215  1.00  0.00     0.066 A 
ATOM     58  C   UNL     1      24.144  54.417   9.014  1.00  0.00     0.066 A 
ATOM     59  C   UNL     1      25.246  54.160   6.449  1.00  0.00     0.162 A 
ATOM     60  C   UNL     1      24.409  55.562   8.249  1.00  0.00     0.162 A 
ATOM     61  C   UNL     1      24.968  55.436   6.968  1.00  0.00     0.200 A 
BRANCH  59  62
ATOM     62  O   UNL     1      25.793  54.033   5.174  1.00  0.00    -0.504 OA
ATOM     63  H   UNL     1      25.332  54.415   4.357  1.00  0.00     0.293 HD
ENDBRANCH  59  62
BRANCH  60  64
ATOM     64  O   UNL     1      24.126  56.820   8.780  1.00  0.00    -0.504 OA
ATOM     65  H   UNL     1      24.794  57.581   8.739  1.00  0.00     0.293 HD
ENDBRANCH  60  64
BRANCH  61  66
ATOM     66  O   UNL     1      25.237  56.587   6.222  1.00  0.00    -0.502 OA
ATOM     67  H   UNL     1      26.141  57.056   6.266  1.00  0.00     0.293 HD
ENDBRANCH  61  66
ENDBRANCH  54  56
ENDBRANCH  53  54
ENDBRANCH   5  53
BRANCH   4  68
ATOM     68  O   UNL     1      23.295  51.777  12.879  1.00  0.00    -0.448 OA
BRANCH  68  69
ATOM     69  C   UNL     1      22.145  52.571  12.745  1.00  0.00     0.339 C 
ATOM     70  O   UNL     1      21.744  52.913  11.600  1.00  0.00    -0.246 OA
BRANCH  69  71
ATOM     71  C   UNL     1      21.380  52.974  13.944  1.00  0.00     0.067 A 
ATOM     72  C   UNL     1      22.046  53.376  15.116  1.00  0.00     0.066 A 
ATOM     73  C   UNL     1      19.976  52.965  13.926  1.00  0.00     0.066 A 
ATOM     74  C   UNL     1      21.320  53.794  16.240  1.00  0.00     0.162 A 
ATOM     75  C   UNL     1      19.238  53.364  15.048  1.00  0.00     0.162 A 
ATOM     76  C   UNL     1      19.918  53.802  16.212  1.00  0.00     0.200 A 
BRANCH  74  77
ATOM     77  O   UNL     1      21.985  54.217  17.391  1.00  0.00    -0.504 OA
ATOM     78  H   UNL     1      22.471  55.100  17.424  1.00  0.00     0.293 HD
ENDBRANCH  74  77
BRANCH  75  79
ATOM     79  O   UNL     1      17.844  53.299  14.962  1.00  0.00    -0.504 OA
ATOM     80  H   UNL     1      17.320  53.500  14.126  1.00  0.00     0.293 HD
ENDBRANCH  75  79
BRANCH  76  81
ATOM     81  O   UNL     1      19.240  54.260  17.344  1.00  0.00    -0.502 OA
ATOM     82  H   UNL     1      19.384  55.169  17.747  1.00  0.00     0.293 HD
ENDBRANCH  76  81
ENDBRANCH  69  71
ENDBRANCH  68  69
ENDBRANCH   4  68
TORSDOF 31
ENDMDL
MODEL 9
REMARK VINA RESULT:    -9.230      2.163      7.556
REMARK INTER + INTRA:         -28.275
REMARK INTER:                 -22.060
REMARK INTRA:                  -6.214
REMARK UNBOUND:                -6.365
REMARK SMILES O=C(OC[C@@H]1O[C@@H](OC(=O)c2cc(O)c(O)c(O)c2)[C@@H](OC(=O)c2cc(O)c(O)c(O)c2)[C@H](OC(=O)c2cc(O)c(O)c(O)c2)[C@@H]1OC(=O)c1cc(O)c(O)c(O)c1)c1cc(O)c(O)c(O)c1
REMARK SMILES IDX 5 1 46 2 33 3 20 4 7 5 6 6 4 7 3 8 2 9 1 10 59 11 60 12
REMARK SMILES IDX 61 13 67 14 63 15 65 16 62 17 64 19 66 21 47 23 48 24 49 25
REMARK SMILES IDX 50 26 58 27 51 28 56 29 52 30 54 31 57 32 53 34 55 36 34 38
REMARK SMILES IDX 35 39 36 40 37 41 45 42 38 43 43 44 39 45 41 46 44 47 40 49
REMARK SMILES IDX 42 51 8 53 9 54 10 55 11 56 19 57 12 58 17 59 13 60 15 61
REMARK SMILES IDX 18 62 14 64 16 66 21 68 22 69 23 70 24 71 32 72 25 73 30 74
REMARK SMILES IDX 26 75 28 76 31 77 27 79 29 81
REMARK H PARENT 62 18 64 20 66 22 57 33 53 35 55 37 44 48 40 50 42 52 18 63
REMARK H PARENT 14 65 16 67 31 78 27 80 29 82
REMARK Flexibility Score: inf
ROOT
ATOM      1  C   UNL     1      25.033  54.106  15.965  1.00  0.00     0.205 C 
ATOM      2  C   UNL     1      25.736  54.545  14.662  1.00  0.00     0.254 C 
ATOM      3  C   UNL     1      24.695  54.621  13.527  1.00  0.00     0.267 C 
ATOM      4  C   UNL     1      23.913  53.298  13.438  1.00  0.00     0.290 C 
ATOM      5  C   UNL     1      23.368  52.909  14.824  1.00  0.00     0.357 C 
ATOM      6  O   UNL     1      24.406  52.844  15.789  1.00  0.00    -0.329 OA
ENDROOT
BRANCH   1   7
ATOM      7  C   UNL     1      26.034  54.014  17.129  1.00  0.00     0.269 C 
BRANCH   7   8
ATOM      8  O   UNL     1      26.489  52.673  17.298  1.00  0.00    -0.459 OA
BRANCH   8   9
ATOM      9  C   UNL     1      27.761  52.222  16.926  1.00  0.00     0.338 C 
ATOM     10  O   UNL     1      28.779  52.927  17.164  1.00  0.00    -0.246 OA
BRANCH   9  11
ATOM     11  C   UNL     1      27.908  50.899  16.283  1.00  0.00     0.067 A 
ATOM     12  C   UNL     1      29.165  50.282  16.217  1.00  0.00     0.066 A 
ATOM     13  C   UNL     1      29.321  49.040  15.598  1.00  0.00     0.162 A 
ATOM     14  C   UNL     1      26.799  50.246  15.725  1.00  0.00     0.066 A 
ATOM     15  C   UNL     1      28.211  48.391  15.029  1.00  0.00     0.200 A 
ATOM     16  C   UNL     1      26.933  49.000  15.102  1.00  0.00     0.162 A 
BRANCH  13  17
ATOM     17  O   UNL     1      30.595  48.471  15.541  1.00  0.00    -0.504 OA
ATOM     18  H   UNL     1      31.109  48.207  16.373  1.00  0.00     0.293 HD
ENDBRANCH  13  17
BRANCH  15  19
ATOM     19  O   UNL     1      28.412  47.158  14.400  1.00  0.00    -0.502 OA
ATOM     20  H   UNL     1      27.892  46.843  13.596  1.00  0.00     0.293 HD
ENDBRANCH  15  19
BRANCH  16  21
ATOM     21  O   UNL     1      25.780  48.405  14.582  1.00  0.00    -0.504 OA
ATOM     22  H   UNL     1      25.328  48.692  13.729  1.00  0.00     0.293 HD
ENDBRANCH  16  21
ENDBRANCH   9  11
ENDBRANCH   8   9
ENDBRANCH   7   8
ENDBRANCH   1   7
BRANCH   2  23
ATOM     23  O   UNL     1      26.750  53.598  14.326  1.00  0.00    -0.452 OA
BRANCH  23  24
ATOM     24  C   UNL     1      28.018  53.947  13.839  1.00  0.00     0.338 C 
ATOM     25  O   UNL     1      28.666  54.892  14.369  1.00  0.00    -0.246 OA
BRANCH  24  26
ATOM     26  C   UNL     1      28.593  53.200  12.703  1.00  0.00     0.067 A 
ATOM     27  C   UNL     1      29.964  52.891  12.667  1.00  0.00     0.066 A 
ATOM     28  C   UNL     1      27.769  52.780  11.647  1.00  0.00     0.066 A 
ATOM     29  C   UNL     1      30.505  52.175  11.596  1.00  0.00     0.162 A 
ATOM     30  C   UNL     1      28.302  52.070  10.568  1.00  0.00     0.162 A 
ATOM     31  C   UNL     1      29.675  51.765  10.538  1.00  0.00     0.200 A 
BRANCH  29  32
ATOM     32  O   UNL     1      31.865  51.861  11.608  1.00  0.00    -0.504 OA
ATOM     33  H   UNL     1      32.358  51.586  10.767  1.00  0.00     0.293 HD
ENDBRANCH  29  32
BRANCH  30  34
ATOM     34  O   UNL     1      27.475  51.668   9.518  1.00  0.00    -0.504 OA
ATOM     35  H   UNL     1      26.464  51.717   9.597  1.00  0.00     0.293 HD
ENDBRANCH  30  34
BRANCH  31  36
ATOM     36  O   UNL     1      30.222  51.051   9.470  1.00  0.00    -0.502 OA
ATOM     37  H   UNL     1      30.090  51.336   8.504  1.00  0.00     0.293 HD
ENDBRANCH  31  36
ENDBRANCH  24  26
ENDBRANCH  23  24
ENDBRANCH   2  23
BRANCH   3  38
ATOM     38  O   UNL     1      25.329  54.871  12.273  1.00  0.00    -0.450 OA
BRANCH  38  39
ATOM     39  C   UNL     1      25.511  56.141  11.716  1.00  0.00     0.338 C 
ATOM     40  O   UNL     1      24.582  56.682  11.057  1.00  0.00    -0.246 OA
BRANCH  39  41
ATOM     41  C   UNL     1      26.805  56.840  11.898  1.00  0.00     0.067 A 
ATOM     42  C   UNL     1      27.813  56.772  10.922  1.00  0.00     0.066 A 
ATOM     43  C   UNL     1      27.041  57.580  13.067  1.00  0.00     0.066 A 
ATOM     44  C   UNL     1      29.049  57.404  11.122  1.00  0.00     0.162 A 
ATOM     45  C   UNL     1      28.269  58.212  13.278  1.00  0.00     0.162 A 
ATOM     46  C   UNL     1      29.281  58.121  12.308  1.00  0.00     0.200 A 
BRANCH  44  47
ATOM     47  O   UNL     1      30.049  57.320  10.149  1.00  0.00    -0.504 OA
ATOM     48  H   UNL     1      29.869  57.541   9.175  1.00  0.00     0.293 HD
ENDBRANCH  44  47
BRANCH  45  49
ATOM     49  O   UNL     1      28.469  58.931  14.457  1.00  0.00    -0.504 OA
ATOM     50  H   UNL     1      29.279  59.522  14.594  1.00  0.00     0.293 HD
ENDBRANCH  45  49
BRANCH  46  51
ATOM     51  O   UNL     1      30.506  58.750  12.533  1.00  0.00    -0.502 OA
ATOM     52  H   UNL     1      31.243  58.773  11.837  1.00  0.00     0.293 HD
ENDBRANCH  46  51
ENDBRANCH  39  41
ENDBRANCH  38  39
ENDBRANCH   3  38
BRANCH   5  53
ATOM     53  O   UNL     1      22.347  53.818  15.242  1.00  0.00    -0.428 OA
BRANCH  53  54
ATOM     54  C   UNL     1      21.179  53.415  15.902  1.00  0.00     0.340 C 
ATOM     55  O   UNL     1      21.225  53.059  17.111  1.00  0.00    -0.246 OA
BRANCH  54  56
ATOM     56  C   UNL     1      19.898  53.381  15.160  1.00  0.00     0.067 A 
ATOM     57  C   UNL     1      18.888  54.311  15.457  1.00  0.00     0.066 A 
ATOM     58  C   UNL     1      19.684  52.433  14.147  1.00  0.00     0.066 A 
ATOM     59  C   UNL     1      17.673  54.289  14.757  1.00  0.00     0.162 A 
ATOM     60  C   UNL     1      18.475  52.410  13.439  1.00  0.00     0.162 A 
ATOM     61  C   UNL     1      17.463  53.333  13.748  1.00  0.00     0.200 A 
BRANCH  59  62
ATOM     62  O   UNL     1      16.674  55.210  15.060  1.00  0.00    -0.504 OA
ATOM     63  H   UNL     1      16.087  55.109  15.879  1.00  0.00     0.293 HD
ENDBRANCH  59  62
BRANCH  60  64
ATOM     64  O   UNL     1      18.283  51.456  12.440  1.00  0.00    -0.504 OA
ATOM     65  H   UNL     1      19.022  50.823  12.156  1.00  0.00     0.293 HD
ENDBRANCH  60  64
BRANCH  61  66
ATOM     66  O   UNL     1      16.258  53.291  13.041  1.00  0.00    -0.502 OA
ATOM     67  H   UNL     1      15.514  52.638  13.286  1.00  0.00     0.293 HD
ENDBRANCH  61  66
ENDBRANCH  54  56
ENDBRANCH  53  54
ENDBRANCH   5  53
BRANCH   4  68
ATOM     68  O   UNL     1      22.823  53.426  12.519  1.00  0.00    -0.448 OA
BRANCH  68  69
ATOM     69  C   UNL     1      22.627  52.570  11.425  1.00  0.00     0.339 C 
ATOM     70  O   UNL     1      21.795  51.626  11.503  1.00  0.00    -0.246 OA
BRANCH  69  71
ATOM     71  C   UNL     1      23.365  52.798  10.165  1.00  0.00     0.067 A 
ATOM     72  C   UNL     1      24.009  51.733   9.510  1.00  0.00     0.066 A 
ATOM     73  C   UNL     1      23.429  54.083   9.602  1.00  0.00     0.066 A 
ATOM     74  C   UNL     1      24.678  51.942   8.296  1.00  0.00     0.162 A 
ATOM     75  C   UNL     1      24.107  54.310   8.397  1.00  0.00     0.162 A 
ATOM     76  C   UNL     1      24.722  53.223   7.726  1.00  0.00     0.200 A 
BRANCH  74  77
ATOM     77  O   UNL     1      25.292  50.877   7.637  1.00  0.00    -0.504 OA
ATOM     78  H   UNL     1      26.290  50.740   7.674  1.00  0.00     0.293 HD
ENDBRANCH  74  77
BRANCH  75  79
ATOM     79  O   UNL     1      24.151  55.622   7.916  1.00  0.00    -0.504 OA
ATOM     80  H   UNL     1      24.022  56.439   8.491  1.00  0.00     0.293 HD
ENDBRANCH  75  79
BRANCH  76  81
ATOM     81  O   UNL     1      25.370  53.376   6.498  1.00  0.00    -0.502 OA
ATOM     82  H   UNL     1      24.895  53.341   5.613  1.00  0.00     0.293 HD
ENDBRANCH  76  81
ENDBRANCH  69  71
ENDBRANCH  68  69
ENDBRANCH   4  68
TORSDOF 31
ENDMDL
