MODEL 1
REMARK VINA RESULT:    -4.990      0.000      0.000
REMARK INTER + INTRA:          -9.833
REMARK INTER:                  -8.782
REMARK INTRA:                  -1.052
REMARK UNBOUND:                -1.052
REMARK SMILES CCCCCCCCCCCCCCC(=O)[O-]
REMARK SMILES IDX 9 1 10 2 11 3 12 4 13 5 14 6 15 7 16 8 17 9 8 10 7 11 6 12
REMARK SMILES IDX 5 13 4 14 3 15 2 16 1 17
REMARK H PARENT
REMARK Flexibility Score: inf
ROOT
ATOM      1  C   UNL     1      -7.925  -4.894  -6.653  1.00  0.00     0.000 C 
ENDROOT
BRANCH   1   2
ATOM      2  C   UNL     1      -9.449  -4.881  -6.460  1.00  0.00     0.000 C 
BRANCH   2   3
ATOM      3  C   UNL     1      -9.907  -5.807  -5.319  1.00  0.00     0.000 C 
BRANCH   3   4
ATOM      4  C   UNL     1     -10.942  -5.140  -4.398  1.00  0.00     0.000 C 
BRANCH   4   5
ATOM      5  C   UNL     1     -10.493  -3.753  -3.905  1.00  0.00     0.006 C 
BRANCH   5   6
ATOM      6  C   UNL     1     -10.341  -3.703  -2.380  1.00  0.00     0.053 C 
BRANCH   6   7
ATOM      7  C   UNL     1      -8.922  -3.453  -1.970  1.00  0.00     0.041 C 
ATOM      8  O   UNL     1      -8.266  -4.350  -1.379  1.00  0.00    -0.550 OA
ATOM      9  O   UNL     1      -8.312  -2.242  -2.274  1.00  0.00    -0.550 OA
ENDBRANCH   6   7
ENDBRANCH   5   6
ENDBRANCH   4   5
ENDBRANCH   3   4
ENDBRANCH   2   3
ENDBRANCH   1   2
BRANCH   1  10
ATOM     10  C   UNL     1      -7.512  -5.128  -8.115  1.00  0.00     0.000 C 
BRANCH  10  11
ATOM     11  C   UNL     1      -6.534  -6.303  -8.229  1.00  0.00    -0.000 C 
BRANCH  11  12
ATOM     12  C   UNL     1      -6.037  -6.741  -6.844  1.00  0.00    -0.000 C 
BRANCH  12  13
ATOM     13  C   UNL     1      -4.504  -6.722  -6.728  1.00  0.00    -0.000 C 
BRANCH  13  14
ATOM     14  C   UNL     1      -4.006  -5.745  -5.648  1.00  0.00    -0.000 C 
BRANCH  14  15
ATOM     15  C   UNL     1      -4.202  -4.275  -6.049  1.00  0.00    -0.000 C 
BRANCH  15  16
ATOM     16  C   UNL     1      -3.009  -3.390  -5.660  1.00  0.00    -0.003 C 
ATOM     17  C   UNL     1      -3.296  -1.920  -5.953  1.00  0.00     0.004 C 
ENDBRANCH  15  16
ENDBRANCH  14  15
ENDBRANCH  13  14
ENDBRANCH  12  13
ENDBRANCH  11  12
ENDBRANCH  10  11
ENDBRANCH   1  10
TORSDOF 13
ENDMDL
MODEL 2
REMARK VINA RESULT:    -4.922      1.247      2.045
REMARK INTER + INTRA:          -9.715
REMARK INTER:                  -8.859
REMARK INTRA:                  -0.856
REMARK UNBOUND:                -1.052
REMARK SMILES CCCCCCCCCCCCCCC(=O)[O-]
REMARK SMILES IDX 9 1 10 2 11 3 12 4 13 5 14 6 15 7 16 8 17 9 8 10 7 11 6 12
REMARK SMILES IDX 5 13 4 14 3 15 2 16 1 17
REMARK H PARENT
REMARK Flexibility Score: inf
ROOT
ATOM      1  C   UNL     1      -9.815  -5.103  -5.294  1.00  0.00     0.000 C 
ENDROOT
BRANCH   1   2
ATOM      2  C   UNL     1     -10.282  -3.841  -4.552  1.00  0.00     0.000 C 
BRANCH   2   3
ATOM      3  C   UNL     1     -11.030  -4.166  -3.247  1.00  0.00     0.000 C 
BRANCH   3   4
ATOM      4  C   UNL     1     -10.916  -3.040  -2.206  1.00  0.00     0.000 C 
BRANCH   4   5
ATOM      5  C   UNL     1     -10.000  -3.411  -1.027  1.00  0.00     0.006 C 
BRANCH   5   6
ATOM      6  C   UNL     1      -8.516  -3.371  -1.412  1.00  0.00     0.053 C 
BRANCH   6   7
ATOM      7  C   UNL     1      -8.116  -2.030  -1.944  1.00  0.00     0.041 C 
ATOM      8  O   UNL     1      -8.099  -1.026  -1.183  1.00  0.00    -0.550 OA
ATOM      9  O   UNL     1      -7.725  -1.894  -3.270  1.00  0.00    -0.550 OA
ENDBRANCH   6   7
ENDBRANCH   5   6
ENDBRANCH   4   5
ENDBRANCH   3   4
ENDBRANCH   2   3
ENDBRANCH   1   2
BRANCH   1  10
ATOM     10  C   UNL     1      -8.495  -4.893  -6.052  1.00  0.00     0.000 C 
BRANCH  10  11
ATOM     11  C   UNL     1      -7.456  -5.947  -5.650  1.00  0.00    -0.000 C 
BRANCH  11  12
ATOM     12  C   UNL     1      -6.251  -5.922  -6.601  1.00  0.00    -0.000 C 
BRANCH  12  13
ATOM     13  C   UNL     1      -5.042  -6.695  -6.050  1.00  0.00    -0.000 C 
BRANCH  13  14
ATOM     14  C   UNL     1      -3.839  -5.779  -5.757  1.00  0.00    -0.000 C 
BRANCH  14  15
ATOM     15  C   UNL     1      -4.152  -4.297  -6.014  1.00  0.00    -0.000 C 
BRANCH  15  16
ATOM     16  C   UNL     1      -3.006  -3.367  -5.589  1.00  0.00    -0.003 C 
ATOM     17  C   UNL     1      -3.274  -1.930  -6.025  1.00  0.00     0.004 C 
ENDBRANCH  15  16
ENDBRANCH  14  15
ENDBRANCH  13  14
ENDBRANCH  12  13
ENDBRANCH  11  12
ENDBRANCH  10  11
ENDBRANCH   1  10
TORSDOF 13
ENDMDL
MODEL 3
REMARK VINA RESULT:    -4.610      0.969      1.386
REMARK INTER + INTRA:          -9.166
REMARK INTER:                  -8.179
REMARK INTRA:                  -0.987
REMARK UNBOUND:                -1.052
REMARK SMILES CCCCCCCCCCCCCCC(=O)[O-]
REMARK SMILES IDX 9 1 10 2 11 3 12 4 13 5 14 6 15 7 16 8 17 9 8 10 7 11 6 12
REMARK SMILES IDX 5 13 4 14 3 15 2 16 1 17
REMARK H PARENT
REMARK Flexibility Score: inf
ROOT
ATOM      1  C   UNL     1      -8.384  -4.675  -8.488  1.00  0.00     0.000 C 
ENDROOT
BRANCH   1   2
ATOM      2  C   UNL     1      -9.833  -5.035  -8.126  1.00  0.00     0.000 C 
BRANCH   2   3
ATOM      3  C   UNL     1      -9.953  -5.658  -6.723  1.00  0.00     0.000 C 
BRANCH   3   4
ATOM      4  C   UNL     1     -10.622  -4.710  -5.713  1.00  0.00     0.000 C 
BRANCH   4   5
ATOM      5  C   UNL     1     -10.557  -5.237  -4.269  1.00  0.00     0.006 C 
BRANCH   5   6
ATOM      6  C   UNL     1     -10.633  -4.107  -3.237  1.00  0.00     0.053 C 
BRANCH   6   7
ATOM      7  C   UNL     1      -9.271  -3.638  -2.824  1.00  0.00     0.041 C 
ATOM      8  O   UNL     1      -8.687  -2.734  -3.479  1.00  0.00    -0.550 OA
ATOM      9  O   UNL     1      -8.663  -4.171  -1.694  1.00  0.00    -0.550 OA
ENDBRANCH   6   7
ENDBRANCH   5   6
ENDBRANCH   4   5
ENDBRANCH   3   4
ENDBRANCH   2   3
ENDBRANCH   1   2
BRANCH   1  10
ATOM     10  C   UNL     1      -7.400  -4.935  -7.336  1.00  0.00     0.000 C 
BRANCH  10  11
ATOM     11  C   UNL     1      -6.145  -5.660  -7.837  1.00  0.00    -0.000 C 
BRANCH  11  12
ATOM     12  C   UNL     1      -5.725  -6.769  -6.862  1.00  0.00    -0.000 C 
BRANCH  12  13
ATOM     13  C   UNL     1      -4.961  -6.229  -5.641  1.00  0.00    -0.000 C 
BRANCH  13  14
ATOM     14  C   UNL     1      -3.462  -6.028  -5.924  1.00  0.00    -0.000 C 
BRANCH  14  15
ATOM     15  C   UNL     1      -2.970  -4.628  -5.526  1.00  0.00    -0.000 C 
BRANCH  15  16
ATOM     16  C   UNL     1      -3.931  -3.514  -5.968  1.00  0.00    -0.003 C 
ATOM     17  C   UNL     1      -3.248  -2.150  -5.924  1.00  0.00     0.004 C 
ENDBRANCH  15  16
ENDBRANCH  14  15
ENDBRANCH  13  14
ENDBRANCH  12  13
ENDBRANCH  11  12
ENDBRANCH  10  11
ENDBRANCH   1  10
TORSDOF 13
ENDMDL
MODEL 4
REMARK VINA RESULT:    -4.605      2.928      6.056
REMARK INTER + INTRA:          -9.156
REMARK INTER:                  -7.963
REMARK INTRA:                  -1.193
REMARK UNBOUND:                -1.052
REMARK SMILES CCCCCCCCCCCCCCC(=O)[O-]
REMARK SMILES IDX 9 1 10 2 11 3 12 4 13 5 14 6 15 7 16 8 17 9 8 10 7 11 6 12
REMARK SMILES IDX 5 13 4 14 3 15 2 16 1 17
REMARK H PARENT
REMARK Flexibility Score: inf
ROOT
ATOM      1  C   UNL     1      -8.952  -4.387  -6.591  1.00  0.00     0.000 C 
ENDROOT
BRANCH   1   2
ATOM      2  C   UNL     1      -9.484  -5.087  -7.852  1.00  0.00     0.000 C 
BRANCH   2   3
ATOM      3  C   UNL     1      -8.503  -6.136  -8.403  1.00  0.00     0.000 C 
BRANCH   3   4
ATOM      4  C   UNL     1      -7.243  -5.501  -9.015  1.00  0.00     0.000 C 
BRANCH   4   5
ATOM      5  C   UNL     1      -5.942  -6.133  -8.487  1.00  0.00     0.006 C 
BRANCH   5   6
ATOM      6  C   UNL     1      -5.658  -5.743  -7.032  1.00  0.00     0.053 C 
BRANCH   6   7
ATOM      7  C   UNL     1      -5.058  -6.877  -6.259  1.00  0.00     0.041 C 
ATOM      8  O   UNL     1      -5.716  -7.933  -6.070  1.00  0.00    -0.550 OA
ATOM      9  O   UNL     1      -3.757  -6.782  -5.780  1.00  0.00    -0.550 OA
ENDBRANCH   6   7
ENDBRANCH   5   6
ENDBRANCH   4   5
ENDBRANCH   3   4
ENDBRANCH   2   3
ENDBRANCH   1   2
BRANCH   1  10
ATOM     10  C   UNL     1      -9.094  -5.250  -5.327  1.00  0.00     0.000 C 
BRANCH  10  11
ATOM     11  C   UNL     1     -10.542  -5.720  -5.143  1.00  0.00    -0.000 C 
BRANCH  11  12
ATOM     12  C   UNL     1     -11.118  -5.215  -3.811  1.00  0.00    -0.000 C 
BRANCH  12  13
ATOM     13  C   UNL     1     -10.754  -3.749  -3.524  1.00  0.00    -0.000 C 
BRANCH  13  14
ATOM     14  C   UNL     1     -11.044  -3.343  -2.067  1.00  0.00    -0.000 C 
BRANCH  14  15
ATOM     15  C   UNL     1      -9.787  -3.380  -1.184  1.00  0.00    -0.000 C 
BRANCH  15  16
ATOM     16  C   UNL     1      -8.493  -3.189  -1.988  1.00  0.00    -0.003 C 
ATOM     17  C   UNL     1      -7.815  -1.869  -1.634  1.00  0.00     0.004 C 
ENDBRANCH  15  16
ENDBRANCH  14  15
ENDBRANCH  13  14
ENDBRANCH  12  13
ENDBRANCH  11  12
ENDBRANCH  10  11
ENDBRANCH   1  10
TORSDOF 13
ENDMDL
MODEL 5
REMARK VINA RESULT:    -4.576      2.415      6.081
REMARK INTER + INTRA:          -9.104
REMARK INTER:                  -7.977
REMARK INTRA:                  -1.127
REMARK UNBOUND:                -1.052
REMARK SMILES CCCCCCCCCCCCCCC(=O)[O-]
REMARK SMILES IDX 9 1 10 2 11 3 12 4 13 5 14 6 15 7 16 8 17 9 8 10 7 11 6 12
REMARK SMILES IDX 5 13 4 14 3 15 2 16 1 17
REMARK H PARENT
REMARK Flexibility Score: inf
ROOT
ATOM      1  C   UNL     1      -7.951  -5.151  -5.215  1.00  0.00     0.000 C 
ENDROOT
BRANCH   1   2
ATOM      2  C   UNL     1      -7.501  -6.317  -6.110  1.00  0.00     0.000 C 
BRANCH   2   3
ATOM      3  C   UNL     1      -6.291  -7.071  -5.531  1.00  0.00     0.000 C 
BRANCH   3   4
ATOM      4  C   UNL     1      -5.006  -6.837  -6.344  1.00  0.00     0.000 C 
BRANCH   4   5
ATOM      5  C   UNL     1      -4.057  -5.827  -5.677  1.00  0.00     0.006 C 
BRANCH   5   6
ATOM      6  C   UNL     1      -4.364  -4.383  -6.092  1.00  0.00     0.053 C 
BRANCH   6   7
ATOM      7  C   UNL     1      -3.288  -3.437  -5.655  1.00  0.00     0.041 C 
ATOM      8  O   UNL     1      -2.080  -3.791  -5.693  1.00  0.00    -0.550 OA
ATOM      9  O   UNL     1      -3.616  -2.152  -5.240  1.00  0.00    -0.550 OA
ENDBRANCH   6   7
ENDBRANCH   5   6
ENDBRANCH   4   5
ENDBRANCH   3   4
ENDBRANCH   2   3
ENDBRANCH   1   2
BRANCH   1  10
ATOM     10  C   UNL     1      -9.298  -4.553  -5.650  1.00  0.00     0.000 C 
BRANCH  10  11
ATOM     11  C   UNL     1     -10.453  -5.513  -5.337  1.00  0.00    -0.000 C 
BRANCH  11  12
ATOM     12  C   UNL     1     -11.107  -5.165  -3.991  1.00  0.00    -0.000 C 
BRANCH  12  13
ATOM     13  C   UNL     1     -10.884  -3.699  -3.583  1.00  0.00    -0.000 C 
BRANCH  13  14
ATOM     14  C   UNL     1     -11.029  -3.480  -2.066  1.00  0.00    -0.000 C 
BRANCH  14  15
ATOM     15  C   UNL     1      -9.672  -3.354  -1.357  1.00  0.00    -0.000 C 
BRANCH  15  16
ATOM     16  C   UNL     1      -8.569  -2.816  -2.279  1.00  0.00    -0.003 C 
ATOM     17  C   UNL     1      -7.763  -1.718  -1.590  1.00  0.00     0.004 C 
ENDBRANCH  15  16
ENDBRANCH  14  15
ENDBRANCH  13  14
ENDBRANCH  12  13
ENDBRANCH  11  12
ENDBRANCH  10  11
ENDBRANCH   1  10
TORSDOF 13
ENDMDL
MODEL 6
REMARK VINA RESULT:    -4.490      1.317      2.558
REMARK INTER + INTRA:          -8.954
REMARK INTER:                  -7.551
REMARK INTRA:                  -1.403
REMARK UNBOUND:                -1.052
REMARK SMILES CCCCCCCCCCCCCCC(=O)[O-]
REMARK SMILES IDX 9 1 10 2 11 3 12 4 13 5 14 6 15 7 16 8 17 9 8 10 7 11 6 12
REMARK SMILES IDX 5 13 4 14 3 15 2 16 1 17
REMARK H PARENT
REMARK Flexibility Score: inf
ROOT
ATOM      1  C   UNL     1     -10.599  -4.106  -7.100  1.00  0.00     0.000 C 
ENDROOT
BRANCH   1   2
ATOM      2  C   UNL     1      -9.707  -4.077  -5.849  1.00  0.00     0.000 C 
BRANCH   2   3
ATOM      3  C   UNL     1      -9.881  -5.329  -4.971  1.00  0.00     0.000 C 
BRANCH   3   4
ATOM      4  C   UNL     1     -10.976  -5.153  -3.905  1.00  0.00     0.000 C 
BRANCH   4   5
ATOM      5  C   UNL     1     -11.117  -3.696  -3.431  1.00  0.00     0.006 C 
BRANCH   5   6
ATOM      6  C   UNL     1     -10.653  -3.512  -1.981  1.00  0.00     0.053 C 
BRANCH   6   7
ATOM      7  C   UNL     1      -9.173  -3.298  -1.893  1.00  0.00     0.041 C 
ATOM      8  O   UNL     1      -8.681  -2.168  -2.148  1.00  0.00    -0.550 OA
ATOM      9  O   UNL     1      -8.342  -4.337  -1.493  1.00  0.00    -0.550 OA
ENDBRANCH   6   7
ENDBRANCH   5   6
ENDBRANCH   4   5
ENDBRANCH   3   4
ENDBRANCH   2   3
ENDBRANCH   1   2
BRANCH   1  10
ATOM     10  C   UNL     1      -9.984  -4.921  -8.249  1.00  0.00     0.000 C 
BRANCH  10  11
ATOM     11  C   UNL     1      -9.173  -4.022  -9.189  1.00  0.00    -0.000 C 
BRANCH  11  12
ATOM     12  C   UNL     1      -7.706  -4.470  -9.249  1.00  0.00    -0.000 C 
BRANCH  12  13
ATOM     13  C   UNL     1      -7.515  -5.938  -8.834  1.00  0.00    -0.000 C 
BRANCH  13  14
ATOM     14  C   UNL     1      -6.260  -6.149  -7.968  1.00  0.00    -0.000 C 
BRANCH  14  15
ATOM     15  C   UNL     1      -6.216  -5.205  -6.755  1.00  0.00    -0.000 C 
BRANCH  15  16
ATOM     16  C   UNL     1      -4.800  -5.035  -6.187  1.00  0.00    -0.003 C 
ATOM     17  C   UNL     1      -4.153  -6.389  -5.908  1.00  0.00     0.004 C 
ENDBRANCH  15  16
ENDBRANCH  14  15
ENDBRANCH  13  14
ENDBRANCH  12  13
ENDBRANCH  11  12
ENDBRANCH  10  11
ENDBRANCH   1  10
TORSDOF 13
ENDMDL
MODEL 7
REMARK VINA RESULT:    -4.431      1.735      3.106
REMARK INTER + INTRA:          -8.850
REMARK INTER:                  -7.362
REMARK INTRA:                  -1.488
REMARK UNBOUND:                -1.052
REMARK SMILES CCCCCCCCCCCCCCC(=O)[O-]
REMARK SMILES IDX 9 1 10 2 11 3 12 4 13 5 14 6 15 7 16 8 17 9 8 10 7 11 6 12
REMARK SMILES IDX 5 13 4 14 3 15 2 16 1 17
REMARK H PARENT
REMARK Flexibility Score: inf
ROOT
ATOM      1  C   UNL     1      -9.016  -4.535  -4.898  1.00  0.00     0.000 C 
ENDROOT
BRANCH   1   2
ATOM      2  C   UNL     1      -9.984  -3.347  -5.018  1.00  0.00     0.000 C 
BRANCH   2   3
ATOM      3  C   UNL     1     -11.120  -3.404  -3.982  1.00  0.00     0.000 C 
BRANCH   3   4
ATOM      4  C   UNL     1     -10.686  -4.074  -2.668  1.00  0.00     0.000 C 
BRANCH   4   5
ATOM      5  C   UNL     1     -10.130  -3.070  -1.643  1.00  0.00     0.006 C 
BRANCH   5   6
ATOM      6  C   UNL     1      -8.597  -3.056  -1.621  1.00  0.00     0.053 C 
BRANCH   6   7
ATOM      7  C   UNL     1      -8.051  -1.675  -1.818  1.00  0.00     0.041 C 
ATOM      8  O   UNL     1      -8.456  -0.725  -1.097  1.00  0.00    -0.550 OA
ATOM      9  O   UNL     1      -7.068  -1.444  -2.772  1.00  0.00    -0.550 OA
ENDBRANCH   6   7
ENDBRANCH   5   6
ENDBRANCH   4   5
ENDBRANCH   3   4
ENDBRANCH   2   3
ENDBRANCH   1   2
BRANCH   1  10
ATOM     10  C   UNL     1      -9.487  -5.768  -5.685  1.00  0.00     0.000 C 
BRANCH  10  11
ATOM     11  C   UNL     1      -9.979  -5.373  -7.082  1.00  0.00    -0.000 C 
BRANCH  11  12
ATOM     12  C   UNL     1      -8.950  -5.756  -8.156  1.00  0.00    -0.000 C 
BRANCH  12  13
ATOM     13  C   UNL     1      -7.951  -4.626  -8.453  1.00  0.00    -0.000 C 
BRANCH  13  14
ATOM     14  C   UNL     1      -6.555  -4.904  -7.869  1.00  0.00    -0.000 C 
BRANCH  14  15
ATOM     15  C   UNL     1      -6.234  -6.405  -7.797  1.00  0.00    -0.000 C 
BRANCH  15  16
ATOM     16  C   UNL     1      -5.458  -6.785  -6.527  1.00  0.00    -0.003 C 
ATOM     17  C   UNL     1      -4.680  -5.592  -5.981  1.00  0.00     0.004 C 
ENDBRANCH  15  16
ENDBRANCH  14  15
ENDBRANCH  13  14
ENDBRANCH  12  13
ENDBRANCH  11  12
ENDBRANCH  10  11
ENDBRANCH   1  10
TORSDOF 13
ENDMDL
MODEL 8
REMARK VINA RESULT:    -4.349      2.986      5.828
REMARK INTER + INTRA:          -8.705
REMARK INTER:                  -7.417
REMARK INTRA:                  -1.288
REMARK UNBOUND:                -1.052
REMARK SMILES CCCCCCCCCCCCCCC(=O)[O-]
REMARK SMILES IDX 9 1 10 2 11 3 12 4 13 5 14 6 15 7 16 8 17 9 8 10 7 11 6 12
REMARK SMILES IDX 5 13 4 14 3 15 2 16 1 17
REMARK H PARENT
REMARK Flexibility Score: inf
ROOT
ATOM      1  C   UNL     1      -9.945  -4.729  -8.130  1.00  0.00     0.000 C 
ENDROOT
BRANCH   1   2
ATOM      2  C   UNL     1      -9.136  -4.621  -9.431  1.00  0.00     0.000 C 
BRANCH   2   3
ATOM      3  C   UNL     1      -7.660  -4.261  -9.180  1.00  0.00     0.000 C 
BRANCH   3   4
ATOM      4  C   UNL     1      -6.905  -5.367  -8.424  1.00  0.00     0.000 C 
BRANCH   4   5
ATOM      5  C   UNL     1      -6.426  -4.916  -7.033  1.00  0.00     0.006 C 
BRANCH   5   6
ATOM      6  C   UNL     1      -6.618  -6.007  -5.973  1.00  0.00     0.053 C 
BRANCH   6   7
ATOM      7  C   UNL     1      -5.539  -7.044  -6.040  1.00  0.00     0.041 C 
ATOM      8  O   UNL     1      -5.821  -8.262  -5.889  1.00  0.00    -0.550 OA
ATOM      9  O   UNL     1      -4.228  -6.669  -6.308  1.00  0.00    -0.550 OA
ENDBRANCH   6   7
ENDBRANCH   5   6
ENDBRANCH   4   5
ENDBRANCH   3   4
ENDBRANCH   2   3
ENDBRANCH   1   2
BRANCH   1  10
ATOM     10  C   UNL     1     -10.460  -6.152  -7.865  1.00  0.00     0.000 C 
BRANCH  10  11
ATOM     11  C   UNL     1     -11.122  -6.250  -6.486  1.00  0.00    -0.000 C 
BRANCH  11  12
ATOM     12  C   UNL     1     -10.222  -5.643  -5.399  1.00  0.00    -0.000 C 
BRANCH  12  13
ATOM     13  C   UNL     1     -11.010  -5.193  -4.158  1.00  0.00    -0.000 C 
BRANCH  13  14
ATOM     14  C   UNL     1     -10.583  -3.800  -3.661  1.00  0.00    -0.000 C 
BRANCH  14  15
ATOM     15  C   UNL     1      -9.100  -3.745  -3.263  1.00  0.00    -0.000 C 
BRANCH  15  16
ATOM     16  C   UNL     1      -8.894  -3.760  -1.742  1.00  0.00    -0.003 C 
ATOM     17  C   UNL     1     -10.146  -3.284  -1.012  1.00  0.00     0.004 C 
ENDBRANCH  15  16
ENDBRANCH  14  15
ENDBRANCH  13  14
ENDBRANCH  12  13
ENDBRANCH  11  12
ENDBRANCH  10  11
ENDBRANCH   1  10
TORSDOF 13
ENDMDL
MODEL 9
REMARK VINA RESULT:    -4.339      2.956      6.200
REMARK INTER + INTRA:          -8.688
REMARK INTER:                  -7.805
REMARK INTRA:                  -0.882
REMARK UNBOUND:                -1.052
REMARK SMILES CCCCCCCCCCCCCCC(=O)[O-]
REMARK SMILES IDX 9 1 10 2 11 3 12 4 13 5 14 6 15 7 16 8 17 9 8 10 7 11 6 12
REMARK SMILES IDX 5 13 4 14 3 15 2 16 1 17
REMARK H PARENT
REMARK Flexibility Score: inf
ROOT
ATOM      1  C   UNL     1     -10.750  -5.313  -3.959  1.00  0.00     0.000 C 
ENDROOT
BRANCH   1   2
ATOM      2  C   UNL     1     -10.115  -5.751  -5.288  1.00  0.00     0.000 C 
BRANCH   2   3
ATOM      3  C   UNL     1      -8.912  -4.878  -5.684  1.00  0.00     0.000 C 
BRANCH   3   4
ATOM      4  C   UNL     1      -8.575  -4.982  -7.181  1.00  0.00     0.000 C 
BRANCH   4   5
ATOM      5  C   UNL     1      -7.167  -5.547  -7.436  1.00  0.00     0.006 C 
BRANCH   5   6
ATOM      6  C   UNL     1      -6.544  -6.143  -6.167  1.00  0.00     0.053 C 
BRANCH   6   7
ATOM      7  C   UNL     1      -5.067  -5.898  -6.105  1.00  0.00     0.041 C 
ATOM      8  O   UNL     1      -4.617  -4.723  -6.168  1.00  0.00    -0.550 OA
ATOM      9  O   UNL     1      -4.190  -6.963  -5.941  1.00  0.00    -0.550 OA
ENDBRANCH   6   7
ENDBRANCH   5   6
ENDBRANCH   4   5
ENDBRANCH   3   4
ENDBRANCH   2   3
ENDBRANCH   1   2
BRANCH   1  10
ATOM     10  C   UNL     1     -10.204  -3.968  -3.455  1.00  0.00     0.000 C 
BRANCH  10  11
ATOM     11  C   UNL     1     -10.911  -3.537  -2.164  1.00  0.00    -0.000 C 
BRANCH  11  12
ATOM     12  C   UNL     1      -9.902  -3.000  -1.137  1.00  0.00    -0.000 C 
BRANCH  12  13
ATOM     13  C   UNL     1      -8.443  -3.202  -1.576  1.00  0.00    -0.000 C 
BRANCH  13  14
ATOM     14  C   UNL     1      -7.709  -1.871  -1.819  1.00  0.00    -0.000 C 
BRANCH  14  15
ATOM     15  C   UNL     1      -8.367  -0.693  -1.083  1.00  0.00    -0.000 C 
BRANCH  15  16
ATOM     16  C   UNL     1      -7.546   0.601  -1.182  1.00  0.00    -0.003 C 
ATOM     17  C   UNL     1      -8.355   1.803  -0.704  1.00  0.00     0.004 C 
ENDBRANCH  15  16
ENDBRANCH  14  15
ENDBRANCH  13  14
ENDBRANCH  12  13
ENDBRANCH  11  12
ENDBRANCH  10  11
ENDBRANCH   1  10
TORSDOF 13
ENDMDL
