MODEL 1
REMARK VINA RESULT:    -4.332      0.000      0.000
REMARK INTER + INTRA:          -6.297
REMARK INTER:                  -5.852
REMARK INTRA:                  -0.446
REMARK UNBOUND:                -0.446
REMARK SMILES O=C[C@@H](O)[C@H](O)[C@@H](O)CO
REMARK SMILES IDX 7 1 9 2 10 3 5 5 3 6 2 7 1 8 4 9 6 11 8 13
REMARK H PARENT 10 4 4 10 6 12 8 14
REMARK Flexibility Score: inf
ROOT
ATOM      1  C   UNL     1       2.598  56.410  30.424  1.00  0.00     0.171 C 
ENDROOT
BRANCH   1   2
ATOM      2  C   UNL     1       1.489  55.576  29.743  1.00  0.00     0.190 C 
BRANCH   2   3
ATOM      3  O   UNL     1       0.309  56.329  29.644  1.00  0.00    -0.394 OA
ATOM      4  H   UNL     1      -0.432  55.736  29.938  1.00  0.00     0.210 HD
ENDBRANCH   2   3
ENDBRANCH   1   2
BRANCH   1   5
ATOM      5  C   UNL     1       2.561  56.392  31.982  1.00  0.00     0.181 C 
BRANCH   5   6
ATOM      6  C   UNL     1       2.613  54.985  32.646  1.00  0.00     0.209 C 
BRANCH   6   7
ATOM      7  C   UNL     1       4.022  54.484  32.841  1.00  0.00     0.258 C 
ATOM      8  O   UNL     1       4.558  53.784  31.997  1.00  0.00    -0.300 OA
ENDBRANCH   6   7
BRANCH   6   9
ATOM      9  O   UNL     1       1.941  54.995  33.882  1.00  0.00    -0.383 OA
ATOM     10  H   UNL     1       1.620  55.921  34.045  1.00  0.00     0.211 HD
ENDBRANCH   6   9
ENDBRANCH   5   6
BRANCH   5  11
ATOM     11  O   UNL     1       1.440  57.106  32.442  1.00  0.00    -0.387 OA
ATOM     12  H   UNL     1       0.647  56.783  31.944  1.00  0.00     0.211 HD
ENDBRANCH   5  11
ENDBRANCH   1   5
BRANCH   1  13
ATOM     13  O   UNL     1       3.875  56.059  29.948  1.00  0.00    -0.388 OA
ATOM     14  H   UNL     1       3.781  55.694  29.032  1.00  0.00     0.211 HD
ENDBRANCH   1  13
TORSDOF 8
ENDMDL
MODEL 2
REMARK VINA RESULT:    -4.312      1.372      2.154
REMARK INTER + INTRA:          -6.270
REMARK INTER:                  -5.524
REMARK INTRA:                  -0.746
REMARK UNBOUND:                -0.446
REMARK SMILES O=C[C@@H](O)[C@H](O)[C@@H](O)CO
REMARK SMILES IDX 7 1 9 2 10 3 5 5 3 6 2 7 1 8 4 9 6 11 8 13
REMARK H PARENT 10 4 4 10 6 12 8 14
REMARK Flexibility Score: inf
ROOT
ATOM      1  C   UNL     1       1.783  55.276  30.945  1.00  0.00     0.171 C 
ENDROOT
BRANCH   1   2
ATOM      2  C   UNL     1       1.139  55.255  29.539  1.00  0.00     0.190 C 
BRANCH   2   3
ATOM      3  O   UNL     1       0.292  56.361  29.378  1.00  0.00    -0.394 OA
ATOM      4  H   UNL     1      -0.391  56.304  30.097  1.00  0.00     0.210 HD
ENDBRANCH   2   3
ENDBRANCH   1   2
BRANCH   1   5
ATOM      5  C   UNL     1       3.310  54.971  30.964  1.00  0.00     0.181 C 
BRANCH   5   6
ATOM      6  C   UNL     1       3.961  54.841  32.372  1.00  0.00     0.209 C 
BRANCH   6   7
ATOM      7  C   UNL     1       4.739  56.069  32.770  1.00  0.00     0.258 C 
ATOM      8  O   UNL     1       4.236  57.179  32.695  1.00  0.00    -0.300 OA
ENDBRANCH   6   7
BRANCH   6   9
ATOM      9  O   UNL     1       2.984  54.566  33.346  1.00  0.00    -0.383 OA
ATOM     10  H   UNL     1       3.448  54.446  34.216  1.00  0.00     0.211 HD
ENDBRANCH   6   9
ENDBRANCH   5   6
BRANCH   5  11
ATOM     11  O   UNL     1       3.999  55.929  30.196  1.00  0.00    -0.387 OA
ATOM     12  H   UNL     1       4.051  55.593  29.266  1.00  0.00     0.211 HD
ENDBRANCH   5  11
ENDBRANCH   1   5
BRANCH   1  13
ATOM     13  O   UNL     1       1.502  56.476  31.625  1.00  0.00    -0.388 OA
ATOM     14  H   UNL     1       0.900  56.274  32.385  1.00  0.00     0.211 HD
ENDBRANCH   1  13
TORSDOF 8
ENDMDL
MODEL 3
REMARK VINA RESULT:    -4.250      1.689      2.446
REMARK INTER + INTRA:          -6.186
REMARK INTER:                  -5.248
REMARK INTRA:                  -0.939
REMARK UNBOUND:                -0.446
REMARK SMILES O=C[C@@H](O)[C@H](O)[C@@H](O)CO
REMARK SMILES IDX 7 1 9 2 10 3 5 5 3 6 2 7 1 8 4 9 6 11 8 13
REMARK H PARENT 10 4 4 10 6 12 8 14
REMARK Flexibility Score: inf
ROOT
ATOM      1  C   UNL     1       2.717  55.291  29.839  1.00  0.00     0.171 C 
ENDROOT
BRANCH   1   2
ATOM      2  C   UNL     1       1.306  54.781  29.468  1.00  0.00     0.190 C 
BRANCH   2   3
ATOM      3  O   UNL     1       0.391  55.845  29.467  1.00  0.00    -0.394 OA
ATOM      4  H   UNL     1      -0.045  55.844  28.575  1.00  0.00     0.210 HD
ENDBRANCH   2   3
ENDBRANCH   1   2
BRANCH   1   5
ATOM      5  C   UNL     1       2.734  56.577  30.718  1.00  0.00     0.181 C 
BRANCH   5   6
ATOM      6  C   UNL     1       4.124  57.250  30.914  1.00  0.00     0.209 C 
BRANCH   6   7
ATOM      7  C   UNL     1       4.739  56.937  32.253  1.00  0.00     0.258 C 
ATOM      8  O   UNL     1       4.870  55.782  32.626  1.00  0.00    -0.300 OA
ENDBRANCH   6   7
BRANCH   6   9
ATOM      9  O   UNL     1       5.007  56.869  29.888  1.00  0.00    -0.383 OA
ATOM     10  H   UNL     1       5.425  56.007  30.151  1.00  0.00     0.211 HD
ENDBRANCH   6   9
ENDBRANCH   5   6
BRANCH   5  11
ATOM     11  O   UNL     1       2.142  56.309  31.967  1.00  0.00    -0.387 OA
ATOM     12  H   UNL     1       2.857  56.330  32.653  1.00  0.00     0.211 HD
ENDBRANCH   5  11
ENDBRANCH   1   5
BRANCH   1  13
ATOM     13  O   UNL     1       3.498  54.274  30.421  1.00  0.00    -0.388 OA
ATOM     14  H   UNL     1       2.918  53.732  31.014  1.00  0.00     0.211 HD
ENDBRANCH   1  13
TORSDOF 8
ENDMDL
MODEL 4
REMARK VINA RESULT:    -4.238      1.730      3.048
REMARK INTER + INTRA:          -6.170
REMARK INTER:                  -5.700
REMARK INTRA:                  -0.470
REMARK UNBOUND:                -0.446
REMARK SMILES O=C[C@@H](O)[C@H](O)[C@@H](O)CO
REMARK SMILES IDX 7 1 9 2 10 3 5 5 3 6 2 7 1 8 4 9 6 11 8 13
REMARK H PARENT 10 4 4 10 6 12 8 14
REMARK Flexibility Score: inf
ROOT
ATOM      1  C   UNL     1       1.942  55.254  30.932  1.00  0.00     0.171 C 
ENDROOT
BRANCH   1   2
ATOM      2  C   UNL     1       1.228  55.162  29.563  1.00  0.00     0.190 C 
BRANCH   2   3
ATOM      3  O   UNL     1       0.338  56.235  29.409  1.00  0.00    -0.394 OA
ATOM      4  H   UNL     1      -0.549  55.918  29.725  1.00  0.00     0.210 HD
ENDBRANCH   2   3
ENDBRANCH   1   2
BRANCH   1   5
ATOM      5  C   UNL     1       3.481  55.020  30.878  1.00  0.00     0.181 C 
BRANCH   5   6
ATOM      6  C   UNL     1       4.365  56.302  30.882  1.00  0.00     0.209 C 
BRANCH   6   7
ATOM      7  C   UNL     1       5.765  56.046  30.387  1.00  0.00     0.258 C 
ATOM      8  O   UNL     1       6.023  56.085  29.194  1.00  0.00    -0.300 OA
ENDBRANCH   6   7
BRANCH   6   9
ATOM      9  O   UNL     1       3.770  57.316  30.111  1.00  0.00    -0.383 OA
ATOM     10  H   UNL     1       3.495  56.917  29.243  1.00  0.00     0.211 HD
ENDBRANCH   6   9
ENDBRANCH   5   6
BRANCH   5  11
ATOM     11  O   UNL     1       3.804  54.210  29.773  1.00  0.00    -0.387 OA
ATOM     12  H   UNL     1       4.398  54.732  29.177  1.00  0.00     0.211 HD
ENDBRANCH   5  11
ENDBRANCH   1   5
BRANCH   1  13
ATOM     13  O   UNL     1       1.640  56.460  31.593  1.00  0.00    -0.388 OA
ATOM     14  H   UNL     1       0.929  56.284  32.260  1.00  0.00     0.211 HD
ENDBRANCH   1  13
TORSDOF 8
ENDMDL
MODEL 5
REMARK VINA RESULT:    -4.236      1.563      2.054
REMARK INTER + INTRA:          -6.167
REMARK INTER:                  -5.517
REMARK INTRA:                  -0.650
REMARK UNBOUND:                -0.446
REMARK SMILES O=C[C@@H](O)[C@H](O)[C@@H](O)CO
REMARK SMILES IDX 7 1 9 2 10 3 5 5 3 6 2 7 1 8 4 9 6 11 8 13
REMARK H PARENT 10 4 4 10 6 12 8 14
REMARK Flexibility Score: inf
ROOT
ATOM      1  C   UNL     1       2.317  56.271  30.936  1.00  0.00     0.171 C 
ENDROOT
BRANCH   1   2
ATOM      2  C   UNL     1       1.536  55.442  29.891  1.00  0.00     0.190 C 
BRANCH   2   3
ATOM      3  O   UNL     1       0.375  56.125  29.500  1.00  0.00    -0.394 OA
ATOM      4  H   UNL     1       0.280  55.988  28.521  1.00  0.00     0.210 HD
ENDBRANCH   2   3
ENDBRANCH   1   2
BRANCH   1   5
ATOM      5  C   UNL     1       2.719  55.486  32.220  1.00  0.00     0.181 C 
BRANCH   5   6
ATOM      6  C   UNL     1       3.096  56.352  33.457  1.00  0.00     0.209 C 
BRANCH   6   7
ATOM      7  C   UNL     1       4.586  56.498  33.634  1.00  0.00     0.258 C 
ATOM      8  O   UNL     1       5.249  57.144  32.838  1.00  0.00    -0.300 OA
ENDBRANCH   6   7
BRANCH   6   9
ATOM      9  O   UNL     1       2.505  57.626  33.370  1.00  0.00    -0.383 OA
ATOM     10  H   UNL     1       1.589  57.562  33.752  1.00  0.00     0.211 HD
ENDBRANCH   6   9
ENDBRANCH   5   6
BRANCH   5  11
ATOM     11  O   UNL     1       3.756  54.583  31.923  1.00  0.00    -0.387 OA
ATOM     12  H   UNL     1       3.827  54.514  30.938  1.00  0.00     0.211 HD
ENDBRANCH   5  11
ENDBRANCH   1   5
BRANCH   1  13
ATOM     13  O   UNL     1       3.438  56.903  30.363  1.00  0.00    -0.388 OA
ATOM     14  H   UNL     1       3.133  57.720  29.893  1.00  0.00     0.211 HD
ENDBRANCH   1  13
TORSDOF 8
ENDMDL
MODEL 6
REMARK VINA RESULT:    -4.131      2.598      4.169
REMARK INTER + INTRA:          -6.026
REMARK INTER:                  -5.259
REMARK INTRA:                  -0.767
REMARK UNBOUND:                -0.446
REMARK SMILES O=C[C@@H](O)[C@H](O)[C@@H](O)CO
REMARK SMILES IDX 7 1 9 2 10 3 5 5 3 6 2 7 1 8 4 9 6 11 8 13
REMARK H PARENT 10 4 4 10 6 12 8 14
REMARK Flexibility Score: inf
ROOT
ATOM      1  C   UNL     1       4.649  56.540  34.153  1.00  0.00     0.171 C 
ENDROOT
BRANCH   1   2
ATOM      2  C   UNL     1       5.238  56.885  35.540  1.00  0.00     0.190 C 
BRANCH   2   3
ATOM      3  O   UNL     1       4.309  57.618  36.293  1.00  0.00    -0.394 OA
ATOM      4  H   UNL     1       3.713  58.074  35.643  1.00  0.00     0.210 HD
ENDBRANCH   2   3
ENDBRANCH   1   2
BRANCH   1   5
ATOM      5  C   UNL     1       3.092  56.524  34.094  1.00  0.00     0.181 C 
BRANCH   5   6
ATOM      6  C   UNL     1       2.458  55.467  33.144  1.00  0.00     0.209 C 
BRANCH   6   7
ATOM      7  C   UNL     1       2.094  56.038  31.797  1.00  0.00     0.258 C 
ATOM      8  O   UNL     1       2.922  56.635  31.127  1.00  0.00    -0.300 OA
ENDBRANCH   6   7
BRANCH   6   9
ATOM      9  O   UNL     1       3.323  54.371  32.974  1.00  0.00    -0.383 OA
ATOM     10  H   UNL     1       3.268  53.811  33.793  1.00  0.00     0.211 HD
ENDBRANCH   6   9
ENDBRANCH   5   6
BRANCH   5  11
ATOM     11  O   UNL     1       2.612  57.810  33.781  1.00  0.00    -0.387 OA
ATOM     12  H   UNL     1       2.556  57.882  32.795  1.00  0.00     0.211 HD
ENDBRANCH   5  11
ENDBRANCH   1   5
BRANCH   1  13
ATOM     13  O   UNL     1       5.181  57.367  33.145  1.00  0.00    -0.388 OA
ATOM     14  H   UNL     1       4.785  57.100  32.277  1.00  0.00     0.211 HD
ENDBRANCH   1  13
TORSDOF 8
ENDMDL
MODEL 7
REMARK VINA RESULT:    -4.080     10.191     11.694
REMARK INTER + INTRA:          -5.957
REMARK INTER:                  -5.025
REMARK INTRA:                  -0.932
REMARK UNBOUND:                -0.446
REMARK SMILES O=C[C@@H](O)[C@H](O)[C@@H](O)CO
REMARK SMILES IDX 7 1 9 2 10 3 5 5 3 6 2 7 1 8 4 9 6 11 8 13
REMARK H PARENT 10 4 4 10 6 12 8 14
REMARK Flexibility Score: inf
ROOT
ATOM      1  C   UNL     1      -3.898  62.922  34.762  1.00  0.00     0.171 C 
ENDROOT
BRANCH   1   2
ATOM      2  C   UNL     1      -3.026  63.021  36.035  1.00  0.00     0.190 C 
BRANCH   2   3
ATOM      3  O   UNL     1      -2.609  64.345  36.235  1.00  0.00    -0.394 OA
ATOM      4  H   UNL     1      -2.285  64.677  35.357  1.00  0.00     0.210 HD
ENDBRANCH   2   3
ENDBRANCH   1   2
BRANCH   1   5
ATOM      5  C   UNL     1      -5.218  63.746  34.814  1.00  0.00     0.181 C 
BRANCH   5   6
ATOM      6  C   UNL     1      -6.273  63.411  33.719  1.00  0.00     0.209 C 
BRANCH   6   7
ATOM      7  C   UNL     1      -6.286  64.414  32.595  1.00  0.00     0.258 C 
ATOM      8  O   UNL     1      -5.290  64.600  31.913  1.00  0.00    -0.300 OA
ENDBRANCH   6   7
BRANCH   6   9
ATOM      9  O   UNL     1      -6.055  62.122  33.200  1.00  0.00    -0.383 OA
ATOM     10  H   UNL     1      -6.842  61.883  32.641  1.00  0.00     0.211 HD
ENDBRANCH   6   9
ENDBRANCH   5   6
BRANCH   5  11
ATOM     11  O   UNL     1      -4.924  65.123  34.800  1.00  0.00    -0.387 OA
ATOM     12  H   UNL     1      -5.377  65.538  35.577  1.00  0.00     0.211 HD
ENDBRANCH   5  11
ENDBRANCH   1   5
BRANCH   1  13
ATOM     13  O   UNL     1      -3.159  63.229  33.604  1.00  0.00    -0.388 OA
ATOM     14  H   UNL     1      -3.092  64.214  33.525  1.00  0.00     0.211 HD
ENDBRANCH   1  13
TORSDOF 8
ENDMDL
MODEL 8
REMARK VINA RESULT:    -4.069      2.085      3.372
REMARK INTER + INTRA:          -5.942
REMARK INTER:                  -4.994
REMARK INTRA:                  -0.947
REMARK UNBOUND:                -0.446
REMARK SMILES O=C[C@@H](O)[C@H](O)[C@@H](O)CO
REMARK SMILES IDX 7 1 9 2 10 3 5 5 3 6 2 7 1 8 4 9 6 11 8 13
REMARK H PARENT 10 4 4 10 6 12 8 14
REMARK Flexibility Score: inf
ROOT
ATOM      1  C   UNL     1       2.592  55.582  31.750  1.00  0.00     0.171 C 
ENDROOT
BRANCH   1   2
ATOM      2  C   UNL     1       1.948  56.839  32.378  1.00  0.00     0.190 C 
BRANCH   2   3
ATOM      3  O   UNL     1       2.925  57.617  33.014  1.00  0.00    -0.394 OA
ATOM      4  H   UNL     1       3.798  57.362  32.614  1.00  0.00     0.210 HD
ENDBRANCH   2   3
ENDBRANCH   1   2
BRANCH   1   5
ATOM      5  C   UNL     1       3.706  55.877  30.702  1.00  0.00     0.181 C 
BRANCH   5   6
ATOM      6  C   UNL     1       5.168  55.622  31.173  1.00  0.00     0.209 C 
BRANCH   6   7
ATOM      7  C   UNL     1       6.163  55.676  30.043  1.00  0.00     0.258 C 
ATOM      8  O   UNL     1       6.351  56.712  29.425  1.00  0.00    -0.300 OA
ENDBRANCH   6   7
BRANCH   6   9
ATOM      9  O   UNL     1       5.536  56.543  32.170  1.00  0.00    -0.383 OA
ATOM     10  H   UNL     1       6.527  56.612  32.170  1.00  0.00     0.211 HD
ENDBRANCH   6   9
ENDBRANCH   5   6
BRANCH   5  11
ATOM     11  O   UNL     1       3.573  57.193  30.220  1.00  0.00    -0.387 OA
ATOM     12  H   UNL     1       4.480  57.534  30.015  1.00  0.00     0.211 HD
ENDBRANCH   5  11
ENDBRANCH   1   5
BRANCH   1  13
ATOM     13  O   UNL     1       3.054  54.689  32.736  1.00  0.00    -0.388 OA
ATOM     14  H   UNL     1       4.039  54.616  32.658  1.00  0.00     0.211 HD
ENDBRANCH   1  13
TORSDOF 8
ENDMDL
MODEL 9
REMARK VINA RESULT:    -4.034      2.514      3.737
REMARK INTER + INTRA:          -5.894
REMARK INTER:                  -4.953
REMARK INTRA:                  -0.941
REMARK UNBOUND:                -0.446
REMARK SMILES O=C[C@@H](O)[C@H](O)[C@@H](O)CO
REMARK SMILES IDX 7 1 9 2 10 3 5 5 3 6 2 7 1 8 4 9 6 11 8 13
REMARK H PARENT 10 4 4 10 6 12 8 14
REMARK Flexibility Score: inf
ROOT
ATOM      1  C   UNL     1       4.448  56.302  33.475  1.00  0.00     0.171 C 
ENDROOT
BRANCH   1   2
ATOM      2  C   UNL     1       3.013  56.664  33.925  1.00  0.00     0.190 C 
BRANCH   2   3
ATOM      3  O   UNL     1       2.553  57.785  33.218  1.00  0.00    -0.394 OA
ATOM      4  H   UNL     1       1.566  57.693  33.150  1.00  0.00     0.210 HD
ENDBRANCH   2   3
ENDBRANCH   1   2
BRANCH   1   5
ATOM      5  C   UNL     1       4.546  55.698  32.042  1.00  0.00     0.181 C 
BRANCH   5   6
ATOM      6  C   UNL     1       5.151  56.628  30.951  1.00  0.00     0.209 C 
BRANCH   6   7
ATOM      7  C   UNL     1       5.405  55.911  29.650  1.00  0.00     0.258 C 
ATOM      8  O   UNL     1       5.148  54.724  29.530  1.00  0.00    -0.300 OA
ENDBRANCH   6   7
BRANCH   6   9
ATOM      9  O   UNL     1       4.315  57.736  30.725  1.00  0.00    -0.383 OA
ATOM     10  H   UNL     1       4.867  58.454  30.315  1.00  0.00     0.211 HD
ENDBRANCH   6   9
ENDBRANCH   5   6
BRANCH   5  11
ATOM     11  O   UNL     1       3.284  55.226  31.635  1.00  0.00    -0.387 OA
ATOM     12  H   UNL     1       2.939  54.627  32.344  1.00  0.00     0.211 HD
ENDBRANCH   5  11
ENDBRANCH   1   5
BRANCH   1  13
ATOM     13  O   UNL     1       5.327  57.392  33.621  1.00  0.00    -0.388 OA
ATOM     14  H   UNL     1       6.227  57.044  33.844  1.00  0.00     0.211 HD
ENDBRANCH   1  13
TORSDOF 8
ENDMDL
