MODEL 1
REMARK VINA RESULT:    19.778      0.000      0.000
REMARK INTER + INTRA:          22.983
REMARK INTER:                  23.247
REMARK INTRA:                  -0.264
REMARK UNBOUND:                -0.264
REMARK SMILES O=c1cc(-c2ccc(O)c(O)c2)oc2cc(O)cc(O)c12
REMARK SMILES IDX 4 1 3 2 2 3 1 4 21 5 19 6 18 7 16 8 15 9 14 10 13 11 5 12
REMARK SMILES IDX 6 13 7 14 8 15 12 16 10 17 9 18 11 20 20 22 17 24
REMARK H PARENT 9 19 11 21 20 23 17 25
REMARK Flexibility Score: inf
ROOT
ATOM      1  C   UNL     1      26.654  30.309   5.086  1.00  0.00     0.138 A 
ATOM      2  C   UNL     1      27.652  30.993   4.370  1.00  0.00     0.100 A 
ATOM      3  C   UNL     1      28.198  30.410   3.227  1.00  0.00     0.197 A 
ATOM      4  O   UNL     1      29.091  31.031   2.591  1.00  0.00    -0.289 OA
ATOM      5  C   UNL     1      27.740  29.146   2.804  1.00  0.00     0.107 A 
ATOM      6  C   UNL     1      28.241  28.484   1.657  1.00  0.00     0.134 A 
ATOM      7  C   UNL     1      27.727  27.229   1.301  1.00  0.00     0.093 A 
ATOM      8  C   UNL     1      26.726  26.624   2.064  1.00  0.00     0.123 A 
ATOM      9  C   UNL     1      26.227  27.274   3.198  1.00  0.00     0.094 A 
ATOM     10  C   UNL     1      26.726  28.525   3.572  1.00  0.00     0.146 A 
ATOM     11  O   UNL     1      26.237  29.121   4.654  1.00  0.00    -0.456 OA
ENDROOT
BRANCH   1  12
ATOM     12  C   UNL     1      26.036  30.882   6.309  1.00  0.00     0.021 A 
ATOM     13  C   UNL     1      26.531  30.514   7.570  1.00  0.00     0.016 A 
ATOM     14  C   UNL     1      25.972  31.044   8.733  1.00  0.00     0.051 A 
ATOM     15  C   UNL     1      24.916  31.959   8.667  1.00  0.00     0.157 A 
ATOM     16  C   UNL     1      24.983  31.813   6.239  1.00  0.00     0.062 A 
ATOM     17  C   UNL     1      24.418  32.352   7.403  1.00  0.00     0.158 A 
BRANCH  15  18
ATOM     18  O   UNL     1      24.397  32.447   9.868  1.00  0.00    -0.504 OA
ATOM     19  H   UNL     1      24.937  32.960  10.549  1.00  0.00     0.293 HD
ENDBRANCH  15  18
BRANCH  17  20
ATOM     20  O   UNL     1      23.377  33.272   7.257  1.00  0.00    -0.504 OA
ATOM     21  H   UNL     1      22.465  33.163   7.673  1.00  0.00     0.293 HD
ENDBRANCH  17  20
ENDBRANCH   1  12
BRANCH   6  22
ATOM     22  O   UNL     1      29.241  29.062   0.875  1.00  0.00    -0.507 OA
ATOM     23  H   UNL     1      29.739  28.532   0.170  1.00  0.00     0.293 HD
ENDBRANCH   6  22
BRANCH   8  24
ATOM     24  O   UNL     1      26.233  25.377   1.687  1.00  0.00    -0.508 OA
ATOM     25  H   UNL     1      25.535  24.894   2.241  1.00  0.00     0.293 HD
ENDBRANCH   8  24
TORSDOF 5
ENDMDL
MODEL 2
REMARK VINA RESULT:    21.435      1.216      2.719
REMARK INTER + INTRA:          24.930
REMARK INTER:                  25.196
REMARK INTRA:                  -0.266
REMARK UNBOUND:                -0.264
REMARK SMILES O=c1cc(-c2ccc(O)c(O)c2)oc2cc(O)cc(O)c12
REMARK SMILES IDX 4 1 3 2 2 3 1 4 21 5 19 6 18 7 16 8 15 9 14 10 13 11 5 12
REMARK SMILES IDX 6 13 7 14 8 15 12 16 10 17 9 18 11 20 20 22 17 24
REMARK H PARENT 9 19 11 21 20 23 17 25
REMARK Flexibility Score: inf
ROOT
ATOM      1  C   UNL     1      26.248  30.212   5.145  1.00  0.00     0.138 A 
ATOM      2  C   UNL     1      25.725  28.989   4.692  1.00  0.00     0.100 A 
ATOM      3  C   UNL     1      26.235  28.413   3.529  1.00  0.00     0.197 A 
ATOM      4  O   UNL     1      25.760  27.315   3.131  1.00  0.00    -0.289 OA
ATOM      5  C   UNL     1      27.270  29.062   2.826  1.00  0.00     0.107 A 
ATOM      6  C   UNL     1      27.842  28.548   1.638  1.00  0.00     0.134 A 
ATOM      7  C   UNL     1      28.873  29.255   1.002  1.00  0.00     0.093 A 
ATOM      8  C   UNL     1      29.342  30.460   1.528  1.00  0.00     0.123 A 
ATOM      9  C   UNL     1      28.780  30.974   2.702  1.00  0.00     0.094 A 
ATOM     10  C   UNL     1      27.751  30.286   3.351  1.00  0.00     0.146 A 
ATOM     11  O   UNL     1      27.232  30.795   4.464  1.00  0.00    -0.456 OA
ENDROOT
BRANCH   1  12
ATOM     12  C   UNL     1      25.745  30.870   6.378  1.00  0.00     0.021 A 
ATOM     13  C   UNL     1      26.275  30.500   7.624  1.00  0.00     0.016 A 
ATOM     14  C   UNL     1      25.825  31.107   8.796  1.00  0.00     0.051 A 
ATOM     15  C   UNL     1      24.844  32.104   8.752  1.00  0.00     0.157 A 
ATOM     16  C   UNL     1      24.769  31.882   6.331  1.00  0.00     0.062 A 
ATOM     17  C   UNL     1      24.313  32.500   7.503  1.00  0.00     0.158 A 
BRANCH  15  18
ATOM     18  O   UNL     1      24.432  32.669   9.961  1.00  0.00    -0.504 OA
ATOM     19  H   UNL     1      25.032  33.214  10.564  1.00  0.00     0.293 HD
ENDBRANCH  15  18
BRANCH  17  20
ATOM     20  O   UNL     1      23.344  33.499   7.379  1.00  0.00    -0.504 OA
ATOM     21  H   UNL     1      23.552  34.485   7.340  1.00  0.00     0.293 HD
ENDBRANCH  17  20
ENDBRANCH   1  12
BRANCH   6  22
ATOM     22  O   UNL     1      27.395  27.347   1.089  1.00  0.00    -0.507 OA
ATOM     23  H   UNL     1      27.291  27.223   0.088  1.00  0.00     0.293 HD
ENDBRANCH   6  22
BRANCH   8  24
ATOM     24  O   UNL     1      30.368  31.142   0.877  1.00  0.00    -0.508 OA
ATOM     25  H   UNL     1      31.074  31.655   1.391  1.00  0.00     0.293 HD
ENDBRANCH   8  24
TORSDOF 5
ENDMDL
MODEL 3
REMARK VINA RESULT:    21.568      1.343      3.082
REMARK INTER + INTRA:          25.087
REMARK INTER:                  25.353
REMARK INTRA:                  -0.266
REMARK UNBOUND:                -0.264
REMARK SMILES O=c1cc(-c2ccc(O)c(O)c2)oc2cc(O)cc(O)c12
REMARK SMILES IDX 4 1 3 2 2 3 1 4 21 5 19 6 18 7 16 8 15 9 14 10 13 11 5 12
REMARK SMILES IDX 6 13 7 14 8 15 12 16 10 17 9 18 11 20 20 22 17 24
REMARK H PARENT 9 19 11 21 20 23 17 25
REMARK Flexibility Score: inf
ROOT
ATOM      1  C   UNL     1      26.260  30.269   5.177  1.00  0.00     0.138 A 
ATOM      2  C   UNL     1      25.710  29.048   4.750  1.00  0.00     0.100 A 
ATOM      3  C   UNL     1      26.204  28.439   3.596  1.00  0.00     0.197 A 
ATOM      4  O   UNL     1      25.705  27.343   3.222  1.00  0.00    -0.289 OA
ATOM      5  C   UNL     1      27.248  29.053   2.878  1.00  0.00     0.107 A 
ATOM      6  C   UNL     1      27.805  28.505   1.698  1.00  0.00     0.134 A 
ATOM      7  C   UNL     1      28.848  29.177   1.044  1.00  0.00     0.093 A 
ATOM      8  C   UNL     1      29.343  30.383   1.544  1.00  0.00     0.123 A 
ATOM      9  C   UNL     1      28.796  30.931   2.709  1.00  0.00     0.094 A 
ATOM     10  C   UNL     1      27.756  30.278   3.376  1.00  0.00     0.146 A 
ATOM     11  O   UNL     1      27.252  30.818   4.480  1.00  0.00    -0.456 OA
ENDROOT
BRANCH   1  12
ATOM     12  C   UNL     1      25.775  30.961   6.398  1.00  0.00     0.021 A 
ATOM     13  C   UNL     1      24.679  31.834   6.308  1.00  0.00     0.016 A 
ATOM     14  C   UNL     1      24.200  32.491   7.441  1.00  0.00     0.051 A 
ATOM     15  C   UNL     1      24.794  32.287   8.691  1.00  0.00     0.157 A 
ATOM     16  C   UNL     1      26.365  30.743   7.656  1.00  0.00     0.062 A 
ATOM     17  C   UNL     1      25.888  31.397   8.800  1.00  0.00     0.158 A 
BRANCH  15  18
ATOM     18  O   UNL     1      24.271  32.979   9.784  1.00  0.00    -0.504 OA
ATOM     19  H   UNL     1      24.159  33.982   9.817  1.00  0.00     0.293 HD
ENDBRANCH  15  18
BRANCH  17  20
ATOM     20  O   UNL     1      26.522  31.129  10.016  1.00  0.00    -0.504 OA
ATOM     21  H   UNL     1      27.247  30.437  10.134  1.00  0.00     0.293 HD
ENDBRANCH  17  20
ENDBRANCH   1  12
BRANCH   6  22
ATOM     22  O   UNL     1      27.332  27.302   1.174  1.00  0.00    -0.507 OA
ATOM     23  H   UNL     1      27.721  26.898   0.330  1.00  0.00     0.293 HD
ENDBRANCH   6  22
BRANCH   8  24
ATOM     24  O   UNL     1      30.379  31.031   0.875  1.00  0.00    -0.508 OA
ATOM     25  H   UNL     1      31.256  31.245   1.337  1.00  0.00     0.293 HD
ENDBRANCH   8  24
TORSDOF 5
ENDMDL
