MODEL 1
REMARK VINA RESULT:    -1.894      0.000      0.000
REMARK INTER + INTRA:          -2.153
REMARK INTER:                  -2.116
REMARK INTRA:                  -0.038
REMARK UNBOUND:                -0.038
REMARK SMILES CCCC(=O)[O-]
REMARK SMILES IDX 3 1 4 2 5 3 6 4 2 5 1 6
REMARK H PARENT
REMARK Flexibility Score: inf
ROOT
ATOM      1  C   UNL     1      -3.077  14.484   9.235  1.00  0.00     0.052 C 
ENDROOT
BRANCH   1   2
ATOM      2  C   UNL     1      -3.609  13.099   9.046  1.00  0.00     0.041 C 
ATOM      3  O   UNL     1      -4.793  12.923   8.652  1.00  0.00    -0.550 OA
ATOM      4  O   UNL     1      -2.815  12.001   9.353  1.00  0.00    -0.550 OA
ENDBRANCH   1   2
BRANCH   1   5
ATOM      5  C   UNL     1      -4.066  15.517   8.690  1.00  0.00     0.003 C 
ATOM      6  C   UNL     1      -3.634  16.021   7.317  1.00  0.00     0.004 C 
ENDBRANCH   1   5
TORSDOF 2
ENDMDL
MODEL 2
REMARK VINA RESULT:    -1.888      1.383      1.906
REMARK INTER + INTRA:          -2.146
REMARK INTER:                  -2.123
REMARK INTRA:                  -0.023
REMARK UNBOUND:                -0.038
REMARK SMILES CCCC(=O)[O-]
REMARK SMILES IDX 3 1 4 2 5 3 6 4 2 5 1 6
REMARK H PARENT
REMARK Flexibility Score: inf
ROOT
ATOM      1  C   UNL     1      -3.131  13.909  10.577  1.00  0.00     0.052 C 
ENDROOT
BRANCH   1   2
ATOM      2  C   UNL     1      -3.139  12.415  10.497  1.00  0.00     0.041 C 
ATOM      3  O   UNL     1      -2.818  11.836   9.426  1.00  0.00    -0.550 OA
ATOM      4  O   UNL     1      -3.549  11.663  11.591  1.00  0.00    -0.550 OA
ENDBRANCH   1   2
BRANCH   1   5
ATOM      5  C   UNL     1      -3.091  14.520   9.174  1.00  0.00     0.003 C 
ATOM      6  C   UNL     1      -4.206  15.543   8.987  1.00  0.00     0.004 C 
ENDBRANCH   1   5
TORSDOF 2
ENDMDL
MODEL 3
REMARK VINA RESULT:    -1.887      0.090      1.324
REMARK INTER + INTRA:          -2.145
REMARK INTER:                  -2.107
REMARK INTRA:                  -0.038
REMARK UNBOUND:                -0.038
REMARK SMILES CCCC(=O)[O-]
REMARK SMILES IDX 3 1 4 2 5 3 6 4 2 5 1 6
REMARK H PARENT
REMARK Flexibility Score: inf
ROOT
ATOM      1  C   UNL     1      -3.046  14.434   9.236  1.00  0.00     0.052 C 
ENDROOT
BRANCH   1   2
ATOM      2  C   UNL     1      -3.584  13.051   9.050  1.00  0.00     0.041 C 
ATOM      3  O   UNL     1      -2.878  12.051   9.349  1.00  0.00    -0.550 OA
ATOM      4  O   UNL     1      -4.846  12.863   8.500  1.00  0.00    -0.550 OA
ENDBRANCH   1   2
BRANCH   1   5
ATOM      5  C   UNL     1      -4.049  15.472   8.728  1.00  0.00     0.003 C 
ATOM      6  C   UNL     1      -3.634  16.019   7.366  1.00  0.00     0.004 C 
ENDBRANCH   1   5
TORSDOF 2
ENDMDL
MODEL 4
REMARK VINA RESULT:    -1.871      8.346      8.629
REMARK INTER + INTRA:          -2.127
REMARK INTER:                  -2.117
REMARK INTRA:                  -0.010
REMARK UNBOUND:                -0.038
REMARK SMILES CCCC(=O)[O-]
REMARK SMILES IDX 3 1 4 2 5 3 6 4 2 5 1 6
REMARK H PARENT
REMARK Flexibility Score: inf
ROOT
ATOM      1  C   UNL     1       3.392  19.003   6.314  1.00  0.00     0.052 C 
ENDROOT
BRANCH   1   2
ATOM      2  C   UNL     1       3.610  18.211   7.564  1.00  0.00     0.041 C 
ATOM      3  O   UNL     1       3.497  18.763   8.691  1.00  0.00    -0.550 OA
ATOM      4  O   UNL     1       3.986  16.876   7.486  1.00  0.00    -0.550 OA
ENDBRANCH   1   2
BRANCH   1   5
ATOM      5  C   UNL     1       2.071  19.772   6.389  1.00  0.00     0.003 C 
ATOM      6  C   UNL     1       1.951  20.774   5.245  1.00  0.00     0.004 C 
ENDBRANCH   1   5
TORSDOF 2
ENDMDL
MODEL 5
REMARK VINA RESULT:    -1.851      7.890      8.141
REMARK INTER + INTRA:          -2.105
REMARK INTER:                  -2.097
REMARK INTRA:                  -0.008
REMARK UNBOUND:                -0.038
REMARK SMILES CCCC(=O)[O-]
REMARK SMILES IDX 3 1 4 2 5 3 6 4 2 5 1 6
REMARK H PARENT
REMARK Flexibility Score: inf
ROOT
ATOM      1  C   UNL     1       4.438  16.687   6.991  1.00  0.00     0.052 C 
ENDROOT
BRANCH   1   2
ATOM      2  C   UNL     1       4.093  15.442   7.745  1.00  0.00     0.041 C 
ATOM      3  O   UNL     1       4.221  15.403   8.997  1.00  0.00    -0.550 OA
ATOM      4  O   UNL     1       3.679  14.306   7.060  1.00  0.00    -0.550 OA
ENDBRANCH   1   2
BRANCH   1   5
ATOM      5  C   UNL     1       3.785  17.907   7.645  1.00  0.00     0.003 C 
ATOM      6  C   UNL     1       3.249  18.874   6.594  1.00  0.00     0.004 C 
ENDBRANCH   1   5
TORSDOF 2
ENDMDL
MODEL 6
REMARK VINA RESULT:    -1.774      8.180      8.964
REMARK INTER + INTRA:          -2.019
REMARK INTER:                  -1.981
REMARK INTRA:                  -0.039
REMARK UNBOUND:                -0.038
REMARK SMILES CCCC(=O)[O-]
REMARK SMILES IDX 3 1 4 2 5 3 6 4 2 5 1 6
REMARK H PARENT
REMARK Flexibility Score: inf
ROOT
ATOM      1  C   UNL     1       5.229  11.871   7.056  1.00  0.00     0.052 C 
ENDROOT
BRANCH   1   2
ATOM      2  C   UNL     1       3.996  12.503   6.492  1.00  0.00     0.041 C 
ATOM      3  O   UNL     1       3.263  11.861   5.693  1.00  0.00    -0.550 OA
ATOM      4  O   UNL     1       3.681  13.819   6.808  1.00  0.00    -0.550 OA
ENDBRANCH   1   2
BRANCH   1   5
ATOM      5  C   UNL     1       4.929  10.452   7.542  1.00  0.00     0.003 C 
ATOM      6  C   UNL     1       4.613  10.436   9.035  1.00  0.00     0.004 C 
ENDBRANCH   1   5
TORSDOF 2
ENDMDL
MODEL 7
REMARK VINA RESULT:    -1.757      7.918      8.362
REMARK INTER + INTRA:          -2.000
REMARK INTER:                  -1.994
REMARK INTRA:                  -0.006
REMARK UNBOUND:                -0.038
REMARK SMILES CCCC(=O)[O-]
REMARK SMILES IDX 3 1 4 2 5 3 6 4 2 5 1 6
REMARK H PARENT
REMARK Flexibility Score: inf
ROOT
ATOM      1  C   UNL     1       3.965  15.246   7.631  1.00  0.00     0.052 C 
ENDROOT
BRANCH   1   2
ATOM      2  C   UNL     1       4.429  14.055   6.854  1.00  0.00     0.041 C 
ATOM      3  O   UNL     1       3.593  13.234   6.392  1.00  0.00    -0.550 OA
ATOM      4  O   UNL     1       5.788  13.824   6.681  1.00  0.00    -0.550 OA
ENDBRANCH   1   2
BRANCH   1   5
ATOM      5  C   UNL     1       4.611  16.524   7.090  1.00  0.00     0.003 C 
ATOM      6  C   UNL     1       3.754  17.747   7.398  1.00  0.00     0.004 C 
ENDBRANCH   1   5
TORSDOF 2
ENDMDL
MODEL 8
REMARK VINA RESULT:    -1.741      3.231      4.798
REMARK INTER + INTRA:          -1.982
REMARK INTER:                  -1.973
REMARK INTRA:                  -0.009
REMARK UNBOUND:                -0.038
REMARK SMILES CCCC(=O)[O-]
REMARK SMILES IDX 3 1 4 2 5 3 6 4 2 5 1 6
REMARK H PARENT
REMARK Flexibility Score: inf
ROOT
ATOM      1  C   UNL     1      -3.634  10.059   9.012  1.00  0.00     0.052 C 
ENDROOT
BRANCH   1   2
ATOM      2  C   UNL     1      -3.517  11.477   8.551  1.00  0.00     0.041 C 
ATOM      3  O   UNL     1      -3.965  11.816   7.423  1.00  0.00    -0.550 OA
ATOM      4  O   UNL     1      -2.870  12.415   9.345  1.00  0.00    -0.550 OA
ENDBRANCH   1   2
BRANCH   1   5
ATOM      5  C   UNL     1      -3.443   9.096   7.837  1.00  0.00     0.003 C 
ATOM      6  C   UNL     1      -2.792   7.794   8.293  1.00  0.00     0.004 C 
ENDBRANCH   1   5
TORSDOF 2
ENDMDL
MODEL 9
REMARK VINA RESULT:    -1.730      8.470      9.072
REMARK INTER + INTRA:          -1.970
REMARK INTER:                  -1.957
REMARK INTRA:                  -0.013
REMARK UNBOUND:                -0.038
REMARK SMILES CCCC(=O)[O-]
REMARK SMILES IDX 3 1 4 2 5 3 6 4 2 5 1 6
REMARK H PARENT
REMARK Flexibility Score: inf
ROOT
ATOM      1  C   UNL     1       3.806  19.122   5.884  1.00  0.00     0.052 C 
ENDROOT
BRANCH   1   2
ATOM      2  C   UNL     1       4.365  17.949   6.625  1.00  0.00     0.041 C 
ATOM      3  O   UNL     1       3.686  17.384   7.523  1.00  0.00    -0.550 OA
ATOM      4  O   UNL     1       5.656  17.509   6.360  1.00  0.00    -0.550 OA
ENDBRANCH   1   2
BRANCH   1   5
ATOM      5  C   UNL     1       2.462  19.543   6.482  1.00  0.00     0.003 C 
ATOM      6  C   UNL     1       1.767  20.577   5.602  1.00  0.00     0.004 C 
ENDBRANCH   1   5
TORSDOF 2
ENDMDL
