MODEL 1
REMARK VINA RESULT:    -3.870      0.000      0.000
REMARK INTER + INTRA:          -5.592
REMARK INTER:                  -5.228
REMARK INTRA:                  -0.365
REMARK UNBOUND:                -0.365
REMARK SMILES CCCCCCCC(=O)[O-]
REMARK SMILES IDX 5 1 6 2 7 3 8 4 9 5 10 6 4 7 3 8 2 9 1 10
REMARK H PARENT
REMARK Flexibility Score: inf
ROOT
ATOM      1  C   UNL     1      11.443 -11.971  13.940  1.00  0.00     0.000 C 
ENDROOT
BRANCH   1   2
ATOM      2  C   UNL     1      12.732 -11.764  14.754  1.00  0.00     0.006 C 
BRANCH   2   3
ATOM      3  C   UNL     1      13.434 -13.091  15.073  1.00  0.00     0.053 C 
BRANCH   3   4
ATOM      4  C   UNL     1      13.255 -13.487  16.506  1.00  0.00     0.041 C 
ATOM      5  O   UNL     1      13.818 -14.520  16.954  1.00  0.00    -0.550 OA
ATOM      6  O   UNL     1      12.491 -12.697  17.357  1.00  0.00    -0.550 OA
ENDBRANCH   3   4
ENDBRANCH   2   3
ENDBRANCH   1   2
BRANCH   1   7
ATOM      7  C   UNL     1      10.248 -11.199  14.520  1.00  0.00     0.000 C 
BRANCH   7   8
ATOM      8  C   UNL     1       9.458 -12.018  15.551  1.00  0.00    -0.000 C 
BRANCH   8   9
ATOM      9  C   UNL     1       8.816 -11.103  16.601  1.00  0.00    -0.003 C 
ATOM     10  C   UNL     1       8.687  -9.674  16.082  1.00  0.00     0.004 C 
ENDBRANCH   8   9
ENDBRANCH   7   8
ENDBRANCH   1   7
TORSDOF 6
ENDMDL
MODEL 2
REMARK VINA RESULT:    -3.858     15.827     16.624
REMARK INTER + INTRA:          -5.576
REMARK INTER:                  -4.901
REMARK INTRA:                  -0.674
REMARK UNBOUND:                -0.365
REMARK SMILES CCCCCCCC(=O)[O-]
REMARK SMILES IDX 5 1 6 2 7 3 8 4 9 5 10 6 4 7 3 8 2 9 1 10
REMARK H PARENT
REMARK Flexibility Score: inf
ROOT
ATOM      1  C   UNL     1      20.064  -0.753  23.121  1.00  0.00     0.000 C 
ENDROOT
BRANCH   1   2
ATOM      2  C   UNL     1      21.089  -1.797  23.597  1.00  0.00     0.006 C 
BRANCH   2   3
ATOM      3  C   UNL     1      21.126  -3.030  22.684  1.00  0.00     0.053 C 
BRANCH   3   4
ATOM      4  C   UNL     1      22.092  -2.858  21.552  1.00  0.00     0.041 C 
ATOM      5  O   UNL     1      21.688  -2.912  20.360  1.00  0.00    -0.550 OA
ATOM      6  O   UNL     1      23.433  -2.608  21.812  1.00  0.00    -0.550 OA
ENDBRANCH   3   4
ENDBRANCH   2   3
ENDBRANCH   1   2
BRANCH   1   7
ATOM      7  C   UNL     1      20.718   0.582  22.729  1.00  0.00     0.000 C 
BRANCH   7   8
ATOM      8  C   UNL     1      20.918   0.721  21.212  1.00  0.00    -0.000 C 
BRANCH   8   9
ATOM      9  C   UNL     1      22.409   0.779  20.860  1.00  0.00    -0.003 C 
ATOM     10  C   UNL     1      23.266   0.947  22.112  1.00  0.00     0.004 C 
ENDBRANCH   8   9
ENDBRANCH   7   8
ENDBRANCH   1   7
TORSDOF 6
ENDMDL
MODEL 3
REMARK VINA RESULT:    -3.843      1.512      2.859
REMARK INTER + INTRA:          -5.556
REMARK INTER:                  -5.067
REMARK INTRA:                  -0.489
REMARK UNBOUND:                -0.365
REMARK SMILES CCCCCCCC(=O)[O-]
REMARK SMILES IDX 5 1 6 2 7 3 8 4 9 5 10 6 4 7 3 8 2 9 1 10
REMARK H PARENT
REMARK Flexibility Score: inf
ROOT
ATOM      1  C   UNL     1      10.279 -12.019  17.176  1.00  0.00     0.000 C 
ENDROOT
BRANCH   1   2
ATOM      2  C   UNL     1      11.092 -13.281  17.513  1.00  0.00     0.006 C 
BRANCH   2   3
ATOM      3  C   UNL     1      12.603 -13.044  17.394  1.00  0.00     0.053 C 
BRANCH   3   4
ATOM      4  C   UNL     1      13.334 -14.288  16.991  1.00  0.00     0.041 C 
ATOM      5  O   UNL     1      13.956 -14.331  15.897  1.00  0.00    -0.550 OA
ATOM      6  O   UNL     1      13.354 -15.390  17.837  1.00  0.00    -0.550 OA
ENDBRANCH   3   4
ENDBRANCH   2   3
ENDBRANCH   1   2
BRANCH   1   7
ATOM      7  C   UNL     1       9.592 -12.106  15.805  1.00  0.00     0.000 C 
BRANCH   7   8
ATOM      8  C   UNL     1      10.256 -11.209  14.750  1.00  0.00    -0.000 C 
BRANCH   8   9
ATOM      9  C   UNL     1      11.397 -11.949  14.042  1.00  0.00    -0.003 C 
ATOM     10  C   UNL     1      12.739 -11.266  14.295  1.00  0.00     0.004 C 
ENDBRANCH   8   9
ENDBRANCH   7   8
ENDBRANCH   1   7
TORSDOF 6
ENDMDL
MODEL 4
REMARK VINA RESULT:    -3.823     12.770     13.560
REMARK INTER + INTRA:          -5.529
REMARK INTER:                  -5.094
REMARK INTRA:                  -0.435
REMARK UNBOUND:                -0.365
REMARK SMILES CCCCCCCC(=O)[O-]
REMARK SMILES IDX 5 1 6 2 7 3 8 4 9 5 10 6 4 7 3 8 2 9 1 10
REMARK H PARENT
REMARK Flexibility Score: inf
ROOT
ATOM      1  C   UNL     1      18.350  -2.890  20.712  1.00  0.00     0.000 C 
ENDROOT
BRANCH   1   2
ATOM      2  C   UNL     1      18.569  -4.412  20.668  1.00  0.00     0.006 C 
BRANCH   2   3
ATOM      3  C   UNL     1      18.767  -4.927  19.235  1.00  0.00     0.053 C 
BRANCH   3   4
ATOM      4  C   UNL     1      20.026  -4.399  18.621  1.00  0.00     0.041 C 
ATOM      5  O   UNL     1      21.147  -4.707  19.106  1.00  0.00    -0.550 OA
ATOM      6  O   UNL     1      19.965  -3.590  17.493  1.00  0.00    -0.550 OA
ENDBRANCH   3   4
ENDBRANCH   2   3
ENDBRANCH   1   2
BRANCH   1   7
ATOM      7  C   UNL     1      19.418  -2.163  21.544  1.00  0.00     0.000 C 
BRANCH   7   8
ATOM      8  C   UNL     1      20.445  -3.124  22.160  1.00  0.00    -0.000 C 
BRANCH   8   9
ATOM      9  C   UNL     1      21.142  -2.480  23.365  1.00  0.00    -0.003 C 
ATOM     10  C   UNL     1      20.474  -1.163  23.750  1.00  0.00     0.004 C 
ENDBRANCH   8   9
ENDBRANCH   7   8
ENDBRANCH   1   7
TORSDOF 6
ENDMDL
MODEL 5
REMARK VINA RESULT:    -3.821     15.016     15.830
REMARK INTER + INTRA:          -5.527
REMARK INTER:                  -4.944
REMARK INTRA:                  -0.583
REMARK UNBOUND:                -0.365
REMARK SMILES CCCCCCCC(=O)[O-]
REMARK SMILES IDX 5 1 6 2 7 3 8 4 9 5 10 6 4 7 3 8 2 9 1 10
REMARK H PARENT
REMARK Flexibility Score: inf
ROOT
ATOM      1  C   UNL     1      21.426  -2.002  23.465  1.00  0.00     0.000 C 
ENDROOT
BRANCH   1   2
ATOM      2  C   UNL     1      21.008  -3.406  22.994  1.00  0.00     0.006 C 
BRANCH   2   3
ATOM      3  C   UNL     1      19.986  -3.352  21.850  1.00  0.00     0.053 C 
BRANCH   3   4
ATOM      4  C   UNL     1      20.605  -2.884  20.569  1.00  0.00     0.041 C 
ATOM      5  O   UNL     1      20.097  -1.922  19.934  1.00  0.00    -0.550 OA
ATOM      6  O   UNL     1      21.761  -3.489  20.092  1.00  0.00    -0.550 OA
ENDBRANCH   3   4
ENDBRANCH   2   3
ENDBRANCH   1   2
BRANCH   1   7
ATOM      7  C   UNL     1      20.222  -1.090  23.746  1.00  0.00     0.000 C 
BRANCH   7   8
ATOM      8  C   UNL     1      20.297   0.243  22.987  1.00  0.00    -0.000 C 
BRANCH   8   9
ATOM      9  C   UNL     1      21.741   0.560  22.580  1.00  0.00    -0.003 C 
ATOM     10  C   UNL     1      21.837   0.876  21.089  1.00  0.00     0.004 C 
ENDBRANCH   8   9
ENDBRANCH   7   8
ENDBRANCH   1   7
TORSDOF 6
ENDMDL
MODEL 6
REMARK VINA RESULT:    -3.814     13.232     14.016
REMARK INTER + INTRA:          -5.517
REMARK INTER:                  -5.293
REMARK INTRA:                  -0.224
REMARK UNBOUND:                -0.365
REMARK SMILES CCCCCCCC(=O)[O-]
REMARK SMILES IDX 5 1 6 2 7 3 8 4 9 5 10 6 4 7 3 8 2 9 1 10
REMARK H PARENT
REMARK Flexibility Score: inf
ROOT
ATOM      1  C   UNL     1      21.583  -3.201  20.504  1.00  0.00     0.000 C 
ENDROOT
BRANCH   1   2
ATOM      2  C   UNL     1      21.076  -3.383  19.063  1.00  0.00     0.006 C 
BRANCH   2   3
ATOM      3  C   UNL     1      20.757  -4.850  18.742  1.00  0.00     0.053 C 
BRANCH   3   4
ATOM      4  C   UNL     1      21.426  -5.305  17.482  1.00  0.00     0.041 C 
ATOM      5  O   UNL     1      21.022  -6.338  16.886  1.00  0.00    -0.550 OA
ATOM      6  O   UNL     1      22.478  -4.570  16.947  1.00  0.00    -0.550 OA
ENDBRANCH   3   4
ENDBRANCH   2   3
ENDBRANCH   1   2
BRANCH   1   7
ATOM      7  C   UNL     1      20.461  -3.326  21.546  1.00  0.00     0.000 C 
BRANCH   7   8
ATOM      8  C   UNL     1      20.987  -3.307  22.989  1.00  0.00    -0.000 C 
BRANCH   8   9
ATOM      9  C   UNL     1      21.353  -1.882  23.420  1.00  0.00    -0.003 C 
ATOM     10  C   UNL     1      20.132  -0.966  23.394  1.00  0.00     0.004 C 
ENDBRANCH   8   9
ENDBRANCH   7   8
ENDBRANCH   1   7
TORSDOF 6
ENDMDL
MODEL 7
REMARK VINA RESULT:    -3.797     14.936     15.873
REMARK INTER + INTRA:          -5.493
REMARK INTER:                  -4.836
REMARK INTRA:                  -0.657
REMARK UNBOUND:                -0.365
REMARK SMILES CCCCCCCC(=O)[O-]
REMARK SMILES IDX 5 1 6 2 7 3 8 4 9 5 10 6 4 7 3 8 2 9 1 10
REMARK H PARENT
REMARK Flexibility Score: inf
ROOT
ATOM      1  C   UNL     1      21.242  -1.723  23.658  1.00  0.00     0.000 C 
ENDROOT
BRANCH   1   2
ATOM      2  C   UNL     1      20.072  -0.764  23.377  1.00  0.00     0.006 C 
BRANCH   2   3
ATOM      3  C   UNL     1      20.526   0.497  22.629  1.00  0.00     0.053 C 
BRANCH   3   4
ATOM      4  C   UNL     1      20.626   0.265  21.152  1.00  0.00     0.041 C 
ATOM      5  O   UNL     1      21.753   0.227  20.591  1.00  0.00    -0.550 OA
ATOM      6  O   UNL     1      19.477   0.060  20.399  1.00  0.00    -0.550 OA
ENDBRANCH   3   4
ENDBRANCH   2   3
ENDBRANCH   1   2
BRANCH   1   7
ATOM      7  C   UNL     1      21.019  -3.120  23.059  1.00  0.00     0.000 C 
BRANCH   7   8
ATOM      8  C   UNL     1      21.666  -3.283  21.676  1.00  0.00    -0.000 C 
BRANCH   8   9
ATOM      9  C   UNL     1      20.598  -3.432  20.585  1.00  0.00    -0.003 C 
ATOM     10  C   UNL     1      19.227  -3.718  21.192  1.00  0.00     0.004 C 
ENDBRANCH   8   9
ENDBRANCH   7   8
ENDBRANCH   1   7
TORSDOF 6
ENDMDL
MODEL 8
REMARK VINA RESULT:    -3.796     14.160     14.806
REMARK INTER + INTRA:          -5.492
REMARK INTER:                  -4.906
REMARK INTRA:                  -0.586
REMARK UNBOUND:                -0.365
REMARK SMILES CCCCCCCC(=O)[O-]
REMARK SMILES IDX 5 1 6 2 7 3 8 4 9 5 10 6 4 7 3 8 2 9 1 10
REMARK H PARENT
REMARK Flexibility Score: inf
ROOT
ATOM      1  C   UNL     1      20.499  -0.832  22.561  1.00  0.00     0.000 C 
ENDROOT
BRANCH   1   2
ATOM      2  C   UNL     1      21.008  -1.875  23.571  1.00  0.00     0.006 C 
BRANCH   2   3
ATOM      3  C   UNL     1      21.374  -3.204  22.896  1.00  0.00     0.053 C 
BRANCH   3   4
ATOM      4  C   UNL     1      22.266  -3.001  21.710  1.00  0.00     0.041 C 
ATOM      5  O   UNL     1      23.438  -2.569  21.865  1.00  0.00    -0.550 OA
ATOM      6  O   UNL     1      21.813  -3.319  20.435  1.00  0.00    -0.550 OA
ENDBRANCH   3   4
ENDBRANCH   2   3
ENDBRANCH   1   2
BRANCH   1   7
ATOM      7  C   UNL     1      19.007  -1.004  22.235  1.00  0.00     0.000 C 
BRANCH   7   8
ATOM      8  C   UNL     1      18.766  -1.480  20.794  1.00  0.00    -0.000 C 
BRANCH   8   9
ATOM      9  C   UNL     1      17.723  -2.603  20.756  1.00  0.00    -0.003 C 
ATOM     10  C   UNL     1      18.384  -3.974  20.869  1.00  0.00     0.004 C 
ENDBRANCH   8   9
ENDBRANCH   7   8
ENDBRANCH   1   7
TORSDOF 6
ENDMDL
MODEL 9
REMARK VINA RESULT:    -3.772     12.165     13.037
REMARK INTER + INTRA:          -5.459
REMARK INTER:                  -4.891
REMARK INTRA:                  -0.568
REMARK UNBOUND:                -0.365
REMARK SMILES CCCCCCCC(=O)[O-]
REMARK SMILES IDX 5 1 6 2 7 3 8 4 9 5 10 6 4 7 3 8 2 9 1 10
REMARK H PARENT
REMARK Flexibility Score: inf
ROOT
ATOM      1  C   UNL     1      17.691  -0.815  19.834  1.00  0.00     0.000 C 
ENDROOT
BRANCH   1   2
ATOM      2  C   UNL     1      18.896  -0.727  18.881  1.00  0.00     0.006 C 
BRANCH   2   3
ATOM      3  C   UNL     1      18.534  -1.149  17.450  1.00  0.00     0.053 C 
BRANCH   3   4
ATOM      4  C   UNL     1      18.718  -2.620  17.238  1.00  0.00     0.041 C 
ATOM      5  O   UNL     1      17.725  -3.355  16.995  1.00  0.00    -0.550 OA
ATOM      6  O   UNL     1      19.991  -3.175  17.277  1.00  0.00    -0.550 OA
ENDBRANCH   3   4
ENDBRANCH   2   3
ENDBRANCH   1   2
BRANCH   1   7
ATOM      7  C   UNL     1      17.930  -1.785  21.002  1.00  0.00     0.000 C 
BRANCH   7   8
ATOM      8  C   UNL     1      17.519  -3.227  20.669  1.00  0.00    -0.000 C 
BRANCH   8   9
ATOM      9  C   UNL     1      18.688  -4.194  20.892  1.00  0.00    -0.003 C 
ATOM     10  C   UNL     1      19.922  -3.459  21.408  1.00  0.00     0.004 C 
ENDBRANCH   8   9
ENDBRANCH   7   8
ENDBRANCH   1   7
TORSDOF 6
ENDMDL
