MODEL 1
REMARK VINA RESULT:    -4.663      0.000      0.000
REMARK INTER + INTRA:          -7.422
REMARK INTER:                  -7.117
REMARK INTRA:                  -0.306
REMARK UNBOUND:                -0.306
REMARK SMILES CC1=CCC[C@H](C)C(=O)C[C@@H](C(C)C)C(=O)C1
REMARK SMILES IDX 8 1 9 2 6 3 7 4 5 5 4 6 3 7 2 8 1 9 10 11 11 12 15 13 16 14
REMARK SMILES IDX 17 15 12 17 13 18 14 19
REMARK H PARENT
REMARK Flexibility Score: 70.00
ROOT
ATOM      1  C   UNL     1     133.856 134.001 114.741  1.00  0.00     0.136 C 
ATOM      2  O   UNL     1     133.382 133.314 115.636  1.00  0.00    -0.299 OA
ENDROOT
BRANCH   1   3
ATOM      3  C   UNL     1     132.970 134.468 113.608  1.00  0.00     0.053 C 
ATOM      4  C   UNL     1     132.192 135.731 113.994  1.00  0.00     0.016 C 
BRANCH   3   5
ATOM      5  C   UNL     1     133.843 134.699 112.350  1.00  0.00     0.015 C 
BRANCH   5   6
ATOM      6  C   UNL     1     134.083 136.171 111.957  1.00  0.00     0.028 C 
BRANCH   6   7
ATOM      7  C   UNL     1     135.469 136.537 111.469  1.00  0.00    -0.028 C 
ATOM      8  C   UNL     1     136.393 137.281 112.124  1.00  0.00    -0.070 CG0
ATOM      9  C   UNL     1     137.668 137.616 111.390  1.00  0.00     0.039 C 
ATOM     10  G   UNL     1     136.264 137.723 113.571  1.00  0.00     0.000 G0
ENDBRANCH   6   7
ENDBRANCH   5   6
ENDBRANCH   3   5
ENDBRANCH   1   3
BRANCH   1  11
ATOM     11  C   UNL     1     135.303 134.428 114.828  1.00  0.00     0.087 C 
BRANCH  11  12
ATOM     12  C   UNL     1     135.462 135.900 115.315  1.00  0.00     0.066 C 
BRANCH  12  13
ATOM     13  C   UNL     1     136.567 136.615 114.548  1.00  0.00     0.140 C 
ATOM     14  O   UNL     1     137.731 136.292 114.740  1.00  0.00    -0.299 OA
BRANCH  13  15
ATOM     15  C   UNL     1     136.275 137.742 113.577  1.00  0.00     0.106 CG0
ATOM     16  G   UNL     1     136.395 137.263 112.141  1.00  0.00     0.000 G0
ENDBRANCH  13  15
ENDBRANCH  12  13
BRANCH  12  17
ATOM     17  C   UNL     1     135.699 136.024 116.855  1.00  0.00    -0.006 C 
ATOM     18  C   UNL     1     136.302 134.764 117.504  1.00  0.00     0.008 C 
ATOM     19  C   UNL     1     134.412 136.428 117.594  1.00  0.00     0.008 C 
ENDBRANCH  12  17
ENDBRANCH  11  12
ENDBRANCH   1  11
TORSDOF 1
ENDMDL
MODEL 2
REMARK VINA RESULT:    -4.378      5.865      8.868
REMARK INTER + INTRA:          -6.987
REMARK INTER:                  -7.194
REMARK INTRA:                   0.207
REMARK UNBOUND:                -0.306
REMARK SMILES CC1=CCC[C@H](C)C(=O)C[C@@H](C(C)C)C(=O)C1
REMARK SMILES IDX 8 1 9 2 6 3 7 4 5 5 4 6 3 7 2 8 1 9 10 11 11 12 15 13 16 14
REMARK SMILES IDX 17 15 12 17 13 18 14 19
REMARK H PARENT
REMARK Flexibility Score: 70.00
ROOT
ATOM      1  C   UNL     1     142.927 139.659 112.562  1.00  0.00     0.136 C 
ATOM      2  O   UNL     1     143.578 139.445 111.548  1.00  0.00    -0.299 OA
ENDROOT
BRANCH   1   3
ATOM      3  C   UNL     1     143.368 140.745 113.518  1.00  0.00     0.053 C 
ATOM      4  C   UNL     1     144.859 140.621 113.852  1.00  0.00     0.016 C 
BRANCH   3   5
ATOM      5  C   UNL     1     143.037 142.124 112.898  1.00  0.00     0.015 C 
BRANCH   5   6
ATOM      6  C   UNL     1     142.096 143.026 113.723  1.00  0.00     0.028 C 
BRANCH   6   7
ATOM      7  C   UNL     1     141.966 142.718 115.200  1.00  0.00    -0.028 C 
ATOM      8  C   UNL     1     140.933 142.090 115.812  1.00  0.00    -0.070 CG0
ATOM      9  C   UNL     1     140.966 141.996 117.318  1.00  0.00     0.039 C 
ATOM     10  G   UNL     1     139.795 141.402 115.078  1.00  0.00     0.000 G0
ENDBRANCH   6   7
ENDBRANCH   5   6
ENDBRANCH   3   5
ENDBRANCH   1   3
BRANCH   1  11
ATOM     11  C   UNL     1     141.654 138.880 112.800  1.00  0.00     0.087 C 
BRANCH  11  12
ATOM     12  C   UNL     1     140.426 139.807 113.050  1.00  0.00     0.066 C 
BRANCH  12  13
ATOM     13  C   UNL     1     140.214 140.046 114.539  1.00  0.00     0.140 C 
ATOM     14  O   UNL     1     140.368 139.117 115.320  1.00  0.00    -0.299 OA
BRANCH  13  15
ATOM     15  C   UNL     1     139.782 141.392 115.086  1.00  0.00     0.106 CG0
ATOM     16  G   UNL     1     140.933 142.079 115.800  1.00  0.00     0.000 G0
ENDBRANCH  13  15
ENDBRANCH  12  13
BRANCH  12  17
ATOM     17  C   UNL     1     139.109 139.288 112.387  1.00  0.00    -0.006 C 
ATOM     18  C   UNL     1     138.369 138.217 113.211  1.00  0.00     0.008 C 
ATOM     19  C   UNL     1     139.359 138.771 110.962  1.00  0.00     0.008 C 
ENDBRANCH  12  17
ENDBRANCH  11  12
ENDBRANCH   1  11
TORSDOF 1
ENDMDL
MODEL 3
REMARK VINA RESULT:    -4.291      1.840      3.786
REMARK INTER + INTRA:          -6.855
REMARK INTER:                  -7.190
REMARK INTRA:                   0.335
REMARK UNBOUND:                -0.306
REMARK SMILES CC1=CCC[C@H](C)C(=O)C[C@@H](C(C)C)C(=O)C1
REMARK SMILES IDX 8 1 9 2 6 3 7 4 5 5 4 6 3 7 2 8 1 9 10 11 11 12 15 13 16 14
REMARK SMILES IDX 17 15 12 17 13 18 14 19
REMARK H PARENT
REMARK Flexibility Score: 70.00
ROOT
ATOM      1  C   UNL     1     136.779 136.936 114.322  1.00  0.00     0.136 C 
ATOM      2  O   UNL     1     138.001 136.922 114.353  1.00  0.00    -0.299 OA
ENDROOT
BRANCH   1   3
ATOM      3  C   UNL     1     136.068 137.477 113.101  1.00  0.00     0.053 C 
ATOM      4  C   UNL     1     136.588 136.820 111.818  1.00  0.00     0.016 C 
BRANCH   3   5
ATOM      5  C   UNL     1     134.545 137.266 113.271  1.00  0.00     0.015 C 
BRANCH   5   6
ATOM      6  C   UNL     1     133.948 136.043 112.547  1.00  0.00     0.028 C 
BRANCH   6   7
ATOM      7  C   UNL     1     133.559 134.856 113.403  1.00  0.00    -0.028 C 
ATOM      8  C   UNL     1     134.386 133.899 113.890  1.00  0.00    -0.070 CG0
ATOM      9  C   UNL     1     133.756 132.741 114.627  1.00  0.00     0.039 C 
ATOM     10  G   UNL     1     135.901 133.960 113.819  1.00  0.00     0.000 G0
ENDBRANCH   6   7
ENDBRANCH   5   6
ENDBRANCH   3   5
ENDBRANCH   1   3
BRANCH   1  11
ATOM     11  C   UNL     1     136.004 136.344 115.477  1.00  0.00     0.087 C 
BRANCH  11  12
ATOM     12  C   UNL     1     136.714 135.103 116.097  1.00  0.00     0.066 C 
BRANCH  12  13
ATOM     13  C   UNL     1     136.529 133.871 115.220  1.00  0.00     0.140 C 
ATOM     14  O   UNL     1     136.907 132.783 115.632  1.00  0.00    -0.299 OA
BRANCH  13  15
ATOM     15  C   UNL     1     135.921 133.952 113.834  1.00  0.00     0.106 CG0
ATOM     16  G   UNL     1     134.405 133.910 113.905  1.00  0.00     0.000 G0
ENDBRANCH  13  15
ENDBRANCH  12  13
BRANCH  12  17
ATOM     17  C   UNL     1     136.268 134.800 117.565  1.00  0.00    -0.006 C 
ATOM     18  C   UNL     1     134.746 134.650 117.743  1.00  0.00     0.008 C 
ATOM     19  C   UNL     1     136.810 135.850 118.548  1.00  0.00     0.008 C 
ENDBRANCH  12  17
ENDBRANCH  11  12
ENDBRANCH   1  11
TORSDOF 1
ENDMDL
MODEL 4
REMARK VINA RESULT:    -4.250      6.558      9.160
REMARK INTER + INTRA:          -6.791
REMARK INTER:                  -6.958
REMARK INTRA:                   0.167
REMARK UNBOUND:                -0.306
REMARK SMILES CC1=CCC[C@H](C)C(=O)C[C@@H](C(C)C)C(=O)C1
REMARK SMILES IDX 8 1 9 2 6 3 7 4 5 5 4 6 3 7 2 8 1 9 10 11 11 12 15 13 16 14
REMARK SMILES IDX 17 15 12 17 13 18 14 19
REMARK H PARENT
REMARK Flexibility Score: 70.00
ROOT
ATOM      1  C   UNL     1     142.502 142.600 114.515  1.00  0.00     0.136 C 
ATOM      2  O   UNL     1     143.226 143.129 115.347  1.00  0.00    -0.299 OA
ENDROOT
BRANCH   1   3
ATOM      3  C   UNL     1     141.449 143.424 113.808  1.00  0.00     0.053 C 
ATOM      4  C   UNL     1     140.760 142.618 112.702  1.00  0.00     0.016 C 
BRANCH   3   5
ATOM      5  C   UNL     1     140.431 143.942 114.852  1.00  0.00     0.015 C 
BRANCH   5   6
ATOM      6  C   UNL     1     139.557 142.869 115.533  1.00  0.00     0.028 C 
BRANCH   6   7
ATOM      7  C   UNL     1     139.892 142.515 116.966  1.00  0.00    -0.028 C 
ATOM      8  C   UNL     1     140.018 141.272 117.490  1.00  0.00    -0.070 CG0
ATOM      9  C   UNL     1     140.242 141.159 118.978  1.00  0.00     0.039 C 
ATOM     10  G   UNL     1     140.034 139.995 116.667  1.00  0.00     0.000 G0
ENDBRANCH   6   7
ENDBRANCH   5   6
ENDBRANCH   3   5
ENDBRANCH   1   3
BRANCH   1  11
ATOM     11  C   UNL     1     142.724 141.148 114.159  1.00  0.00     0.087 C 
BRANCH  11  12
ATOM     12  C   UNL     1     141.465 140.269 114.425  1.00  0.00     0.066 C 
BRANCH  12  13
ATOM     13  C   UNL     1     141.360 139.893 115.897  1.00  0.00     0.140 C 
ATOM     14  O   UNL     1     142.349 139.468 116.477  1.00  0.00    -0.299 OA
BRANCH  13  15
ATOM     15  C   UNL     1     140.056 139.996 116.663  1.00  0.00     0.106 CG0
ATOM     16  G   UNL     1     140.006 141.277 117.478  1.00  0.00     0.000 G0
ENDBRANCH  13  15
ENDBRANCH  12  13
BRANCH  12  17
ATOM     17  C   UNL     1     141.399 138.989 113.529  1.00  0.00    -0.006 C 
ATOM     18  C   UNL     1     142.480 138.929 112.434  1.00  0.00     0.008 C 
ATOM     19  C   UNL     1     140.007 138.811 112.900  1.00  0.00     0.008 C 
ENDBRANCH  12  17
ENDBRANCH  11  12
ENDBRANCH   1  11
TORSDOF 1
ENDMDL
MODEL 5
REMARK VINA RESULT:    -4.163      1.846      4.121
REMARK INTER + INTRA:          -6.659
REMARK INTER:                  -7.276
REMARK INTRA:                   0.617
REMARK UNBOUND:                -0.306
REMARK SMILES CC1=CCC[C@H](C)C(=O)C[C@@H](C(C)C)C(=O)C1
REMARK SMILES IDX 8 1 9 2 6 3 7 4 5 5 4 6 3 7 2 8 1 9 10 11 11 12 15 13 16 14
REMARK SMILES IDX 17 15 12 17 13 18 14 19
REMARK H PARENT
REMARK Flexibility Score: 70.00
ROOT
ATOM      1  C   UNL     1     133.947 135.985 112.986  1.00  0.00     0.136 C 
ATOM      2  O   UNL     1     133.944 135.330 111.953  1.00  0.00    -0.299 OA
ENDROOT
BRANCH   1   3
ATOM      3  C   UNL     1     132.938 135.675 114.070  1.00  0.00     0.053 C 
ATOM      4  C   UNL     1     131.508 135.959 113.597  1.00  0.00     0.016 C 
BRANCH   3   5
ATOM      5  C   UNL     1     133.110 134.201 114.510  1.00  0.00     0.015 C 
BRANCH   5   6
ATOM      6  C   UNL     1     134.435 133.858 115.219  1.00  0.00     0.028 C 
BRANCH   6   7
ATOM      7  C   UNL     1     134.622 134.387 116.626  1.00  0.00    -0.028 C 
ATOM      8  C   UNL     1     135.225 135.545 116.986  1.00  0.00    -0.070 CG0
ATOM      9  C   UNL     1     135.400 135.812 118.462  1.00  0.00     0.039 C 
ATOM     10  G   UNL     1     135.657 136.624 116.009  1.00  0.00     0.000 G0
ENDBRANCH   6   7
ENDBRANCH   5   6
ENDBRANCH   3   5
ENDBRANCH   1   3
BRANCH   1  11
ATOM     11  C   UNL     1     135.008 137.042 113.188  1.00  0.00     0.087 C 
BRANCH  11  12
ATOM     12  C   UNL     1     136.414 136.430 113.467  1.00  0.00     0.066 C 
BRANCH  12  13
ATOM     13  C   UNL     1     136.583 136.097 114.944  1.00  0.00     0.140 C 
ATOM     14  O   UNL     1     137.485 135.347 115.287  1.00  0.00    -0.299 OA
BRANCH  13  15
ATOM     15  C   UNL     1     135.644 136.638 116.004  1.00  0.00     0.106 CG0
ATOM     16  G   UNL     1     135.238 135.544 116.976  1.00  0.00     0.000 G0
ENDBRANCH  13  15
ENDBRANCH  12  13
BRANCH  12  17
ATOM     17  C   UNL     1     137.594 137.329 112.972  1.00  0.00    -0.006 C 
ATOM     18  C   UNL     1     137.943 138.489 113.922  1.00  0.00     0.008 C 
ATOM     19  C   UNL     1     137.336 137.871 111.557  1.00  0.00     0.008 C 
ENDBRANCH  12  17
ENDBRANCH  11  12
ENDBRANCH   1  11
TORSDOF 1
ENDMDL
MODEL 6
REMARK VINA RESULT:    -3.922      2.004      5.024
REMARK INTER + INTRA:          -6.291
REMARK INTER:                  -6.542
REMARK INTRA:                   0.251
REMARK UNBOUND:                -0.306
REMARK SMILES CC1=CCC[C@H](C)C(=O)C[C@@H](C(C)C)C(=O)C1
REMARK SMILES IDX 8 1 9 2 6 3 7 4 5 5 4 6 3 7 2 8 1 9 10 11 11 12 15 13 16 14
REMARK SMILES IDX 17 15 12 17 13 18 14 19
REMARK H PARENT
REMARK Flexibility Score: 70.00
ROOT
ATOM      1  C   UNL     1     136.332 136.977 111.905  1.00  0.00     0.136 C 
ATOM      2  O   UNL     1     135.813 137.868 111.247  1.00  0.00    -0.299 OA
ENDROOT
BRANCH   1   3
ATOM      3  C   UNL     1     137.564 137.277 112.730  1.00  0.00     0.053 C 
ATOM      4  C   UNL     1     138.391 138.405 112.103  1.00  0.00     0.016 C 
BRANCH   3   5
ATOM      5  C   UNL     1     137.130 137.625 114.174  1.00  0.00     0.015 C 
BRANCH   5   6
ATOM      6  C   UNL     1     137.687 136.712 115.284  1.00  0.00     0.028 C 
BRANCH   6   7
ATOM      7  C   UNL     1     136.686 136.104 116.244  1.00  0.00    -0.028 C 
ATOM      8  C   UNL     1     135.938 134.992 116.044  1.00  0.00    -0.070 CG0
ATOM      9  C   UNL     1     134.917 134.638 117.097  1.00  0.00     0.039 C 
ATOM     10  G   UNL     1     136.121 134.038 114.877  1.00  0.00     0.000 G0
ENDBRANCH   6   7
ENDBRANCH   5   6
ENDBRANCH   3   5
ENDBRANCH   1   3
BRANCH   1  11
ATOM     11  C   UNL     1     135.685 135.611 111.938  1.00  0.00     0.087 C 
BRANCH  11  12
ATOM     12  C   UNL     1     134.697 135.448 113.131  1.00  0.00     0.066 C 
BRANCH  12  13
ATOM     13  C   UNL     1     134.969 134.159 113.895  1.00  0.00     0.140 C 
ATOM     14  O   UNL     1     134.223 133.203 113.737  1.00  0.00    -0.299 OA
BRANCH  13  15
ATOM     15  C   UNL     1     136.118 134.031 114.876  1.00  0.00     0.106 CG0
ATOM     16  G   UNL     1     135.940 134.985 116.045  1.00  0.00     0.000 G0
ENDBRANCH  13  15
ENDBRANCH  12  13
BRANCH  12  17
ATOM     17  C   UNL     1     133.193 135.525 112.709  1.00  0.00    -0.006 C 
ATOM     18  C   UNL     1     132.892 136.592 111.641  1.00  0.00     0.008 C 
ATOM     19  C   UNL     1     132.275 135.727 113.925  1.00  0.00     0.008 C 
ENDBRANCH  12  17
ENDBRANCH  11  12
ENDBRANCH   1  11
TORSDOF 1
ENDMDL
MODEL 7
REMARK VINA RESULT:    -3.919      1.927      3.928
REMARK INTER + INTRA:          -6.287
REMARK INTER:                  -6.352
REMARK INTRA:                   0.065
REMARK UNBOUND:                -0.306
REMARK SMILES CC1=CCC[C@H](C)C(=O)C[C@@H](C(C)C)C(=O)C1
REMARK SMILES IDX 8 1 9 2 6 3 7 4 5 5 4 6 3 7 2 8 1 9 10 11 11 12 15 13 16 14
REMARK SMILES IDX 17 15 12 17 13 18 14 19
REMARK H PARENT
REMARK Flexibility Score: 70.00
ROOT
ATOM      1  C   UNL     1     136.826 135.359 114.937  1.00  0.00     0.136 C 
ATOM      2  O   UNL     1     137.108 135.921 115.987  1.00  0.00    -0.299 OA
ENDROOT
BRANCH   1   3
ATOM      3  C   UNL     1     136.070 134.050 114.970  1.00  0.00     0.053 C 
ATOM      4  C   UNL     1     136.876 132.959 115.685  1.00  0.00     0.016 C 
BRANCH   3   5
ATOM      5  C   UNL     1     134.697 134.278 115.646  1.00  0.00     0.015 C 
BRANCH   5   6
ATOM      6  C   UNL     1     133.621 134.958 114.776  1.00  0.00     0.028 C 
BRANCH   6   7
ATOM      7  C   UNL     1     133.735 134.784 113.277  1.00  0.00    -0.028 C 
ATOM      8  C   UNL     1     133.864 135.764 112.351  1.00  0.00    -0.070 CG0
ATOM      9  C   UNL     1     133.842 135.359 110.897  1.00  0.00     0.039 C 
ATOM     10  G   UNL     1     134.113 137.226 112.681  1.00  0.00     0.000 G0
ENDBRANCH   6   7
ENDBRANCH   5   6
ENDBRANCH   3   5
ENDBRANCH   1   3
BRANCH   1  11
ATOM     11  C   UNL     1     137.176 136.025 113.627  1.00  0.00     0.087 C 
BRANCH  11  12
ATOM     12  C   UNL     1     136.624 137.479 113.530  1.00  0.00     0.066 C 
BRANCH  12  13
ATOM     13  C   UNL     1     135.574 137.594 112.433  1.00  0.00     0.140 C 
ATOM     14  O   UNL     1     135.903 138.015 111.333  1.00  0.00    -0.299 OA
BRANCH  13  15
ATOM     15  C   UNL     1     134.120 137.237 112.669  1.00  0.00     0.106 CG0
ATOM     16  G   UNL     1     133.864 135.774 112.349  1.00  0.00     0.000 G0
ENDBRANCH  13  15
ENDBRANCH  12  13
BRANCH  12  17
ATOM     17  C   UNL     1     137.740 138.557 113.333  1.00  0.00    -0.006 C 
ATOM     18  C   UNL     1     138.798 138.183 112.278  1.00  0.00     0.008 C 
ATOM     19  C   UNL     1     138.427 138.909 114.662  1.00  0.00     0.008 C 
ENDBRANCH  12  17
ENDBRANCH  11  12
ENDBRANCH   1  11
TORSDOF 1
ENDMDL
MODEL 8
REMARK VINA RESULT:    -3.385     10.448     12.926
REMARK INTER + INTRA:          -5.471
REMARK INTER:                  -5.407
REMARK INTRA:                  -0.064
REMARK UNBOUND:                -0.306
REMARK SMILES CC1=CCC[C@H](C)C(=O)C[C@@H](C(C)C)C(=O)C1
REMARK SMILES IDX 8 1 9 2 6 3 7 4 5 5 4 6 3 7 2 8 1 9 10 11 11 12 15 13 16 14
REMARK SMILES IDX 17 15 12 17 13 18 14 19
REMARK H PARENT
REMARK Flexibility Score: 70.00
ROOT
ATOM      1  C   UNL     1     132.535 132.965 124.492  1.00  0.00     0.136 C 
ATOM      2  O   UNL     1     132.776 131.990 123.793  1.00  0.00    -0.299 OA
ENDROOT
BRANCH   1   3
ATOM      3  C   UNL     1     131.562 132.837 125.643  1.00  0.00     0.053 C 
ATOM      4  C   UNL     1     130.320 132.036 125.236  1.00  0.00     0.016 C 
BRANCH   3   5
ATOM      5  C   UNL     1     132.288 132.187 126.846  1.00  0.00     0.015 C 
BRANCH   5   6
ATOM      6  C   UNL     1     132.325 133.021 128.143  1.00  0.00     0.028 C 
BRANCH   6   7
ATOM      7  C   UNL     1     131.619 134.360 128.121  1.00  0.00    -0.028 C 
ATOM      8  C   UNL     1     132.194 135.580 127.987  1.00  0.00    -0.070 CG0
ATOM      9  C   UNL     1     131.300 136.791 128.112  1.00  0.00     0.039 C 
ATOM     10  G   UNL     1     133.654 135.804 127.636  1.00  0.00     0.000 G0
ENDBRANCH   6   7
ENDBRANCH   5   6
ENDBRANCH   3   5
ENDBRANCH   1   3
BRANCH   1  11
ATOM     11  C   UNL     1     133.273 134.258 124.235  1.00  0.00     0.087 C 
BRANCH  11  12
ATOM     12  C   UNL     1     134.299 134.593 125.358  1.00  0.00     0.066 C 
BRANCH  12  13
ATOM     13  C   UNL     1     133.875 135.832 126.137  1.00  0.00     0.140 C 
ATOM     14  O   UNL     1     133.716 136.887 125.539  1.00  0.00    -0.299 OA
BRANCH  13  15
ATOM     15  C   UNL     1     133.676 135.810 127.640  1.00  0.00     0.106 CG0
ATOM     16  G   UNL     1     132.213 135.602 127.989  1.00  0.00     0.000 G0
ENDBRANCH  13  15
ENDBRANCH  12  13
BRANCH  12  17
ATOM     17  C   UNL     1     135.764 134.753 124.836  1.00  0.00    -0.006 C 
ATOM     18  C   UNL     1     136.687 135.545 125.781  1.00  0.00     0.008 C 
ATOM     19  C   UNL     1     135.798 135.373 123.430  1.00  0.00     0.008 C 
ENDBRANCH  12  17
ENDBRANCH  11  12
ENDBRANCH   1  11
TORSDOF 1
ENDMDL
MODEL 9
REMARK VINA RESULT:    -3.127     12.103     14.421
REMARK INTER + INTRA:          -5.079
REMARK INTER:                  -5.120
REMARK INTRA:                   0.041
REMARK UNBOUND:                -0.306
REMARK SMILES CC1=CCC[C@H](C)C(=O)C[C@@H](C(C)C)C(=O)C1
REMARK SMILES IDX 8 1 9 2 6 3 7 4 5 5 4 6 3 7 2 8 1 9 10 11 11 12 15 13 16 14
REMARK SMILES IDX 17 15 12 17 13 18 14 19
REMARK H PARENT
REMARK Flexibility Score: 70.00
ROOT
ATOM      1  C   UNL     1     130.441 132.109 125.588  1.00  0.00     0.136 C 
ATOM      2  O   UNL     1     129.431 131.522 125.950  1.00  0.00    -0.299 OA
ENDROOT
BRANCH   1   3
ATOM      3  C   UNL     1     131.042 131.797 124.235  1.00  0.00     0.053 C 
ATOM      4  C   UNL     1     132.293 132.642 123.973  1.00  0.00     0.016 C 
BRANCH   3   5
ATOM      5  C   UNL     1     131.352 130.283 124.159  1.00  0.00     0.015 C 
BRANCH   5   6
ATOM      6  C   UNL     1     132.322 129.738 125.227  1.00  0.00     0.028 C 
BRANCH   6   7
ATOM      7  C   UNL     1     131.709 129.064 126.435  1.00  0.00    -0.028 C 
ATOM      8  C   UNL     1     132.017 129.288 127.736  1.00  0.00    -0.070 CG0
ATOM      9  C   UNL     1     131.357 128.410 128.771  1.00  0.00     0.039 C 
ATOM     10  G   UNL     1     132.911 130.416 128.221  1.00  0.00     0.000 G0
ENDBRANCH   6   7
ENDBRANCH   5   6
ENDBRANCH   3   5
ENDBRANCH   1   3
BRANCH   1  11
ATOM     11  C   UNL     1     131.027 133.186 126.471  1.00  0.00     0.087 C 
BRANCH  11  12
ATOM     12  C   UNL     1     132.391 132.767 127.097  1.00  0.00     0.066 C 
BRANCH  12  13
ATOM     13  C   UNL     1     132.194 131.748 128.212  1.00  0.00     0.140 C 
ATOM     14  O   UNL     1     131.452 132.021 129.145  1.00  0.00    -0.299 OA
BRANCH  13  15
ATOM     15  C   UNL     1     132.916 130.415 128.222  1.00  0.00     0.106 CG0
ATOM     16  G   UNL     1     131.999 129.300 127.751  1.00  0.00     0.000 G0
ENDBRANCH  13  15
ENDBRANCH  12  13
BRANCH  12  17
ATOM     17  C   UNL     1     133.239 133.978 127.608  1.00  0.00    -0.006 C 
ATOM     18  C   UNL     1     133.177 135.219 126.700  1.00  0.00     0.008 C 
ATOM     19  C   UNL     1     134.704 133.579 127.850  1.00  0.00     0.008 C 
ENDBRANCH  12  17
ENDBRANCH  11  12
ENDBRANCH   1  11
TORSDOF 1
ENDMDL
