MODEL 1
REMARK VINA RESULT:    -5.370      0.000      0.000
REMARK INTER + INTRA:          -5.892
REMARK INTER:                  -5.841
REMARK INTRA:                  -0.051
REMARK UNBOUND:                -0.051
REMARK SMILES CCc1cccc(O)c1
REMARK SMILES IDX 3 1 9 2 7 3 6 4 5 5 4 6 2 7 1 8 8 9
REMARK H PARENT 8 10
REMARK Flexibility Score: inf
ROOT
ATOM      1  C   UNL     1       7.851   7.978  79.987  1.00  0.00    -0.045 A 
ATOM      2  C   UNL     1       7.316   6.712  80.281  1.00  0.00     0.049 A 
ATOM      3  C   UNL     1       8.025   5.549  79.950  1.00  0.00     0.115 A 
ATOM      4  C   UNL     1       9.275   5.650  79.329  1.00  0.00     0.046 A 
ATOM      5  C   UNL     1       9.819   6.906  79.046  1.00  0.00     0.004 A 
ATOM      6  C   UNL     1       9.113   8.067  79.377  1.00  0.00     0.004 A 
ENDROOT
BRANCH   1   7
ATOM      7  C   UNL     1       7.105   9.226  80.373  1.00  0.00     0.032 C 
ATOM      8  C   UNL     1       6.206   8.968  81.577  1.00  0.00     0.009 C 
ENDBRANCH   1   7
BRANCH   3   9
ATOM      9  O   UNL     1       7.499   4.291  80.233  1.00  0.00    -0.508 OA
ATOM     10  H   UNL     1       6.574   4.021  79.917  1.00  0.00     0.293 HD
ENDBRANCH   3   9
TORSDOF 2
ENDMDL
MODEL 2
REMARK VINA RESULT:    -5.120      2.127      4.177
REMARK INTER + INTRA:          -5.620
REMARK INTER:                  -5.568
REMARK INTRA:                  -0.052
REMARK UNBOUND:                -0.051
REMARK SMILES CCc1cccc(O)c1
REMARK SMILES IDX 3 1 9 2 7 3 6 4 5 5 4 6 2 7 1 8 8 9
REMARK H PARENT 8 10
REMARK Flexibility Score: inf
ROOT
ATOM      1  C   UNL     1       8.922   5.544  79.627  1.00  0.00    -0.045 A 
ATOM      2  C   UNL     1       9.629   6.704  79.269  1.00  0.00     0.049 A 
ATOM      3  C   UNL     1       8.971   7.940  79.198  1.00  0.00     0.115 A 
ATOM      4  C   UNL     1       7.606   8.019  79.492  1.00  0.00     0.046 A 
ATOM      5  C   UNL     1       6.900   6.871  79.862  1.00  0.00     0.004 A 
ATOM      6  C   UNL     1       7.554   5.638  79.935  1.00  0.00     0.004 A 
ENDROOT
BRANCH   1   7
ATOM      7  C   UNL     1       9.635   4.223  79.737  1.00  0.00     0.032 C 
ATOM      8  C   UNL     1      11.146   4.422  79.725  1.00  0.00     0.009 C 
ENDBRANCH   1   7
BRANCH   3   9
ATOM      9  O   UNL     1       9.663   9.094  78.838  1.00  0.00    -0.508 OA
ATOM     10  H   UNL     1       9.201   9.862  78.365  1.00  0.00     0.293 HD
ENDBRANCH   3   9
TORSDOF 2
ENDMDL
MODEL 3
REMARK VINA RESULT:    -5.088      1.644      2.291
REMARK INTER + INTRA:          -5.585
REMARK INTER:                  -5.516
REMARK INTRA:                  -0.069
REMARK UNBOUND:                -0.051
REMARK SMILES CCc1cccc(O)c1
REMARK SMILES IDX 3 1 9 2 7 3 6 4 5 5 4 6 2 7 1 8 8 9
REMARK H PARENT 8 10
REMARK Flexibility Score: inf
ROOT
ATOM      1  C   UNL     1       7.443   8.120  80.245  1.00  0.00    -0.045 A 
ATOM      2  C   UNL     1       8.771   8.286  79.815  1.00  0.00     0.049 A 
ATOM      3  C   UNL     1       9.505   7.188  79.345  1.00  0.00     0.115 A 
ATOM      4  C   UNL     1       8.910   5.922  79.297  1.00  0.00     0.046 A 
ATOM      5  C   UNL     1       7.585   5.753  79.710  1.00  0.00     0.004 A 
ATOM      6  C   UNL     1       6.851   6.847  80.177  1.00  0.00     0.004 A 
ENDROOT
BRANCH   1   7
ATOM      7  C   UNL     1       6.644   9.304  80.717  1.00  0.00     0.032 C 
ATOM      8  C   UNL     1       5.762   8.924  81.901  1.00  0.00     0.009 C 
ENDBRANCH   1   7
BRANCH   3   9
ATOM      9  O   UNL     1      10.824   7.342  78.924  1.00  0.00    -0.508 OA
ATOM     10  H   UNL     1      11.286   6.636  78.362  1.00  0.00     0.293 HD
ENDBRANCH   3   9
TORSDOF 2
ENDMDL
MODEL 4
REMARK VINA RESULT:    -5.005      1.223      2.355
REMARK INTER + INTRA:          -5.495
REMARK INTER:                  -5.419
REMARK INTRA:                  -0.075
REMARK UNBOUND:                -0.051
REMARK SMILES CCc1cccc(O)c1
REMARK SMILES IDX 3 1 9 2 7 3 6 4 5 5 4 6 2 7 1 8 8 9
REMARK H PARENT 8 10
REMARK Flexibility Score: inf
ROOT
ATOM      1  C   UNL     1       8.998   8.007  79.688  1.00  0.00    -0.045 A 
ATOM      2  C   UNL     1       9.627   6.783  79.404  1.00  0.00     0.049 A 
ATOM      3  C   UNL     1       8.901   5.585  79.455  1.00  0.00     0.115 A 
ATOM      4  C   UNL     1       7.542   5.609  79.784  1.00  0.00     0.046 A 
ATOM      5  C   UNL     1       6.906   6.824  80.054  1.00  0.00     0.004 A 
ATOM      6  C   UNL     1       7.629   8.020  80.002  1.00  0.00     0.004 A 
ENDROOT
BRANCH   1   7
ATOM      7  C   UNL     1       9.768   9.296  79.599  1.00  0.00     0.032 C 
ATOM      8  C   UNL     1       8.821  10.491  79.574  1.00  0.00     0.009 C 
ENDBRANCH   1   7
BRANCH   3   9
ATOM      9  O   UNL     1       9.520   4.367  79.181  1.00  0.00    -0.508 OA
ATOM     10  H   UNL     1       9.008   3.595  78.769  1.00  0.00     0.293 HD
ENDBRANCH   3   9
TORSDOF 2
ENDMDL
MODEL 5
REMARK VINA RESULT:    -4.883      1.821      2.497
REMARK INTER + INTRA:          -5.362
REMARK INTER:                  -5.316
REMARK INTRA:                  -0.046
REMARK UNBOUND:                -0.051
REMARK SMILES CCc1cccc(O)c1
REMARK SMILES IDX 3 1 9 2 7 3 6 4 5 5 4 6 2 7 1 8 8 9
REMARK H PARENT 8 10
REMARK Flexibility Score: inf
ROOT
ATOM      1  C   UNL     1       9.299   8.686  79.915  1.00  0.00    -0.045 A 
ATOM      2  C   UNL     1       8.013   8.595  80.473  1.00  0.00     0.049 A 
ATOM      3  C   UNL     1       7.276   7.408  80.363  1.00  0.00     0.115 A 
ATOM      4  C   UNL     1       7.827   6.306  79.700  1.00  0.00     0.046 A 
ATOM      5  C   UNL     1       9.112   6.385  79.155  1.00  0.00     0.004 A 
ATOM      6  C   UNL     1       9.848   7.568  79.265  1.00  0.00     0.004 A 
ENDROOT
BRANCH   1   7
ATOM      7  C   UNL     1      10.104   9.949  80.063  1.00  0.00     0.032 C 
ATOM      8  C   UNL     1       9.394  11.123  79.399  1.00  0.00     0.009 C 
ENDBRANCH   1   7
BRANCH   3   9
ATOM      9  O   UNL     1       5.997   7.311  80.907  1.00  0.00    -0.508 OA
ATOM     10  H   UNL     1       5.779   6.634  81.629  1.00  0.00     0.293 HD
ENDBRANCH   3   9
TORSDOF 2
ENDMDL
MODEL 6
REMARK VINA RESULT:    -4.880      2.091      3.596
REMARK INTER + INTRA:          -5.359
REMARK INTER:                  -5.290
REMARK INTRA:                  -0.069
REMARK UNBOUND:                -0.051
REMARK SMILES CCc1cccc(O)c1
REMARK SMILES IDX 3 1 9 2 7 3 6 4 5 5 4 6 2 7 1 8 8 9
REMARK H PARENT 8 10
REMARK Flexibility Score: inf
ROOT
ATOM      1  C   UNL     1       8.352   6.763  79.790  1.00  0.00    -0.045 A 
ATOM      2  C   UNL     1       7.340   7.577  80.326  1.00  0.00     0.049 A 
ATOM      3  C   UNL     1       7.518   8.965  80.411  1.00  0.00     0.115 A 
ATOM      4  C   UNL     1       8.707   9.543  79.953  1.00  0.00     0.046 A 
ATOM      5  C   UNL     1       9.712   8.740  79.406  1.00  0.00     0.004 A 
ATOM      6  C   UNL     1       9.535   7.356  79.319  1.00  0.00     0.004 A 
ENDROOT
BRANCH   1   7
ATOM      7  C   UNL     1       8.147   5.278  79.667  1.00  0.00     0.032 C 
ATOM      8  C   UNL     1       9.447   4.528  79.939  1.00  0.00     0.009 C 
ENDBRANCH   1   7
BRANCH   3   9
ATOM      9  O   UNL     1       6.523   9.778  80.948  1.00  0.00    -0.508 OA
ATOM     10  H   UNL     1       6.710  10.399  81.727  1.00  0.00     0.293 HD
ENDBRANCH   3   9
TORSDOF 2
ENDMDL
MODEL 7
REMARK VINA RESULT:    -4.626      1.559      3.680
REMARK INTER + INTRA:          -5.083
REMARK INTER:                  -5.010
REMARK INTRA:                  -0.073
REMARK UNBOUND:                -0.051
REMARK SMILES CCc1cccc(O)c1
REMARK SMILES IDX 3 1 9 2 7 3 6 4 5 5 4 6 2 7 1 8 8 9
REMARK H PARENT 8 10
REMARK Flexibility Score: inf
ROOT
ATOM      1  C   UNL     1       9.334   5.456  79.648  1.00  0.00    -0.045 A 
ATOM      2  C   UNL     1       7.985   5.580  80.022  1.00  0.00     0.049 A 
ATOM      3  C   UNL     1       7.351   6.830  79.975  1.00  0.00     0.115 A 
ATOM      4  C   UNL     1       8.062   7.956  79.549  1.00  0.00     0.046 A 
ATOM      5  C   UNL     1       9.401   7.836  79.163  1.00  0.00     0.004 A 
ATOM      6  C   UNL     1      10.034   6.591  79.207  1.00  0.00     0.004 A 
ENDROOT
BRANCH   1   7
ATOM      7  C   UNL     1      10.006   4.109  79.665  1.00  0.00     0.032 C 
ATOM      8  C   UNL     1      11.522   4.262  79.709  1.00  0.00     0.009 C 
ENDBRANCH   1   7
BRANCH   3   9
ATOM      9  O   UNL     1       6.016   6.963  80.350  1.00  0.00    -0.508 OA
ATOM     10  H   UNL     1       5.355   6.203  80.234  1.00  0.00     0.293 HD
ENDBRANCH   3   9
TORSDOF 2
ENDMDL
MODEL 8
REMARK VINA RESULT:    -4.316      8.878     10.073
REMARK INTER + INTRA:          -4.746
REMARK INTER:                  -4.672
REMARK INTRA:                  -0.074
REMARK UNBOUND:                -0.051
REMARK SMILES CCc1cccc(O)c1
REMARK SMILES IDX 3 1 9 2 7 3 6 4 5 5 4 6 2 7 1 8 8 9
REMARK H PARENT 8 10
REMARK Flexibility Score: inf
ROOT
ATOM      1  C   UNL     1       1.979   4.600  86.716  1.00  0.00    -0.045 A 
ATOM      2  C   UNL     1       1.261   4.253  87.873  1.00  0.00     0.049 A 
ATOM      3  C   UNL     1       1.586   3.089  88.585  1.00  0.00     0.115 A 
ATOM      4  C   UNL     1       2.634   2.274  88.144  1.00  0.00     0.046 A 
ATOM      5  C   UNL     1       3.362   2.622  87.002  1.00  0.00     0.004 A 
ATOM      6  C   UNL     1       3.040   3.782  86.292  1.00  0.00     0.004 A 
ENDROOT
BRANCH   1   7
ATOM      7  C   UNL     1       1.654   5.867  85.972  1.00  0.00     0.032 C 
ATOM      8  C   UNL     1       2.895   6.423  85.282  1.00  0.00     0.009 C 
ENDBRANCH   1   7
BRANCH   3   9
ATOM      9  O   UNL     1       0.875   2.734  89.728  1.00  0.00    -0.508 OA
ATOM     10  H   UNL     1       0.029   3.223  89.999  1.00  0.00     0.293 HD
ENDBRANCH   3   9
TORSDOF 2
ENDMDL
MODEL 9
REMARK VINA RESULT:    -4.292      9.455     10.714
REMARK INTER + INTRA:          -4.720
REMARK INTER:                  -4.644
REMARK INTRA:                  -0.076
REMARK UNBOUND:                -0.051
REMARK SMILES CCc1cccc(O)c1
REMARK SMILES IDX 3 1 9 2 7 3 6 4 5 5 4 6 2 7 1 8 8 9
REMARK H PARENT 8 10
REMARK Flexibility Score: inf
ROOT
ATOM      1  C   UNL     1       1.146   3.773  88.172  1.00  0.00    -0.045 A 
ATOM      2  C   UNL     1       1.508   4.550  87.058  1.00  0.00     0.049 A 
ATOM      3  C   UNL     1       2.629   4.206  86.289  1.00  0.00     0.115 A 
ATOM      4  C   UNL     1       3.387   3.081  86.629  1.00  0.00     0.046 A 
ATOM      5  C   UNL     1       3.024   2.296  87.728  1.00  0.00     0.004 A 
ATOM      6  C   UNL     1       1.906   2.636  88.494  1.00  0.00     0.004 A 
ENDROOT
BRANCH   1   7
ATOM      7  C   UNL     1      -0.077   4.121  88.976  1.00  0.00     0.032 C 
ATOM      8  C   UNL     1      -0.290   3.113  90.100  1.00  0.00     0.009 C 
ENDBRANCH   1   7
BRANCH   3   9
ATOM      9  O   UNL     1       2.998   4.975  85.188  1.00  0.00    -0.508 OA
ATOM     10  H   UNL     1       2.758   5.958  85.125  1.00  0.00     0.293 HD
ENDBRANCH   3   9
TORSDOF 2
ENDMDL
