MODEL 1
REMARK VINA RESULT:    -4.221      0.000      0.000
REMARK INTER + INTRA:          -5.675
REMARK INTER:                  -5.701
REMARK INTRA:                   0.027
REMARK UNBOUND:                 0.027
REMARK SMILES C=C1CCC=C(C)CC[C@H]2[C@@H]1CC2(C)C
REMARK SMILES IDX 11 1 12 2 13 3 10 4 14 5 15 6 9 7 8 8 6 9 7 10 5 11 2 13
REMARK SMILES IDX 1 14 3 15 4 16
REMARK H PARENT
REMARK Flexibility Score: 70.00
ROOT
ATOM      1  C   UNL     1      12.052  33.498  21.672  1.00  0.00     0.018 C 
ATOM      2  C   UNL     1      10.602  33.743  22.111  1.00  0.00     0.015 C 
ATOM      3  C   UNL     1      10.562  32.354  22.773  1.00  0.00    -0.031 C 
ATOM      4  C   UNL     1      12.028  32.102  22.329  1.00  0.00     0.002 C 
ATOM      5  C   UNL     1      10.417  32.439  24.304  1.00  0.00     0.011 C 
ATOM      6  C   UNL     1       9.480  31.437  22.167  1.00  0.00     0.011 C 
ENDROOT
BRANCH   4   7
ATOM      7  C   UNL     1      12.295  30.855  21.447  1.00  0.00     0.009 C 
BRANCH   7   8
ATOM      8  C   UNL     1      13.736  30.318  21.590  1.00  0.00     0.030 C 
BRANCH   8   9
ATOM      9  C   UNL     1      14.561  30.514  20.329  1.00  0.00    -0.077 C 
ATOM     10  C   UNL     1      14.857  29.307  19.476  1.00  0.00     0.039 C 
ATOM     11  C   UNL     1      15.039  31.712  19.919  1.00  0.00    -0.028 CG0
ATOM     12  G   UNL     1      14.745  33.045  20.567  1.00  0.00     0.000 G0
ENDBRANCH   8   9
ENDBRANCH   7   8
ENDBRANCH   4   7
BRANCH   1  13
ATOM     13  C   UNL     1      12.336  33.602  20.175  1.00  0.00    -0.074 C 
ATOM     14  C   UNL     1      11.388  33.447  19.231  1.00  0.00     0.008 C 
BRANCH  13  15
ATOM     15  C   UNL     1      13.761  33.871  19.746  1.00  0.00     0.035 C 
BRANCH  15  16
ATOM     16  C   UNL     1      14.759  33.054  20.571  1.00  0.00     0.032 CG0
ATOM     17  G   UNL     1      15.043  31.724  19.915  1.00  0.00     0.000 G0
ENDBRANCH  15  16
ENDBRANCH  13  15
ENDBRANCH   1  13
TORSDOF 0
ENDMDL
MODEL 2
REMARK VINA RESULT:    -4.144      1.898      3.147
REMARK INTER + INTRA:          -5.571
REMARK INTER:                  -5.601
REMARK INTRA:                   0.031
REMARK UNBOUND:                 0.027
REMARK SMILES C=C1CCC=C(C)CC[C@H]2[C@@H]1CC2(C)C
REMARK SMILES IDX 11 1 12 2 13 3 10 4 14 5 15 6 9 7 8 8 6 9 7 10 5 11 2 13
REMARK SMILES IDX 1 14 3 15 4 16
REMARK H PARENT
REMARK Flexibility Score: 70.00
ROOT
ATOM      1  C   UNL     1       9.137  33.714  21.845  1.00  0.00     0.018 C 
ATOM      2  C   UNL     1       8.145  33.597  23.010  1.00  0.00     0.015 C 
ATOM      3  C   UNL     1       9.309  33.653  24.015  1.00  0.00    -0.031 C 
ATOM      4  C   UNL     1      10.317  33.768  22.839  1.00  0.00     0.002 C 
ATOM      5  C   UNL     1       9.273  34.922  24.885  1.00  0.00     0.011 C 
ATOM      6  C   UNL     1       9.400  32.387  24.892  1.00  0.00     0.011 C 
ENDROOT
BRANCH   4   7
ATOM      7  C   UNL     1      11.424  32.686  22.748  1.00  0.00     0.009 C 
BRANCH   7   8
ATOM      8  C   UNL     1      12.641  33.145  21.915  1.00  0.00     0.030 C 
BRANCH   8   9
ATOM      9  C   UNL     1      12.786  32.371  20.616  1.00  0.00    -0.077 C 
ATOM     10  C   UNL     1      13.789  31.246  20.564  1.00  0.00     0.039 C 
ATOM     11  C   UNL     1      12.059  32.622  19.502  1.00  0.00    -0.028 CG0
ATOM     12  G   UNL     1      10.928  33.617  19.396  1.00  0.00     0.000 G0
ENDBRANCH   8   9
ENDBRANCH   7   8
ENDBRANCH   4   7
BRANCH   1  13
ATOM     13  C   UNL     1       9.102  32.593  20.807  1.00  0.00    -0.074 C 
ATOM     14  C   UNL     1       8.702  31.338  21.088  1.00  0.00     0.008 C 
BRANCH  13  15
ATOM     15  C   UNL     1       9.561  32.920  19.404  1.00  0.00     0.035 C 
BRANCH  15  16
ATOM     16  C   UNL     1      10.923  33.617  19.408  1.00  0.00     0.032 CG0
ATOM     17  G   UNL     1      12.046  32.612  19.506  1.00  0.00     0.000 G0
ENDBRANCH  15  16
ENDBRANCH  13  15
ENDBRANCH   1  13
TORSDOF 0
ENDMDL
MODEL 3
REMARK VINA RESULT:    -4.111      3.077      5.057
REMARK INTER + INTRA:          -5.526
REMARK INTER:                  -5.646
REMARK INTRA:                   0.120
REMARK UNBOUND:                 0.027
REMARK SMILES C=C1CCC=C(C)CC[C@H]2[C@@H]1CC2(C)C
REMARK SMILES IDX 11 1 12 2 13 3 10 4 14 5 15 6 9 7 8 8 6 9 7 10 5 11 2 13
REMARK SMILES IDX 1 14 3 15 4 16
REMARK H PARENT
REMARK Flexibility Score: 70.00
ROOT
ATOM      1  C   UNL     1      10.213  32.015  22.812  1.00  0.00     0.018 C 
ATOM      2  C   UNL     1      10.718  32.479  24.185  1.00  0.00     0.015 C 
ATOM      3  C   UNL     1       9.396  33.229  24.425  1.00  0.00    -0.031 C 
ATOM      4  C   UNL     1       8.882  32.764  23.036  1.00  0.00     0.002 C 
ATOM      5  C   UNL     1       8.583  32.627  25.585  1.00  0.00     0.011 C 
ATOM      6  C   UNL     1       9.600  34.746  24.624  1.00  0.00     0.011 C 
ENDROOT
BRANCH   4   7
ATOM      7  C   UNL     1       8.466  33.869  22.030  1.00  0.00     0.009 C 
BRANCH   7   8
ATOM      8  C   UNL     1       7.328  33.420  21.087  1.00  0.00     0.030 C 
BRANCH   8   9
ATOM      9  C   UNL     1       7.794  33.244  19.651  1.00  0.00    -0.077 C 
ATOM     10  C   UNL     1       7.291  34.216  18.613  1.00  0.00     0.039 C 
ATOM     11  C   UNL     1       8.644  32.271  19.248  1.00  0.00    -0.028 CG0
ATOM     12  G   UNL     1       9.348  31.287  20.153  1.00  0.00     0.000 G0
ENDBRANCH   8   9
ENDBRANCH   7   8
ENDBRANCH   4   7
BRANCH   1  13
ATOM     13  C   UNL     1      11.074  32.391  21.608  1.00  0.00    -0.074 C 
ATOM     14  C   UNL     1      12.016  33.353  21.645  1.00  0.00     0.008 C 
BRANCH  13  15
ATOM     15  C   UNL     1      10.832  31.651  20.312  1.00  0.00     0.035 C 
BRANCH  15  16
ATOM     16  C   UNL     1       9.355  31.287  20.141  1.00  0.00     0.032 CG0
ATOM     17  G   UNL     1       8.652  32.280  19.246  1.00  0.00     0.000 G0
ENDBRANCH  15  16
ENDBRANCH  13  15
ENDBRANCH   1  13
TORSDOF 0
ENDMDL
MODEL 4
REMARK VINA RESULT:    -4.078      2.650      5.282
REMARK INTER + INTRA:          -5.482
REMARK INTER:                  -5.465
REMARK INTRA:                  -0.017
REMARK UNBOUND:                 0.027
REMARK SMILES C=C1CCC=C(C)CC[C@H]2[C@@H]1CC2(C)C
REMARK SMILES IDX 11 1 12 2 13 3 10 4 14 5 15 6 9 7 8 8 6 9 7 10 5 11 2 13
REMARK SMILES IDX 1 14 3 15 4 16
REMARK H PARENT
REMARK Flexibility Score: 70.00
ROOT
ATOM      1  C   UNL     1      11.396  31.453  20.946  1.00  0.00     0.018 C 
ATOM      2  C   UNL     1      12.679  31.498  20.105  1.00  0.00     0.015 C 
ATOM      3  C   UNL     1      13.493  31.868  21.357  1.00  0.00    -0.031 C 
ATOM      4  C   UNL     1      12.197  31.826  22.211  1.00  0.00     0.002 C 
ATOM      5  C   UNL     1      14.494  30.767  21.753  1.00  0.00     0.011 C 
ATOM      6  C   UNL     1      14.201  33.233  21.226  1.00  0.00     0.011 C 
ENDROOT
BRANCH   4   7
ATOM      7  C   UNL     1      11.818  33.116  22.984  1.00  0.00     0.009 C 
BRANCH   7   8
ATOM      8  C   UNL     1      10.889  32.840  24.187  1.00  0.00     0.030 C 
BRANCH   8   9
ATOM      9  C   UNL     1       9.489  33.396  23.984  1.00  0.00    -0.077 C 
ATOM     10  C   UNL     1       9.130  34.691  24.668  1.00  0.00     0.039 C 
ATOM     11  C   UNL     1       8.546  32.803  23.216  1.00  0.00    -0.028 CG0
ATOM     12  G   UNL     1       8.753  31.578  22.358  1.00  0.00     0.000 G0
ENDBRANCH   8   9
ENDBRANCH   7   8
ENDBRANCH   4   7
BRANCH   1  13
ATOM     13  C   UNL     1      10.258  32.370  20.499  1.00  0.00    -0.074 C 
ATOM     14  C   UNL     1      10.456  33.518  19.824  1.00  0.00     0.008 C 
BRANCH  13  15
ATOM     15  C   UNL     1       8.846  31.964  20.858  1.00  0.00     0.035 C 
BRANCH  15  16
ATOM     16  C   UNL     1       8.732  31.577  22.334  1.00  0.00     0.032 CG0
ATOM     17  G   UNL     1       8.551  32.800  23.202  1.00  0.00     0.000 G0
ENDBRANCH  15  16
ENDBRANCH  13  15
ENDBRANCH   1  13
TORSDOF 0
ENDMDL
MODEL 5
REMARK VINA RESULT:    -4.077      2.052      4.933
REMARK INTER + INTRA:          -5.481
REMARK INTER:                  -5.497
REMARK INTRA:                   0.016
REMARK UNBOUND:                 0.027
REMARK SMILES C=C1CCC=C(C)CC[C@H]2[C@@H]1CC2(C)C
REMARK SMILES IDX 11 1 12 2 13 3 10 4 14 5 15 6 9 7 8 8 6 9 7 10 5 11 2 13
REMARK SMILES IDX 1 14 3 15 4 16
REMARK H PARENT
REMARK Flexibility Score: 70.00
ROOT
ATOM      1  C   UNL     1      13.819  33.283  21.434  1.00  0.00     0.018 C 
ATOM      2  C   UNL     1      15.294  33.061  21.069  1.00  0.00     0.015 C 
ATOM      3  C   UNL     1      15.030  33.599  19.652  1.00  0.00    -0.031 C 
ATOM      4  C   UNL     1      13.537  33.823  20.016  1.00  0.00     0.002 C 
ATOM      5  C   UNL     1      15.773  34.919  19.378  1.00  0.00     0.011 C 
ATOM      6  C   UNL     1      15.334  32.558  18.554  1.00  0.00     0.011 C 
ENDROOT
BRANCH   4   7
ATOM      7  C   UNL     1      12.480  33.105  19.138  1.00  0.00     0.009 C 
BRANCH   7   8
ATOM      8  C   UNL     1      11.119  33.836  19.123  1.00  0.00     0.030 C 
BRANCH   8   9
ATOM      9  C   UNL     1      10.030  33.059  19.842  1.00  0.00    -0.077 C 
ATOM     10  C   UNL     1       8.981  32.366  19.010  1.00  0.00     0.039 C 
ATOM     11  C   UNL     1       9.950  32.941  21.188  1.00  0.00    -0.028 CG0
ATOM     12  G   UNL     1      10.969  33.455  22.178  1.00  0.00     0.000 G0
ENDBRANCH   8   9
ENDBRANCH   7   8
ENDBRANCH   4   7
BRANCH   1  13
ATOM     13  C   UNL     1      13.047  32.058  21.921  1.00  0.00    -0.074 C 
ATOM     14  C   UNL     1      13.409  30.794  21.631  1.00  0.00     0.008 C 
BRANCH  13  15
ATOM     15  C   UNL     1      11.806  32.295  22.753  1.00  0.00     0.035 C 
BRANCH  15  16
ATOM     16  C   UNL     1      10.967  33.446  22.193  1.00  0.00     0.032 CG0
ATOM     17  G   UNL     1       9.959  32.942  21.187  1.00  0.00     0.000 G0
ENDBRANCH  15  16
ENDBRANCH  13  15
ENDBRANCH   1  13
TORSDOF 0
ENDMDL
MODEL 6
REMARK VINA RESULT:    -4.076      3.558      5.184
REMARK INTER + INTRA:          -5.479
REMARK INTER:                  -5.483
REMARK INTRA:                   0.004
REMARK UNBOUND:                 0.027
REMARK SMILES C=C1CCC=C(C)CC[C@H]2[C@@H]1CC2(C)C
REMARK SMILES IDX 11 1 12 2 13 3 10 4 14 5 15 6 9 7 8 8 6 9 7 10 5 11 2 13
REMARK SMILES IDX 1 14 3 15 4 16
REMARK H PARENT
REMARK Flexibility Score: 70.00
ROOT
ATOM      1  C   UNL     1       7.768  33.174  22.937  1.00  0.00     0.018 C 
ATOM      2  C   UNL     1       7.890  33.126  24.467  1.00  0.00     0.015 C 
ATOM      3  C   UNL     1       9.315  33.701  24.376  1.00  0.00    -0.031 C 
ATOM      4  C   UNL     1       9.196  33.749  22.829  1.00  0.00     0.002 C 
ATOM      5  C   UNL     1       9.421  35.104  25.002  1.00  0.00     0.011 C 
ATOM      6  C   UNL     1      10.378  32.752  24.968  1.00  0.00     0.011 C 
ENDROOT
BRANCH   4   7
ATOM      7  C   UNL     1      10.259  32.967  22.014  1.00  0.00     0.009 C 
BRANCH   7   8
ATOM      8  C   UNL     1      10.455  33.531  20.590  1.00  0.00     0.030 C 
BRANCH   8   9
ATOM      9  C   UNL     1       9.959  32.583  19.511  1.00  0.00    -0.077 C 
ATOM     10  C   UNL     1      10.981  31.810  18.717  1.00  0.00     0.039 C 
ATOM     11  C   UNL     1       8.651  32.380  19.228  1.00  0.00    -0.028 CG0
ATOM     12  G   UNL     1       7.485  32.962  19.991  1.00  0.00     0.000 G0
ENDBRANCH   8   9
ENDBRANCH   7   8
ENDBRANCH   4   7
BRANCH   1  13
ATOM     13  C   UNL     1       7.453  31.853  22.239  1.00  0.00    -0.074 C 
ATOM     14  C   UNL     1       7.743  30.649  22.769  1.00  0.00     0.008 C 
BRANCH  13  15
ATOM     15  C   UNL     1       6.800  31.916  20.876  1.00  0.00     0.035 C 
BRANCH  15  16
ATOM     16  C   UNL     1       7.465  32.968  19.984  1.00  0.00     0.032 CG0
ATOM     17  G   UNL     1       8.636  32.379  19.233  1.00  0.00     0.000 G0
ENDBRANCH  15  16
ENDBRANCH  13  15
ENDBRANCH   1  13
TORSDOF 0
ENDMDL
MODEL 7
REMARK VINA RESULT:    -3.996      2.913      5.502
REMARK INTER + INTRA:          -5.371
REMARK INTER:                  -5.363
REMARK INTRA:                  -0.008
REMARK UNBOUND:                 0.027
REMARK SMILES C=C1CCC=C(C)CC[C@H]2[C@@H]1CC2(C)C
REMARK SMILES IDX 11 1 12 2 13 3 10 4 14 5 15 6 9 7 8 8 6 9 7 10 5 11 2 13
REMARK SMILES IDX 1 14 3 15 4 16
REMARK H PARENT
REMARK Flexibility Score: 70.00
ROOT
ATOM      1  C   UNL     1      11.187  33.413  22.027  1.00  0.00     0.018 C 
ATOM      2  C   UNL     1      12.712  33.247  21.978  1.00  0.00     0.015 C 
ATOM      3  C   UNL     1      12.555  32.025  21.056  1.00  0.00    -0.031 C 
ATOM      4  C   UNL     1      11.012  32.189  21.105  1.00  0.00     0.002 C 
ATOM      5  C   UNL     1      13.128  32.275  19.648  1.00  0.00     0.011 C 
ATOM      6  C   UNL     1      13.142  30.736  21.668  1.00  0.00     0.011 C 
ENDROOT
BRANCH   4   7
ATOM      7  C   UNL     1      10.189  30.978  21.616  1.00  0.00     0.009 C 
BRANCH   7   8
ATOM      8  C   UNL     1       8.725  30.999  21.124  1.00  0.00     0.030 C 
BRANCH   8   9
ATOM      9  C   UNL     1       7.733  31.251  22.247  1.00  0.00    -0.077 C 
ATOM     10  C   UNL     1       6.975  30.074  22.807  1.00  0.00     0.039 C 
ATOM     11  C   UNL     1       7.497  32.471  22.785  1.00  0.00    -0.028 CG0
ATOM     12  G   UNL     1       8.242  33.740  22.448  1.00  0.00     0.000 G0
ENDBRANCH   8   9
ENDBRANCH   7   8
ENDBRANCH   4   7
BRANCH   1  13
ATOM     13  C   UNL     1      10.545  33.388  23.413  1.00  0.00    -0.074 C 
ATOM     14  C   UNL     1      11.088  32.748  24.467  1.00  0.00     0.008 C 
BRANCH  13  15
ATOM     15  C   UNL     1       9.225  34.104  23.589  1.00  0.00     0.035 C 
BRANCH  15  16
ATOM     16  C   UNL     1       8.244  33.756  22.467  1.00  0.00     0.032 CG0
ATOM     17  G   UNL     1       7.495  32.482  22.778  1.00  0.00     0.000 G0
ENDBRANCH  15  16
ENDBRANCH  13  15
ENDBRANCH   1  13
TORSDOF 0
ENDMDL
MODEL 8
REMARK VINA RESULT:    -3.912      3.364      5.958
REMARK INTER + INTRA:          -5.257
REMARK INTER:                  -5.902
REMARK INTRA:                   0.645
REMARK UNBOUND:                 0.027
REMARK SMILES C=C1CCC=C(C)CC[C@H]2[C@@H]1CC2(C)C
REMARK SMILES IDX 11 1 12 2 13 3 10 4 14 5 15 6 9 7 8 8 6 9 7 10 5 11 2 13
REMARK SMILES IDX 1 14 3 15 4 16
REMARK H PARENT
REMARK Flexibility Score: 70.00
ROOT
ATOM      1  C   UNL     1       9.886  31.577  22.158  1.00  0.00     0.018 C 
ATOM      2  C   UNL     1      10.967  31.385  21.085  1.00  0.00     0.015 C 
ATOM      3  C   UNL     1      11.878  32.386  21.816  1.00  0.00    -0.031 C 
ATOM      4  C   UNL     1      10.786  32.585  22.902  1.00  0.00     0.002 C 
ATOM      5  C   UNL     1      13.150  31.722  22.375  1.00  0.00     0.011 C 
ATOM      6  C   UNL     1      12.233  33.611  20.948  1.00  0.00     0.011 C 
ENDROOT
BRANCH   4   7
ATOM      7  C   UNL     1      10.268  34.029  23.126  1.00  0.00     0.009 C 
BRANCH   7   8
ATOM      8  C   UNL     1       9.846  34.292  24.589  1.00  0.00     0.030 C 
BRANCH   8   9
ATOM      9  C   UNL     1       9.303  33.049  25.273  1.00  0.00    -0.077 C 
ATOM     10  C   UNL     1      10.023  32.535  26.495  1.00  0.00     0.039 C 
ATOM     11  C   UNL     1       8.202  32.380  24.859  1.00  0.00    -0.028 CG0
ATOM     12  G   UNL     1       7.282  32.807  23.740  1.00  0.00     0.000 G0
ENDBRANCH   8   9
ENDBRANCH   7   8
ENDBRANCH   4   7
BRANCH   1  13
ATOM     13  C   UNL     1       8.515  32.039  21.667  1.00  0.00    -0.074 C 
ATOM     14  C   UNL     1       8.323  32.659  20.486  1.00  0.00     0.008 C 
BRANCH  13  15
ATOM     15  C   UNL     1       7.327  31.798  22.571  1.00  0.00     0.035 C 
BRANCH  15  16
ATOM     16  C   UNL     1       7.289  32.802  23.726  1.00  0.00     0.032 CG0
ATOM     17  G   UNL     1       8.197  32.367  24.851  1.00  0.00     0.000 G0
ENDBRANCH  15  16
ENDBRANCH  13  15
ENDBRANCH   1  13
TORSDOF 0
ENDMDL
MODEL 9
REMARK VINA RESULT:    -3.895      1.980      4.606
REMARK INTER + INTRA:          -5.235
REMARK INTER:                  -5.595
REMARK INTRA:                   0.360
REMARK UNBOUND:                 0.027
REMARK SMILES C=C1CCC=C(C)CC[C@H]2[C@@H]1CC2(C)C
REMARK SMILES IDX 11 1 12 2 13 3 10 4 14 5 15 6 9 7 8 8 6 9 7 10 5 11 2 13
REMARK SMILES IDX 1 14 3 15 4 16
REMARK H PARENT
REMARK Flexibility Score: 70.00
ROOT
ATOM      1  C   UNL     1      12.831  31.791  19.843  1.00  0.00     0.018 C 
ATOM      2  C   UNL     1      14.247  31.200  19.797  1.00  0.00     0.015 C 
ATOM      3  C   UNL     1      14.139  30.812  21.282  1.00  0.00    -0.031 C 
ATOM      4  C   UNL     1      12.707  31.410  21.333  1.00  0.00     0.002 C 
ATOM      5  C   UNL     1      14.147  29.286  21.490  1.00  0.00     0.011 C 
ATOM      6  C   UNL     1      15.213  31.492  22.156  1.00  0.00     0.011 C 
ENDROOT
BRANCH   4   7
ATOM      7  C   UNL     1      12.446  32.530  22.373  1.00  0.00     0.009 C 
BRANCH   7   8
ATOM      8  C   UNL     1      11.048  32.428  23.023  1.00  0.00     0.030 C 
BRANCH   8   9
ATOM      9  C   UNL     1      10.113  33.539  22.576  1.00  0.00    -0.077 C 
ATOM     10  C   UNL     1       9.574  34.482  23.622  1.00  0.00     0.039 C 
ATOM     11  C   UNL     1       9.742  33.741  21.290  1.00  0.00    -0.028 CG0
ATOM     12  G   UNL     1      10.270  32.987  20.093  1.00  0.00     0.000 G0
ENDBRANCH   8   9
ENDBRANCH   7   8
ENDBRANCH   4   7
BRANCH   1  13
ATOM     13  C   UNL     1      12.693  33.260  19.446  1.00  0.00    -0.074 C 
ATOM     14  C   UNL     1      13.749  34.067  19.223  1.00  0.00     0.008 C 
BRANCH  13  15
ATOM     15  C   UNL     1      11.297  33.826  19.320  1.00  0.00     0.035 C 
BRANCH  15  16
ATOM     16  C   UNL     1      10.277  32.978  20.084  1.00  0.00     0.032 CG0
ATOM     17  G   UNL     1       9.755  33.717  21.293  1.00  0.00     0.000 G0
ENDBRANCH  15  16
ENDBRANCH  13  15
ENDBRANCH   1  13
TORSDOF 0
ENDMDL
