MODEL 1
REMARK VINA RESULT:    -5.213      0.000      0.000
REMARK INTER + INTRA:          -5.793
REMARK INTER:                  -5.518
REMARK INTRA:                  -0.274
REMARK UNBOUND:                -0.274
REMARK SMILES CC1=C[C@@H]2C(=C(C)CC[C@H]2C(C)C)CC1
REMARK SMILES IDX 1 1 2 2 3 3 4 4 10 5 9 6 8 7 6 8 5 9 14 10 15 11 7 12 11 13
REMARK SMILES IDX 12 14 13 15
REMARK H PARENT
REMARK Flexibility Score: inf
ROOT
ATOM      1  C   UNL     1     141.503 137.749 131.246  1.00  0.00     0.039 C 
ATOM      2  C   UNL     1     140.419 136.795 131.669  1.00  0.00    -0.076 C 
ATOM      3  C   UNL     1     139.593 136.275 130.735  1.00  0.00    -0.020 C 
ATOM      4  C   UNL     1     138.425 135.345 131.044  1.00  0.00     0.041 C 
ATOM      5  C   UNL     1     138.452 134.045 130.177  1.00  0.00     0.003 C 
ATOM      6  C   UNL     1     137.270 133.161 130.620  1.00  0.00     0.009 C 
ATOM      7  C   UNL     1     137.423 132.733 132.075  1.00  0.00     0.031 C 
ATOM      8  C   UNL     1     137.792 133.866 133.008  1.00  0.00    -0.073 C 
ATOM      9  C   UNL     1     138.339 135.028 132.544  1.00  0.00    -0.064 C 
ATOM     10  C   UNL     1     138.830 136.118 133.475  1.00  0.00     0.036 C 
ATOM     11  C   UNL     1     140.282 136.425 133.126  1.00  0.00     0.035 C 
ATOM     12  C   UNL     1     137.664 133.579 134.487  1.00  0.00     0.039 C 
ENDROOT
BRANCH   5  13
ATOM     13  C   UNL     1     138.402 134.231 128.616  1.00  0.00    -0.013 C 
ATOM     14  C   UNL     1     139.660 133.751 127.875  1.00  0.00     0.007 C 
ATOM     15  C   UNL     1     137.121 133.668 127.978  1.00  0.00     0.007 C 
ENDBRANCH   5  13
TORSDOF 1
ENDMDL
MODEL 2
REMARK VINA RESULT:    -5.191      3.618      4.791
REMARK INTER + INTRA:          -5.769
REMARK INTER:                  -5.495
REMARK INTRA:                  -0.275
REMARK UNBOUND:                -0.274
REMARK SMILES CC1=C[C@@H]2C(=C(C)CC[C@H]2C(C)C)CC1
REMARK SMILES IDX 1 1 2 2 3 3 4 4 10 5 9 6 8 7 6 8 5 9 14 10 15 11 7 12 11 13
REMARK SMILES IDX 12 14 13 15
REMARK H PARENT
REMARK Flexibility Score: inf
ROOT
ATOM      1  C   UNL     1     135.974 141.498 131.243  1.00  0.00     0.039 C 
ATOM      2  C   UNL     1     136.946 140.435 131.680  1.00  0.00    -0.076 C 
ATOM      3  C   UNL     1     137.473 139.602 130.757  1.00  0.00    -0.020 C 
ATOM      4  C   UNL     1     138.421 138.452 131.082  1.00  0.00     0.041 C 
ATOM      5  C   UNL     1     139.717 138.484 130.208  1.00  0.00     0.003 C 
ATOM      6  C   UNL     1     140.620 137.322 130.667  1.00  0.00     0.009 C 
ATOM      7  C   UNL     1     141.052 137.505 132.117  1.00  0.00     0.031 C 
ATOM      8  C   UNL     1     139.918 137.873 133.049  1.00  0.00    -0.073 C 
ATOM      9  C   UNL     1     138.746 138.396 132.581  1.00  0.00    -0.064 C 
ATOM     10  C   UNL     1     137.653 138.886 133.508  1.00  0.00     0.036 C 
ATOM     11  C   UNL     1     137.324 140.328 133.137  1.00  0.00     0.035 C 
ATOM     12  C   UNL     1     140.213 137.775 134.528  1.00  0.00     0.039 C 
ENDROOT
BRANCH   5  13
ATOM     13  C   UNL     1     139.525 138.405 128.649  1.00  0.00    -0.013 C 
ATOM     14  C   UNL     1     140.010 139.646 127.882  1.00  0.00     0.007 C 
ATOM     15  C   UNL     1     140.077 137.108 128.034  1.00  0.00     0.007 C 
ENDBRANCH   5  13
TORSDOF 1
ENDMDL
MODEL 3
REMARK VINA RESULT:    -5.168      4.211      6.967
REMARK INTER + INTRA:          -5.745
REMARK INTER:                  -5.471
REMARK INTRA:                  -0.274
REMARK UNBOUND:                -0.274
REMARK SMILES CC1=C[C@@H]2C(=C(C)CC[C@H]2C(C)C)CC1
REMARK SMILES IDX 1 1 2 2 3 3 4 4 10 5 9 6 8 7 6 8 5 9 14 10 15 11 7 12 11 13
REMARK SMILES IDX 12 14 13 15
REMARK H PARENT
REMARK Flexibility Score: inf
ROOT
ATOM      1  C   UNL     1     135.366 140.786 130.341  1.00  0.00     0.039 C 
ATOM      2  C   UNL     1     136.580 140.221 131.028  1.00  0.00    -0.076 C 
ATOM      3  C   UNL     1     136.869 140.612 132.288  1.00  0.00    -0.020 C 
ATOM      4  C   UNL     1     138.097 140.156 133.068  1.00  0.00     0.041 C 
ATOM      5  C   UNL     1     137.734 139.603 134.484  1.00  0.00     0.003 C 
ATOM      6  C   UNL     1     139.038 139.117 135.147  1.00  0.00     0.009 C 
ATOM      7  C   UNL     1     139.655 137.966 134.360  1.00  0.00     0.031 C 
ATOM      8  C   UNL     1     139.720 138.213 132.869  1.00  0.00    -0.073 C 
ATOM      9  C   UNL     1     138.936 139.153 132.262  1.00  0.00    -0.064 C 
ATOM     10  C   UNL     1     138.897 139.324 130.757  1.00  0.00     0.036 C 
ATOM     11  C   UNL     1     137.445 139.219 130.303  1.00  0.00     0.035 C 
ATOM     12  C   UNL     1     140.581 137.260 132.073  1.00  0.00     0.039 C 
ENDROOT
BRANCH   5  13
ATOM     13  C   UNL     1     136.992 140.586 135.462  1.00  0.00    -0.013 C 
ATOM     14  C   UNL     1     135.664 140.050 136.021  1.00  0.00     0.007 C 
ATOM     15  C   UNL     1     137.898 141.129 136.580  1.00  0.00     0.007 C 
ENDBRANCH   5  13
TORSDOF 1
ENDMDL
MODEL 4
REMARK VINA RESULT:    -5.165      3.093      5.741
REMARK INTER + INTRA:          -5.741
REMARK INTER:                  -5.467
REMARK INTRA:                  -0.275
REMARK UNBOUND:                -0.274
REMARK SMILES CC1=C[C@@H]2C(=C(C)CC[C@H]2C(C)C)CC1
REMARK SMILES IDX 1 1 2 2 3 3 4 4 10 5 9 6 8 7 6 8 5 9 14 10 15 11 7 12 11 13
REMARK SMILES IDX 12 14 13 15
REMARK H PARENT
REMARK Flexibility Score: inf
ROOT
ATOM      1  C   UNL     1     138.377 132.871 130.505  1.00  0.00     0.039 C 
ATOM      2  C   UNL     1     137.148 133.497 131.107  1.00  0.00    -0.076 C 
ATOM      3  C   UNL     1     136.762 133.135 132.349  1.00  0.00    -0.020 C 
ATOM      4  C   UNL     1     135.507 133.655 133.043  1.00  0.00     0.041 C 
ATOM      5  C   UNL     1     135.803 134.211 134.474  1.00  0.00     0.003 C 
ATOM      6  C   UNL     1     134.482 134.761 135.045  1.00  0.00     0.009 C 
ATOM      7  C   UNL     1     133.968 135.927 134.209  1.00  0.00     0.031 C 
ATOM      8  C   UNL     1     133.989 135.664 132.719  1.00  0.00    -0.073 C 
ATOM      9  C   UNL     1     134.768 134.682 132.175  1.00  0.00    -0.064 C 
ATOM     10  C   UNL     1     134.896 134.489 130.677  1.00  0.00     0.036 C 
ATOM     11  C   UNL     1     136.376 134.526 130.316  1.00  0.00     0.035 C 
ATOM     12  C   UNL     1     133.223 136.643 131.859  1.00  0.00     0.039 C 
ENDROOT
BRANCH   5  13
ATOM     13  C   UNL     1     136.437 133.209 135.508  1.00  0.00    -0.013 C 
ATOM     14  C   UNL     1     137.828 133.616 136.021  1.00  0.00     0.007 C 
ATOM     15  C   UNL     1     135.490 132.851 136.665  1.00  0.00     0.007 C 
ENDBRANCH   5  13
TORSDOF 1
ENDMDL
MODEL 5
REMARK VINA RESULT:    -5.154      5.254      7.646
REMARK INTER + INTRA:          -5.730
REMARK INTER:                  -5.456
REMARK INTRA:                  -0.274
REMARK UNBOUND:                -0.274
REMARK SMILES CC1=C[C@@H]2C(=C(C)CC[C@H]2C(C)C)CC1
REMARK SMILES IDX 1 1 2 2 3 3 4 4 10 5 9 6 8 7 6 8 5 9 14 10 15 11 7 12 11 13
REMARK SMILES IDX 12 14 13 15
REMARK H PARENT
REMARK Flexibility Score: inf
ROOT
ATOM      1  C   UNL     1     132.870 135.283 130.494  1.00  0.00     0.039 C 
ATOM      2  C   UNL     1     133.489 136.503 131.123  1.00  0.00    -0.076 C 
ATOM      3  C   UNL     1     133.127 136.858 132.375  1.00  0.00    -0.020 C 
ATOM      4  C   UNL     1     133.639 138.100 133.096  1.00  0.00     0.041 C 
ATOM      5  C   UNL     1     134.200 137.776 134.518  1.00  0.00     0.003 C 
ATOM      6  C   UNL     1     134.742 139.087 135.119  1.00  0.00     0.009 C 
ATOM      7  C   UNL     1     135.903 139.628 134.292  1.00  0.00     0.031 C 
ATOM      8  C   UNL     1     135.636 139.640 132.803  1.00  0.00    -0.073 C 
ATOM      9  C   UNL     1     134.659 138.867 132.243  1.00  0.00    -0.064 C 
ATOM     10  C   UNL     1     134.464 138.772 130.743  1.00  0.00     0.036 C 
ATOM     11  C   UNL     1     134.511 137.300 130.349  1.00  0.00     0.035 C 
ATOM     12  C   UNL     1     136.608 140.432 131.959  1.00  0.00     0.039 C 
ENDROOT
BRANCH   5  13
ATOM     13  C   UNL     1     133.205 137.111 135.539  1.00  0.00    -0.013 C 
ATOM     14  C   UNL     1     133.658 135.743 136.075  1.00  0.00     0.007 C 
ATOM     15  C   UNL     1     132.786 138.054 136.680  1.00  0.00     0.007 C 
ENDBRANCH   5  13
TORSDOF 1
ENDMDL
MODEL 6
REMARK VINA RESULT:    -5.149      1.615      4.644
REMARK INTER + INTRA:          -5.725
REMARK INTER:                  -5.450
REMARK INTRA:                  -0.275
REMARK UNBOUND:                -0.274
REMARK SMILES CC1=C[C@@H]2C(=C(C)CC[C@H]2C(C)C)CC1
REMARK SMILES IDX 1 1 2 2 3 3 4 4 10 5 9 6 8 7 6 8 5 9 14 10 15 11 7 12 11 13
REMARK SMILES IDX 12 14 13 15
REMARK H PARENT
REMARK Flexibility Score: inf
ROOT
ATOM      1  C   UNL     1     140.815 138.393 130.317  1.00  0.00     0.039 C 
ATOM      2  C   UNL     1     140.205 137.176 130.961  1.00  0.00    -0.076 C 
ATOM      3  C   UNL     1     140.570 136.840 132.217  1.00  0.00    -0.020 C 
ATOM      4  C   UNL     1     140.066 135.603 132.954  1.00  0.00     0.041 C 
ATOM      5  C   UNL     1     139.504 135.941 134.372  1.00  0.00     0.003 C 
ATOM      6  C   UNL     1     138.971 134.634 134.990  1.00  0.00     0.009 C 
ATOM      7  C   UNL     1     137.814 134.074 134.170  1.00  0.00     0.031 C 
ATOM      8  C   UNL     1     138.080 134.046 132.681  1.00  0.00    -0.073 C 
ATOM      9  C   UNL     1     139.051 134.819 132.111  1.00  0.00    -0.064 C 
ATOM     10  C   UNL     1     139.245 134.896 130.610  1.00  0.00     0.036 C 
ATOM     11  C   UNL     1     139.188 136.362 130.197  1.00  0.00     0.035 C 
ATOM     12  C   UNL     1     137.113 133.236 131.847  1.00  0.00     0.039 C 
ENDROOT
BRANCH   5  13
ATOM     13  C   UNL     1     140.495 136.625 135.385  1.00  0.00    -0.013 C 
ATOM     14  C   UNL     1     140.035 137.999 135.899  1.00  0.00     0.007 C 
ATOM     15  C   UNL     1     140.916 135.701 136.540  1.00  0.00     0.007 C 
ENDBRANCH   5  13
TORSDOF 1
ENDMDL
MODEL 7
REMARK VINA RESULT:    -5.139      4.348      4.826
REMARK INTER + INTRA:          -5.713
REMARK INTER:                  -5.438
REMARK INTRA:                  -0.275
REMARK UNBOUND:                -0.274
REMARK SMILES CC1=C[C@@H]2C(=C(C)CC[C@H]2C(C)C)CC1
REMARK SMILES IDX 1 1 2 2 3 3 4 4 10 5 9 6 8 7 6 8 5 9 14 10 15 11 7 12 11 13
REMARK SMILES IDX 12 14 13 15
REMARK H PARENT
REMARK Flexibility Score: inf
ROOT
ATOM      1  C   UNL     1     134.750 140.210 129.684  1.00  0.00     0.039 C 
ATOM      2  C   UNL     1     134.466 138.995 130.527  1.00  0.00    -0.076 C 
ATOM      3  C   UNL     1     134.391 137.783 129.936  1.00  0.00    -0.020 C 
ATOM      4  C   UNL     1     134.053 136.490 130.671  1.00  0.00     0.041 C 
ATOM      5  C   UNL     1     135.091 135.356 130.389  1.00  0.00     0.003 C 
ATOM      6  C   UNL     1     134.685 134.129 131.229  1.00  0.00     0.009 C 
ATOM      7  C   UNL     1     134.753 134.440 132.720  1.00  0.00     0.031 C 
ATOM      8  C   UNL     1     134.100 135.752 133.099  1.00  0.00    -0.073 C 
ATOM      9  C   UNL     1     133.865 136.730 132.175  1.00  0.00    -0.064 C 
ATOM     10  C   UNL     1     133.329 138.094 132.561  1.00  0.00     0.036 C 
ATOM     11  C   UNL     1     134.282 139.151 132.017  1.00  0.00     0.035 C 
ATOM     12  C   UNL     1     133.867 135.976 134.576  1.00  0.00     0.039 C 
ENDROOT
BRANCH   5  13
ATOM     13  C   UNL     1     135.276 134.918 128.890  1.00  0.00    -0.013 C 
ATOM     14  C   UNL     1     136.469 133.982 128.640  1.00  0.00     0.007 C 
ATOM     15  C   UNL     1     133.987 134.373 128.253  1.00  0.00     0.007 C 
ENDBRANCH   5  13
TORSDOF 1
ENDMDL
MODEL 8
REMARK VINA RESULT:    -5.131      4.793      5.361
REMARK INTER + INTRA:          -5.705
REMARK INTER:                  -5.429
REMARK INTRA:                  -0.276
REMARK UNBOUND:                -0.274
REMARK SMILES CC1=C[C@@H]2C(=C(C)CC[C@H]2C(C)C)CC1
REMARK SMILES IDX 1 1 2 2 3 3 4 4 10 5 9 6 8 7 6 8 5 9 14 10 15 11 7 12 11 13
REMARK SMILES IDX 12 14 13 15
REMARK H PARENT
REMARK Flexibility Score: inf
ROOT
ATOM      1  C   UNL     1     140.213 139.004 129.665  1.00  0.00     0.039 C 
ATOM      2  C   UNL     1     139.000 139.283 130.511  1.00  0.00    -0.076 C 
ATOM      3  C   UNL     1     137.785 139.343 129.924  1.00  0.00    -0.020 C 
ATOM      4  C   UNL     1     136.492 139.673 130.662  1.00  0.00     0.041 C 
ATOM      5  C   UNL     1     135.366 138.623 130.392  1.00  0.00     0.003 C 
ATOM      6  C   UNL     1     134.139 139.024 131.234  1.00  0.00     0.009 C 
ATOM      7  C   UNL     1     134.456 138.968 132.724  1.00  0.00     0.031 C 
ATOM      8  C   UNL     1     135.763 139.635 133.094  1.00  0.00    -0.073 C 
ATOM      9  C   UNL     1     136.735 139.873 132.164  1.00  0.00    -0.064 C 
ATOM     10  C   UNL     1     138.096 140.424 132.541  1.00  0.00     0.036 C 
ATOM     11  C   UNL     1     139.160 139.477 131.999  1.00  0.00     0.035 C 
ATOM     12  C   UNL     1     135.991 139.880 134.568  1.00  0.00     0.039 C 
ENDROOT
BRANCH   5  13
ATOM     13  C   UNL     1     134.924 138.425 128.895  1.00  0.00    -0.013 C 
ATOM     14  C   UNL     1     133.983 137.232 128.660  1.00  0.00     0.007 C 
ATOM     15  C   UNL     1     134.381 139.709 128.247  1.00  0.00     0.007 C 
ENDBRANCH   5  13
TORSDOF 1
ENDMDL
MODEL 9
REMARK VINA RESULT:    -5.111      3.502      4.721
REMARK INTER + INTRA:          -5.684
REMARK INTER:                  -5.414
REMARK INTRA:                  -0.270
REMARK UNBOUND:                -0.274
REMARK SMILES CC1=C[C@@H]2C(=C(C)CC[C@H]2C(C)C)CC1
REMARK SMILES IDX 1 1 2 2 3 3 4 4 10 5 9 6 8 7 6 8 5 9 14 10 15 11 7 12 11 13
REMARK SMILES IDX 12 14 13 15
REMARK H PARENT
REMARK Flexibility Score: inf
ROOT
ATOM      1  C   UNL     1     137.750 132.132 131.250  1.00  0.00     0.039 C 
ATOM      2  C   UNL     1     136.809 133.228 131.674  1.00  0.00    -0.076 C 
ATOM      3  C   UNL     1     136.311 134.070 130.743  1.00  0.00    -0.020 C 
ATOM      4  C   UNL     1     135.397 135.250 131.055  1.00  0.00     0.041 C 
ATOM      5  C   UNL     1     134.104 135.252 130.177  1.00  0.00     0.003 C 
ATOM      6  C   UNL     1     133.236 136.444 130.623  1.00  0.00     0.009 C 
ATOM      7  C   UNL     1     132.794 136.287 132.073  1.00  0.00     0.031 C 
ATOM      8  C   UNL     1     133.913 135.892 133.012  1.00  0.00    -0.073 C 
ATOM      9  C   UNL     1     135.070 135.329 132.552  1.00  0.00    -0.064 C 
ATOM     10  C   UNL     1     136.144 134.813 133.488  1.00  0.00     0.036 C 
ATOM     11  C   UNL     1     136.430 133.359 133.130  1.00  0.00     0.035 C 
ATOM     12  C   UNL     1     133.616 136.011 134.489  1.00  0.00     0.039 C 
ENDROOT
BRANCH   5  13
ATOM     13  C   UNL     1     134.304 135.311 128.618  1.00  0.00    -0.013 C 
ATOM     14  C   UNL     1     133.920 134.021 127.875  1.00  0.00     0.007 C 
ATOM     15  C   UNL     1     133.661 136.549 127.970  1.00  0.00     0.007 C 
ENDBRANCH   5  13
TORSDOF 1
ENDMDL
