MODEL 1
REMARK VINA RESULT:    -4.960      0.000      0.000
REMARK INTER + INTRA:          -7.020
REMARK INTER:                  -6.700
REMARK INTRA:                  -0.320
REMARK UNBOUND:                -0.320
REMARK SMILES CCCCCCC=CC(=O)[O-]
REMARK SMILES IDX 5 1 6 2 7 3 8 4 9 5 10 6 11 7 4 8 3 9 2 10 1 11
REMARK H PARENT
REMARK Flexibility Score: inf
ROOT
ATOM      1  C   UNL     1      30.117 134.536 351.949  1.00  0.00     0.004 C 
ENDROOT
BRANCH   1   2
ATOM      2  C   UNL     1      31.063 133.735 352.853  1.00  0.00     0.027 C 
BRANCH   2   3
ATOM      3  C   UNL     1      31.941 132.820 352.049  1.00  0.00    -0.025 C 
ATOM      4  C   UNL     1      32.056 132.948 350.723  1.00  0.00     0.020 C 
BRANCH   4   5
ATOM      5  C   UNL     1      32.922 132.068 349.926  1.00  0.00     0.064 C 
ATOM      6  O   UNL     1      33.577 131.157 350.496  1.00  0.00    -0.545 OA
ATOM      7  O   UNL     1      33.032 132.227 348.549  1.00  0.00    -0.545 OA
ENDBRANCH   4   5
ENDBRANCH   2   3
ENDBRANCH   1   2
BRANCH   1   8
ATOM      8  C   UNL     1      28.795 134.833 352.664  1.00  0.00     0.000 C 
BRANCH   8   9
ATOM      9  C   UNL     1      29.018 135.057 354.165  1.00  0.00    -0.000 C 
BRANCH   9  10
ATOM     10  C   UNL     1      27.798 135.724 354.810  1.00  0.00    -0.003 C 
ATOM     11  C   UNL     1      26.705 135.990 353.777  1.00  0.00     0.004 C 
ENDBRANCH   9  10
ENDBRANCH   8   9
ENDBRANCH   1   8
TORSDOF 6
ENDMDL
MODEL 2
REMARK VINA RESULT:    -4.881      5.382      7.518
REMARK INTER + INTRA:          -6.913
REMARK INTER:                  -6.559
REMARK INTRA:                  -0.354
REMARK UNBOUND:                -0.320
REMARK SMILES CCCCCCC=CC(=O)[O-]
REMARK SMILES IDX 5 1 6 2 7 3 8 4 9 5 10 6 11 7 4 8 3 9 2 10 1 11
REMARK H PARENT
REMARK Flexibility Score: inf
ROOT
ATOM      1  C   UNL     1      27.550 135.776 354.245  1.00  0.00     0.004 C 
ENDROOT
BRANCH   1   2
ATOM      2  C   UNL     1      26.914 135.231 352.960  1.00  0.00     0.027 C 
BRANCH   2   3
ATOM      3  C   UNL     1      25.662 135.982 352.611  1.00  0.00    -0.025 C 
ATOM      4  C   UNL     1      25.274 137.056 353.306  1.00  0.00     0.020 C 
BRANCH   4   5
ATOM      5  C   UNL     1      24.058 137.808 352.966  1.00  0.00     0.064 C 
ATOM      6  O   UNL     1      23.343 137.433 352.001  1.00  0.00    -0.545 OA
ATOM      7  O   UNL     1      23.683 138.932 353.695  1.00  0.00    -0.545 OA
ENDBRANCH   4   5
ENDBRANCH   2   3
ENDBRANCH   1   2
BRANCH   1   8
ATOM      8  C   UNL     1      28.929 135.151 354.483  1.00  0.00     0.000 C 
BRANCH   8   9
ATOM      9  C   UNL     1      29.947 135.652 353.451  1.00  0.00    -0.000 C 
BRANCH   9  10
ATOM     10  C   UNL     1      30.821 134.502 352.938  1.00  0.00    -0.003 C 
ATOM     11  C   UNL     1      30.871 133.356 353.944  1.00  0.00     0.004 C 
ENDBRANCH   9  10
ENDBRANCH   8   9
ENDBRANCH   1   8
TORSDOF 6
ENDMDL
MODEL 3
REMARK VINA RESULT:    -4.813     12.698     15.730
REMARK INTER + INTRA:          -6.821
REMARK INTER:                  -6.495
REMARK INTRA:                  -0.327
REMARK UNBOUND:                -0.320
REMARK SMILES CCCCCCC=CC(=O)[O-]
REMARK SMILES IDX 5 1 6 2 7 3 8 4 9 5 10 6 11 7 4 8 3 9 2 10 1 11
REMARK H PARENT
REMARK Flexibility Score: inf
ROOT
ATOM      1  C   UNL     1      21.061 142.926 354.046  1.00  0.00     0.004 C 
ENDROOT
BRANCH   1   2
ATOM      2  C   UNL     1      19.601 142.579 354.363  1.00  0.00     0.027 C 
BRANCH   2   3
ATOM      3  C   UNL     1      18.718 143.790 354.260  1.00  0.00    -0.025 C 
ATOM      4  C   UNL     1      17.803 143.907 353.293  1.00  0.00     0.020 C 
BRANCH   4   5
ATOM      5  C   UNL     1      16.924 145.080 353.189  1.00  0.00     0.064 C 
ATOM      6  O   UNL     1      16.528 145.462 352.056  1.00  0.00    -0.545 OA
ATOM      7  O   UNL     1      16.522 145.779 354.322  1.00  0.00    -0.545 OA
ENDBRANCH   4   5
ENDBRANCH   2   3
ENDBRANCH   1   2
BRANCH   1   8
ATOM      8  C   UNL     1      21.318 142.890 352.536  1.00  0.00     0.000 C 
BRANCH   8   9
ATOM      9  C   UNL     1      22.613 142.134 352.215  1.00  0.00    -0.000 C 
BRANCH   9  10
ATOM     10  C   UNL     1      22.712 140.840 353.031  1.00  0.00    -0.003 C 
ATOM     11  C   UNL     1      24.092 140.693 353.666  1.00  0.00     0.004 C 
ENDBRANCH   9  10
ENDBRANCH   8   9
ENDBRANCH   1   8
TORSDOF 6
ENDMDL
MODEL 4
REMARK VINA RESULT:    -4.807      4.317      6.649
REMARK INTER + INTRA:          -6.813
REMARK INTER:                  -6.623
REMARK INTRA:                  -0.191
REMARK UNBOUND:                -0.320
REMARK SMILES CCCCCCC=CC(=O)[O-]
REMARK SMILES IDX 5 1 6 2 7 3 8 4 9 5 10 6 11 7 4 8 3 9 2 10 1 11
REMARK H PARENT
REMARK Flexibility Score: inf
ROOT
ATOM      1  C   UNL     1      30.323 135.207 353.459  1.00  0.00     0.004 C 
ENDROOT
BRANCH   1   2
ATOM      2  C   UNL     1      29.048 135.042 354.295  1.00  0.00     0.027 C 
BRANCH   2   3
ATOM      3  C   UNL     1      27.818 135.243 353.457  1.00  0.00    -0.025 C 
ATOM      4  C   UNL     1      26.778 135.957 353.900  1.00  0.00     0.020 C 
BRANCH   4   5
ATOM      5  C   UNL     1      25.575 136.172 353.085  1.00  0.00     0.064 C 
ATOM      6  O   UNL     1      24.740 137.049 353.429  1.00  0.00    -0.545 OA
ATOM      7  O   UNL     1      25.341 135.421 351.938  1.00  0.00    -0.545 OA
ENDBRANCH   4   5
ENDBRANCH   2   3
ENDBRANCH   1   2
BRANCH   1   8
ATOM      8  C   UNL     1      30.950 133.846 353.138  1.00  0.00     0.000 C 
BRANCH   8   9
ATOM      9  C   UNL     1      31.154 133.676 351.628  1.00  0.00    -0.000 C 
BRANCH   9  10
ATOM     10  C   UNL     1      32.157 132.556 351.331  1.00  0.00    -0.003 C 
ATOM     11  C   UNL     1      32.432 132.444 349.834  1.00  0.00     0.004 C 
ENDBRANCH   9  10
ENDBRANCH   8   9
ENDBRANCH   1   8
TORSDOF 6
ENDMDL
MODEL 5
REMARK VINA RESULT:    -4.768      2.870      4.533
REMARK INTER + INTRA:          -6.760
REMARK INTER:                  -6.548
REMARK INTRA:                  -0.212
REMARK UNBOUND:                -0.320
REMARK SMILES CCCCCCC=CC(=O)[O-]
REMARK SMILES IDX 5 1 6 2 7 3 8 4 9 5 10 6 11 7 4 8 3 9 2 10 1 11
REMARK H PARENT
REMARK Flexibility Score: inf
ROOT
ATOM      1  C   UNL     1      26.462 135.746 353.186  1.00  0.00     0.004 C 
ENDROOT
BRANCH   1   2
ATOM      2  C   UNL     1      27.440 136.033 354.332  1.00  0.00     0.027 C 
BRANCH   2   3
ATOM      3  C   UNL     1      28.815 135.519 354.018  1.00  0.00    -0.025 C 
ATOM      4  C   UNL     1      29.018 134.602 353.067  1.00  0.00     0.020 C 
BRANCH   4   5
ATOM      5  C   UNL     1      30.360 134.100 352.740  1.00  0.00     0.064 C 
ATOM      6  O   UNL     1      31.117 133.701 353.663  1.00  0.00    -0.545 OA
ATOM      7  O   UNL     1      30.810 134.060 351.424  1.00  0.00    -0.545 OA
ENDBRANCH   4   5
ENDBRANCH   2   3
ENDBRANCH   1   2
BRANCH   1   8
ATOM      8  C   UNL     1      25.103 136.405 353.444  1.00  0.00     0.000 C 
BRANCH   8   9
ATOM      9  C   UNL     1      25.064 137.828 352.874  1.00  0.00    -0.000 C 
BRANCH   9  10
ATOM     10  C   UNL     1      23.694 138.476 353.102  1.00  0.00    -0.003 C 
ATOM     11  C   UNL     1      23.836 139.944 353.493  1.00  0.00     0.004 C 
ENDBRANCH   9  10
ENDBRANCH   8   9
ENDBRANCH   1   8
TORSDOF 6
ENDMDL
MODEL 6
REMARK VINA RESULT:    -4.737      4.283      6.370
REMARK INTER + INTRA:          -6.718
REMARK INTER:                  -6.338
REMARK INTRA:                  -0.380
REMARK UNBOUND:                -0.320
REMARK SMILES CCCCCCC=CC(=O)[O-]
REMARK SMILES IDX 5 1 6 2 7 3 8 4 9 5 10 6 11 7 4 8 3 9 2 10 1 11
REMARK H PARENT
REMARK Flexibility Score: inf
ROOT
ATOM      1  C   UNL     1      27.775 134.894 353.797  1.00  0.00     0.004 C 
ENDROOT
BRANCH   1   2
ATOM      2  C   UNL     1      26.790 136.056 353.979  1.00  0.00     0.027 C 
BRANCH   2   3
ATOM      3  C   UNL     1      25.708 136.021 352.938  1.00  0.00    -0.025 C 
ATOM      4  C   UNL     1      25.964 135.671 351.674  1.00  0.00     0.020 C 
BRANCH   4   5
ATOM      5  C   UNL     1      24.913 135.620 350.649  1.00  0.00     0.064 C 
ATOM      6  O   UNL     1      23.840 136.254 350.826  1.00  0.00    -0.545 OA
ATOM      7  O   UNL     1      25.082 134.878 349.484  1.00  0.00    -0.545 OA
ENDBRANCH   4   5
ENDBRANCH   2   3
ENDBRANCH   1   2
BRANCH   1   8
ATOM      8  C   UNL     1      29.158 135.255 354.349  1.00  0.00     0.000 C 
BRANCH   8   9
ATOM      9  C   UNL     1      30.109 135.675 353.221  1.00  0.00    -0.000 C 
BRANCH   9  10
ATOM     10  C   UNL     1      30.488 134.476 352.346  1.00  0.00    -0.003 C 
ATOM     11  C   UNL     1      31.206 133.403 353.160  1.00  0.00     0.004 C 
ENDBRANCH   9  10
ENDBRANCH   8   9
ENDBRANCH   1   8
TORSDOF 6
ENDMDL
MODEL 7
REMARK VINA RESULT:    -4.715     10.771     13.610
REMARK INTER + INTRA:          -6.689
REMARK INTER:                  -6.267
REMARK INTRA:                  -0.422
REMARK UNBOUND:                -0.320
REMARK SMILES CCCCCCC=CC(=O)[O-]
REMARK SMILES IDX 5 1 6 2 7 3 8 4 9 5 10 6 11 7 4 8 3 9 2 10 1 11
REMARK H PARENT
REMARK Flexibility Score: inf
ROOT
ATOM      1  C   UNL     1      20.060 142.972 354.383  1.00  0.00     0.004 C 
ENDROOT
BRANCH   1   2
ATOM      2  C   UNL     1      20.778 143.575 353.170  1.00  0.00     0.027 C 
BRANCH   2   3
ATOM      3  C   UNL     1      21.939 142.722 352.745  1.00  0.00    -0.025 C 
ATOM      4  C   UNL     1      22.252 141.595 353.390  1.00  0.00     0.020 C 
BRANCH   4   5
ATOM      5  C   UNL     1      23.376 140.744 352.976  1.00  0.00     0.064 C 
ATOM      6  O   UNL     1      24.289 141.226 352.256  1.00  0.00    -0.545 OA
ATOM      7  O   UNL     1      23.447 139.410 353.364  1.00  0.00    -0.545 OA
ENDBRANCH   4   5
ENDBRANCH   2   3
ENDBRANCH   1   2
BRANCH   1   8
ATOM      8  C   UNL     1      18.559 143.278 354.341  1.00  0.00     0.000 C 
BRANCH   8   9
ATOM      9  C   UNL     1      18.045 143.320 352.897  1.00  0.00    -0.000 C 
BRANCH   9  10
ATOM     10  C   UNL     1      17.308 144.633 352.613  1.00  0.00    -0.003 C 
ATOM     11  C   UNL     1      16.886 145.321 353.909  1.00  0.00     0.004 C 
ENDBRANCH   9  10
ENDBRANCH   8   9
ENDBRANCH   1   8
TORSDOF 6
ENDMDL
MODEL 8
REMARK VINA RESULT:    -4.712      2.271      4.043
REMARK INTER + INTRA:          -6.685
REMARK INTER:                  -6.088
REMARK INTRA:                  -0.597
REMARK UNBOUND:                -0.320
REMARK SMILES CCCCCCC=CC(=O)[O-]
REMARK SMILES IDX 5 1 6 2 7 3 8 4 9 5 10 6 11 7 4 8 3 9 2 10 1 11
REMARK H PARENT
REMARK Flexibility Score: inf
ROOT
ATOM      1  C   UNL     1      26.675 135.611 354.133  1.00  0.00     0.004 C 
ENDROOT
BRANCH   1   2
ATOM      2  C   UNL     1      28.151 135.970 354.345  1.00  0.00     0.027 C 
BRANCH   2   3
ATOM      3  C   UNL     1      29.053 134.876 353.850  1.00  0.00    -0.025 C 
ATOM      4  C   UNL     1      29.933 135.087 352.865  1.00  0.00     0.020 C 
BRANCH   4   5
ATOM      5  C   UNL     1      30.831 134.029 352.381  1.00  0.00     0.064 C 
ATOM      6  O   UNL     1      31.037 133.906 351.145  1.00  0.00    -0.545 OA
ATOM      7  O   UNL     1      31.456 133.158 353.266  1.00  0.00    -0.545 OA
ENDBRANCH   4   5
ENDBRANCH   2   3
ENDBRANCH   1   2
BRANCH   1   8
ATOM      8  C   UNL     1      26.033 136.522 353.081  1.00  0.00     0.000 C 
BRANCH   8   9
ATOM      9  C   UNL     1      25.479 135.704 351.908  1.00  0.00    -0.000 C 
BRANCH   9  10
ATOM     10  C   UNL     1      26.150 136.108 350.590  1.00  0.00    -0.003 C 
ATOM     11  C   UNL     1      27.352 135.217 350.288  1.00  0.00     0.004 C 
ENDBRANCH   9  10
ENDBRANCH   8   9
ENDBRANCH   1   8
TORSDOF 6
ENDMDL
MODEL 9
REMARK VINA RESULT:    -4.590      9.779     12.472
REMARK INTER + INTRA:          -6.520
REMARK INTER:                  -6.273
REMARK INTRA:                  -0.247
REMARK UNBOUND:                -0.320
REMARK SMILES CCCCCCC=CC(=O)[O-]
REMARK SMILES IDX 5 1 6 2 7 3 8 4 9 5 10 6 11 7 4 8 3 9 2 10 1 11
REMARK H PARENT
REMARK Flexibility Score: inf
ROOT
ATOM      1  C   UNL     1      20.617 142.867 353.027  1.00  0.00     0.004 C 
ENDROOT
BRANCH   1   2
ATOM      2  C   UNL     1      22.138 142.716 353.154  1.00  0.00     0.027 C 
BRANCH   2   3
ATOM      3  C   UNL     1      22.534 141.272 353.274  1.00  0.00    -0.025 C 
ATOM      4  C   UNL     1      23.555 140.766 352.575  1.00  0.00     0.020 C 
BRANCH   4   5
ATOM      5  C   UNL     1      23.961 139.359 352.694  1.00  0.00     0.064 C 
ATOM      6  O   UNL     1      24.858 138.905 351.937  1.00  0.00    -0.545 OA
ATOM      7  O   UNL     1      23.368 138.517 353.629  1.00  0.00    -0.545 OA
ENDBRANCH   4   5
ENDBRANCH   2   3
ENDBRANCH   1   2
BRANCH   1   8
ATOM      8  C   UNL     1      19.917 142.504 354.341  1.00  0.00     0.000 C 
BRANCH   8   9
ATOM      9  C   UNL     1      18.753 143.459 354.628  1.00  0.00    -0.000 C 
BRANCH   9  10
ATOM     10  C   UNL     1      17.895 143.673 353.376  1.00  0.00    -0.003 C 
ATOM     11  C   UNL     1      17.002 144.902 353.523  1.00  0.00     0.004 C 
ENDBRANCH   9  10
ENDBRANCH   8   9
ENDBRANCH   1   8
TORSDOF 6
ENDMDL
