MODEL 1
REMARK VINA RESULT:    -4.099      0.000      0.000
REMARK INTER + INTRA:          -6.985
REMARK INTER:                  -6.255
REMARK INTRA:                  -0.729
REMARK UNBOUND:                -0.729
REMARK SMILES CCCCCCCCCC=CC(=O)[O-]
REMARK SMILES IDX 7 1 8 2 9 3 10 4 11 5 12 6 13 7 14 8 6 9 5 10 4 11 3 12 2 13
REMARK SMILES IDX 1 14
REMARK H PARENT
REMARK Flexibility Score: inf
ROOT
ATOM      1  C   UNL     1      32.414 167.517 157.085  1.00  0.00     0.000 C 
ENDROOT
BRANCH   1   2
ATOM      2  C   UNL     1      32.365 167.500 155.552  1.00  0.00     0.004 C 
BRANCH   2   3
ATOM      3  C   UNL     1      30.918 167.465 155.048  1.00  0.00     0.027 C 
BRANCH   3   4
ATOM      4  C   UNL     1      30.364 168.851 154.888  1.00  0.00    -0.025 C 
ATOM      5  C   UNL     1      29.094 169.137 155.196  1.00  0.00     0.020 C 
BRANCH   5   6
ATOM      6  C   UNL     1      28.526 170.484 155.034  1.00  0.00     0.064 C 
ATOM      7  O   UNL     1      27.287 170.654 154.875  1.00  0.00    -0.545 OA
ATOM      8  O   UNL     1      29.368 171.588 155.057  1.00  0.00    -0.545 OA
ENDBRANCH   5   6
ENDBRANCH   3   4
ENDBRANCH   2   3
ENDBRANCH   1   2
BRANCH   1   9
ATOM      9  C   UNL     1      33.579 166.670 157.609  1.00  0.00     0.000 C 
BRANCH   9  10
ATOM     10  C   UNL     1      33.080 165.316 158.138  1.00  0.00     0.000 C 
BRANCH  10  11
ATOM     11  C   UNL     1      31.737 165.426 158.878  1.00  0.00    -0.000 C 
BRANCH  11  12
ATOM     12  C   UNL     1      31.898 165.383 160.404  1.00  0.00    -0.000 C 
BRANCH  12  13
ATOM     13  C   UNL     1      30.876 166.299 161.088  1.00  0.00    -0.003 C 
ATOM     14  C   UNL     1      30.241 167.261 160.089  1.00  0.00     0.004 C 
ENDBRANCH  12  13
ENDBRANCH  11  12
ENDBRANCH  10  11
ENDBRANCH   9  10
ENDBRANCH   1   9
TORSDOF 9
ENDMDL
MODEL 2
REMARK VINA RESULT:    -3.908      3.156      5.401
REMARK INTER + INTRA:          -6.693
REMARK INTER:                  -5.770
REMARK INTRA:                  -0.923
REMARK UNBOUND:                -0.729
REMARK SMILES CCCCCCCCCC=CC(=O)[O-]
REMARK SMILES IDX 7 1 8 2 9 3 10 4 11 5 12 6 13 7 14 8 6 9 5 10 4 11 3 12 2 13
REMARK SMILES IDX 1 14
REMARK H PARENT
REMARK Flexibility Score: inf
ROOT
ATOM      1  C   UNL     1      33.507 167.070 156.663  1.00  0.00     0.000 C 
ENDROOT
BRANCH   1   2
ATOM      2  C   UNL     1      33.590 166.482 158.077  1.00  0.00     0.004 C 
BRANCH   2   3
ATOM      3  C   UNL     1      32.478 165.452 158.311  1.00  0.00     0.027 C 
BRANCH   3   4
ATOM      4  C   UNL     1      31.737 165.732 159.586  1.00  0.00    -0.025 C 
ATOM      5  C   UNL     1      30.922 166.786 159.704  1.00  0.00     0.020 C 
BRANCH   5   6
ATOM      6  C   UNL     1      30.197 167.088 160.948  1.00  0.00     0.064 C 
ATOM      7  O   UNL     1      29.401 168.063 161.018  1.00  0.00    -0.545 OA
ATOM      8  O   UNL     1      30.394 166.287 162.065  1.00  0.00    -0.545 OA
ENDBRANCH   5   6
ENDBRANCH   3   4
ENDBRANCH   2   3
ENDBRANCH   1   2
BRANCH   1   9
ATOM      9  C   UNL     1      32.163 166.737 156.005  1.00  0.00     0.000 C 
BRANCH   9  10
ATOM     10  C   UNL     1      31.793 167.787 154.946  1.00  0.00     0.000 C 
BRANCH  10  11
ATOM     11  C   UNL     1      30.482 168.521 155.270  1.00  0.00    -0.000 C 
BRANCH  11  12
ATOM     12  C   UNL     1      29.628 167.776 156.307  1.00  0.00    -0.000 C 
BRANCH  12  13
ATOM     13  C   UNL     1      28.189 168.304 156.312  1.00  0.00    -0.003 C 
ATOM     14  C   UNL     1      27.989 169.373 155.242  1.00  0.00     0.004 C 
ENDBRANCH  12  13
ENDBRANCH  11  12
ENDBRANCH  10  11
ENDBRANCH   9  10
ENDBRANCH   1   9
TORSDOF 9
ENDMDL
MODEL 3
REMARK VINA RESULT:    -3.876      3.235      5.457
REMARK INTER + INTRA:          -6.645
REMARK INTER:                  -5.915
REMARK INTRA:                  -0.730
REMARK UNBOUND:                -0.729
REMARK SMILES CCCCCCCCCC=CC(=O)[O-]
REMARK SMILES IDX 7 1 8 2 9 3 10 4 11 5 12 6 13 7 14 8 6 9 5 10 4 11 3 12 2 13
REMARK SMILES IDX 1 14
REMARK H PARENT
REMARK Flexibility Score: inf
ROOT
ATOM      1  C   UNL     1      32.324 165.421 158.250  1.00  0.00     0.000 C 
ENDROOT
BRANCH   1   2
ATOM      2  C   UNL     1      31.650 165.777 159.581  1.00  0.00     0.004 C 
BRANCH   2   3
ATOM      3  C   UNL     1      30.449 166.705 159.359  1.00  0.00     0.027 C 
BRANCH   3   4
ATOM      4  C   UNL     1      30.167 167.532 160.579  1.00  0.00    -0.025 C 
ATOM      5  C   UNL     1      28.931 167.953 160.869  1.00  0.00     0.020 C 
BRANCH   5   6
ATOM      6  C   UNL     1      28.634 168.776 162.051  1.00  0.00     0.064 C 
ATOM      7  O   UNL     1      28.671 170.034 161.995  1.00  0.00    -0.545 OA
ATOM      8  O   UNL     1      28.308 168.156 163.251  1.00  0.00    -0.545 OA
ENDBRANCH   5   6
ENDBRANCH   3   4
ENDBRANCH   2   3
ENDBRANCH   1   2
BRANCH   1   9
ATOM      9  C   UNL     1      33.523 166.335 157.978  1.00  0.00     0.000 C 
BRANCH   9  10
ATOM     10  C   UNL     1      33.266 167.231 156.756  1.00  0.00     0.000 C 
BRANCH  10  11
ATOM     11  C   UNL     1      32.144 166.695 155.853  1.00  0.00    -0.000 C 
BRANCH  11  12
ATOM     12  C   UNL     1      31.525 167.787 154.968  1.00  0.00    -0.000 C 
BRANCH  12  13
ATOM     13  C   UNL     1      30.590 168.688 155.783  1.00  0.00    -0.003 C 
ATOM     14  C   UNL     1      29.776 169.604 154.875  1.00  0.00     0.004 C 
ENDBRANCH  12  13
ENDBRANCH  11  12
ENDBRANCH  10  11
ENDBRANCH   9  10
ENDBRANCH   1   9
TORSDOF 9
ENDMDL
MODEL 4
REMARK VINA RESULT:    -3.876      3.730      5.733
REMARK INTER + INTRA:          -6.644
REMARK INTER:                  -6.078
REMARK INTRA:                  -0.566
REMARK UNBOUND:                -0.729
REMARK SMILES CCCCCCCCCC=CC(=O)[O-]
REMARK SMILES IDX 7 1 8 2 9 3 10 4 11 5 12 6 13 7 14 8 6 9 5 10 4 11 3 12 2 13
REMARK SMILES IDX 1 14
REMARK H PARENT
REMARK Flexibility Score: inf
ROOT
ATOM      1  C   UNL     1      30.952 167.113 159.685  1.00  0.00     0.000 C 
ENDROOT
BRANCH   1   2
ATOM      2  C   UNL     1      29.968 167.206 160.857  1.00  0.00     0.004 C 
BRANCH   2   3
ATOM      3  C   UNL     1      28.588 167.677 160.383  1.00  0.00     0.027 C 
BRANCH   3   4
ATOM      4  C   UNL     1      27.990 168.663 161.343  1.00  0.00    -0.025 C 
ATOM      5  C   UNL     1      28.722 169.639 161.890  1.00  0.00     0.020 C 
BRANCH   5   6
ATOM      6  C   UNL     1      28.161 170.607 162.845  1.00  0.00     0.064 C 
ATOM      7  O   UNL     1      27.364 171.508 162.468  1.00  0.00    -0.545 OA
ATOM      8  O   UNL     1      28.515 170.529 164.185  1.00  0.00    -0.545 OA
ENDBRANCH   5   6
ENDBRANCH   3   4
ENDBRANCH   2   3
ENDBRANCH   1   2
BRANCH   1   9
ATOM      9  C   UNL     1      31.813 165.849 159.785  1.00  0.00     0.000 C 
BRANCH   9  10
ATOM     10  C   UNL     1      32.341 165.431 158.404  1.00  0.00     0.000 C 
BRANCH  10  11
ATOM     11  C   UNL     1      33.612 166.195 157.999  1.00  0.00    -0.000 C 
BRANCH  11  12
ATOM     12  C   UNL     1      33.389 167.116 156.791  1.00  0.00    -0.000 C 
BRANCH  12  13
ATOM     13  C   UNL     1      32.149 166.688 155.998  1.00  0.00    -0.003 C 
ATOM     14  C   UNL     1      31.568 167.857 155.208  1.00  0.00     0.004 C 
ENDBRANCH  12  13
ENDBRANCH  11  12
ENDBRANCH  10  11
ENDBRANCH   9  10
ENDBRANCH   1   9
TORSDOF 9
ENDMDL
MODEL 5
REMARK VINA RESULT:    -3.772      2.736      4.908
REMARK INTER + INTRA:          -6.486
REMARK INTER:                  -5.033
REMARK INTRA:                  -1.453
REMARK UNBOUND:                -0.729
REMARK SMILES CCCCCCCCCC=CC(=O)[O-]
REMARK SMILES IDX 7 1 8 2 9 3 10 4 11 5 12 6 13 7 14 8 6 9 5 10 4 11 3 12 2 13
REMARK SMILES IDX 1 14
REMARK H PARENT
REMARK Flexibility Score: inf
ROOT
ATOM      1  C   UNL     1      33.433 165.285 158.106  1.00  0.00     0.000 C 
ENDROOT
BRANCH   1   2
ATOM      2  C   UNL     1      32.173 164.875 158.878  1.00  0.00     0.004 C 
BRANCH   2   3
ATOM      3  C   UNL     1      31.906 165.833 160.045  1.00  0.00     0.027 C 
BRANCH   3   4
ATOM      4  C   UNL     1      30.489 166.327 160.031  1.00  0.00    -0.025 C 
ATOM      5  C   UNL     1      30.108 167.382 160.758  1.00  0.00     0.020 C 
BRANCH   5   6
ATOM      6  C   UNL     1      28.723 167.875 160.771  1.00  0.00     0.064 C 
ATOM      7  O   UNL     1      28.008 167.837 159.733  1.00  0.00    -0.545 OA
ATOM      8  O   UNL     1      28.191 168.392 161.945  1.00  0.00    -0.545 OA
ENDBRANCH   5   6
ENDBRANCH   3   4
ENDBRANCH   2   3
ENDBRANCH   1   2
BRANCH   1   9
ATOM      9  C   UNL     1      33.469 166.799 157.874  1.00  0.00     0.000 C 
BRANCH   9  10
ATOM     10  C   UNL     1      33.624 167.124 156.380  1.00  0.00     0.000 C 
BRANCH  10  11
ATOM     11  C   UNL     1      32.280 167.410 155.692  1.00  0.00    -0.000 C 
BRANCH  11  12
ATOM     12  C   UNL     1      31.195 167.865 156.679  1.00  0.00    -0.000 C 
BRANCH  12  13
ATOM     13  C   UNL     1      29.928 167.016 156.530  1.00  0.00    -0.003 C 
ATOM     14  C   UNL     1      30.219 165.716 155.786  1.00  0.00     0.004 C 
ENDBRANCH  12  13
ENDBRANCH  11  12
ENDBRANCH  10  11
ENDBRANCH   9  10
ENDBRANCH   1   9
TORSDOF 9
ENDMDL
MODEL 6
REMARK VINA RESULT:    -3.719      2.836      5.184
REMARK INTER + INTRA:          -6.405
REMARK INTER:                  -5.389
REMARK INTRA:                  -1.016
REMARK UNBOUND:                -0.729
REMARK SMILES CCCCCCCCCC=CC(=O)[O-]
REMARK SMILES IDX 7 1 8 2 9 3 10 4 11 5 12 6 13 7 14 8 6 9 5 10 4 11 3 12 2 13
REMARK SMILES IDX 1 14
REMARK H PARENT
REMARK Flexibility Score: inf
ROOT
ATOM      1  C   UNL     1      32.128 167.385 157.820  1.00  0.00     0.000 C 
ENDROOT
BRANCH   1   2
ATOM      2  C   UNL     1      31.726 166.051 158.462  1.00  0.00     0.004 C 
BRANCH   2   3
ATOM      3  C   UNL     1      31.390 166.233 159.947  1.00  0.00     0.027 C 
BRANCH   3   4
ATOM      4  C   UNL     1      30.494 167.418 160.161  1.00  0.00    -0.025 C 
ATOM      5  C   UNL     1      29.518 167.401 161.075  1.00  0.00     0.020 C 
BRANCH   5   6
ATOM      6  C   UNL     1      28.620 168.545 161.292  1.00  0.00     0.064 C 
ATOM      7  O   UNL     1      29.025 169.594 161.859  1.00  0.00    -0.545 OA
ATOM      8  O   UNL     1      27.300 168.468 160.864  1.00  0.00    -0.545 OA
ENDBRANCH   5   6
ENDBRANCH   3   4
ENDBRANCH   2   3
ENDBRANCH   1   2
BRANCH   1   9
ATOM      9  C   UNL     1      32.857 167.161 156.492  1.00  0.00     0.000 C 
BRANCH   9  10
ATOM     10  C   UNL     1      31.914 167.385 155.300  1.00  0.00     0.000 C 
BRANCH  10  11
ATOM     11  C   UNL     1      30.846 168.454 155.582  1.00  0.00    -0.000 C 
BRANCH  11  12
ATOM     12  C   UNL     1      29.468 168.076 155.021  1.00  0.00    -0.000 C 
BRANCH  12  13
ATOM     13  C   UNL     1      28.352 168.476 155.994  1.00  0.00    -0.003 C 
ATOM     14  C   UNL     1      28.348 167.580 157.228  1.00  0.00     0.004 C 
ENDBRANCH  12  13
ENDBRANCH  11  12
ENDBRANCH  10  11
ENDBRANCH   9  10
ENDBRANCH   1   9
TORSDOF 9
ENDMDL
MODEL 7
REMARK VINA RESULT:    -3.706      3.381      5.195
REMARK INTER + INTRA:          -6.386
REMARK INTER:                  -5.131
REMARK INTRA:                  -1.255
REMARK UNBOUND:                -0.729
REMARK SMILES CCCCCCCCCC=CC(=O)[O-]
REMARK SMILES IDX 7 1 8 2 9 3 10 4 11 5 12 6 13 7 14 8 6 9 5 10 4 11 3 12 2 13
REMARK SMILES IDX 1 14
REMARK H PARENT
REMARK Flexibility Score: inf
ROOT
ATOM      1  C   UNL     1      29.115 168.768 155.621  1.00  0.00     0.000 C 
ENDROOT
BRANCH   1   2
ATOM      2  C   UNL     1      28.528 167.428 156.085  1.00  0.00     0.004 C 
BRANCH   2   3
ATOM      3  C   UNL     1      28.113 167.490 157.560  1.00  0.00     0.027 C 
BRANCH   3   4
ATOM      4  C   UNL     1      28.970 166.593 158.404  1.00  0.00    -0.025 C 
ATOM      5  C   UNL     1      29.561 167.036 159.519  1.00  0.00     0.020 C 
BRANCH   5   6
ATOM      6  C   UNL     1      30.417 166.179 160.353  1.00  0.00     0.064 C 
ATOM      7  O   UNL     1      30.779 166.543 161.505  1.00  0.00    -0.545 OA
ATOM      8  O   UNL     1      30.835 164.948 159.865  1.00  0.00    -0.545 OA
ENDBRANCH   5   6
ENDBRANCH   3   4
ENDBRANCH   2   3
ENDBRANCH   1   2
BRANCH   1   9
ATOM      9  C   UNL     1      30.582 168.614 155.209  1.00  0.00     0.000 C 
BRANCH   9  10
ATOM     10  C   UNL     1      30.985 167.132 155.148  1.00  0.00     0.000 C 
BRANCH  10  11
ATOM     11  C   UNL     1      32.330 166.854 155.837  1.00  0.00    -0.000 C 
BRANCH  11  12
ATOM     12  C   UNL     1      32.405 167.447 157.251  1.00  0.00    -0.000 C 
BRANCH  12  13
ATOM     13  C   UNL     1      33.587 166.859 158.030  1.00  0.00    -0.003 C 
ATOM     14  C   UNL     1      33.660 165.345 157.863  1.00  0.00     0.004 C 
ENDBRANCH  12  13
ENDBRANCH  11  12
ENDBRANCH  10  11
ENDBRANCH   9  10
ENDBRANCH   1   9
TORSDOF 9
ENDMDL
MODEL 8
REMARK VINA RESULT:    -3.662      1.421      2.212
REMARK INTER + INTRA:          -6.318
REMARK INTER:                  -5.790
REMARK INTRA:                  -0.528
REMARK UNBOUND:                -0.729
REMARK SMILES CCCCCCCCCC=CC(=O)[O-]
REMARK SMILES IDX 7 1 8 2 9 3 10 4 11 5 12 6 13 7 14 8 6 9 5 10 4 11 3 12 2 13
REMARK SMILES IDX 1 14
REMARK H PARENT
REMARK Flexibility Score: inf
ROOT
ATOM      1  C   UNL     1      32.316 167.242 158.014  1.00  0.00     0.000 C 
ENDROOT
BRANCH   1   2
ATOM      2  C   UNL     1      33.019 167.094 156.659  1.00  0.00     0.004 C 
BRANCH   2   3
ATOM      3  C   UNL     1      31.999 166.998 155.517  1.00  0.00     0.027 C 
BRANCH   3   4
ATOM      4  C   UNL     1      31.254 168.290 155.343  1.00  0.00    -0.025 C 
ATOM      5  C   UNL     1      29.918 168.339 155.389  1.00  0.00     0.020 C 
BRANCH   5   6
ATOM      6  C   UNL     1      29.167 169.590 155.207  1.00  0.00     0.064 C 
ATOM      7  O   UNL     1      29.758 170.674 154.954  1.00  0.00    -0.545 OA
ATOM      8  O   UNL     1      27.783 169.578 155.315  1.00  0.00    -0.545 OA
ENDBRANCH   5   6
ENDBRANCH   3   4
ENDBRANCH   2   3
ENDBRANCH   1   2
BRANCH   1   9
ATOM      9  C   UNL     1      32.416 165.949 158.831  1.00  0.00     0.000 C 
BRANCH   9  10
ATOM     10  C   UNL     1      31.328 165.897 159.914  1.00  0.00     0.000 C 
BRANCH  10  11
ATOM     11  C   UNL     1      30.648 167.257 160.139  1.00  0.00    -0.000 C 
BRANCH  11  12
ATOM     12  C   UNL     1      29.652 167.234 161.308  1.00  0.00    -0.000 C 
BRANCH  12  13
ATOM     13  C   UNL     1      28.887 168.559 161.400  1.00  0.00    -0.003 C 
ATOM     14  C   UNL     1      27.709 168.450 162.364  1.00  0.00     0.004 C 
ENDBRANCH  12  13
ENDBRANCH  11  12
ENDBRANCH  10  11
ENDBRANCH   9  10
ENDBRANCH   1   9
TORSDOF 9
ENDMDL
MODEL 9
REMARK VINA RESULT:    -3.629      4.713      7.223
REMARK INTER + INTRA:          -6.267
REMARK INTER:                  -5.724
REMARK INTRA:                  -0.543
REMARK UNBOUND:                -0.729
REMARK SMILES CCCCCCCCCC=CC(=O)[O-]
REMARK SMILES IDX 7 1 8 2 9 3 10 4 11 5 12 6 13 7 14 8 6 9 5 10 4 11 3 12 2 13
REMARK SMILES IDX 1 14
REMARK H PARENT
REMARK Flexibility Score: inf
ROOT
ATOM      1  C   UNL     1      31.099 167.116 158.945  1.00  0.00     0.000 C 
ENDROOT
BRANCH   1   2
ATOM      2  C   UNL     1      30.801 166.883 160.431  1.00  0.00     0.004 C 
BRANCH   2   3
ATOM      3  C   UNL     1      31.412 165.562 160.916  1.00  0.00     0.027 C 
BRANCH   3   4
ATOM      4  C   UNL     1      31.702 165.604 162.388  1.00  0.00    -0.025 C 
ATOM      5  C   UNL     1      30.793 166.037 163.267  1.00  0.00     0.020 C 
BRANCH   5   6
ATOM      6  C   UNL     1      31.059 166.100 164.712  1.00  0.00     0.064 C 
ATOM      7  O   UNL     1      30.957 167.184 165.347  1.00  0.00    -0.545 OA
ATOM      8  O   UNL     1      31.431 164.947 165.390  1.00  0.00    -0.545 OA
ENDBRANCH   5   6
ENDBRANCH   3   4
ENDBRANCH   2   3
ENDBRANCH   1   2
BRANCH   1   9
ATOM      9  C   UNL     1      32.062 166.054 158.403  1.00  0.00     0.000 C 
BRANCH   9  10
ATOM     10  C   UNL     1      33.391 166.689 157.964  1.00  0.00     0.000 C 
BRANCH  10  11
ATOM     11  C   UNL     1      33.365 167.171 156.505  1.00  0.00    -0.000 C 
BRANCH  11  12
ATOM     12  C   UNL     1      32.084 166.755 155.768  1.00  0.00    -0.000 C 
BRANCH  12  13
ATOM     13  C   UNL     1      31.572 167.892 154.875  1.00  0.00    -0.003 C 
ATOM     14  C   UNL     1      30.401 168.621 155.526  1.00  0.00     0.004 C 
ENDBRANCH  12  13
ENDBRANCH  11  12
ENDBRANCH  10  11
ENDBRANCH   9  10
ENDBRANCH   1   9
TORSDOF 9
ENDMDL
