MODEL 1
REMARK VINA RESULT:    -4.366      0.000      0.000
REMARK INTER + INTRA:          -4.949
REMARK INTER:                  -4.749
REMARK INTRA:                  -0.200
REMARK UNBOUND:                -0.200
REMARK SMILES Cc1ccc(C(C)C)c(O)c1
REMARK SMILES IDX 1 1 2 2 11 3 9 4 5 5 4 6 3 7 10 8 6 10 7 11 8 12
REMARK H PARENT 10 9
REMARK Flexibility Score: inf
ROOT
ATOM      1  C   UNL     1     159.877 160.029 182.527  1.00  0.00     0.044 C 
ATOM      2  C   UNL     1     160.345 161.427 182.246  1.00  0.00    -0.047 A 
ATOM      3  C   UNL     1     160.099 162.015 180.997  1.00  0.00     0.049 A 
ATOM      4  C   UNL     1     160.501 163.334 180.737  1.00  0.00     0.119 A 
ATOM      5  C   UNL     1     161.149 164.086 181.742  1.00  0.00    -0.004 A 
ATOM      6  C   UNL     1     161.373 163.491 182.999  1.00  0.00     0.008 A 
ATOM      7  C   UNL     1     160.969 162.177 183.248  1.00  0.00     0.004 A 
ENDROOT
BRANCH   4   8
ATOM      8  O   UNL     1     160.251 163.893 179.483  1.00  0.00    -0.508 OA
ATOM      9  H   UNL     1     160.776 164.689 179.141  1.00  0.00     0.293 HD
ENDBRANCH   4   8
BRANCH   5  10
ATOM     10  C   UNL     1     161.594 165.519 181.484  1.00  0.00     0.017 C 
ATOM     11  C   UNL     1     160.627 166.521 182.127  1.00  0.00     0.012 C 
ATOM     12  C   UNL     1     163.029 165.749 181.972  1.00  0.00     0.012 C 
ENDBRANCH   5  10
TORSDOF 2
ENDMDL
MODEL 2
REMARK VINA RESULT:    -4.255      4.356      5.345
REMARK INTER + INTRA:          -4.828
REMARK INTER:                  -4.627
REMARK INTRA:                  -0.200
REMARK UNBOUND:                -0.200
REMARK SMILES Cc1ccc(C(C)C)c(O)c1
REMARK SMILES IDX 1 1 2 2 11 3 9 4 5 5 4 6 3 7 10 8 6 10 7 11 8 12
REMARK H PARENT 10 9
REMARK Flexibility Score: inf
ROOT
ATOM      1  C   UNL     1     160.861 162.608 183.283  1.00  0.00     0.044 C 
ATOM      2  C   UNL     1     162.320 162.270 183.176  1.00  0.00    -0.047 A 
ATOM      3  C   UNL     1     163.291 163.246 183.440  1.00  0.00     0.049 A 
ATOM      4  C   UNL     1     164.656 162.930 183.379  1.00  0.00     0.119 A 
ATOM      5  C   UNL     1     165.064 161.615 183.061  1.00  0.00    -0.004 A 
ATOM      6  C   UNL     1     164.078 160.639 182.817  1.00  0.00     0.008 A 
ATOM      7  C   UNL     1     162.721 160.963 182.880  1.00  0.00     0.004 A 
ENDROOT
BRANCH   4   8
ATOM      8  O   UNL     1     165.603 163.922 183.638  1.00  0.00    -0.508 OA
ATOM      9  H   UNL     1     166.026 164.461 182.893  1.00  0.00     0.293 HD
ENDBRANCH   4   8
BRANCH   5  10
ATOM     10  C   UNL     1     166.539 161.248 182.989  1.00  0.00     0.017 C 
ATOM     11  C   UNL     1     167.010 160.596 184.295  1.00  0.00     0.012 C 
ATOM     12  C   UNL     1     166.826 160.340 181.786  1.00  0.00     0.012 C 
ENDBRANCH   5  10
TORSDOF 2
ENDMDL
MODEL 3
REMARK VINA RESULT:    -4.220      3.212      4.363
REMARK INTER + INTRA:          -4.790
REMARK INTER:                  -4.592
REMARK INTRA:                  -0.198
REMARK UNBOUND:                -0.200
REMARK SMILES Cc1ccc(C(C)C)c(O)c1
REMARK SMILES IDX 1 1 2 2 11 3 9 4 5 5 4 6 3 7 10 8 6 10 7 11 8 12
REMARK H PARENT 10 9
REMARK Flexibility Score: inf
ROOT
ATOM      1  C   UNL     1     166.252 160.245 181.071  1.00  0.00     0.044 C 
ATOM      2  C   UNL     1     164.833 160.603 181.403  1.00  0.00    -0.047 A 
ATOM      3  C   UNL     1     163.893 160.785 180.378  1.00  0.00     0.049 A 
ATOM      4  C   UNL     1     162.556 161.084 180.680  1.00  0.00     0.119 A 
ATOM      5  C   UNL     1     162.143 161.193 182.026  1.00  0.00    -0.004 A 
ATOM      6  C   UNL     1     163.092 160.990 183.047  1.00  0.00     0.008 A 
ATOM      7  C   UNL     1     164.421 160.692 182.737  1.00  0.00     0.004 A 
ENDROOT
BRANCH   4   8
ATOM      8  O   UNL     1     161.643 161.268 179.641  1.00  0.00    -0.508 OA
ATOM      9  H   UNL     1     160.800 161.817 179.764  1.00  0.00     0.293 HD
ENDBRANCH   4   8
BRANCH   5  10
ATOM     10  C   UNL     1     160.697 161.516 182.379  1.00  0.00     0.017 C 
ATOM     11  C   UNL     1     159.877 160.235 182.573  1.00  0.00     0.012 C 
ATOM     12  C   UNL     1     160.618 162.413 183.621  1.00  0.00     0.012 C 
ENDBRANCH   5  10
TORSDOF 2
ENDMDL
MODEL 4
REMARK VINA RESULT:    -4.208      2.215      3.814
REMARK INTER + INTRA:          -4.776
REMARK INTER:                  -4.579
REMARK INTRA:                  -0.197
REMARK UNBOUND:                -0.200
REMARK SMILES Cc1ccc(C(C)C)c(O)c1
REMARK SMILES IDX 1 1 2 2 11 3 9 4 5 5 4 6 3 7 10 8 6 10 7 11 8 12
REMARK H PARENT 10 9
REMARK Flexibility Score: inf
ROOT
ATOM      1  C   UNL     1     160.562 161.911 183.585  1.00  0.00     0.044 C 
ATOM      2  C   UNL     1     160.676 162.034 182.093  1.00  0.00    -0.047 A 
ATOM      3  C   UNL     1     160.470 163.273 181.471  1.00  0.00     0.049 A 
ATOM      4  C   UNL     1     160.610 163.406 180.081  1.00  0.00     0.119 A 
ATOM      5  C   UNL     1     160.972 162.288 179.297  1.00  0.00    -0.004 A 
ATOM      6  C   UNL     1     161.195 161.053 179.937  1.00  0.00     0.008 A 
ATOM      7  C   UNL     1     161.053 160.930 181.321  1.00  0.00     0.004 A 
ENDROOT
BRANCH   4   8
ATOM      8  O   UNL     1     160.392 164.648 179.485  1.00  0.00    -0.508 OA
ATOM      9  H   UNL     1     160.985 165.445 179.684  1.00  0.00     0.293 HD
ENDBRANCH   4   8
BRANCH   5  10
ATOM     10  C   UNL     1     161.130 162.407 177.788  1.00  0.00     0.017 C 
ATOM     11  C   UNL     1     162.498 161.880 177.333  1.00  0.00     0.012 C 
ATOM     12  C   UNL     1     159.992 161.688 177.053  1.00  0.00     0.012 C 
ENDBRANCH   5  10
TORSDOF 2
ENDMDL
MODEL 5
REMARK VINA RESULT:    -4.204      3.761      4.829
REMARK INTER + INTRA:          -4.773
REMARK INTER:                  -4.573
REMARK INTRA:                  -0.200
REMARK UNBOUND:                -0.200
REMARK SMILES Cc1ccc(C(C)C)c(O)c1
REMARK SMILES IDX 1 1 2 2 11 3 9 4 5 5 4 6 3 7 10 8 6 10 7 11 8 12
REMARK H PARENT 10 9
REMARK Flexibility Score: inf
ROOT
ATOM      1  C   UNL     1     167.186 160.569 183.354  1.00  0.00     0.044 C 
ATOM      2  C   UNL     1     165.795 161.128 183.277  1.00  0.00    -0.047 A 
ATOM      3  C   UNL     1     165.590 162.514 183.311  1.00  0.00     0.049 A 
ATOM      4  C   UNL     1     164.296 163.047 183.203  1.00  0.00     0.119 A 
ATOM      5  C   UNL     1     163.188 162.186 183.047  1.00  0.00    -0.004 A 
ATOM      6  C   UNL     1     163.409 160.795 182.996  1.00  0.00     0.008 A 
ATOM      7  C   UNL     1     164.701 160.274 183.104  1.00  0.00     0.004 A 
ENDROOT
BRANCH   4   8
ATOM      8  O   UNL     1     164.118 164.430 183.247  1.00  0.00    -0.508 OA
ATOM      9  H   UNL     1     164.905 165.067 183.282  1.00  0.00     0.293 HD
ENDBRANCH   4   8
BRANCH   5  10
ATOM     10  C   UNL     1     161.775 162.740 182.927  1.00  0.00     0.017 C 
ATOM     11  C   UNL     1     161.366 162.896 181.457  1.00  0.00     0.012 C 
ATOM     12  C   UNL     1     160.771 161.865 183.688  1.00  0.00     0.012 C 
ENDBRANCH   5  10
TORSDOF 2
ENDMDL
MODEL 6
REMARK VINA RESULT:    -4.201     15.629     16.998
REMARK INTER + INTRA:          -4.769
REMARK INTER:                  -4.572
REMARK INTRA:                  -0.196
REMARK UNBOUND:                -0.200
REMARK SMILES Cc1ccc(C(C)C)c(O)c1
REMARK SMILES IDX 1 1 2 2 11 3 9 4 5 5 4 6 3 7 10 8 6 10 7 11 8 12
REMARK H PARENT 10 9
REMARK Flexibility Score: inf
ROOT
ATOM      1  C   UNL     1     177.177 167.884 181.671  1.00  0.00     0.044 C 
ATOM      2  C   UNL     1     177.207 166.405 181.925  1.00  0.00    -0.047 A 
ATOM      3  C   UNL     1     177.811 165.544 180.999  1.00  0.00     0.049 A 
ATOM      4  C   UNL     1     177.876 164.164 181.244  1.00  0.00     0.119 A 
ATOM      5  C   UNL     1     177.340 163.632 182.439  1.00  0.00    -0.004 A 
ATOM      6  C   UNL     1     176.752 164.511 183.369  1.00  0.00     0.008 A 
ATOM      7  C   UNL     1     176.692 165.883 183.116  1.00  0.00     0.004 A 
ENDROOT
BRANCH   4   8
ATOM      8  O   UNL     1     178.477 163.327 180.303  1.00  0.00    -0.508 OA
ATOM      9  H   UNL     1     179.201 162.667 180.563  1.00  0.00     0.293 HD
ENDBRANCH   4   8
BRANCH   5  10
ATOM     10  C   UNL     1     177.399 162.139 182.728  1.00  0.00     0.017 C 
ATOM     11  C   UNL     1     178.210 161.854 183.999  1.00  0.00     0.012 C 
ATOM     12  C   UNL     1     175.992 161.538 182.827  1.00  0.00     0.012 C 
ENDBRANCH   5  10
TORSDOF 2
ENDMDL
MODEL 7
REMARK VINA RESULT:    -4.188     18.405     19.810
REMARK INTER + INTRA:          -4.755
REMARK INTER:                  -4.623
REMARK INTRA:                  -0.132
REMARK UNBOUND:                -0.200
REMARK SMILES Cc1ccc(C(C)C)c(O)c1
REMARK SMILES IDX 1 1 2 2 11 3 9 4 5 5 4 6 3 7 10 8 6 10 7 11 8 12
REMARK H PARENT 10 9
REMARK Flexibility Score: inf
ROOT
ATOM      1  C   UNL     1     180.072 170.123 183.165  1.00  0.00     0.044 C 
ATOM      2  C   UNL     1     179.168 171.319 183.221  1.00  0.00    -0.047 A 
ATOM      3  C   UNL     1     179.643 172.581 182.837  1.00  0.00     0.049 A 
ATOM      4  C   UNL     1     178.795 173.699 182.851  1.00  0.00     0.119 A 
ATOM      5  C   UNL     1     177.446 173.557 183.244  1.00  0.00    -0.004 A 
ATOM      6  C   UNL     1     176.975 172.281 183.611  1.00  0.00     0.008 A 
ATOM      7  C   UNL     1     177.827 171.174 183.593  1.00  0.00     0.004 A 
ENDROOT
BRANCH   4   8
ATOM      8  O   UNL     1     179.295 174.944 182.471  1.00  0.00    -0.508 OA
ATOM      9  H   UNL     1     179.245 175.748 183.085  1.00  0.00     0.293 HD
ENDBRANCH   4   8
BRANCH   5  10
ATOM     10  C   UNL     1     176.506 174.755 183.268  1.00  0.00     0.017 C 
ATOM     11  C   UNL     1     175.041 174.309 183.176  1.00  0.00     0.012 C 
ATOM     12  C   UNL     1     176.742 175.618 184.514  1.00  0.00     0.012 C 
ENDBRANCH   5  10
TORSDOF 2
ENDMDL
MODEL 8
REMARK VINA RESULT:    -4.178     18.400     19.550
REMARK INTER + INTRA:          -4.744
REMARK INTER:                  -4.544
REMARK INTRA:                  -0.200
REMARK UNBOUND:                -0.200
REMARK SMILES Cc1ccc(C(C)C)c(O)c1
REMARK SMILES IDX 1 1 2 2 11 3 9 4 5 5 4 6 3 7 10 8 6 10 7 11 8 12
REMARK H PARENT 10 9
REMARK Flexibility Score: inf
ROOT
ATOM      1  C   UNL     1     180.125 170.072 183.196  1.00  0.00     0.044 C 
ATOM      2  C   UNL     1     179.192 171.247 183.172  1.00  0.00    -0.047 A 
ATOM      3  C   UNL     1     177.840 171.081 183.501  1.00  0.00     0.049 A 
ATOM      4  C   UNL     1     176.968 172.180 183.516  1.00  0.00     0.119 A 
ATOM      5  C   UNL     1     177.453 173.471 183.210  1.00  0.00    -0.004 A 
ATOM      6  C   UNL     1     178.818 173.628 182.900  1.00  0.00     0.008 A 
ATOM      7  C   UNL     1     179.678 172.528 182.887  1.00  0.00     0.004 A 
ENDROOT
BRANCH   4   8
ATOM      8  O   UNL     1     175.624 171.986 183.839  1.00  0.00    -0.508 OA
ATOM      9  H   UNL     1     174.920 171.846 183.125  1.00  0.00     0.293 HD
ENDBRANCH   4   8
BRANCH   5  10
ATOM     10  C   UNL     1     176.526 174.679 183.221  1.00  0.00     0.017 C 
ATOM     11  C   UNL     1     176.700 175.497 184.507  1.00  0.00     0.012 C 
ATOM     12  C   UNL     1     176.743 175.554 181.979  1.00  0.00     0.012 C 
ENDBRANCH   5  10
TORSDOF 2
ENDMDL
MODEL 9
REMARK VINA RESULT:    -4.156      2.747      4.283
REMARK INTER + INTRA:          -4.720
REMARK INTER:                  -4.521
REMARK INTRA:                  -0.199
REMARK UNBOUND:                -0.200
REMARK SMILES Cc1ccc(C(C)C)c(O)c1
REMARK SMILES IDX 1 1 2 2 11 3 9 4 5 5 4 6 3 7 10 8 6 10 7 11 8 12
REMARK H PARENT 10 9
REMARK Flexibility Score: inf
ROOT
ATOM      1  C   UNL     1     163.762 161.376 176.829  1.00  0.00     0.044 C 
ATOM      2  C   UNL     1     162.877 161.526 178.032  1.00  0.00    -0.047 A 
ATOM      3  C   UNL     1     161.856 162.486 178.040  1.00  0.00     0.049 A 
ATOM      4  C   UNL     1     161.001 162.610 179.146  1.00  0.00     0.119 A 
ATOM      5  C   UNL     1     161.157 161.755 180.259  1.00  0.00    -0.004 A 
ATOM      6  C   UNL     1     162.176 160.782 180.231  1.00  0.00     0.008 A 
ATOM      7  C   UNL     1     163.022 160.666 179.126  1.00  0.00     0.004 A 
ENDROOT
BRANCH   4   8
ATOM      8  O   UNL     1     159.996 163.578 179.132  1.00  0.00    -0.508 OA
ATOM      9  H   UNL     1     159.156 163.465 178.577  1.00  0.00     0.293 HD
ENDBRANCH   4   8
BRANCH   5  10
ATOM     10  C   UNL     1     160.242 161.869 181.470  1.00  0.00     0.017 C 
ATOM     11  C   UNL     1     159.939 160.488 182.065  1.00  0.00     0.012 C 
ATOM     12  C   UNL     1     160.839 162.805 182.529  1.00  0.00     0.012 C 
ENDBRANCH   5  10
TORSDOF 2
ENDMDL
