MODEL 1
REMARK VINA RESULT:    -6.228      0.000      0.000
REMARK INTER + INTRA:          -8.370
REMARK INTER:                  -7.867
REMARK INTRA:                  -0.503
REMARK UNBOUND:                -0.503
REMARK SMILES Oc1cc(O)cc(CCc2ccccc2O)c1
REMARK SMILES IDX 9 1 10 2 12 3 13 4 11 5 14 6 15 7 16 8 8 10 7 11 6 12 17 13
REMARK SMILES IDX 4 14 2 15 3 16 5 17 1 19
REMARK H PARENT 16 9 5 18 1 20
REMARK Flexibility Score: inf
ROOT
ATOM      1  C   UNL     1     -32.645 -21.458 -35.033  1.00  0.00     0.044 C 
ENDROOT
BRANCH   1   2
ATOM      2  C   UNL     1     -32.455 -22.144 -36.364  1.00  0.00    -0.006 A 
ATOM      3  C   UNL     1     -31.663 -24.086 -37.603  1.00  0.00     0.001 A 
ATOM      4  C   UNL     1     -32.033 -23.480 -38.803  1.00  0.00     0.004 A 
ATOM      5  C   UNL     1     -31.869 -23.423 -36.391  1.00  0.00     0.007 A 
ATOM      6  C   UNL     1     -32.601 -22.204 -38.796  1.00  0.00     0.046 A 
ATOM      7  C   UNL     1     -32.809 -21.524 -37.589  1.00  0.00     0.118 A 
BRANCH   7   8
ATOM      8  O   UNL     1     -33.360 -20.242 -37.649  1.00  0.00    -0.508 OA
ATOM      9  H   UNL     1     -33.838 -19.802 -36.873  1.00  0.00     0.293 HD
ENDBRANCH   7   8
ENDBRANCH   1   2
BRANCH   1  10
ATOM     10  C   UNL     1     -31.818 -22.149 -33.942  1.00  0.00     0.040 C 
BRANCH  10  11
ATOM     11  C   UNL     1     -30.963 -21.148 -33.214  1.00  0.00    -0.040 A 
ATOM     12  C   UNL     1     -31.138 -20.936 -31.838  1.00  0.00     0.050 A 
ATOM     13  C   UNL     1     -29.943 -20.459 -33.893  1.00  0.00     0.050 A 
ATOM     14  C   UNL     1     -30.322 -20.031 -31.151  1.00  0.00     0.119 A 
ATOM     15  C   UNL     1     -29.126 -19.553 -33.210  1.00  0.00     0.119 A 
ATOM     16  C   UNL     1     -29.317 -19.337 -31.839  1.00  0.00     0.092 A 
BRANCH  14  17
ATOM     17  O   UNL     1     -30.516 -19.830 -29.786  1.00  0.00    -0.508 OA
ATOM     18  H   UNL     1     -30.209 -20.511 -29.102  1.00  0.00     0.293 HD
ENDBRANCH  14  17
BRANCH  15  19
ATOM     19  O   UNL     1     -28.124 -18.875 -33.902  1.00  0.00    -0.508 OA
ATOM     20  H   UNL     1     -27.195 -18.761 -33.513  1.00  0.00     0.293 HD
ENDBRANCH  15  19
ENDBRANCH  10  11
ENDBRANCH   1  10
TORSDOF 6
ENDMDL
MODEL 2
REMARK VINA RESULT:    -6.200      0.081      2.040
REMARK INTER + INTRA:          -8.334
REMARK INTER:                  -7.836
REMARK INTRA:                  -0.499
REMARK UNBOUND:                -0.503
REMARK SMILES Oc1cc(O)cc(CCc2ccccc2O)c1
REMARK SMILES IDX 9 1 10 2 12 3 13 4 11 5 14 6 15 7 16 8 8 10 7 11 6 12 17 13
REMARK SMILES IDX 4 14 2 15 3 16 5 17 1 19
REMARK H PARENT 16 9 5 18 1 20
REMARK Flexibility Score: inf
ROOT
ATOM      1  C   UNL     1     -32.576 -21.403 -35.048  1.00  0.00     0.044 C 
ENDROOT
BRANCH   1   2
ATOM      2  C   UNL     1     -32.451 -22.109 -36.377  1.00  0.00    -0.006 A 
ATOM      3  C   UNL     1     -31.750 -24.083 -37.619  1.00  0.00     0.001 A 
ATOM      4  C   UNL     1     -32.147 -23.481 -38.813  1.00  0.00     0.004 A 
ATOM      5  C   UNL     1     -31.897 -23.402 -36.408  1.00  0.00     0.007 A 
ATOM      6  C   UNL     1     -32.683 -22.192 -38.801  1.00  0.00     0.046 A 
ATOM      7  C   UNL     1     -32.832 -21.493 -37.596  1.00  0.00     0.118 A 
BRANCH   7   8
ATOM      8  O   UNL     1     -33.353 -20.199 -37.652  1.00  0.00    -0.508 OA
ATOM      9  H   UNL     1     -34.300 -19.966 -37.381  1.00  0.00     0.293 HD
ENDBRANCH   7   8
ENDBRANCH   1   2
BRANCH   1  10
ATOM     10  C   UNL     1     -31.782 -22.141 -33.964  1.00  0.00     0.040 C 
BRANCH  10  11
ATOM     11  C   UNL     1     -30.921 -21.178 -33.193  1.00  0.00    -0.040 A 
ATOM     12  C   UNL     1     -29.891 -20.477 -33.840  1.00  0.00     0.050 A 
ATOM     13  C   UNL     1     -31.177 -20.929 -31.834  1.00  0.00     0.050 A 
ATOM     14  C   UNL     1     -29.109 -19.557 -33.134  1.00  0.00     0.119 A 
ATOM     15  C   UNL     1     -30.398 -20.009 -31.125  1.00  0.00     0.119 A 
ATOM     16  C   UNL     1     -29.362 -19.325 -31.774  1.00  0.00     0.092 A 
BRANCH  14  17
ATOM     17  O   UNL     1     -28.088 -18.875 -33.792  1.00  0.00    -0.508 OA
ATOM     18  H   UNL     1     -27.716 -18.003 -33.433  1.00  0.00     0.293 HD
ENDBRANCH  14  17
BRANCH  15  19
ATOM     19  O   UNL     1     -30.662 -19.781 -29.776  1.00  0.00    -0.508 OA
ATOM     20  H   UNL     1     -31.610 -19.748 -29.420  1.00  0.00     0.293 HD
ENDBRANCH  15  19
ENDBRANCH  10  11
ENDBRANCH   1  10
TORSDOF 6
ENDMDL
MODEL 3
REMARK VINA RESULT:    -5.806      1.443      6.629
REMARK INTER + INTRA:          -7.836
REMARK INTER:                  -7.428
REMARK INTRA:                  -0.408
REMARK UNBOUND:                -0.503
REMARK SMILES Oc1cc(O)cc(CCc2ccccc2O)c1
REMARK SMILES IDX 9 1 10 2 12 3 13 4 11 5 14 6 15 7 16 8 8 10 7 11 6 12 17 13
REMARK SMILES IDX 4 14 2 15 3 16 5 17 1 19
REMARK H PARENT 16 9 5 18 1 20
REMARK Flexibility Score: inf
ROOT
ATOM      1  C   UNL     1     -30.320 -20.998 -34.045  1.00  0.00     0.044 C 
ENDROOT
BRANCH   1   2
ATOM      2  C   UNL     1     -30.067 -20.366 -32.697  1.00  0.00    -0.006 A 
ATOM      3  C   UNL     1     -30.745 -20.093 -30.374  1.00  0.00     0.001 A 
ATOM      4  C   UNL     1     -29.690 -19.206 -30.162  1.00  0.00     0.004 A 
ATOM      5  C   UNL     1     -30.937 -20.667 -31.633  1.00  0.00     0.007 A 
ATOM      6  C   UNL     1     -28.828 -18.883 -31.212  1.00  0.00     0.046 A 
ATOM      7  C   UNL     1     -29.008 -19.446 -32.482  1.00  0.00     0.118 A 
BRANCH   7   8
ATOM      8  O   UNL     1     -28.127 -19.068 -33.496  1.00  0.00    -0.508 OA
ATOM      9  H   UNL     1     -27.159 -18.822 -33.334  1.00  0.00     0.293 HD
ENDBRANCH   7   8
ENDBRANCH   1   2
BRANCH   1  10
ATOM     10  C   UNL     1     -31.758 -21.517 -34.140  1.00  0.00     0.040 C 
BRANCH  10  11
ATOM     11  C   UNL     1     -32.081 -21.923 -35.553  1.00  0.00    -0.040 A 
ATOM     12  C   UNL     1     -32.957 -21.148 -36.329  1.00  0.00     0.050 A 
ATOM     13  C   UNL     1     -31.463 -23.047 -36.126  1.00  0.00     0.050 A 
ATOM     14  C   UNL     1     -33.233 -21.504 -37.653  1.00  0.00     0.119 A 
ATOM     15  C   UNL     1     -31.737 -23.406 -37.450  1.00  0.00     0.119 A 
ATOM     16  C   UNL     1     -32.624 -22.636 -38.213  1.00  0.00     0.092 A 
BRANCH  14  17
ATOM     17  O   UNL     1     -34.111 -20.726 -38.405  1.00  0.00    -0.508 OA
ATOM     18  H   UNL     1     -34.921 -20.285 -37.985  1.00  0.00     0.293 HD
ENDBRANCH  14  17
BRANCH  15  19
ATOM     19  O   UNL     1     -31.120 -24.528 -37.998  1.00  0.00    -0.508 OA
ATOM     20  H   UNL     1     -31.103 -24.688 -38.999  1.00  0.00     0.293 HD
ENDBRANCH  15  19
ENDBRANCH  10  11
ENDBRANCH   1  10
TORSDOF 6
ENDMDL
MODEL 4
REMARK VINA RESULT:    -5.775      1.471      6.671
REMARK INTER + INTRA:          -7.797
REMARK INTER:                  -7.400
REMARK INTRA:                  -0.396
REMARK UNBOUND:                -0.503
REMARK SMILES Oc1cc(O)cc(CCc2ccccc2O)c1
REMARK SMILES IDX 9 1 10 2 12 3 13 4 11 5 14 6 15 7 16 8 8 10 7 11 6 12 17 13
REMARK SMILES IDX 4 14 2 15 3 16 5 17 1 19
REMARK H PARENT 16 9 5 18 1 20
REMARK Flexibility Score: inf
ROOT
ATOM      1  C   UNL     1     -30.312 -20.950 -34.140  1.00  0.00     0.044 C 
ENDROOT
BRANCH   1   2
ATOM      2  C   UNL     1     -30.085 -20.335 -32.780  1.00  0.00    -0.006 A 
ATOM      3  C   UNL     1     -30.814 -20.081 -30.471  1.00  0.00     0.001 A 
ATOM      4  C   UNL     1     -29.756 -19.207 -30.225  1.00  0.00     0.004 A 
ATOM      5  C   UNL     1     -30.982 -20.640 -31.739  1.00  0.00     0.007 A 
ATOM      6  C   UNL     1     -28.867 -18.881 -31.251  1.00  0.00     0.046 A 
ATOM      7  C   UNL     1     -29.023 -19.428 -32.531  1.00  0.00     0.118 A 
BRANCH   7   8
ATOM      8  O   UNL     1     -28.115 -19.047 -33.520  1.00  0.00    -0.508 OA
ATOM      9  H   UNL     1     -28.373 -18.889 -34.485  1.00  0.00     0.293 HD
ENDBRANCH   7   8
ENDBRANCH   1   2
BRANCH   1  10
ATOM     10  C   UNL     1     -31.725 -21.536 -34.243  1.00  0.00     0.040 C 
BRANCH  10  11
ATOM     11  C   UNL     1     -32.012 -21.979 -35.652  1.00  0.00    -0.040 A 
ATOM     12  C   UNL     1     -31.412 -23.141 -36.163  1.00  0.00     0.050 A 
ATOM     13  C   UNL     1     -32.927 -21.268 -36.446  1.00  0.00     0.050 A 
ATOM     14  C   UNL     1     -31.703 -23.574 -37.461  1.00  0.00     0.119 A 
ATOM     15  C   UNL     1     -33.220 -21.699 -37.744  1.00  0.00     0.119 A 
ATOM     16  C   UNL     1     -32.605 -22.851 -38.253  1.00  0.00     0.092 A 
BRANCH  14  17
ATOM     17  O   UNL     1     -31.092 -24.726 -37.953  1.00  0.00    -0.508 OA
ATOM     18  H   UNL     1     -30.095 -24.764 -38.127  1.00  0.00     0.293 HD
ENDBRANCH  14  17
BRANCH  15  19
ATOM     19  O   UNL     1     -34.125 -20.977 -38.519  1.00  0.00    -0.508 OA
ATOM     20  H   UNL     1     -33.999 -20.869 -39.519  1.00  0.00     0.293 HD
ENDBRANCH  15  19
ENDBRANCH  10  11
ENDBRANCH   1  10
TORSDOF 6
ENDMDL
MODEL 5
REMARK VINA RESULT:    -5.745      1.327      2.705
REMARK INTER + INTRA:          -7.759
REMARK INTER:                  -7.277
REMARK INTRA:                  -0.482
REMARK UNBOUND:                -0.503
REMARK SMILES Oc1cc(O)cc(CCc2ccccc2O)c1
REMARK SMILES IDX 9 1 10 2 12 3 13 4 11 5 14 6 15 7 16 8 8 10 7 11 6 12 17 13
REMARK SMILES IDX 4 14 2 15 3 16 5 17 1 19
REMARK H PARENT 16 9 5 18 1 20
REMARK Flexibility Score: inf
ROOT
ATOM      1  C   UNL     1     -31.276 -22.353 -35.303  1.00  0.00     0.044 C 
ENDROOT
BRANCH   1   2
ATOM      2  C   UNL     1     -31.987 -22.224 -36.628  1.00  0.00    -0.006 A 
ATOM      3  C   UNL     1     -33.674 -21.097 -37.976  1.00  0.00     0.001 A 
ATOM      4  C   UNL     1     -33.386 -21.937 -39.052  1.00  0.00     0.004 A 
ATOM      5  C   UNL     1     -32.983 -21.240 -36.770  1.00  0.00     0.007 A 
ATOM      6  C   UNL     1     -32.411 -22.929 -38.922  1.00  0.00     0.046 A 
ATOM      7  C   UNL     1     -31.713 -23.089 -37.718  1.00  0.00     0.118 A 
BRANCH   7   8
ATOM      8  O   UNL     1     -30.766 -24.113 -37.643  1.00  0.00    -0.508 OA
ATOM      9  H   UNL     1     -29.801 -23.964 -37.380  1.00  0.00     0.293 HD
ENDBRANCH   7   8
ENDBRANCH   1   2
BRANCH   1  10
ATOM     10  C   UNL     1     -31.950 -21.483 -34.237  1.00  0.00     0.040 C 
BRANCH  10  11
ATOM     11  C   UNL     1     -30.920 -20.860 -33.334  1.00  0.00    -0.040 A 
ATOM     12  C   UNL     1     -29.824 -20.174 -33.880  1.00  0.00     0.050 A 
ATOM     13  C   UNL     1     -31.079 -20.908 -31.939  1.00  0.00     0.050 A 
ATOM     14  C   UNL     1     -28.882 -19.565 -33.044  1.00  0.00     0.119 A 
ATOM     15  C   UNL     1     -30.140 -20.300 -31.100  1.00  0.00     0.119 A 
ATOM     16  C   UNL     1     -29.039 -19.630 -31.652  1.00  0.00     0.092 A 
BRANCH  14  17
ATOM     17  O   UNL     1     -27.797 -18.895 -33.605  1.00  0.00    -0.508 OA
ATOM     18  H   UNL     1     -26.942 -19.382 -33.848  1.00  0.00     0.293 HD
ENDBRANCH  14  17
BRANCH  15  19
ATOM     19  O   UNL     1     -30.310 -20.363 -29.719  1.00  0.00    -0.508 OA
ATOM     20  H   UNL     1     -29.600 -20.024 -29.080  1.00  0.00     0.293 HD
ENDBRANCH  15  19
ENDBRANCH  10  11
ENDBRANCH   1  10
TORSDOF 6
ENDMDL
MODEL 6
REMARK VINA RESULT:    -5.669      1.309      1.767
REMARK INTER + INTRA:          -7.664
REMARK INTER:                  -7.133
REMARK INTRA:                  -0.530
REMARK UNBOUND:                -0.503
REMARK SMILES Oc1cc(O)cc(CCc2ccccc2O)c1
REMARK SMILES IDX 9 1 10 2 12 3 13 4 11 5 14 6 15 7 16 8 8 10 7 11 6 12 17 13
REMARK SMILES IDX 4 14 2 15 3 16 5 17 1 19
REMARK H PARENT 16 9 5 18 1 20
REMARK Flexibility Score: inf
ROOT
ATOM      1  C   UNL     1     -31.384 -22.630 -35.171  1.00  0.00     0.044 C 
ENDROOT
BRANCH   1   2
ATOM      2  C   UNL     1     -32.050 -22.384 -36.503  1.00  0.00    -0.006 A 
ATOM      3  C   UNL     1     -33.709 -21.157 -37.798  1.00  0.00     0.001 A 
ATOM      4  C   UNL     1     -33.369 -21.886 -38.938  1.00  0.00     0.004 A 
ATOM      5  C   UNL     1     -33.058 -21.406 -36.587  1.00  0.00     0.007 A 
ATOM      6  C   UNL     1     -32.383 -22.872 -38.868  1.00  0.00     0.046 A 
ATOM      7  C   UNL     1     -31.724 -23.137 -37.660  1.00  0.00     0.118 A 
BRANCH   7   8
ATOM      8  O   UNL     1     -30.763 -24.150 -37.649  1.00  0.00    -0.508 OA
ATOM      9  H   UNL     1     -30.141 -24.340 -38.424  1.00  0.00     0.293 HD
ENDBRANCH   7   8
ENDBRANCH   1   2
BRANCH   1  10
ATOM     10  C   UNL     1     -32.076 -21.832 -34.061  1.00  0.00     0.040 C 
BRANCH  10  11
ATOM     11  C   UNL     1     -31.070 -21.032 -33.280  1.00  0.00    -0.040 A 
ATOM     12  C   UNL     1     -31.090 -21.048 -31.876  1.00  0.00     0.050 A 
ATOM     13  C   UNL     1     -30.067 -20.309 -33.947  1.00  0.00     0.050 A 
ATOM     14  C   UNL     1     -30.136 -20.332 -31.147  1.00  0.00     0.119 A 
ATOM     15  C   UNL     1     -29.111 -19.591 -33.221  1.00  0.00     0.119 A 
ATOM     16  C   UNL     1     -29.147 -19.601 -31.820  1.00  0.00     0.092 A 
BRANCH  14  17
ATOM     17  O   UNL     1     -30.176 -20.355 -29.754  1.00  0.00    -0.508 OA
ATOM     18  H   UNL     1     -30.322 -21.218 -29.243  1.00  0.00     0.293 HD
ENDBRANCH  14  17
BRANCH  15  19
ATOM     19  O   UNL     1     -28.128 -18.875 -33.900  1.00  0.00    -0.508 OA
ATOM     20  H   UNL     1     -27.578 -18.161 -33.438  1.00  0.00     0.293 HD
ENDBRANCH  15  19
ENDBRANCH  10  11
ENDBRANCH   1  10
TORSDOF 6
ENDMDL
MODEL 7
REMARK VINA RESULT:    -5.036      1.408      1.723
REMARK INTER + INTRA:          -6.864
REMARK INTER:                  -6.417
REMARK INTRA:                  -0.447
REMARK UNBOUND:                -0.503
REMARK SMILES Oc1cc(O)cc(CCc2ccccc2O)c1
REMARK SMILES IDX 9 1 10 2 12 3 13 4 11 5 14 6 15 7 16 8 8 10 7 11 6 12 17 13
REMARK SMILES IDX 4 14 2 15 3 16 5 17 1 19
REMARK H PARENT 16 9 5 18 1 20
REMARK Flexibility Score: inf
ROOT
ATOM      1  C   UNL     1     -31.744 -21.964 -34.319  1.00  0.00     0.044 C 
ENDROOT
BRANCH   1   2
ATOM      2  C   UNL     1     -32.157 -22.125 -35.762  1.00  0.00    -0.006 A 
ATOM      3  C   UNL     1     -31.877 -23.293 -37.881  1.00  0.00     0.001 A 
ATOM      4  C   UNL     1     -32.839 -22.471 -38.469  1.00  0.00     0.004 A 
ATOM      5  C   UNL     1     -31.534 -23.120 -36.538  1.00  0.00     0.007 A 
ATOM      6  C   UNL     1     -33.455 -21.468 -37.717  1.00  0.00     0.046 A 
ATOM      7  C   UNL     1     -33.119 -21.278 -36.371  1.00  0.00     0.118 A 
BRANCH   7   8
ATOM      8  O   UNL     1     -33.752 -20.245 -35.679  1.00  0.00    -0.508 OA
ATOM      9  H   UNL     1     -34.741 -20.238 -35.466  1.00  0.00     0.293 HD
ENDBRANCH   7   8
ENDBRANCH   1   2
BRANCH   1  10
ATOM     10  C   UNL     1     -30.465 -21.127 -34.209  1.00  0.00     0.040 C 
BRANCH  10  11
ATOM     11  C   UNL     1     -30.468 -20.321 -32.939  1.00  0.00    -0.040 A 
ATOM     12  C   UNL     1     -31.681 -19.955 -32.336  1.00  0.00     0.050 A 
ATOM     13  C   UNL     1     -29.256 -19.979 -32.314  1.00  0.00     0.050 A 
ATOM     14  C   UNL     1     -31.687 -19.235 -31.137  1.00  0.00     0.119 A 
ATOM     15  C   UNL     1     -29.258 -19.259 -31.115  1.00  0.00     0.119 A 
ATOM     16  C   UNL     1     -30.474 -18.884 -30.528  1.00  0.00     0.092 A 
BRANCH  14  17
ATOM     17  O   UNL     1     -32.902 -18.875 -30.558  1.00  0.00    -0.508 OA
ATOM     18  H   UNL     1     -33.031 -18.879 -29.553  1.00  0.00     0.293 HD
ENDBRANCH  14  17
BRANCH  15  19
ATOM     19  O   UNL     1     -28.047 -18.923 -30.514  1.00  0.00    -0.508 OA
ATOM     20  H   UNL     1     -27.968 -18.130 -29.888  1.00  0.00     0.293 HD
ENDBRANCH  15  19
ENDBRANCH  10  11
ENDBRANCH   1  10
TORSDOF 6
ENDMDL
MODEL 8
REMARK VINA RESULT:    -4.974      1.506      6.485
REMARK INTER + INTRA:          -6.785
REMARK INTER:                  -6.233
REMARK INTRA:                  -0.552
REMARK UNBOUND:                -0.503
REMARK SMILES Oc1cc(O)cc(CCc2ccccc2O)c1
REMARK SMILES IDX 9 1 10 2 12 3 13 4 11 5 14 6 15 7 16 8 8 10 7 11 6 12 17 13
REMARK SMILES IDX 4 14 2 15 3 16 5 17 1 19
REMARK H PARENT 16 9 5 18 1 20
REMARK Flexibility Score: inf
ROOT
ATOM      1  C   UNL     1     -31.417 -21.825 -33.445  1.00  0.00     0.044 C 
ENDROOT
BRANCH   1   2
ATOM      2  C   UNL     1     -30.435 -20.799 -32.932  1.00  0.00    -0.006 A 
ATOM      3  C   UNL     1     -28.687 -19.176 -33.422  1.00  0.00     0.001 A 
ATOM      4  C   UNL     1     -28.554 -18.898 -32.062  1.00  0.00     0.004 A 
ATOM      5  C   UNL     1     -29.617 -20.122 -33.857  1.00  0.00     0.007 A 
ATOM      6  C   UNL     1     -29.346 -19.572 -31.130  1.00  0.00     0.046 A 
ATOM      7  C   UNL     1     -30.280 -20.528 -31.549  1.00  0.00     0.118 A 
BRANCH   7   8
ATOM      8  O   UNL     1     -31.027 -21.185 -30.569  1.00  0.00    -0.508 OA
ATOM      9  H   UNL     1     -31.388 -20.729 -29.741  1.00  0.00     0.293 HD
ENDBRANCH   7   8
ENDBRANCH   1   2
BRANCH   1  10
ATOM     10  C   UNL     1     -32.490 -21.164 -34.316  1.00  0.00     0.040 C 
BRANCH  10  11
ATOM     11  C   UNL     1     -32.510 -21.780 -35.688  1.00  0.00    -0.040 A 
ATOM     12  C   UNL     1     -33.299 -21.218 -36.704  1.00  0.00     0.050 A 
ATOM     13  C   UNL     1     -31.695 -22.886 -35.980  1.00  0.00     0.050 A 
ATOM     14  C   UNL     1     -33.294 -21.768 -37.990  1.00  0.00     0.119 A 
ATOM     15  C   UNL     1     -31.687 -23.439 -37.265  1.00  0.00     0.119 A 
ATOM     16  C   UNL     1     -32.489 -22.881 -38.270  1.00  0.00     0.092 A 
BRANCH  14  17
ATOM     17  O   UNL     1     -34.088 -21.200 -38.984  1.00  0.00    -0.508 OA
ATOM     18  H   UNL     1     -34.286 -20.206 -39.000  1.00  0.00     0.293 HD
ENDBRANCH  14  17
BRANCH  15  19
ATOM     19  O   UNL     1     -30.878 -24.541 -37.534  1.00  0.00    -0.508 OA
ATOM     20  H   UNL     1     -30.818 -24.941 -38.463  1.00  0.00     0.293 HD
ENDBRANCH  15  19
ENDBRANCH  10  11
ENDBRANCH   1  10
TORSDOF 6
ENDMDL
MODEL 9
REMARK VINA RESULT:    -4.636      1.869      6.476
REMARK INTER + INTRA:          -6.359
REMARK INTER:                  -5.914
REMARK INTRA:                  -0.445
REMARK UNBOUND:                -0.503
REMARK SMILES Oc1cc(O)cc(CCc2ccccc2O)c1
REMARK SMILES IDX 9 1 10 2 12 3 13 4 11 5 14 6 15 7 16 8 8 10 7 11 6 12 17 13
REMARK SMILES IDX 4 14 2 15 3 16 5 17 1 19
REMARK H PARENT 16 9 5 18 1 20
REMARK Flexibility Score: inf
ROOT
ATOM      1  C   UNL     1     -30.767 -21.042 -33.499  1.00  0.00     0.044 C 
ENDROOT
BRANCH   1   2
ATOM      2  C   UNL     1     -31.105 -20.432 -32.159  1.00  0.00    -0.006 A 
ATOM      3  C   UNL     1     -30.764 -20.407 -29.748  1.00  0.00     0.001 A 
ATOM      4  C   UNL     1     -31.699 -19.380 -29.619  1.00  0.00     0.004 A 
ATOM      5  C   UNL     1     -30.470 -20.934 -31.007  1.00  0.00     0.007 A 
ATOM      6  C   UNL     1     -32.350 -18.883 -30.750  1.00  0.00     0.046 A 
ATOM      7  C   UNL     1     -32.070 -19.403 -32.020  1.00  0.00     0.118 A 
BRANCH   7   8
ATOM      8  O   UNL     1     -32.770 -18.880 -33.109  1.00  0.00    -0.508 OA
ATOM      9  H   UNL     1     -32.565 -19.117 -34.071  1.00  0.00     0.293 HD
ENDBRANCH   7   8
ENDBRANCH   1   2
BRANCH   1  10
ATOM     10  C   UNL     1     -31.785 -22.124 -33.876  1.00  0.00     0.040 C 
BRANCH  10  11
ATOM     11  C   UNL     1     -32.028 -22.126 -35.361  1.00  0.00    -0.040 A 
ATOM     12  C   UNL     1     -31.374 -23.057 -36.183  1.00  0.00     0.050 A 
ATOM     13  C   UNL     1     -32.955 -21.237 -35.929  1.00  0.00     0.050 A 
ATOM     14  C   UNL     1     -31.623 -23.084 -37.559  1.00  0.00     0.119 A 
ATOM     15  C   UNL     1     -33.207 -21.261 -37.304  1.00  0.00     0.119 A 
ATOM     16  C   UNL     1     -32.538 -22.183 -38.120  1.00  0.00     0.092 A 
BRANCH  14  17
ATOM     17  O   UNL     1     -30.958 -24.011 -38.359  1.00  0.00    -0.508 OA
ATOM     18  H   UNL     1     -30.856 -23.872 -39.358  1.00  0.00     0.293 HD
ENDBRANCH  14  17
BRANCH  15  19
ATOM     19  O   UNL     1     -34.125 -20.366 -37.850  1.00  0.00    -0.508 OA
ATOM     20  H   UNL     1     -33.957 -19.367 -37.849  1.00  0.00     0.293 HD
ENDBRANCH  15  19
ENDBRANCH  10  11
ENDBRANCH   1  10
TORSDOF 6
ENDMDL
