MODEL 1
REMARK VINA RESULT:    -6.118      0.000      0.000
REMARK INTER + INTRA:          -7.516
REMARK INTER:                  -7.190
REMARK INTRA:                  -0.326
REMARK UNBOUND:                -0.326
REMARK SMILES CCC=Cc1oc(O)c2c(O)cccc12
REMARK SMILES IDX 7 1 6 2 5 3 15 4 14 5 13 6 12 7 10 8 9 9 8 10 4 12 3 13 2 14
REMARK SMILES IDX 1 15 11 16
REMARK H PARENT 8 11 11 17
REMARK Flexibility Score: inf
ROOT
ATOM      1  C   UNL     1      52.253  76.135  24.202  1.00  0.00     0.294 A 
ATOM      2  O   UNL     1      51.913  76.406  25.446  1.00  0.00    -0.425 OA
ATOM      3  C   UNL     1      50.687  76.895  25.460  1.00  0.00     0.138 A 
ATOM      4  C   UNL     1      50.213  76.936  24.158  1.00  0.00     0.035 A 
ATOM      5  C   UNL     1      48.990  77.363  23.637  1.00  0.00     0.013 A 
ATOM      6  C   UNL     1      48.804  77.283  22.246  1.00  0.00     0.005 A 
ATOM      7  C   UNL     1      49.828  76.783  21.413  1.00  0.00     0.047 A 
ATOM      8  C   UNL     1      51.054  76.359  21.960  1.00  0.00     0.130 A 
ATOM      9  C   UNL     1      51.213  76.451  23.351  1.00  0.00     0.108 A 
ENDROOT
BRANCH   1  10
ATOM     10  O   UNL     1      53.486  75.606  23.838  1.00  0.00    -0.480 OA
ATOM     11  H   UNL     1      54.243  76.218  23.560  1.00  0.00     0.297 HD
ENDBRANCH   1  10
BRANCH   3  12
ATOM     12  C   UNL     1      49.943  77.315  26.668  1.00  0.00     0.043 C 
ATOM     13  C   UNL     1      50.309  78.292  27.512  1.00  0.00    -0.023 C 
BRANCH  13  14
ATOM     14  C   UNL     1      51.520  79.171  27.363  1.00  0.00     0.024 C 
ATOM     15  C   UNL     1      52.580  78.843  28.413  1.00  0.00     0.008 C 
ENDBRANCH  13  14
ENDBRANCH   3  12
BRANCH   8  16
ATOM     16  O   UNL     1      52.051  75.870  21.116  1.00  0.00    -0.507 OA
ATOM     17  H   UNL     1      52.970  76.289  21.057  1.00  0.00     0.293 HD
ENDBRANCH   8  16
TORSDOF 4
ENDMDL
MODEL 2
REMARK VINA RESULT:    -6.004      1.659      2.690
REMARK INTER + INTRA:          -7.383
REMARK INTER:                  -7.079
REMARK INTRA:                  -0.303
REMARK UNBOUND:                -0.326
REMARK SMILES CCC=Cc1oc(O)c2c(O)cccc12
REMARK SMILES IDX 7 1 6 2 5 3 15 4 14 5 13 6 12 7 10 8 9 9 8 10 4 12 3 13 2 14
REMARK SMILES IDX 1 15 11 16
REMARK H PARENT 8 11 11 17
REMARK Flexibility Score: inf
ROOT
ATOM      1  C   UNL     1      48.900  77.029  23.402  1.00  0.00     0.294 A 
ATOM      2  O   UNL     1      48.488  77.264  24.631  1.00  0.00    -0.425 OA
ATOM      3  C   UNL     1      49.491  77.065  25.467  1.00  0.00     0.138 A 
ATOM      4  C   UNL     1      50.606  76.687  24.736  1.00  0.00     0.035 A 
ATOM      5  C   UNL     1      51.904  76.364  25.138  1.00  0.00     0.013 A 
ATOM      6  C   UNL     1      52.831  76.010  24.143  1.00  0.00     0.005 A 
ATOM      7  C   UNL     1      52.451  75.986  22.784  1.00  0.00     0.047 A 
ATOM      8  C   UNL     1      51.136  76.313  22.401  1.00  0.00     0.130 A 
ATOM      9  C   UNL     1      50.231  76.662  23.414  1.00  0.00     0.108 A 
ENDROOT
BRANCH   1  10
ATOM     10  O   UNL     1      48.088  77.146  22.281  1.00  0.00    -0.480 OA
ATOM     11  H   UNL     1      48.320  76.655  21.427  1.00  0.00     0.297 HD
ENDBRANCH   1  10
BRANCH   3  12
ATOM     12  C   UNL     1      49.431  77.232  26.936  1.00  0.00     0.043 C 
ATOM     13  C   UNL     1      50.130  78.126  27.651  1.00  0.00    -0.023 C 
BRANCH  13  14
ATOM     14  C   UNL     1      51.072  79.155  27.088  1.00  0.00     0.024 C 
ATOM     15  C   UNL     1      52.440  79.087  27.764  1.00  0.00     0.008 C 
ENDBRANCH  13  14
ENDBRANCH   3  12
BRANCH   8  16
ATOM     16  O   UNL     1      50.785  76.280  21.052  1.00  0.00    -0.507 OA
ATOM     17  H   UNL     1      51.427  76.537  20.314  1.00  0.00     0.293 HD
ENDBRANCH   8  16
TORSDOF 4
ENDMDL
MODEL 3
REMARK VINA RESULT:    -5.735      2.277      3.455
REMARK INTER + INTRA:          -7.067
REMARK INTER:                  -7.146
REMARK INTRA:                   0.079
REMARK UNBOUND:                -0.326
REMARK SMILES CCC=Cc1oc(O)c2c(O)cccc12
REMARK SMILES IDX 7 1 6 2 5 3 15 4 14 5 13 6 12 7 10 8 9 9 8 10 4 12 3 13 2 14
REMARK SMILES IDX 1 15 11 16
REMARK H PARENT 8 11 11 17
REMARK Flexibility Score: inf
ROOT
ATOM      1  C   UNL     1      48.570  77.099  23.525  1.00  0.00     0.294 A 
ATOM      2  O   UNL     1      48.210  77.366  24.764  1.00  0.00    -0.425 OA
ATOM      3  C   UNL     1      49.252  77.209  25.560  1.00  0.00     0.138 A 
ATOM      4  C   UNL     1      50.340  76.826  24.792  1.00  0.00     0.035 A 
ATOM      5  C   UNL     1      51.659  76.537  25.145  1.00  0.00     0.013 A 
ATOM      6  C   UNL     1      52.548  76.166  24.121  1.00  0.00     0.005 A 
ATOM      7  C   UNL     1      52.108  76.092  22.782  1.00  0.00     0.047 A 
ATOM      8  C   UNL     1      50.772  76.386  22.448  1.00  0.00     0.130 A 
ATOM      9  C   UNL     1      49.907  76.753  23.490  1.00  0.00     0.108 A 
ENDROOT
BRANCH   1  10
ATOM     10  O   UNL     1      47.707  77.167  22.439  1.00  0.00    -0.480 OA
ATOM     11  H   UNL     1      47.065  77.944  22.343  1.00  0.00     0.297 HD
ENDBRANCH   1  10
BRANCH   3  12
ATOM     12  C   UNL     1      49.254  77.422  27.024  1.00  0.00     0.043 C 
ATOM     13  C   UNL     1      48.205  77.824  27.758  1.00  0.00    -0.023 C 
BRANCH  13  14
ATOM     14  C   UNL     1      46.820  78.091  27.236  1.00  0.00     0.024 C 
ATOM     15  C   UNL     1      46.590  79.582  27.001  1.00  0.00     0.008 C 
ENDBRANCH  13  14
ENDBRANCH   3  12
BRANCH   8  16
ATOM     16  O   UNL     1      50.362  76.305  21.118  1.00  0.00    -0.507 OA
ATOM     17  H   UNL     1      50.774  75.659  20.458  1.00  0.00     0.293 HD
ENDBRANCH   8  16
TORSDOF 4
ENDMDL
MODEL 4
REMARK VINA RESULT:    -5.570      2.225      4.551
REMARK INTER + INTRA:          -6.873
REMARK INTER:                  -6.623
REMARK INTRA:                  -0.250
REMARK UNBOUND:                -0.326
REMARK SMILES CCC=Cc1oc(O)c2c(O)cccc12
REMARK SMILES IDX 7 1 6 2 5 3 15 4 14 5 13 6 12 7 10 8 9 9 8 10 4 12 3 13 2 14
REMARK SMILES IDX 1 15 11 16
REMARK H PARENT 8 11 11 17
REMARK Flexibility Score: inf
ROOT
ATOM      1  C   UNL     1      50.565  76.498  22.044  1.00  0.00     0.294 A 
ATOM      2  O   UNL     1      51.826  76.151  22.204  1.00  0.00    -0.425 OA
ATOM      3  C   UNL     1      52.115  76.158  23.492  1.00  0.00     0.138 A 
ATOM      4  C   UNL     1      50.979  76.523  24.197  1.00  0.00     0.035 A 
ATOM      5  C   UNL     1      50.756  76.678  25.567  1.00  0.00     0.013 A 
ATOM      6  C   UNL     1      49.472  77.069  25.984  1.00  0.00     0.005 A 
ATOM      7  C   UNL     1      48.448  77.294  25.038  1.00  0.00     0.047 A 
ATOM      8  C   UNL     1      48.695  77.132  23.662  1.00  0.00     0.130 A 
ATOM      9  C   UNL     1      49.985  76.742  23.274  1.00  0.00     0.108 A 
ENDROOT
BRANCH   1  10
ATOM     10  O   UNL     1      49.942  76.591  20.806  1.00  0.00    -0.480 OA
ATOM     11  H   UNL     1      50.492  76.680  19.961  1.00  0.00     0.297 HD
ENDBRANCH   1  10
BRANCH   3  12
ATOM     12  C   UNL     1      53.430  75.817  24.080  1.00  0.00     0.043 C 
ATOM     13  C   UNL     1      54.060  74.640  23.958  1.00  0.00    -0.023 C 
BRANCH  13  14
ATOM     14  C   UNL     1      53.567  73.460  23.166  1.00  0.00     0.024 C 
ATOM     15  C   UNL     1      54.657  72.402  23.004  1.00  0.00     0.008 C 
ENDBRANCH  13  14
ENDBRANCH   3  12
BRANCH   8  16
ATOM     16  O   UNL     1      47.668  77.361  22.747  1.00  0.00    -0.507 OA
ATOM     17  H   UNL     1      47.767  77.179  21.758  1.00  0.00     0.293 HD
ENDBRANCH   8  16
TORSDOF 4
ENDMDL
MODEL 5
REMARK VINA RESULT:    -5.474      2.441      3.995
REMARK INTER + INTRA:          -6.760
REMARK INTER:                  -6.263
REMARK INTRA:                  -0.498
REMARK UNBOUND:                -0.326
REMARK SMILES CCC=Cc1oc(O)c2c(O)cccc12
REMARK SMILES IDX 7 1 6 2 5 3 15 4 14 5 13 6 12 7 10 8 9 9 8 10 4 12 3 13 2 14
REMARK SMILES IDX 1 15 11 16
REMARK H PARENT 8 11 11 17
REMARK Flexibility Score: inf
ROOT
ATOM      1  C   UNL     1      51.591  78.791  27.422  1.00  0.00     0.294 A 
ATOM      2  O   UNL     1      50.796  79.453  28.238  1.00  0.00    -0.425 OA
ATOM      3  C   UNL     1      49.541  79.200  27.916  1.00  0.00     0.138 A 
ATOM      4  C   UNL     1      49.528  78.327  26.840  1.00  0.00     0.035 A 
ATOM      5  C   UNL     1      48.470  77.758  26.129  1.00  0.00     0.013 A 
ATOM      6  C   UNL     1      48.781  76.895  25.065  1.00  0.00     0.005 A 
ATOM      7  C   UNL     1      50.126  76.620  24.734  1.00  0.00     0.047 A 
ATOM      8  C   UNL     1      51.178  77.206  25.463  1.00  0.00     0.130 A 
ATOM      9  C   UNL     1      50.838  78.063  26.521  1.00  0.00     0.108 A 
ENDROOT
BRANCH   1  10
ATOM     10  O   UNL     1      52.978  78.838  27.488  1.00  0.00    -0.480 OA
ATOM     11  H   UNL     1      53.533  78.046  27.189  1.00  0.00     0.297 HD
ENDBRANCH   1  10
BRANCH   3  12
ATOM     12  C   UNL     1      48.351  79.751  28.602  1.00  0.00     0.043 C 
ATOM     13  C   UNL     1      47.521  79.064  29.401  1.00  0.00    -0.023 C 
BRANCH  13  14
ATOM     14  C   UNL     1      47.670  77.617  29.783  1.00  0.00     0.024 C 
ATOM     15  C   UNL     1      46.595  76.753  29.127  1.00  0.00     0.008 C 
ENDBRANCH  13  14
ENDBRANCH   3  12
BRANCH   8  16
ATOM     16  O   UNL     1      52.498  76.920  25.117  1.00  0.00    -0.507 OA
ATOM     17  H   UNL     1      53.278  77.114  25.731  1.00  0.00     0.293 HD
ENDBRANCH   8  16
TORSDOF 4
ENDMDL
MODEL 6
REMARK VINA RESULT:    -5.456      1.551      4.781
REMARK INTER + INTRA:          -6.739
REMARK INTER:                  -6.618
REMARK INTRA:                  -0.122
REMARK UNBOUND:                -0.326
REMARK SMILES CCC=Cc1oc(O)c2c(O)cccc12
REMARK SMILES IDX 7 1 6 2 5 3 15 4 14 5 13 6 12 7 10 8 9 9 8 10 4 12 3 13 2 14
REMARK SMILES IDX 1 15 11 16
REMARK H PARENT 8 11 11 17
REMARK Flexibility Score: inf
ROOT
ATOM      1  C   UNL     1      51.307  76.137  21.879  1.00  0.00     0.294 A 
ATOM      2  O   UNL     1      50.145  76.565  21.430  1.00  0.00    -0.425 OA
ATOM      3  C   UNL     1      49.449  77.060  22.437  1.00  0.00     0.138 A 
ATOM      4  C   UNL     1      50.206  76.949  23.592  1.00  0.00     0.035 A 
ATOM      5  C   UNL     1      49.932  77.317  24.911  1.00  0.00     0.013 A 
ATOM      6  C   UNL     1      50.917  77.068  25.882  1.00  0.00     0.005 A 
ATOM      7  C   UNL     1      52.141  76.463  25.523  1.00  0.00     0.047 A 
ATOM      8  C   UNL     1      52.396  76.097  24.188  1.00  0.00     0.130 A 
ATOM      9  C   UNL     1      51.395  76.358  23.239  1.00  0.00     0.108 A 
ENDROOT
BRANCH   1  10
ATOM     10  O   UNL     1      52.279  75.557  21.073  1.00  0.00    -0.480 OA
ATOM     11  H   UNL     1      52.793  76.119  20.405  1.00  0.00     0.297 HD
ENDBRANCH   1  10
BRANCH   3  12
ATOM     12  C   UNL     1      48.094  77.646  22.339  1.00  0.00     0.043 C 
ATOM     13  C   UNL     1      47.660  78.454  21.360  1.00  0.00    -0.023 C 
BRANCH  13  14
ATOM     14  C   UNL     1      48.456  78.879  20.157  1.00  0.00     0.024 C 
ATOM     15  C   UNL     1      48.216  77.948  18.971  1.00  0.00     0.008 C 
ENDBRANCH  13  14
ENDBRANCH   3  12
BRANCH   8  16
ATOM     16  O   UNL     1      53.612  75.500  23.858  1.00  0.00    -0.507 OA
ATOM     17  H   UNL     1      53.696  74.792  23.141  1.00  0.00     0.293 HD
ENDBRANCH   8  16
TORSDOF 4
ENDMDL
MODEL 7
REMARK VINA RESULT:    -5.402      1.585      4.883
REMARK INTER + INTRA:          -6.675
REMARK INTER:                  -6.415
REMARK INTRA:                  -0.260
REMARK UNBOUND:                -0.326
REMARK SMILES CCC=Cc1oc(O)c2c(O)cccc12
REMARK SMILES IDX 7 1 6 2 5 3 15 4 14 5 13 6 12 7 10 8 9 9 8 10 4 12 3 13 2 14
REMARK SMILES IDX 1 15 11 16
REMARK H PARENT 8 11 11 17
REMARK Flexibility Score: inf
ROOT
ATOM      1  C   UNL     1      51.768  76.966  25.156  1.00  0.00     0.294 A 
ATOM      2  O   UNL     1      50.864  76.522  24.307  1.00  0.00    -0.425 OA
ATOM      3  C   UNL     1      49.682  77.000  24.647  1.00  0.00     0.138 A 
ATOM      4  C   UNL     1      49.834  77.798  25.769  1.00  0.00     0.035 A 
ATOM      5  C   UNL     1      48.904  78.526  26.515  1.00  0.00     0.013 A 
ATOM      6  C   UNL     1      49.372  79.249  27.625  1.00  0.00     0.005 A 
ATOM      7  C   UNL     1      50.742  79.232  27.966  1.00  0.00     0.047 A 
ATOM      8  C   UNL     1      51.662  78.490  27.202  1.00  0.00     0.130 A 
ATOM      9  C   UNL     1      51.168  77.778  26.099  1.00  0.00     0.108 A 
ENDROOT
BRANCH   1  10
ATOM     10  O   UNL     1      53.119  76.648  25.083  1.00  0.00    -0.480 OA
ATOM     11  H   UNL     1      53.814  77.274  25.469  1.00  0.00     0.297 HD
ENDBRANCH   1  10
BRANCH   3  12
ATOM     12  C   UNL     1      48.411  76.736  23.935  1.00  0.00     0.043 C 
ATOM     13  C   UNL     1      48.148  77.059  22.660  1.00  0.00    -0.023 C 
BRANCH  13  14
ATOM     14  C   UNL     1      49.108  77.711  21.703  1.00  0.00     0.024 C 
ATOM     15  C   UNL     1      48.416  78.108  20.401  1.00  0.00     0.008 C 
ENDBRANCH  13  14
ENDBRANCH   3  12
BRANCH   8  16
ATOM     16  O   UNL     1      53.010  78.489  27.559  1.00  0.00    -0.507 OA
ATOM     17  H   UNL     1      53.358  78.004  28.376  1.00  0.00     0.293 HD
ENDBRANCH   8  16
TORSDOF 4
ENDMDL
MODEL 8
REMARK VINA RESULT:    -5.191      2.540      5.894
REMARK INTER + INTRA:          -6.427
REMARK INTER:                  -6.254
REMARK INTRA:                  -0.174
REMARK UNBOUND:                -0.326
REMARK SMILES CCC=Cc1oc(O)c2c(O)cccc12
REMARK SMILES IDX 7 1 6 2 5 3 15 4 14 5 13 6 12 7 10 8 9 9 8 10 4 12 3 13 2 14
REMARK SMILES IDX 1 15 11 16
REMARK H PARENT 8 11 11 17
REMARK Flexibility Score: inf
ROOT
ATOM      1  C   UNL     1      48.243  77.726  26.851  1.00  0.00     0.294 A 
ATOM      2  O   UNL     1      48.405  77.113  25.697  1.00  0.00    -0.425 OA
ATOM      3  C   UNL     1      49.667  77.224  25.324  1.00  0.00     0.138 A 
ATOM      4  C   UNL     1      50.352  77.941  26.291  1.00  0.00     0.035 A 
ATOM      5  C   UNL     1      51.691  78.328  26.375  1.00  0.00     0.013 A 
ATOM      6  C   UNL     1      52.093  79.067  27.501  1.00  0.00     0.005 A 
ATOM      7  C   UNL     1      51.163  79.400  28.510  1.00  0.00     0.047 A 
ATOM      8  C   UNL     1      49.818  79.000  28.405  1.00  0.00     0.130 A 
ATOM      9  C   UNL     1      49.444  78.265  27.270  1.00  0.00     0.108 A 
ENDROOT
BRANCH   1  10
ATOM     10  O   UNL     1      47.028  77.798  27.522  1.00  0.00    -0.480 OA
ATOM     11  H   UNL     1      46.690  78.685  27.876  1.00  0.00     0.297 HD
ENDBRANCH   1  10
BRANCH   3  12
ATOM     12  C   UNL     1      50.249  76.662  24.084  1.00  0.00     0.043 C 
ATOM     13  C   UNL     1      49.737  76.790  22.852  1.00  0.00    -0.023 C 
BRANCH  13  14
ATOM     14  C   UNL     1      48.498  77.564  22.492  1.00  0.00     0.024 C 
ATOM     15  C   UNL     1      48.596  78.153  21.087  1.00  0.00     0.008 C 
ENDBRANCH  13  14
ENDBRANCH   3  12
BRANCH   8  16
ATOM     16  O   UNL     1      48.918  79.343  29.414  1.00  0.00    -0.507 OA
ATOM     17  H   UNL     1      49.135  79.241  30.396  1.00  0.00     0.293 HD
ENDBRANCH   8  16
TORSDOF 4
ENDMDL
MODEL 9
REMARK VINA RESULT:    -5.011      2.937      4.908
REMARK INTER + INTRA:          -6.216
REMARK INTER:                  -5.777
REMARK INTRA:                  -0.439
REMARK UNBOUND:                -0.326
REMARK SMILES CCC=Cc1oc(O)c2c(O)cccc12
REMARK SMILES IDX 7 1 6 2 5 3 15 4 14 5 13 6 12 7 10 8 9 9 8 10 4 12 3 13 2 14
REMARK SMILES IDX 1 15 11 16
REMARK H PARENT 8 11 11 17
REMARK Flexibility Score: inf
ROOT
ATOM      1  C   UNL     1      50.050  78.950  28.243  1.00  0.00     0.294 A 
ATOM      2  O   UNL     1      48.776  78.922  28.578  1.00  0.00    -0.425 OA
ATOM      3  C   UNL     1      48.112  78.207  27.688  1.00  0.00     0.138 A 
ATOM      4  C   UNL     1      49.007  77.747  26.736  1.00  0.00     0.035 A 
ATOM      5  C   UNL     1      48.817  76.960  25.599  1.00  0.00     0.013 A 
ATOM      6  C   UNL     1      49.941  76.657  24.812  1.00  0.00     0.005 A 
ATOM      7  C   UNL     1      51.218  77.141  25.170  1.00  0.00     0.047 A 
ATOM      8  C   UNL     1      51.387  77.935  26.320  1.00  0.00     0.130 A 
ATOM      9  C   UNL     1      50.248  78.221  27.087  1.00  0.00     0.108 A 
ENDROOT
BRANCH   1  10
ATOM     10  O   UNL     1      51.025  79.621  28.972  1.00  0.00    -0.480 OA
ATOM     11  H   UNL     1      50.910  79.768  29.967  1.00  0.00     0.297 HD
ENDBRANCH   1  10
BRANCH   3  12
ATOM     12  C   UNL     1      46.658  77.935  27.717  1.00  0.00     0.043 C 
ATOM     13  C   UNL     1      45.752  78.430  26.861  1.00  0.00    -0.023 C 
BRANCH  13  14
ATOM     14  C   UNL     1      46.051  79.320  25.686  1.00  0.00     0.024 C 
ATOM     15  C   UNL     1      45.687  78.643  24.366  1.00  0.00     0.008 C 
ENDBRANCH  13  14
ENDBRANCH   3  12
BRANCH   8  16
ATOM     16  O   UNL     1      52.659  78.401  26.653  1.00  0.00    -0.507 OA
ATOM     17  H   UNL     1      52.807  79.217  27.232  1.00  0.00     0.293 HD
ENDBRANCH   8  16
TORSDOF 4
ENDMDL
