MODEL 1
REMARK VINA RESULT:    -6.508      0.000      0.000
REMARK INTER + INTRA:         -10.938
REMARK INTER:                 -10.313
REMARK INTRA:                  -0.626
REMARK UNBOUND:                -0.626
REMARK SMILES CCCCCCCCCCCC(=O)[O-]
REMARK SMILES IDX 7 1 8 2 9 3 10 4 11 5 12 6 13 7 14 8 6 9 5 10 4 11 3 12 2 13
REMARK SMILES IDX 1 14
REMARK H PARENT
REMARK Flexibility Score: inf
ROOT
ATOM      1  C   UNL     1     -22.061 -20.767  30.598  1.00  0.00     0.000 C 
ENDROOT
BRANCH   1   2
ATOM      2  C   UNL     1     -21.282 -19.443  30.598  1.00  0.00     0.000 C 
BRANCH   2   3
ATOM      3  C   UNL     1     -21.041 -18.948  29.164  1.00  0.00     0.000 C 
BRANCH   3   4
ATOM      4  C   UNL     1     -20.424 -17.538  29.116  1.00  0.00     0.006 C 
BRANCH   4   5
ATOM      5  C   UNL     1     -18.908 -17.502  29.366  1.00  0.00     0.053 C 
BRANCH   5   6
ATOM      6  C   UNL     1     -18.565 -16.806  30.647  1.00  0.00     0.041 C 
ATOM      7  O   UNL     1     -18.174 -15.609  30.633  1.00  0.00    -0.550 OA
ATOM      8  O   UNL     1     -18.644 -17.491  31.853  1.00  0.00    -0.550 OA
ENDBRANCH   5   6
ENDBRANCH   4   5
ENDBRANCH   3   4
ENDBRANCH   2   3
ENDBRANCH   1   2
BRANCH   1   9
ATOM      9  C   UNL     1     -22.356 -21.282  29.181  1.00  0.00     0.000 C 
BRANCH   9  10
ATOM     10  C   UNL     1     -22.159 -22.799  29.049  1.00  0.00    -0.000 C 
BRANCH  10  11
ATOM     11  C   UNL     1     -22.126 -23.470  30.427  1.00  0.00    -0.000 C 
BRANCH  11  12
ATOM     12  C   UNL     1     -23.123 -24.632  30.499  1.00  0.00    -0.000 C 
BRANCH  12  13
ATOM     13  C   UNL     1     -23.435 -25.178  29.101  1.00  0.00    -0.003 C 
ATOM     14  C   UNL     1     -24.012 -26.589  29.176  1.00  0.00     0.004 C 
ENDBRANCH  12  13
ENDBRANCH  11  12
ENDBRANCH  10  11
ENDBRANCH   9  10
ENDBRANCH   1   9
TORSDOF 10
ENDMDL
MODEL 2
REMARK VINA RESULT:    -6.497      4.574      7.624
REMARK INTER + INTRA:         -10.921
REMARK INTER:                 -10.076
REMARK INTRA:                  -0.845
REMARK UNBOUND:                -0.626
REMARK SMILES CCCCCCCCCCCC(=O)[O-]
REMARK SMILES IDX 7 1 8 2 9 3 10 4 11 5 12 6 13 7 14 8 6 9 5 10 4 11 3 12 2 13
REMARK SMILES IDX 1 14
REMARK H PARENT
REMARK Flexibility Score: inf
ROOT
ATOM      1  C   UNL     1     -22.371 -20.922  29.808  1.00  0.00     0.000 C 
ENDROOT
BRANCH   1   2
ATOM      2  C   UNL     1     -22.109 -21.934  28.682  1.00  0.00     0.000 C 
BRANCH   2   3
ATOM      3  C   UNL     1     -21.857 -23.338  29.253  1.00  0.00     0.000 C 
BRANCH   3   4
ATOM      4  C   UNL     1     -23.108 -24.235  29.203  1.00  0.00     0.006 C 
BRANCH   4   5
ATOM      5  C   UNL     1     -23.437 -24.937  30.531  1.00  0.00     0.053 C 
BRANCH   5   6
ATOM      6  C   UNL     1     -24.582 -25.892  30.395  1.00  0.00     0.041 C 
ATOM      7  O   UNL     1     -24.716 -26.842  31.210  1.00  0.00    -0.550 OA
ATOM      8  O   UNL     1     -25.481 -25.754  29.345  1.00  0.00    -0.550 OA
ENDBRANCH   5   6
ENDBRANCH   4   5
ENDBRANCH   3   4
ENDBRANCH   2   3
ENDBRANCH   1   2
BRANCH   1   9
ATOM      9  C   UNL     1     -21.997 -21.468  31.194  1.00  0.00     0.000 C 
BRANCH   9  10
ATOM     10  C   UNL     1     -20.905 -20.636  31.883  1.00  0.00    -0.000 C 
BRANCH  10  11
ATOM     11  C   UNL     1     -20.923 -19.186  31.384  1.00  0.00    -0.000 C 
BRANCH  11  12
ATOM     12  C   UNL     1     -19.499 -18.649  31.200  1.00  0.00    -0.000 C 
BRANCH  12  13
ATOM     13  C   UNL     1     -19.223 -18.315  29.729  1.00  0.00    -0.003 C 
ATOM     14  C   UNL     1     -20.479 -17.793  29.038  1.00  0.00     0.004 C 
ENDBRANCH  12  13
ENDBRANCH  11  12
ENDBRANCH  10  11
ENDBRANCH   9  10
ENDBRANCH   1   9
TORSDOF 10
ENDMDL
MODEL 3
REMARK VINA RESULT:    -6.468      1.326      2.396
REMARK INTER + INTRA:         -10.875
REMARK INTER:                 -10.030
REMARK INTRA:                  -0.845
REMARK UNBOUND:                -0.626
REMARK SMILES CCCCCCCCCCCC(=O)[O-]
REMARK SMILES IDX 7 1 8 2 9 3 10 4 11 5 12 6 13 7 14 8 6 9 5 10 4 11 3 12 2 13
REMARK SMILES IDX 1 14
REMARK H PARENT
REMARK Flexibility Score: inf
ROOT
ATOM      1  C   UNL     1     -21.978 -23.121  29.836  1.00  0.00     0.000 C 
ENDROOT
BRANCH   1   2
ATOM      2  C   UNL     1     -22.021 -22.100  28.689  1.00  0.00     0.000 C 
BRANCH   2   3
ATOM      3  C   UNL     1     -22.391 -20.704  29.212  1.00  0.00     0.000 C 
BRANCH   3   4
ATOM      4  C   UNL     1     -21.251 -19.683  29.042  1.00  0.00     0.006 C 
BRANCH   4   5
ATOM      5  C   UNL     1     -20.877 -18.931  30.330  1.00  0.00     0.053 C 
BRANCH   5   6
ATOM      6  C   UNL     1     -19.515 -18.316  30.249  1.00  0.00     0.041 C 
ATOM      7  O   UNL     1     -18.695 -18.463  31.194  1.00  0.00    -0.550 OA
ATOM      8  O   UNL     1     -19.162 -17.551  29.145  1.00  0.00    -0.550 OA
ENDBRANCH   5   6
ENDBRANCH   4   5
ENDBRANCH   3   4
ENDBRANCH   2   3
ENDBRANCH   1   2
BRANCH   1   9
ATOM      9  C   UNL     1     -22.384 -22.513  31.188  1.00  0.00     0.000 C 
BRANCH   9  10
ATOM     10  C   UNL     1     -23.367 -23.401  31.965  1.00  0.00    -0.000 C 
BRANCH  10  11
ATOM     11  C   UNL     1     -23.272 -24.860  31.504  1.00  0.00    -0.000 C 
BRANCH  11  12
ATOM     12  C   UNL     1     -24.658 -25.426  31.175  1.00  0.00    -0.000 C 
BRANCH  12  13
ATOM     13  C   UNL     1     -24.854 -25.557  29.661  1.00  0.00    -0.003 C 
ATOM     14  C   UNL     1     -23.806 -26.482  29.048  1.00  0.00     0.004 C 
ENDBRANCH  12  13
ENDBRANCH  11  12
ENDBRANCH  10  11
ENDBRANCH   9  10
ENDBRANCH   1   9
TORSDOF 10
ENDMDL
MODEL 4
REMARK VINA RESULT:    -6.468      4.726      8.471
REMARK INTER + INTRA:         -10.874
REMARK INTER:                 -10.267
REMARK INTRA:                  -0.607
REMARK UNBOUND:                -0.626
REMARK SMILES CCCCCCCCCCCC(=O)[O-]
REMARK SMILES IDX 7 1 8 2 9 3 10 4 11 5 12 6 13 7 14 8 6 9 5 10 4 11 3 12 2 13
REMARK SMILES IDX 1 14
REMARK H PARENT
REMARK Flexibility Score: inf
ROOT
ATOM      1  C   UNL     1     -22.040 -23.280  30.241  1.00  0.00     0.000 C 
ENDROOT
BRANCH   1   2
ATOM      2  C   UNL     1     -22.895 -24.545  30.413  1.00  0.00     0.000 C 
BRANCH   2   3
ATOM      3  C   UNL     1     -23.368 -25.077  29.052  1.00  0.00     0.000 C 
BRANCH   3   4
ATOM      4  C   UNL     1     -23.864 -26.534  29.120  1.00  0.00     0.006 C 
BRANCH   4   5
ATOM      5  C   UNL     1     -25.380 -26.677  29.331  1.00  0.00     0.053 C 
BRANCH   5   6
ATOM      6  C   UNL     1     -25.711 -27.226  30.684  1.00  0.00     0.041 C 
ATOM      7  O   UNL     1     -26.236 -28.365  30.795  1.00  0.00    -0.550 OA
ATOM      8  O   UNL     1     -25.472 -26.465  31.821  1.00  0.00    -0.550 OA
ENDBRANCH   5   6
ENDBRANCH   4   5
ENDBRANCH   3   4
ENDBRANCH   2   3
ENDBRANCH   1   2
BRANCH   1   9
ATOM      9  C   UNL     1     -22.263 -22.594  28.884  1.00  0.00     0.000 C 
BRANCH   9  10
ATOM     10  C   UNL     1     -22.018 -21.079  28.940  1.00  0.00    -0.000 C 
BRANCH  10  11
ATOM     11  C   UNL     1     -22.094 -20.563  30.382  1.00  0.00    -0.000 C 
BRANCH  11  12
ATOM     12  C   UNL     1     -21.195 -19.337  30.578  1.00  0.00    -0.000 C 
BRANCH  12  13
ATOM     13  C   UNL     1     -20.759 -18.753  29.229  1.00  0.00    -0.003 C 
ATOM     14  C   UNL     1     -19.961 -17.466  29.418  1.00  0.00     0.004 C 
ENDBRANCH  12  13
ENDBRANCH  11  12
ENDBRANCH  10  11
ENDBRANCH   9  10
ENDBRANCH   1   9
TORSDOF 10
ENDMDL
MODEL 5
REMARK VINA RESULT:    -6.411      4.847      8.331
REMARK INTER + INTRA:         -10.785
REMARK INTER:                 -10.213
REMARK INTRA:                  -0.572
REMARK UNBOUND:                -0.626
REMARK SMILES CCCCCCCCCCCC(=O)[O-]
REMARK SMILES IDX 7 1 8 2 9 3 10 4 11 5 12 6 13 7 14 8 6 9 5 10 4 11 3 12 2 13
REMARK SMILES IDX 1 14
REMARK H PARENT
REMARK Flexibility Score: inf
ROOT
ATOM      1  C   UNL     1     -22.098 -22.801  29.204  1.00  0.00     0.000 C 
ENDROOT
BRANCH   1   2
ATOM      2  C   UNL     1     -22.285 -23.299  30.646  1.00  0.00     0.000 C 
BRANCH   2   3
ATOM      3  C   UNL     1     -23.079 -24.613  30.673  1.00  0.00     0.000 C 
BRANCH   3   4
ATOM      4  C   UNL     1     -23.596 -25.027  29.282  1.00  0.00     0.006 C 
BRANCH   4   5
ATOM      5  C   UNL     1     -23.797 -26.541  29.107  1.00  0.00     0.053 C 
BRANCH   5   6
ATOM      6  C   UNL     1     -25.163 -26.980  29.535  1.00  0.00     0.041 C 
ATOM      7  O   UNL     1     -25.429 -27.125  30.757  1.00  0.00    -0.550 OA
ATOM      8  O   UNL     1     -26.133 -27.264  28.581  1.00  0.00    -0.550 OA
ENDBRANCH   5   6
ENDBRANCH   4   5
ENDBRANCH   3   4
ENDBRANCH   2   3
ENDBRANCH   1   2
BRANCH   1   9
ATOM      9  C   UNL     1     -22.088 -21.269  29.102  1.00  0.00     0.000 C 
BRANCH   9  10
ATOM     10  C   UNL     1     -22.121 -20.583  30.476  1.00  0.00    -0.000 C 
BRANCH  10  11
ATOM     11  C   UNL     1     -21.207 -19.352  30.498  1.00  0.00    -0.000 C 
BRANCH  11  12
ATOM     12  C   UNL     1     -20.935 -18.841  29.078  1.00  0.00    -0.000 C 
BRANCH  12  13
ATOM     13  C   UNL     1     -20.205 -17.494  29.109  1.00  0.00    -0.003 C 
ATOM     14  C   UNL     1     -19.614 -17.219  30.488  1.00  0.00     0.004 C 
ENDBRANCH  12  13
ENDBRANCH  11  12
ENDBRANCH  10  11
ENDBRANCH   9  10
ENDBRANCH   1   9
TORSDOF 10
ENDMDL
MODEL 6
REMARK VINA RESULT:    -6.388      1.212      1.834
REMARK INTER + INTRA:         -10.748
REMARK INTER:                 -10.113
REMARK INTRA:                  -0.635
REMARK UNBOUND:                -0.626
REMARK SMILES CCCCCCCCCCCC(=O)[O-]
REMARK SMILES IDX 7 1 8 2 9 3 10 4 11 5 12 6 13 7 14 8 6 9 5 10 4 11 3 12 2 13
REMARK SMILES IDX 1 14
REMARK H PARENT
REMARK Flexibility Score: inf
ROOT
ATOM      1  C   UNL     1     -22.049 -21.631  28.840  1.00  0.00     0.000 C 
ENDROOT
BRANCH   1   2
ATOM      2  C   UNL     1     -22.364 -20.812  30.101  1.00  0.00     0.000 C 
BRANCH   2   3
ATOM      3  C   UNL     1     -21.340 -19.683  30.291  1.00  0.00     0.000 C 
BRANCH   3   4
ATOM      4  C   UNL     1     -21.009 -18.951  28.978  1.00  0.00     0.006 C 
BRANCH   4   5
ATOM      5  C   UNL     1     -20.534 -17.500  29.164  1.00  0.00     0.053 C 
BRANCH   5   6
ATOM      6  C   UNL     1     -19.110 -17.429  29.621  1.00  0.00     0.041 C 
ATOM      7  O   UNL     1     -18.213 -18.057  29.001  1.00  0.00    -0.550 OA
ATOM      8  O   UNL     1     -18.779 -16.696  30.754  1.00  0.00    -0.550 OA
ENDBRANCH   5   6
ENDBRANCH   4   5
ENDBRANCH   3   4
ENDBRANCH   2   3
ENDBRANCH   1   2
BRANCH   1   9
ATOM      9  C   UNL     1     -22.085 -23.146  29.091  1.00  0.00     0.000 C 
BRANCH   9  10
ATOM     10  C   UNL     1     -22.146 -23.497  30.585  1.00  0.00    -0.000 C 
BRANCH  10  11
ATOM     11  C   UNL     1     -23.183 -24.595  30.849  1.00  0.00    -0.000 C 
BRANCH  11  12
ATOM     12  C   UNL     1     -23.780 -25.118  29.537  1.00  0.00    -0.000 C 
BRANCH  12  13
ATOM     13  C   UNL     1     -25.146 -25.770  29.776  1.00  0.00    -0.003 C 
ATOM     14  C   UNL     1     -25.368 -26.057  31.258  1.00  0.00     0.004 C 
ENDBRANCH  12  13
ENDBRANCH  11  12
ENDBRANCH  10  11
ENDBRANCH   9  10
ENDBRANCH   1   9
TORSDOF 10
ENDMDL
MODEL 7
REMARK VINA RESULT:    -6.241      1.181      1.670
REMARK INTER + INTRA:         -10.515
REMARK INTER:                 -10.226
REMARK INTRA:                  -0.289
REMARK UNBOUND:                -0.626
REMARK SMILES CCCCCCCCCCCC(=O)[O-]
REMARK SMILES IDX 7 1 8 2 9 3 10 4 11 5 12 6 13 7 14 8 6 9 5 10 4 11 3 12 2 13
REMARK SMILES IDX 1 14
REMARK H PARENT
REMARK Flexibility Score: inf
ROOT
ATOM      1  C   UNL     1     -22.368 -20.781  30.555  1.00  0.00     0.000 C 
ENDROOT
BRANCH   1   2
ATOM      2  C   UNL     1     -21.369 -19.614  30.585  1.00  0.00     0.000 C 
BRANCH   2   3
ATOM      3  C   UNL     1     -21.084 -19.100  29.166  1.00  0.00     0.000 C 
BRANCH   3   4
ATOM      4  C   UNL     1     -20.449 -17.697  29.156  1.00  0.00     0.006 C 
BRANCH   4   5
ATOM      5  C   UNL     1     -18.922 -17.693  29.335  1.00  0.00     0.053 C 
BRANCH   5   6
ATOM      6  C   UNL     1     -18.316 -16.372  28.976  1.00  0.00     0.041 C 
ATOM      7  O   UNL     1     -17.863 -15.616  29.876  1.00  0.00    -0.550 OA
ATOM      8  O   UNL     1     -18.285 -15.958  27.650  1.00  0.00    -0.550 OA
ENDBRANCH   5   6
ENDBRANCH   4   5
ENDBRANCH   3   4
ENDBRANCH   2   3
ENDBRANCH   1   2
BRANCH   1   9
ATOM      9  C   UNL     1     -21.972 -21.926  31.500  1.00  0.00     0.000 C 
BRANCH   9  10
ATOM     10  C   UNL     1     -22.279 -23.311  30.913  1.00  0.00    -0.000 C 
BRANCH  10  11
ATOM     11  C   UNL     1     -23.475 -23.955  31.624  1.00  0.00    -0.000 C 
BRANCH  11  12
ATOM     12  C   UNL     1     -23.721 -25.379  31.111  1.00  0.00    -0.000 C 
BRANCH  12  13
ATOM     13  C   UNL     1     -23.649 -25.433  29.581  1.00  0.00    -0.003 C 
ATOM     14  C   UNL     1     -24.368 -26.665  29.038  1.00  0.00     0.004 C 
ENDBRANCH  12  13
ENDBRANCH  11  12
ENDBRANCH  10  11
ENDBRANCH   9  10
ENDBRANCH   1   9
TORSDOF 10
ENDMDL
MODEL 8
REMARK VINA RESULT:    -6.198      4.088      7.960
REMARK INTER + INTRA:         -10.448
REMARK INTER:                 -10.036
REMARK INTRA:                  -0.411
REMARK UNBOUND:                -0.626
REMARK SMILES CCCCCCCCCCCC(=O)[O-]
REMARK SMILES IDX 7 1 8 2 9 3 10 4 11 5 12 6 13 7 14 8 6 9 5 10 4 11 3 12 2 13
REMARK SMILES IDX 1 14
REMARK H PARENT
REMARK Flexibility Score: inf
ROOT
ATOM      1  C   UNL     1     -22.317 -20.886  29.695  1.00  0.00     0.000 C 
ENDROOT
BRANCH   1   2
ATOM      2  C   UNL     1     -21.979 -21.063  31.183  1.00  0.00     0.000 C 
BRANCH   2   3
ATOM      3  C   UNL     1     -22.577 -22.368  31.729  1.00  0.00     0.000 C 
BRANCH   3   4
ATOM      4  C   UNL     1     -22.401 -23.555  30.764  1.00  0.00     0.006 C 
BRANCH   4   5
ATOM      5  C   UNL     1     -23.362 -24.728  31.021  1.00  0.00     0.053 C 
BRANCH   5   6
ATOM      6  C   UNL     1     -23.992 -25.227  29.758  1.00  0.00     0.041 C 
ATOM      7  O   UNL     1     -25.223 -25.489  29.725  1.00  0.00    -0.550 OA
ATOM      8  O   UNL     1     -23.213 -25.436  28.627  1.00  0.00    -0.550 OA
ENDBRANCH   5   6
ENDBRANCH   4   5
ENDBRANCH   3   4
ENDBRANCH   2   3
ENDBRANCH   1   2
BRANCH   1   9
ATOM      9  C   UNL     1     -21.511 -19.757  29.034  1.00  0.00     0.000 C 
BRANCH   9  10
ATOM     10  C   UNL     1     -20.732 -18.911  30.051  1.00  0.00    -0.000 C 
BRANCH  10  11
ATOM     11  C   UNL     1     -19.340 -18.554  29.517  1.00  0.00    -0.000 C 
BRANCH  11  12
ATOM     12  C   UNL     1     -19.054 -17.056  29.680  1.00  0.00    -0.000 C 
BRANCH  12  13
ATOM     13  C   UNL     1     -18.365 -16.489  28.434  1.00  0.00    -0.003 C 
ATOM     14  C   UNL     1     -17.520 -15.266  28.780  1.00  0.00     0.004 C 
ENDBRANCH  12  13
ENDBRANCH  11  12
ENDBRANCH  10  11
ENDBRANCH   9  10
ENDBRANCH   1   9
TORSDOF 10
ENDMDL
MODEL 9
REMARK VINA RESULT:    -6.133      1.541      3.058
REMARK INTER + INTRA:         -10.344
REMARK INTER:                  -9.992
REMARK INTRA:                  -0.353
REMARK UNBOUND:                -0.626
REMARK SMILES CCCCCCCCCCCC(=O)[O-]
REMARK SMILES IDX 7 1 8 2 9 3 10 4 11 5 12 6 13 7 14 8 6 9 5 10 4 11 3 12 2 13
REMARK SMILES IDX 1 14
REMARK H PARENT
REMARK Flexibility Score: inf
ROOT
ATOM      1  C   UNL     1     -23.130 -23.381  31.629  1.00  0.00     0.000 C 
ENDROOT
BRANCH   1   2
ATOM      2  C   UNL     1     -22.260 -22.439  30.782  1.00  0.00     0.000 C 
BRANCH   2   3
ATOM      3  C   UNL     1     -21.656 -21.324  31.648  1.00  0.00     0.000 C 
BRANCH   3   4
ATOM      4  C   UNL     1     -21.345 -20.047  30.845  1.00  0.00     0.006 C 
BRANCH   4   5
ATOM      5  C   UNL     1     -20.730 -18.910  31.677  1.00  0.00     0.053 C 
BRANCH   5   6
ATOM      6  C   UNL     1     -19.501 -18.345  31.037  1.00  0.00     0.041 C 
ATOM      7  O   UNL     1     -18.761 -17.550  31.675  1.00  0.00    -0.550 OA
ATOM      8  O   UNL     1     -19.191 -18.668  29.721  1.00  0.00    -0.550 OA
ENDBRANCH   5   6
ENDBRANCH   4   5
ENDBRANCH   3   4
ENDBRANCH   2   3
ENDBRANCH   1   2
BRANCH   1   9
ATOM      9  C   UNL     1     -23.160 -24.816  31.080  1.00  0.00     0.000 C 
BRANCH   9  10
ATOM     10  C   UNL     1     -23.238 -24.861  29.547  1.00  0.00    -0.000 C 
BRANCH  10  11
ATOM     11  C   UNL     1     -23.866 -26.176  29.068  1.00  0.00    -0.000 C 
BRANCH  11  12
ATOM     12  C   UNL     1     -25.362 -26.225  29.397  1.00  0.00    -0.000 C 
BRANCH  12  13
ATOM     13  C   UNL     1     -25.892 -27.662  29.336  1.00  0.00    -0.003 C 
ATOM     14  C   UNL     1     -26.158 -28.090  27.895  1.00  0.00     0.004 C 
ENDBRANCH  12  13
ENDBRANCH  11  12
ENDBRANCH  10  11
ENDBRANCH   9  10
ENDBRANCH   1   9
TORSDOF 10
ENDMDL
