MODEL 1
REMARK VINA RESULT:    -7.225      0.000      0.000
REMARK INTER + INTRA:         -11.852
REMARK INTER:                 -10.603
REMARK INTRA:                  -1.249
REMARK UNBOUND:                -1.249
REMARK SMILES O=c1c(O[C@H]2O[C@@H](CO)[C@@H](O)[C@H](O)[C@H]2O)c(-c2ccc(O)c(O)c2)oc2cc(O)cc(O)c12
REMARK SMILES IDX 4 1 3 2 16 3 25 4 2 5 26 6 1 7 33 8 27 9 31 10 28 11 30 12
REMARK SMILES IDX 17 13 18 14 19 15 20 16 24 17 22 18 21 19 23 21 32 23 29 25
REMARK SMILES IDX 5 27 14 28 6 29 12 30 7 31 10 32 15 33 13 35 8 37 9 38 11 40
REMARK H PARENT 21 20 23 22 32 24 29 26 15 34 13 36 9 39 11 41
REMARK Flexibility Score: inf
ROOT
ATOM      1  O   UNL     1     -40.174  -6.103  81.642  1.00  0.00    -0.454 OA
ENDROOT
BRANCH   1   2
ATOM      2  C   UNL     1     -41.420  -5.764  82.309  1.00  0.00     0.214 A 
ATOM      3  C   UNL     1     -41.750  -4.412  82.407  1.00  0.00     0.180 A 
ATOM      4  O   UNL     1     -42.845  -3.956  81.743  1.00  0.00    -0.452 OA
ATOM      5  C   UNL     1     -42.578  -6.587  82.329  1.00  0.00     0.239 A 
ATOM      6  C   UNL     1     -43.537  -4.821  81.029  1.00  0.00     0.146 A 
ATOM      7  O   UNL     1     -42.899  -7.388  83.288  1.00  0.00    -0.285 OA
ATOM      8  C   UNL     1     -43.565  -6.216  81.390  1.00  0.00     0.111 A 
ATOM      9  C   UNL     1     -44.300  -4.460  79.900  1.00  0.00     0.094 A 
ATOM     10  C   UNL     1     -44.262  -7.162  80.589  1.00  0.00     0.134 A 
ATOM     11  C   UNL     1     -44.969  -5.373  79.085  1.00  0.00     0.123 A 
ATOM     12  C   UNL     1     -44.897  -6.743  79.421  1.00  0.00     0.093 A 
BRANCH   3  13
ATOM     13  C   UNL     1     -40.944  -3.453  83.228  1.00  0.00     0.025 A 
ATOM     14  C   UNL     1     -40.257  -3.845  84.396  1.00  0.00     0.016 A 
ATOM     15  C   UNL     1     -39.552  -2.845  85.125  1.00  0.00     0.051 A 
ATOM     16  C   UNL     1     -39.303  -1.627  84.488  1.00  0.00     0.157 A 
ATOM     17  C   UNL     1     -40.966  -2.081  82.872  1.00  0.00     0.062 A 
ATOM     18  C   UNL     1     -40.200  -1.150  83.573  1.00  0.00     0.158 A 
BRANCH  16  19
ATOM     19  O   UNL     1     -38.201  -0.852  84.833  1.00  0.00    -0.504 OA
ATOM     20  H   UNL     1     -37.444  -1.156  85.435  1.00  0.00     0.293 HD
ENDBRANCH  16  19
BRANCH  18  21
ATOM     21  O   UNL     1     -40.319   0.232  83.260  1.00  0.00    -0.504 OA
ATOM     22  H   UNL     1     -40.395   0.531  82.256  1.00  0.00     0.293 HD
ENDBRANCH  18  21
ENDBRANCH   3  13
BRANCH  10  23
ATOM     23  O   UNL     1     -44.291  -8.521  80.901  1.00  0.00    -0.507 OA
ATOM     24  H   UNL     1     -43.922  -8.900  81.758  1.00  0.00     0.293 HD
ENDBRANCH  10  23
BRANCH  11  25
ATOM     25  O   UNL     1     -45.767  -4.942  78.031  1.00  0.00    -0.508 OA
ATOM     26  H   UNL     1     -46.430  -5.580  77.588  1.00  0.00     0.293 HD
ENDBRANCH  11  25
ENDBRANCH   1   2
BRANCH   1  27
ATOM     27  C   UNL     1     -39.046  -6.888  82.172  1.00  0.00     0.339 C 
ATOM     28  C   UNL     1     -37.714  -6.090  82.675  1.00  0.00     0.214 C 
ATOM     29  O   UNL     1     -38.696  -7.858  81.187  1.00  0.00    -0.332 OA
ATOM     30  C   UNL     1     -36.386  -6.891  82.247  1.00  0.00     0.180 C 
ATOM     31  C   UNL     1     -37.910  -8.993  81.653  1.00  0.00     0.179 C 
ATOM     32  C   UNL     1     -36.743  -8.400  82.705  1.00  0.00     0.177 C 
BRANCH  28  33
ATOM     33  O   UNL     1     -37.512  -4.747  82.341  1.00  0.00    -0.384 OA
ATOM     34  H   UNL     1     -38.132  -4.578  81.570  1.00  0.00     0.211 HD
ENDBRANCH  28  33
BRANCH  30  35
ATOM     35  O   UNL     1     -35.096  -6.199  82.509  1.00  0.00    -0.387 OA
ATOM     36  H   UNL     1     -35.174  -5.228  82.300  1.00  0.00     0.211 HD
ENDBRANCH  30  35
BRANCH  31  37
ATOM     37  C   UNL     1     -37.596  -9.857  80.308  1.00  0.00     0.191 C 
BRANCH  37  38
ATOM     38  O   UNL     1     -36.751  -9.369  79.142  1.00  0.00    -0.394 OA
ATOM     39  H   UNL     1     -36.243  -8.597  79.585  1.00  0.00     0.210 HD
ENDBRANCH  37  38
ENDBRANCH  31  37
BRANCH  32  40
ATOM     40  O   UNL     1     -35.830  -9.197  83.448  1.00  0.00    -0.387 OA
ATOM     41  H   UNL     1     -35.062  -8.598  83.638  1.00  0.00     0.211 HD
ENDBRANCH  32  40
ENDBRANCH   1  27
TORSDOF 12
ENDMDL
MODEL 2
REMARK VINA RESULT:    -6.975      9.492     13.884
REMARK INTER + INTRA:         -11.485
REMARK INTER:                  -9.871
REMARK INTRA:                  -1.615
REMARK UNBOUND:                -1.249
REMARK SMILES O=c1c(O[C@H]2O[C@@H](CO)[C@@H](O)[C@H](O)[C@H]2O)c(-c2ccc(O)c(O)c2)oc2cc(O)cc(O)c12
REMARK SMILES IDX 4 1 3 2 16 3 25 4 2 5 26 6 1 7 33 8 27 9 31 10 28 11 30 12
REMARK SMILES IDX 17 13 18 14 19 15 20 16 24 17 22 18 21 19 23 21 32 23 29 25
REMARK SMILES IDX 5 27 14 28 6 29 12 30 7 31 10 32 15 33 13 35 8 37 9 38 11 40
REMARK H PARENT 21 20 23 22 32 24 29 26 15 34 13 36 9 39 11 41
REMARK Flexibility Score: inf
ROOT
ATOM      1  O   UNL     1     -38.070   5.312  77.844  1.00  0.00    -0.454 OA
ENDROOT
BRANCH   1   2
ATOM      2  C   UNL     1     -37.175   6.451  77.978  1.00  0.00     0.214 A 
ATOM      3  C   UNL     1     -37.710   7.631  78.495  1.00  0.00     0.180 A 
ATOM      4  O   UNL     1     -37.261   8.082  79.696  1.00  0.00    -0.452 OA
ATOM      5  C   UNL     1     -35.779   6.359  78.223  1.00  0.00     0.239 A 
ATOM      6  C   UNL     1     -36.343   7.369  80.318  1.00  0.00     0.146 A 
ATOM      7  O   UNL     1     -34.864   6.422  77.315  1.00  0.00    -0.285 OA
ATOM      8  C   UNL     1     -35.416   6.554  79.573  1.00  0.00     0.111 A 
ATOM      9  C   UNL     1     -36.185   7.361  81.718  1.00  0.00     0.094 A 
ATOM     10  C   UNL     1     -34.463   5.738  80.242  1.00  0.00     0.134 A 
ATOM     11  C   UNL     1     -35.277   6.549  82.397  1.00  0.00     0.123 A 
ATOM     12  C   UNL     1     -34.447   5.697  81.635  1.00  0.00     0.093 A 
BRANCH   3  13
ATOM     13  C   UNL     1     -38.752   8.420  77.763  1.00  0.00     0.025 A 
ATOM     14  C   UNL     1     -38.558   8.900  76.452  1.00  0.00     0.016 A 
ATOM     15  C   UNL     1     -39.599   9.675  75.862  1.00  0.00     0.051 A 
ATOM     16  C   UNL     1     -40.858   9.642  76.465  1.00  0.00     0.157 A 
ATOM     17  C   UNL     1     -39.929   8.787  78.463  1.00  0.00     0.062 A 
ATOM     18  C   UNL     1     -40.952   9.484  77.820  1.00  0.00     0.158 A 
BRANCH  16  19
ATOM     19  O   UNL     1     -42.014   9.852  75.719  1.00  0.00    -0.504 OA
ATOM     20  H   UNL     1     -42.683   9.132  75.473  1.00  0.00     0.293 HD
ENDBRANCH  16  19
BRANCH  18  21
ATOM     21  O   UNL     1     -42.076   9.927  78.570  1.00  0.00    -0.504 OA
ATOM     22  H   UNL     1     -43.030   9.551  78.344  1.00  0.00     0.293 HD
ENDBRANCH  18  21
ENDBRANCH   3  13
BRANCH  10  23
ATOM     23  O   UNL     1     -33.567   4.925  79.550  1.00  0.00    -0.507 OA
ATOM     24  H   UNL     1     -33.852   4.233  78.877  1.00  0.00     0.293 HD
ENDBRANCH  10  23
BRANCH  11  25
ATOM     25  O   UNL     1     -35.119   6.646  83.775  1.00  0.00    -0.508 OA
ATOM     26  H   UNL     1     -35.924   6.558  84.397  1.00  0.00     0.293 HD
ENDBRANCH  11  25
ENDBRANCH   1   2
BRANCH   1  27
ATOM     27  C   UNL     1     -39.249   4.984  78.664  1.00  0.00     0.339 C 
ATOM     28  C   UNL     1     -39.016   4.557  80.222  1.00  0.00     0.214 C 
ATOM     29  O   UNL     1     -39.981   3.970  77.980  1.00  0.00    -0.332 OA
ATOM     30  C   UNL     1     -40.010   3.360  80.629  1.00  0.00     0.180 C 
ATOM     31  C   UNL     1     -41.370   3.798  78.382  1.00  0.00     0.179 C 
ATOM     32  C   UNL     1     -41.426   3.892  80.058  1.00  0.00     0.177 C 
BRANCH  28  33
ATOM     33  O   UNL     1     -37.743   4.213  80.690  1.00  0.00    -0.384 OA
ATOM     34  H   UNL     1     -37.879   3.361  81.204  1.00  0.00     0.211 HD
ENDBRANCH  28  33
BRANCH  30  35
ATOM     35  O   UNL     1     -39.799   2.769  81.977  1.00  0.00    -0.387 OA
ATOM     36  H   UNL     1     -40.574   2.971  82.570  1.00  0.00     0.211 HD
ENDBRANCH  30  35
BRANCH  31  37
ATOM     37  C   UNL     1     -41.900   2.531  77.504  1.00  0.00     0.191 C 
BRANCH  37  38
ATOM     38  O   UNL     1     -42.816   2.636  76.296  1.00  0.00    -0.394 OA
ATOM     39  H   UNL     1     -43.705   2.868  76.751  1.00  0.00     0.210 HD
ENDBRANCH  37  38
ENDBRANCH  31  37
BRANCH  32  40
ATOM     40  O   UNL     1     -42.612   3.865  80.840  1.00  0.00    -0.387 OA
ATOM     41  H   UNL     1     -42.836   4.818  81.001  1.00  0.00     0.211 HD
ENDBRANCH  32  40
ENDBRANCH   1  27
TORSDOF 12
ENDMDL
MODEL 3
REMARK VINA RESULT:    -6.934      1.882      5.473
REMARK INTER + INTRA:         -11.426
REMARK INTER:                 -10.095
REMARK INTRA:                  -1.330
REMARK UNBOUND:                -1.249
REMARK SMILES O=c1c(O[C@H]2O[C@@H](CO)[C@@H](O)[C@H](O)[C@H]2O)c(-c2ccc(O)c(O)c2)oc2cc(O)cc(O)c12
REMARK SMILES IDX 4 1 3 2 16 3 25 4 2 5 26 6 1 7 33 8 27 9 31 10 28 11 30 12
REMARK SMILES IDX 17 13 18 14 19 15 20 16 24 17 22 18 21 19 23 21 32 23 29 25
REMARK SMILES IDX 5 27 14 28 6 29 12 30 7 31 10 32 15 33 13 35 8 37 9 38 11 40
REMARK H PARENT 21 20 23 22 32 24 29 26 15 34 13 36 9 39 11 41
REMARK Flexibility Score: inf
ROOT
ATOM      1  O   UNL     1     -40.653  -5.575  82.512  1.00  0.00    -0.454 OA
ENDROOT
BRANCH   1   2
ATOM      2  C   UNL     1     -41.220  -6.791  81.951  1.00  0.00     0.214 A 
ATOM      3  C   UNL     1     -41.504  -6.797  80.585  1.00  0.00     0.180 A 
ATOM      4  O   UNL     1     -40.805  -7.634  79.774  1.00  0.00    -0.452 OA
ATOM      5  C   UNL     1     -40.968  -8.102  82.437  1.00  0.00     0.239 A 
ATOM      6  C   UNL     1     -39.881  -8.395  80.325  1.00  0.00     0.146 A 
ATOM      7  O   UNL     1     -41.735  -8.750  83.247  1.00  0.00    -0.285 OA
ATOM      8  C   UNL     1     -39.997  -8.814  81.700  1.00  0.00     0.111 A 
ATOM      9  C   UNL     1     -38.748  -8.867  79.630  1.00  0.00     0.094 A 
ATOM     10  C   UNL     1     -38.973  -9.586  82.315  1.00  0.00     0.134 A 
ATOM     11  C   UNL     1     -37.720  -9.601  80.219  1.00  0.00     0.123 A 
ATOM     12  C   UNL     1     -37.828  -9.914  81.593  1.00  0.00     0.093 A 
BRANCH   3  13
ATOM     13  C   UNL     1     -42.561  -5.919  79.989  1.00  0.00     0.025 A 
ATOM     14  C   UNL     1     -42.929  -5.990  78.629  1.00  0.00     0.016 A 
ATOM     15  C   UNL     1     -43.918  -5.081  78.155  1.00  0.00     0.051 A 
ATOM     16  C   UNL     1     -44.695  -4.410  79.102  1.00  0.00     0.157 A 
ATOM     17  C   UNL     1     -43.131  -4.907  80.802  1.00  0.00     0.062 A 
ATOM     18  C   UNL     1     -44.149  -4.089  80.314  1.00  0.00     0.158 A 
BRANCH  16  19
ATOM     19  O   UNL     1     -45.985  -3.987  78.799  1.00  0.00    -0.504 OA
ATOM     20  H   UNL     1     -46.634  -3.585  79.466  1.00  0.00     0.293 HD
ENDBRANCH  16  19
BRANCH  18  21
ATOM     21  O   UNL     1     -44.632  -3.019  81.116  1.00  0.00    -0.504 OA
ATOM     22  H   UNL     1     -44.818  -3.179  82.136  1.00  0.00     0.293 HD
ENDBRANCH  18  21
ENDBRANCH   3  13
BRANCH  10  23
ATOM     23  O   UNL     1     -39.048  -9.989  83.648  1.00  0.00    -0.507 OA
ATOM     24  H   UNL     1     -39.704  -9.603  84.307  1.00  0.00     0.293 HD
ENDBRANCH  10  23
BRANCH  11  25
ATOM     25  O   UNL     1     -36.669 -10.100  79.458  1.00  0.00    -0.508 OA
ATOM     26  H   UNL     1     -35.881 -10.569  79.907  1.00  0.00     0.293 HD
ENDBRANCH  11  25
ENDBRANCH   1   2
BRANCH   1  27
ATOM     27  C   UNL     1     -39.379  -5.419  83.234  1.00  0.00     0.339 C 
ATOM     28  C   UNL     1     -38.999  -3.947  83.828  1.00  0.00     0.214 C 
ATOM     29  O   UNL     1     -38.339  -5.888  82.378  1.00  0.00    -0.332 OA
ATOM     30  C   UNL     1     -37.431  -3.649  83.627  1.00  0.00     0.180 C 
ATOM     31  C   UNL     1     -37.076  -6.219  83.025  1.00  0.00     0.179 C 
ATOM     32  C   UNL     1     -36.759  -5.020  84.158  1.00  0.00     0.177 C 
BRANCH  28  33
ATOM     33  O   UNL     1     -39.692  -2.805  83.415  1.00  0.00    -0.384 OA
ATOM     34  H   UNL     1     -40.163  -3.081  82.571  1.00  0.00     0.211 HD
ENDBRANCH  28  33
BRANCH  30  35
ATOM     35  O   UNL     1     -36.978  -2.279  83.986  1.00  0.00    -0.387 OA
ATOM     36  H   UNL     1     -36.776  -1.753  83.164  1.00  0.00     0.211 HD
ENDBRANCH  30  35
BRANCH  31  37
ATOM     37  C   UNL     1     -36.080  -6.626  81.800  1.00  0.00     0.191 C 
BRANCH  37  38
ATOM     38  O   UNL     1     -34.902  -7.578  81.921  1.00  0.00    -0.394 OA
ATOM     39  H   UNL     1     -34.784  -7.862  80.944  1.00  0.00     0.210 HD
ENDBRANCH  37  38
ENDBRANCH  31  37
BRANCH  32  40
ATOM     40  O   UNL     1     -35.666  -5.021  85.066  1.00  0.00    -0.387 OA
ATOM     41  H   UNL     1     -35.917  -4.370  85.771  1.00  0.00     0.211 HD
ENDBRANCH  32  40
ENDBRANCH   1  27
TORSDOF 12
ENDMDL
MODEL 4
REMARK VINA RESULT:    -6.734      9.692     13.309
REMARK INTER + INTRA:         -11.132
REMARK INTER:                  -9.668
REMARK INTRA:                  -1.465
REMARK UNBOUND:                -1.249
REMARK SMILES O=c1c(O[C@H]2O[C@@H](CO)[C@@H](O)[C@H](O)[C@H]2O)c(-c2ccc(O)c(O)c2)oc2cc(O)cc(O)c12
REMARK SMILES IDX 4 1 3 2 16 3 25 4 2 5 26 6 1 7 33 8 27 9 31 10 28 11 30 12
REMARK SMILES IDX 17 13 18 14 19 15 20 16 24 17 22 18 21 19 23 21 32 23 29 25
REMARK SMILES IDX 5 27 14 28 6 29 12 30 7 31 10 32 15 33 13 35 8 37 9 38 11 40
REMARK H PARENT 21 20 23 22 32 24 29 26 15 34 13 36 9 39 11 41
REMARK Flexibility Score: inf
ROOT
ATOM      1  O   UNL     1     -38.775   6.952  80.568  1.00  0.00    -0.454 OA
ENDROOT
BRANCH   1   2
ATOM      2  C   UNL     1     -38.964   5.809  81.447  1.00  0.00     0.214 A 
ATOM      3  C   UNL     1     -38.862   4.538  80.879  1.00  0.00     0.180 A 
ATOM      4  O   UNL     1     -37.843   3.727  81.268  1.00  0.00    -0.452 OA
ATOM      5  C   UNL     1     -38.644   5.790  82.831  1.00  0.00     0.239 A 
ATOM      6  C   UNL     1     -36.992   4.193  82.161  1.00  0.00     0.146 A 
ATOM      7  O   UNL     1     -39.487   5.991  83.787  1.00  0.00    -0.285 OA
ATOM      8  C   UNL     1     -37.407   5.177  83.128  1.00  0.00     0.111 A 
ATOM      9  C   UNL     1     -35.653   3.762  82.254  1.00  0.00     0.094 A 
ATOM     10  C   UNL     1     -36.478   5.724  84.055  1.00  0.00     0.134 A 
ATOM     11  C   UNL     1     -34.718   4.303  83.135  1.00  0.00     0.123 A 
ATOM     12  C   UNL     1     -35.142   5.332  84.006  1.00  0.00     0.093 A 
BRANCH   3  13
ATOM     13  C   UNL     1     -39.846   4.038  79.867  1.00  0.00     0.025 A 
ATOM     14  C   UNL     1     -39.501   3.817  78.517  1.00  0.00     0.016 A 
ATOM     15  C   UNL     1     -40.523   3.379  77.628  1.00  0.00     0.051 A 
ATOM     16  C   UNL     1     -41.705   2.883  78.185  1.00  0.00     0.157 A 
ATOM     17  C   UNL     1     -41.200   3.890  80.263  1.00  0.00     0.062 A 
ATOM     18  C   UNL     1     -42.151   3.388  79.375  1.00  0.00     0.158 A 
BRANCH  16  19
ATOM     19  O   UNL     1     -42.477   1.946  77.507  1.00  0.00    -0.504 OA
ATOM     20  H   UNL     1     -42.195   1.468  76.658  1.00  0.00     0.293 HD
ENDBRANCH  16  19
BRANCH  18  21
ATOM     21  O   UNL     1     -43.518   3.344  79.765  1.00  0.00    -0.504 OA
ATOM     22  H   UNL     1     -44.259   3.653  79.090  1.00  0.00     0.293 HD
ENDBRANCH  18  21
ENDBRANCH   3  13
BRANCH  10  23
ATOM     23  O   UNL     1     -36.845   6.693  84.989  1.00  0.00    -0.507 OA
ATOM     24  H   UNL     1     -37.785   7.037  85.090  1.00  0.00     0.293 HD
ENDBRANCH  10  23
BRANCH  11  25
ATOM     25  O   UNL     1     -33.433   3.780  83.227  1.00  0.00    -0.508 OA
ATOM     26  H   UNL     1     -32.620   4.362  83.021  1.00  0.00     0.293 HD
ENDBRANCH  11  25
ENDBRANCH   1   2
BRANCH   1  27
ATOM     27  C   UNL     1     -37.506   7.552  80.121  1.00  0.00     0.339 C 
ATOM     28  C   UNL     1     -37.563   8.761  79.026  1.00  0.00     0.214 C 
ATOM     29  O   UNL     1     -36.675   6.496  79.646  1.00  0.00    -0.332 OA
ATOM     30  C   UNL     1     -36.369   8.607  77.959  1.00  0.00     0.180 C 
ATOM     31  C   UNL     1     -35.251   6.791  79.555  1.00  0.00     0.179 C 
ATOM     32  C   UNL     1     -35.095   8.338  78.919  1.00  0.00     0.177 C 
BRANCH  28  33
ATOM     33  O   UNL     1     -38.731   9.021  78.303  1.00  0.00    -0.384 OA
ATOM     34  H   UNL     1     -38.651   8.458  77.474  1.00  0.00     0.211 HD
ENDBRANCH  28  33
BRANCH  30  35
ATOM     35  O   UNL     1     -36.392   9.556  76.815  1.00  0.00    -0.387 OA
ATOM     36  H   UNL     1     -36.816  10.416  77.085  1.00  0.00     0.211 HD
ENDBRANCH  30  35
BRANCH  31  37
ATOM     37  C   UNL     1     -34.592   5.449  78.906  1.00  0.00     0.191 C 
BRANCH  37  38
ATOM     38  O   UNL     1     -35.358   4.174  78.592  1.00  0.00    -0.394 OA
ATOM     39  H   UNL     1     -35.813   4.436  77.712  1.00  0.00     0.210 HD
ENDBRANCH  37  38
ENDBRANCH  31  37
BRANCH  32  40
ATOM     40  O   UNL     1     -33.869   9.036  78.756  1.00  0.00    -0.387 OA
ATOM     41  H   UNL     1     -33.532   9.183  79.678  1.00  0.00     0.211 HD
ENDBRANCH  32  40
ENDBRANCH   1  27
TORSDOF 12
ENDMDL
MODEL 5
REMARK VINA RESULT:    -6.682      9.626     11.900
REMARK INTER + INTRA:         -11.057
REMARK INTER:                  -9.554
REMARK INTRA:                  -1.503
REMARK UNBOUND:                -1.249
REMARK SMILES O=c1c(O[C@H]2O[C@@H](CO)[C@@H](O)[C@H](O)[C@H]2O)c(-c2ccc(O)c(O)c2)oc2cc(O)cc(O)c12
REMARK SMILES IDX 4 1 3 2 16 3 25 4 2 5 26 6 1 7 33 8 27 9 31 10 28 11 30 12
REMARK SMILES IDX 17 13 18 14 19 15 20 16 24 17 22 18 21 19 23 21 32 23 29 25
REMARK SMILES IDX 5 27 14 28 6 29 12 30 7 31 10 32 15 33 13 35 8 37 9 38 11 40
REMARK H PARENT 21 20 23 22 32 24 29 26 15 34 13 36 9 39 11 41
REMARK Flexibility Score: inf
ROOT
ATOM      1  O   UNL     1     -37.403   3.794  80.419  1.00  0.00    -0.454 OA
ENDROOT
BRANCH   1   2
ATOM      2  C   UNL     1     -38.380   4.826  80.112  1.00  0.00     0.214 A 
ATOM      3  C   UNL     1     -38.256   5.485  78.888  1.00  0.00     0.180 A 
ATOM      4  O   UNL     1     -39.233   5.325  77.956  1.00  0.00    -0.452 OA
ATOM      5  C   UNL     1     -39.723   4.833  80.575  1.00  0.00     0.239 A 
ATOM      6  C   UNL     1     -40.250   4.542  78.258  1.00  0.00     0.146 A 
ATOM      7  O   UNL     1     -40.146   5.485  81.605  1.00  0.00    -0.285 OA
ATOM      8  C   UNL     1     -40.662   4.369  79.628  1.00  0.00     0.111 A 
ATOM      9  C   UNL     1     -41.007   3.848  77.293  1.00  0.00     0.094 A 
ATOM     10  C   UNL     1     -41.720   3.479  79.963  1.00  0.00     0.134 A 
ATOM     11  C   UNL     1     -42.029   2.951  77.599  1.00  0.00     0.123 A 
ATOM     12  C   UNL     1     -42.343   2.739  78.960  1.00  0.00     0.093 A 
BRANCH   3  13
ATOM     13  C   UNL     1     -37.089   6.369  78.576  1.00  0.00     0.025 A 
ATOM     14  C   UNL     1     -36.033   5.963  77.734  1.00  0.00     0.016 A 
ATOM     15  C   UNL     1     -34.950   6.867  77.535  1.00  0.00     0.051 A 
ATOM     16  C   UNL     1     -35.137   8.201  77.903  1.00  0.00     0.157 A 
ATOM     17  C   UNL     1     -36.994   7.617  79.243  1.00  0.00     0.062 A 
ATOM     18  C   UNL     1     -35.952   8.500  78.959  1.00  0.00     0.158 A 
BRANCH  16  19
ATOM     19  O   UNL     1     -34.442   9.223  77.265  1.00  0.00    -0.504 OA
ATOM     20  H   UNL     1     -34.864   9.931  76.674  1.00  0.00     0.293 HD
ENDBRANCH  16  19
BRANCH  18  21
ATOM     21  O   UNL     1     -35.826   9.698  79.714  1.00  0.00    -0.504 OA
ATOM     22  H   UNL     1     -36.354   9.801  80.615  1.00  0.00     0.293 HD
ENDBRANCH  18  21
ENDBRANCH   3  13
BRANCH  10  23
ATOM     23  O   UNL     1     -42.128   3.275  81.281  1.00  0.00    -0.507 OA
ATOM     24  H   UNL     1     -41.638   3.649  82.077  1.00  0.00     0.293 HD
ENDBRANCH  10  23
BRANCH  11  25
ATOM     25  O   UNL     1     -42.787   2.358  76.596  1.00  0.00    -0.508 OA
ATOM     26  H   UNL     1     -43.772   2.602  76.477  1.00  0.00     0.293 HD
ENDBRANCH  11  25
ENDBRANCH   1   2
BRANCH   1  27
ATOM     27  C   UNL     1     -36.269   3.870  81.355  1.00  0.00     0.339 C 
ATOM     28  C   UNL     1     -36.586   3.930  82.955  1.00  0.00     0.214 C 
ATOM     29  O   UNL     1     -35.466   4.983  80.970  1.00  0.00    -0.332 OA
ATOM     30  C   UNL     1     -35.584   4.955  83.686  1.00  0.00     0.180 C 
ATOM     31  C   UNL     1     -34.100   4.996  81.476  1.00  0.00     0.179 C 
ATOM     32  C   UNL     1     -34.151   4.510  83.082  1.00  0.00     0.177 C 
BRANCH  28  33
ATOM     33  O   UNL     1     -37.875   4.210  83.422  1.00  0.00    -0.384 OA
ATOM     34  H   UNL     1     -37.838   4.021  84.408  1.00  0.00     0.211 HD
ENDBRANCH  28  33
BRANCH  30  35
ATOM     35  O   UNL     1     -35.861   5.222  85.122  1.00  0.00    -0.387 OA
ATOM     36  H   UNL     1     -35.979   6.199  85.278  1.00  0.00     0.211 HD
ENDBRANCH  30  35
BRANCH  31  37
ATOM     37  C   UNL     1     -33.480   6.409  80.952  1.00  0.00     0.191 C 
BRANCH  37  38
ATOM     38  O   UNL     1     -32.526   6.555  79.777  1.00  0.00    -0.394 OA
ATOM     39  H   UNL     1     -31.885   5.774  79.954  1.00  0.00     0.210 HD
ENDBRANCH  37  38
ENDBRANCH  31  37
BRANCH  32  40
ATOM     40  O   UNL     1     -33.016   4.302  83.912  1.00  0.00    -0.387 OA
ATOM     41  H   UNL     1     -33.085   3.359  84.210  1.00  0.00     0.211 HD
ENDBRANCH  32  40
ENDBRANCH   1  27
TORSDOF 12
ENDMDL
MODEL 6
REMARK VINA RESULT:    -6.562      1.911      6.136
REMARK INTER + INTRA:         -10.880
REMARK INTER:                  -9.750
REMARK INTRA:                  -1.129
REMARK UNBOUND:                -1.249
REMARK SMILES O=c1c(O[C@H]2O[C@@H](CO)[C@@H](O)[C@H](O)[C@H]2O)c(-c2ccc(O)c(O)c2)oc2cc(O)cc(O)c12
REMARK SMILES IDX 4 1 3 2 16 3 25 4 2 5 26 6 1 7 33 8 27 9 31 10 28 11 30 12
REMARK SMILES IDX 17 13 18 14 19 15 20 16 24 17 22 18 21 19 23 21 32 23 29 25
REMARK SMILES IDX 5 27 14 28 6 29 12 30 7 31 10 32 15 33 13 35 8 37 9 38 11 40
REMARK H PARENT 21 20 23 22 32 24 29 26 15 34 13 36 9 39 11 41
REMARK Flexibility Score: inf
ROOT
ATOM      1  O   UNL     1     -41.617  -5.842  82.408  1.00  0.00    -0.454 OA
ENDROOT
BRANCH   1   2
ATOM      2  C   UNL     1     -41.983  -7.059  81.701  1.00  0.00     0.214 A 
ATOM      3  C   UNL     1     -42.156  -6.972  80.319  1.00  0.00     0.180 A 
ATOM      4  O   UNL     1     -41.297  -7.643  79.508  1.00  0.00    -0.452 OA
ATOM      5  C   UNL     1     -41.610  -8.371  82.099  1.00  0.00     0.239 A 
ATOM      6  C   UNL     1     -40.332  -8.340  80.075  1.00  0.00     0.146 A 
ATOM      7  O   UNL     1     -42.353  -9.176  82.781  1.00  0.00    -0.285 OA
ATOM      8  C   UNL     1     -40.503  -8.893  81.395  1.00  0.00     0.111 A 
ATOM      9  C   UNL     1     -39.099  -8.610  79.448  1.00  0.00     0.094 A 
ATOM     10  C   UNL     1     -39.444  -9.595  82.034  1.00  0.00     0.134 A 
ATOM     11  C   UNL     1     -38.037  -9.271  80.065  1.00  0.00     0.123 A 
ATOM     12  C   UNL     1     -38.213  -9.719  81.393  1.00  0.00     0.093 A 
BRANCH   3  13
ATOM     13  C   UNL     1     -43.264  -6.172  79.705  1.00  0.00     0.025 A 
ATOM     14  C   UNL     1     -43.952  -6.593  78.548  1.00  0.00     0.016 A 
ATOM     15  C   UNL     1     -44.963  -5.737  78.022  1.00  0.00     0.051 A 
ATOM     16  C   UNL     1     -45.440  -4.711  78.842  1.00  0.00     0.157 A 
ATOM     17  C   UNL     1     -43.550  -4.894  80.248  1.00  0.00     0.062 A 
ATOM     18  C   UNL     1     -44.598  -4.124  79.745  1.00  0.00     0.158 A 
BRANCH  16  19
ATOM     19  O   UNL     1     -46.733  -4.221  78.694  1.00  0.00    -0.504 OA
ATOM     20  H   UNL     1     -47.413  -4.144  79.442  1.00  0.00     0.293 HD
ENDBRANCH  16  19
BRANCH  18  21
ATOM     21  O   UNL     1     -44.799  -2.806  80.240  1.00  0.00    -0.504 OA
ATOM     22  H   UNL     1     -45.161  -2.060  79.597  1.00  0.00     0.293 HD
ENDBRANCH  18  21
ENDBRANCH   3  13
BRANCH  10  23
ATOM     23  O   UNL     1     -39.573 -10.124  83.317  1.00  0.00    -0.507 OA
ATOM     24  H   UNL     1     -40.367 -10.667  83.616  1.00  0.00     0.293 HD
ENDBRANCH  10  23
BRANCH  11  25
ATOM     25  O   UNL     1     -36.875  -9.571  79.363  1.00  0.00    -0.508 OA
ATOM     26  H   UNL     1     -35.967  -9.249  79.700  1.00  0.00     0.293 HD
ENDBRANCH  11  25
ENDBRANCH   1   2
BRANCH   1  27
ATOM     27  C   UNL     1     -40.285  -5.225  82.520  1.00  0.00     0.339 C 
ATOM     28  C   UNL     1     -39.122  -6.031  83.333  1.00  0.00     0.214 C 
ATOM     29  O   UNL     1     -40.459  -3.922  83.073  1.00  0.00    -0.332 OA
ATOM     30  C   UNL     1     -38.244  -5.010  84.213  1.00  0.00     0.180 C 
ATOM     31  C   UNL     1     -39.356  -2.990  82.881  1.00  0.00     0.179 C 
ATOM     32  C   UNL     1     -37.929  -3.835  83.148  1.00  0.00     0.177 C 
BRANCH  28  33
ATOM     33  O   UNL     1     -39.441  -7.116  84.156  1.00  0.00    -0.384 OA
ATOM     34  H   UNL     1     -39.183  -6.822  85.081  1.00  0.00     0.211 HD
ENDBRANCH  28  33
BRANCH  30  35
ATOM     35  O   UNL     1     -37.245  -5.630  85.123  1.00  0.00    -0.387 OA
ATOM     36  H   UNL     1     -37.435  -5.382  86.069  1.00  0.00     0.211 HD
ENDBRANCH  30  35
BRANCH  31  37
ATOM     37  C   UNL     1     -39.806  -1.648  83.689  1.00  0.00     0.191 C 
BRANCH  37  38
ATOM     38  O   UNL     1     -40.928  -0.716  83.262  1.00  0.00    -0.394 OA
ATOM     39  H   UNL     1     -40.591  -0.419  82.341  1.00  0.00     0.210 HD
ENDBRANCH  37  38
ENDBRANCH  31  37
BRANCH  32  40
ATOM     40  O   UNL     1     -36.621  -3.309  82.972  1.00  0.00    -0.387 OA
ATOM     41  H   UNL     1     -36.026  -4.102  82.950  1.00  0.00     0.211 HD
ENDBRANCH  32  40
ENDBRANCH   1  27
TORSDOF 12
ENDMDL
MODEL 7
REMARK VINA RESULT:    -6.547      1.610      6.181
REMARK INTER + INTRA:         -10.857
REMARK INTER:                  -9.283
REMARK INTRA:                  -1.574
REMARK UNBOUND:                -1.249
REMARK SMILES O=c1c(O[C@H]2O[C@@H](CO)[C@@H](O)[C@H](O)[C@H]2O)c(-c2ccc(O)c(O)c2)oc2cc(O)cc(O)c12
REMARK SMILES IDX 4 1 3 2 16 3 25 4 2 5 26 6 1 7 33 8 27 9 31 10 28 11 30 12
REMARK SMILES IDX 17 13 18 14 19 15 20 16 24 17 22 18 21 19 23 21 32 23 29 25
REMARK SMILES IDX 5 27 14 28 6 29 12 30 7 31 10 32 15 33 13 35 8 37 9 38 11 40
REMARK H PARENT 21 20 23 22 32 24 29 26 15 34 13 36 9 39 11 41
REMARK Flexibility Score: inf
ROOT
ATOM      1  O   UNL     1     -41.594  -4.522  82.752  1.00  0.00    -0.454 OA
ENDROOT
BRANCH   1   2
ATOM      2  C   UNL     1     -41.819  -5.943  82.542  1.00  0.00     0.214 A 
ATOM      3  C   UNL     1     -41.982  -6.381  81.227  1.00  0.00     0.180 A 
ATOM      4  O   UNL     1     -41.045  -7.207  80.691  1.00  0.00    -0.452 OA
ATOM      5  C   UNL     1     -41.313  -6.976  83.377  1.00  0.00     0.239 A 
ATOM      6  C   UNL     1     -40.019  -7.546  81.446  1.00  0.00     0.146 A 
ATOM      7  O   UNL     1     -41.974  -7.552  84.323  1.00  0.00    -0.285 OA
ATOM      8  C   UNL     1     -40.147  -7.599  82.880  1.00  0.00     0.111 A 
ATOM      9  C   UNL     1     -38.756  -7.894  80.926  1.00  0.00     0.094 A 
ATOM     10  C   UNL     1     -39.027  -7.907  83.701  1.00  0.00     0.134 A 
ATOM     11  C   UNL     1     -37.638  -8.173  81.711  1.00  0.00     0.123 A 
ATOM     12  C   UNL     1     -37.782  -8.126  83.115  1.00  0.00     0.093 A 
BRANCH   3  13
ATOM     13  C   UNL     1     -43.160  -5.978  80.395  1.00  0.00     0.025 A 
ATOM     14  C   UNL     1     -44.480  -6.358  80.714  1.00  0.00     0.016 A 
ATOM     15  C   UNL     1     -45.525  -5.955  79.833  1.00  0.00     0.051 A 
ATOM     16  C   UNL     1     -45.243  -4.951  78.904  1.00  0.00     0.157 A 
ATOM     17  C   UNL     1     -42.920  -5.282  79.184  1.00  0.00     0.062 A 
ATOM     18  C   UNL     1     -43.980  -4.844  78.390  1.00  0.00     0.158 A 
BRANCH  16  19
ATOM     19  O   UNL     1     -46.247  -4.113  78.430  1.00  0.00    -0.504 OA
ATOM     20  H   UNL     1     -47.139  -4.427  78.065  1.00  0.00     0.293 HD
ENDBRANCH  16  19
BRANCH  18  21
ATOM     21  O   UNL     1     -43.710  -4.237  77.133  1.00  0.00    -0.504 OA
ATOM     22  H   UNL     1     -44.497  -4.065  76.461  1.00  0.00     0.293 HD
ENDBRANCH  18  21
ENDBRANCH   3  13
BRANCH  10  23
ATOM     23  O   UNL     1     -39.116  -7.947  85.092  1.00  0.00    -0.507 OA
ATOM     24  H   UNL     1     -38.522  -8.520  85.669  1.00  0.00     0.293 HD
ENDBRANCH  10  23
BRANCH  11  25
ATOM     25  O   UNL     1     -36.442  -8.585  81.134  1.00  0.00    -0.508 OA
ATOM     26  H   UNL     1     -36.250  -8.400  80.149  1.00  0.00     0.293 HD
ENDBRANCH  11  25
ENDBRANCH   1   2
BRANCH   1  27
ATOM     27  C   UNL     1     -40.453  -3.874  83.421  1.00  0.00     0.339 C 
ATOM     28  C   UNL     1     -40.465  -2.249  83.577  1.00  0.00     0.214 C 
ATOM     29  O   UNL     1     -39.266  -4.296  82.752  1.00  0.00    -0.332 OA
ATOM     30  C   UNL     1     -38.993  -1.652  83.325  1.00  0.00     0.180 C 
ATOM     31  C   UNL     1     -38.020  -4.126  83.487  1.00  0.00     0.179 C 
ATOM     32  C   UNL     1     -38.076  -2.624  84.237  1.00  0.00     0.177 C 
BRANCH  28  33
ATOM     33  O   UNL     1     -41.360  -1.464  82.843  1.00  0.00    -0.384 OA
ATOM     34  H   UNL     1     -40.833  -1.148  82.048  1.00  0.00     0.211 HD
ENDBRANCH  28  33
BRANCH  30  35
ATOM     35  O   UNL     1     -38.891  -0.169  83.286  1.00  0.00    -0.387 OA
ATOM     36  H   UNL     1     -37.941   0.116  83.382  1.00  0.00     0.211 HD
ENDBRANCH  30  35
BRANCH  31  37
ATOM     37  C   UNL     1     -36.859  -4.601  82.446  1.00  0.00     0.191 C 
BRANCH  37  38
ATOM     38  O   UNL     1     -35.548  -5.256  82.850  1.00  0.00    -0.394 OA
ATOM     39  H   UNL     1     -35.065  -5.289  81.947  1.00  0.00     0.210 HD
ENDBRANCH  37  38
ENDBRANCH  31  37
BRANCH  32  40
ATOM     40  O   UNL     1     -37.091  -2.115  85.125  1.00  0.00    -0.387 OA
ATOM     41  H   UNL     1     -37.197  -1.129  85.088  1.00  0.00     0.211 HD
ENDBRANCH  32  40
ENDBRANCH   1  27
TORSDOF 12
ENDMDL
MODEL 8
REMARK VINA RESULT:    -6.538      9.594     13.943
REMARK INTER + INTRA:         -10.845
REMARK INTER:                  -9.495
REMARK INTRA:                  -1.350
REMARK UNBOUND:                -1.249
REMARK SMILES O=c1c(O[C@H]2O[C@@H](CO)[C@@H](O)[C@H](O)[C@H]2O)c(-c2ccc(O)c(O)c2)oc2cc(O)cc(O)c12
REMARK SMILES IDX 4 1 3 2 16 3 25 4 2 5 26 6 1 7 33 8 27 9 31 10 28 11 30 12
REMARK SMILES IDX 17 13 18 14 19 15 20 16 24 17 22 18 21 19 23 21 32 23 29 25
REMARK SMILES IDX 5 27 14 28 6 29 12 30 7 31 10 32 15 33 13 35 8 37 9 38 11 40
REMARK H PARENT 21 20 23 22 32 24 29 26 15 34 13 36 9 39 11 41
REMARK Flexibility Score: inf
ROOT
ATOM      1  O   UNL     1     -38.058   6.488  81.398  1.00  0.00    -0.454 OA
ENDROOT
BRANCH   1   2
ATOM      2  C   UNL     1     -36.806   6.270  80.692  1.00  0.00     0.214 A 
ATOM      3  C   UNL     1     -36.198   7.380  80.104  1.00  0.00     0.180 A 
ATOM      4  O   UNL     1     -34.997   7.798  80.582  1.00  0.00    -0.452 OA
ATOM      5  C   UNL     1     -35.855   5.266  81.019  1.00  0.00     0.239 A 
ATOM      6  C   UNL     1     -34.469   7.132  81.590  1.00  0.00     0.146 A 
ATOM      7  O   UNL     1     -35.767   4.116  80.441  1.00  0.00    -0.285 OA
ATOM      8  C   UNL     1     -34.762   5.734  81.780  1.00  0.00     0.111 A 
ATOM      9  C   UNL     1     -33.586   7.710  82.524  1.00  0.00     0.094 A 
ATOM     10  C   UNL     1     -34.243   5.027  82.900  1.00  0.00     0.134 A 
ATOM     11  C   UNL     1     -33.086   7.045  83.643  1.00  0.00     0.123 A 
ATOM     12  C   UNL     1     -33.470   5.700  83.844  1.00  0.00     0.093 A 
BRANCH   3  13
ATOM     13  C   UNL     1     -36.823   8.115  78.958  1.00  0.00     0.025 A 
ATOM     14  C   UNL     1     -36.874   9.523  78.897  1.00  0.00     0.016 A 
ATOM     15  C   UNL     1     -37.527  10.121  77.782  1.00  0.00     0.051 A 
ATOM     16  C   UNL     1     -37.785   9.318  76.668  1.00  0.00     0.157 A 
ATOM     17  C   UNL     1     -37.483   7.359  77.956  1.00  0.00     0.062 A 
ATOM     18  C   UNL     1     -38.045   7.987  76.844  1.00  0.00     0.158 A 
BRANCH  16  19
ATOM     19  O   UNL     1     -37.866   9.867  75.393  1.00  0.00    -0.504 OA
ATOM     20  H   UNL     1     -38.235   9.390  74.579  1.00  0.00     0.293 HD
ENDBRANCH  16  19
BRANCH  18  21
ATOM     21  O   UNL     1     -38.787   7.217  75.907  1.00  0.00    -0.504 OA
ATOM     22  H   UNL     1     -39.244   6.324  76.216  1.00  0.00     0.293 HD
ENDBRANCH  18  21
ENDBRANCH   3  13
BRANCH  10  23
ATOM     23  O   UNL     1     -34.524   3.679  83.122  1.00  0.00    -0.507 OA
ATOM     24  H   UNL     1     -35.427   3.343  83.414  1.00  0.00     0.293 HD
ENDBRANCH  10  23
BRANCH  11  25
ATOM     25  O   UNL     1     -32.158   7.651  84.482  1.00  0.00    -0.508 OA
ATOM     26  H   UNL     1     -32.201   8.655  84.664  1.00  0.00     0.293 HD
ENDBRANCH  11  25
ENDBRANCH   1   2
BRANCH   1  27
ATOM     27  C   UNL     1     -39.344   5.799  81.197  1.00  0.00     0.339 C 
ATOM     28  C   UNL     1     -39.875   4.788  82.364  1.00  0.00     0.214 C 
ATOM     29  O   UNL     1     -39.275   5.115  79.948  1.00  0.00    -0.332 OA
ATOM     30  C   UNL     1     -40.548   3.483  81.711  1.00  0.00     0.180 C 
ATOM     31  C   UNL     1     -40.549   4.727  79.356  1.00  0.00     0.179 C 
ATOM     32  C   UNL     1     -41.519   4.131  80.591  1.00  0.00     0.177 C 
BRANCH  28  33
ATOM     33  O   UNL     1     -39.016   4.347  83.376  1.00  0.00    -0.384 OA
ATOM     34  H   UNL     1     -38.203   4.932  83.297  1.00  0.00     0.211 HD
ENDBRANCH  28  33
BRANCH  30  35
ATOM     35  O   UNL     1     -40.938   2.407  82.660  1.00  0.00    -0.387 OA
ATOM     36  H   UNL     1     -40.452   2.512  83.524  1.00  0.00     0.211 HD
ENDBRANCH  30  35
BRANCH  31  37
ATOM     37  C   UNL     1     -40.143   3.900  78.011  1.00  0.00     0.191 C 
BRANCH  37  38
ATOM     38  O   UNL     1     -39.536   2.507  78.002  1.00  0.00    -0.394 OA
ATOM     39  H   UNL     1     -40.193   2.008  78.610  1.00  0.00     0.210 HD
ENDBRANCH  37  38
ENDBRANCH  31  37
BRANCH  32  40
ATOM     40  O   UNL     1     -42.874   3.732  80.446  1.00  0.00    -0.387 OA
ATOM     41  H   UNL     1     -43.002   3.009  81.113  1.00  0.00     0.211 HD
ENDBRANCH  32  40
ENDBRANCH   1  27
TORSDOF 12
ENDMDL
MODEL 9
REMARK VINA RESULT:    -6.522      9.384     13.102
REMARK INTER + INTRA:         -10.821
REMARK INTER:                  -9.335
REMARK INTRA:                  -1.486
REMARK UNBOUND:                -1.249
REMARK SMILES O=c1c(O[C@H]2O[C@@H](CO)[C@@H](O)[C@H](O)[C@H]2O)c(-c2ccc(O)c(O)c2)oc2cc(O)cc(O)c12
REMARK SMILES IDX 4 1 3 2 16 3 25 4 2 5 26 6 1 7 33 8 27 9 31 10 28 11 30 12
REMARK SMILES IDX 17 13 18 14 19 15 20 16 24 17 22 18 21 19 23 21 32 23 29 25
REMARK SMILES IDX 5 27 14 28 6 29 12 30 7 31 10 32 15 33 13 35 8 37 9 38 11 40
REMARK H PARENT 21 20 23 22 32 24 29 26 15 34 13 36 9 39 11 41
REMARK Flexibility Score: inf
ROOT
ATOM      1  O   UNL     1     -38.401   6.310  82.477  1.00  0.00    -0.454 OA
ENDROOT
BRANCH   1   2
ATOM      2  C   UNL     1     -37.625   7.380  81.870  1.00  0.00     0.214 A 
ATOM      3  C   UNL     1     -36.373   7.051  81.349  1.00  0.00     0.180 A 
ATOM      4  O   UNL     1     -36.175   7.151  80.009  1.00  0.00    -0.452 OA
ATOM      5  C   UNL     1     -38.181   8.513  81.217  1.00  0.00     0.239 A 
ATOM      6  C   UNL     1     -37.187   7.549  79.264  1.00  0.00     0.146 A 
ATOM      7  O   UNL     1     -38.355   9.669  81.763  1.00  0.00    -0.285 OA
ATOM      8  C   UNL     1     -38.205   8.412  79.809  1.00  0.00     0.111 A 
ATOM      9  C   UNL     1     -37.342   7.192  77.910  1.00  0.00     0.094 A 
ATOM     10  C   UNL     1     -39.329   8.796  79.027  1.00  0.00     0.134 A 
ATOM     11  C   UNL     1     -38.448   7.533  77.132  1.00  0.00     0.123 A 
ATOM     12  C   UNL     1     -39.469   8.305  77.731  1.00  0.00     0.093 A 
BRANCH   3  13
ATOM     13  C   UNL     1     -35.242   6.602  82.222  1.00  0.00     0.025 A 
ATOM     14  C   UNL     1     -34.420   7.507  82.925  1.00  0.00     0.016 A 
ATOM     15  C   UNL     1     -33.346   6.976  83.696  1.00  0.00     0.051 A 
ATOM     16  C   UNL     1     -33.360   5.609  83.979  1.00  0.00     0.157 A 
ATOM     17  C   UNL     1     -34.923   5.221  82.249  1.00  0.00     0.062 A 
ATOM     18  C   UNL     1     -33.908   4.740  83.077  1.00  0.00     0.158 A 
BRANCH  16  19
ATOM     19  O   UNL     1     -32.749   5.110  85.125  1.00  0.00    -0.504 OA
ATOM     20  H   UNL     1     -32.716   4.130  85.384  1.00  0.00     0.293 HD
ENDBRANCH  16  19
BRANCH  18  21
ATOM     21  O   UNL     1     -33.542   3.367  83.010  1.00  0.00    -0.504 OA
ATOM     22  H   UNL     1     -32.529   3.104  82.938  1.00  0.00     0.293 HD
ENDBRANCH  18  21
ENDBRANCH   3  13
BRANCH  10  23
ATOM     23  O   UNL     1     -40.340   9.613  79.532  1.00  0.00    -0.507 OA
ATOM     24  H   UNL     1     -41.306   9.534  79.260  1.00  0.00     0.293 HD
ENDBRANCH  10  23
BRANCH  11  25
ATOM     25  O   UNL     1     -38.500   7.213  75.781  1.00  0.00    -0.508 OA
ATOM     26  H   UNL     1     -39.398   7.061  75.318  1.00  0.00     0.293 HD
ENDBRANCH  11  25
ENDBRANCH   1   2
BRANCH   1  27
ATOM     27  C   UNL     1     -39.560   5.599  81.913  1.00  0.00     0.339 C 
ATOM     28  C   UNL     1     -40.379   4.564  82.874  1.00  0.00     0.214 C 
ATOM     29  O   UNL     1     -39.123   4.932  80.731  1.00  0.00    -0.332 OA
ATOM     30  C   UNL     1     -40.809   3.253  82.048  1.00  0.00     0.180 C 
ATOM     31  C   UNL     1     -40.167   4.527  79.799  1.00  0.00     0.179 C 
ATOM     32  C   UNL     1     -41.435   3.897  80.702  1.00  0.00     0.177 C 
BRANCH  28  33
ATOM     33  O   UNL     1     -39.834   4.127  84.086  1.00  0.00    -0.384 OA
ATOM     34  H   UNL     1     -40.496   3.458  84.440  1.00  0.00     0.211 HD
ENDBRANCH  28  33
BRANCH  30  35
ATOM     35  O   UNL     1     -41.429   2.159  82.840  1.00  0.00    -0.387 OA
ATOM     36  H   UNL     1     -40.727   1.561  83.217  1.00  0.00     0.211 HD
ENDBRANCH  30  35
BRANCH  31  37
ATOM     37  C   UNL     1     -39.377   3.725  78.620  1.00  0.00     0.191 C 
BRANCH  37  38
ATOM     38  O   UNL     1     -38.791   2.330  78.764  1.00  0.00    -0.394 OA
ATOM     39  H   UNL     1     -37.805   2.515  78.557  1.00  0.00     0.210 HD
ENDBRANCH  37  38
ENDBRANCH  31  37
BRANCH  32  40
ATOM     40  O   UNL     1     -42.684   3.473  80.174  1.00  0.00    -0.387 OA
ATOM     41  H   UNL     1     -42.787   2.535  80.481  1.00  0.00     0.211 HD
ENDBRANCH  32  40
ENDBRANCH   1  27
TORSDOF 12
ENDMDL
