MODEL 1
REMARK VINA RESULT:    36.813      0.000      0.000
REMARK INTER + INTRA:          39.597
REMARK INTER:                  40.041
REMARK INTRA:                  -0.445
REMARK UNBOUND:                -0.445
REMARK SMILES C=C(C)[C@H]1CC[C@]2(C)CC[C@@]3(C)[C@H](CC[C@@H]4[C@]5(C)CC[C@@H](O)C(C)(C)[C@H]5CC[C@@]43C)[C@H]12
REMARK SMILES IDX 4 1 5 2 6 3 7 4 31 5 13 6 14 7 15 8 16 9 17 10 19 11 20 12
REMARK SMILES IDX 21 13 23 14 26 15 27 16 28 17 29 18 11 19 10 20 9 21 12 22
REMARK SMILES IDX 30 23 24 24 25 25 18 26 8 27 2 28 3 29 1 30 22 31
REMARK H PARENT 22 32
REMARK Flexibility Score: inf
ROOT
ATOM      1  C   UNL     1      14.936  11.752  30.689  1.00  0.00     0.018 C 
ATOM      2  C   UNL     1      14.644  11.622  32.181  1.00  0.00     0.009 C 
ATOM      3  C   UNL     1      14.393  13.055  32.629  1.00  0.00     0.008 C 
ATOM      4  C   UNL     1      15.417  13.902  31.857  1.00  0.00    -0.029 C 
ATOM      5  C   UNL     1      15.503  13.197  30.452  1.00  0.00     0.006 C 
ATOM      6  C   UNL     1      14.895  13.972  29.196  1.00  0.00    -0.000 C 
ATOM      7  C   UNL     1      13.414  13.656  28.912  1.00  0.00     0.005 C 
ATOM      8  C   UNL     1      12.880  14.337  27.670  1.00  0.00     0.005 C 
ATOM      9  C   UNL     1      13.020  15.878  27.633  1.00  0.00     0.002 C 
ATOM     10  C   UNL     1      12.416  16.487  26.260  1.00  0.00    -0.026 C 
ATOM     11  C   UNL     1      11.051  15.805  25.882  1.00  0.00     0.010 C 
ATOM     12  C   UNL     1      10.490  16.218  24.511  1.00  0.00     0.033 C 
ATOM     13  C   UNL     1      11.501  15.929  23.387  1.00  0.00     0.120 C 
ATOM     14  C   UNL     1      12.900  16.594  23.617  1.00  0.00    -0.006 C 
ATOM     15  C   UNL     1      13.417  16.209  25.070  1.00  0.00     0.003 C 
ATOM     16  C   UNL     1      14.849  16.689  25.393  1.00  0.00     0.005 C 
ATOM     17  C   UNL     1      15.394  16.079  26.697  1.00  0.00     0.008 C 
ATOM     18  C   UNL     1      14.517  16.322  27.970  1.00  0.00    -0.024 C 
ATOM     19  C   UNL     1      15.134  15.523  29.254  1.00  0.00    -0.024 C 
ATOM     20  C   UNL     1      14.463  16.019  30.578  1.00  0.00     0.008 C 
ATOM     21  C   UNL     1      15.026  15.416  31.868  1.00  0.00     0.007 C 
ATOM     22  C   UNL     1      16.685  15.754  29.324  1.00  0.00     0.012 C 
ATOM     23  C   UNL     1      14.553  17.860  28.290  1.00  0.00     0.012 C 
ATOM     24  C   UNL     1      12.836  18.125  23.367  1.00  0.00     0.014 C 
ATOM     25  C   UNL     1      13.863  16.005  22.549  1.00  0.00     0.014 C 
ATOM     26  C   UNL     1      12.114  18.009  26.472  1.00  0.00     0.012 C 
ATOM     27  C   UNL     1      16.775  13.785  32.624  1.00  0.00     0.011 C 
ENDROOT
BRANCH   1  28
ATOM     28  C   UNL     1      15.810  10.640  30.119  1.00  0.00    -0.077 C 
ATOM     29  C   UNL     1      15.869  10.347  28.642  1.00  0.00     0.039 C 
ATOM     30  C   UNL     1      16.520   9.856  30.947  1.00  0.00     0.008 C 
ENDBRANCH   1  28
BRANCH  13  31
ATOM     31  O   UNL     1      10.958  16.259  22.130  1.00  0.00    -0.393 OA
ATOM     32  H   UNL     1      11.610  16.831  21.648  1.00  0.00     0.210 HD
ENDBRANCH  13  31
TORSDOF 2
ENDMDL
MODEL 2
REMARK VINA RESULT:    39.459      2.651      7.837
REMARK INTER + INTRA:          42.474
REMARK INTER:                  42.844
REMARK INTRA:                  -0.370
REMARK UNBOUND:                -0.445
REMARK SMILES C=C(C)[C@H]1CC[C@]2(C)CC[C@@]3(C)[C@H](CC[C@@H]4[C@]5(C)CC[C@@H](O)C(C)(C)[C@H]5CC[C@@]43C)[C@H]12
REMARK SMILES IDX 4 1 5 2 6 3 7 4 31 5 13 6 14 7 15 8 16 9 17 10 19 11 20 12
REMARK SMILES IDX 21 13 23 14 26 15 27 16 28 17 29 18 11 19 10 20 9 21 12 22
REMARK SMILES IDX 30 23 24 24 25 25 18 26 8 27 2 28 3 29 1 30 22 31
REMARK H PARENT 22 32
REMARK Flexibility Score: inf
ROOT
ATOM      1  C   UNL     1      10.620  16.384  25.498  1.00  0.00     0.018 C 
ATOM      2  C   UNL     1      10.377  16.248  23.998  1.00  0.00     0.009 C 
ATOM      3  C   UNL     1      11.740  15.861  23.443  1.00  0.00     0.008 C 
ATOM      4  C   UNL     1      12.752  16.697  24.243  1.00  0.00    -0.029 C 
ATOM      5  C   UNL     1      12.137  16.742  25.691  1.00  0.00     0.006 C 
ATOM      6  C   UNL     1      12.890  15.930  26.841  1.00  0.00    -0.000 C 
ATOM      7  C   UNL     1      12.399  14.481  27.020  1.00  0.00     0.005 C 
ATOM      8  C   UNL     1      13.067  13.755  28.168  1.00  0.00     0.005 C 
ATOM      9  C   UNL     1      14.613  13.697  28.120  1.00  0.00     0.002 C 
ATOM     10  C   UNL     1      15.208  12.900  29.397  1.00  0.00    -0.026 C 
ATOM     11  C   UNL     1      14.374  11.602  29.702  1.00  0.00     0.010 C 
ATOM     12  C   UNL     1      14.781  10.872  30.992  1.00  0.00     0.033 C 
ATOM     13  C   UNL     1      14.684  11.805  32.213  1.00  0.00     0.120 C 
ATOM     14  C   UNL     1      15.512  13.124  32.059  1.00  0.00    -0.006 C 
ATOM     15  C   UNL     1      15.123  13.815  30.682  1.00  0.00     0.003 C 
ATOM     16  C   UNL     1      15.769  15.200  30.451  1.00  0.00     0.005 C 
ATOM     17  C   UNL     1      15.169  15.933  29.238  1.00  0.00     0.008 C 
ATOM     18  C   UNL     1      15.230  15.152  27.883  1.00  0.00    -0.024 C 
ATOM     19  C   UNL     1      14.453  15.978  26.707  1.00  0.00    -0.024 C 
ATOM     20  C   UNL     1      14.790  15.374  25.303  1.00  0.00     0.008 C 
ATOM     21  C   UNL     1      14.200  16.122  24.105  1.00  0.00     0.007 C 
ATOM     22  C   UNL     1      14.880  17.488  26.753  1.00  0.00     0.012 C 
ATOM     23  C   UNL     1      16.741  15.024  27.471  1.00  0.00     0.012 C 
ATOM     24  C   UNL     1      17.032  12.848  32.207  1.00  0.00     0.014 C 
ATOM     25  C   UNL     1      15.108  14.053  33.239  1.00  0.00     0.014 C 
ATOM     26  C   UNL     1      16.664  12.430  29.067  1.00  0.00     0.012 C 
ATOM     27  C   UNL     1      12.773  18.122  23.601  1.00  0.00     0.011 C 
ENDROOT
BRANCH   1  28
ATOM     28  C   UNL     1       9.662  17.335  26.208  1.00  0.00    -0.077 C 
ATOM     29  C   UNL     1       8.217  17.466  25.801  1.00  0.00     0.039 C 
ATOM     30  C   UNL     1      10.114  18.125  27.197  1.00  0.00     0.008 C 
ENDBRANCH   1  28
BRANCH  13  31
ATOM     31  O   UNL     1      15.003  11.112  33.397  1.00  0.00    -0.393 OA
ATOM     32  H   UNL     1      14.368  10.357  33.498  1.00  0.00     0.210 HD
ENDBRANCH  13  31
TORSDOF 2
ENDMDL
