MODEL 1
REMARK VINA RESULT:    -3.059      0.000      0.000
REMARK INTER + INTRA:          -3.866
REMARK INTER:                  -4.132
REMARK INTRA:                   0.266
REMARK UNBOUND:                 0.266
REMARK SMILES C=C1C(=O)O[C@H]2[C@@H]1CCC(C)=CCC[C@@]1(C)O[C@@H]21
REMARK SMILES IDX 6 1 7 2 2 3 1 4 3 5 4 6 5 7 8 8 9 9 10 10 11 11 12 12 18 14
REMARK SMILES IDX 15 15 17 16 16 17 14 18 13 19
REMARK H PARENT
REMARK Flexibility Score: 70.00
ROOT
ATOM      1  C   UNL     1      41.391 -32.371  11.622  1.00  0.00     0.216 C 
ATOM      2  C   UNL     1      41.726 -30.932  11.059  1.00  0.00     0.070 C 
ATOM      3  C   UNL     1      40.343 -30.394  10.813  1.00  0.00     0.037 C 
ATOM      4  C   UNL     1      40.034 -29.350  10.043  1.00  0.00     0.021 C 
ATOM      5  C   UNL     1      39.408 -31.207  11.549  1.00  0.00     0.334 C 
ATOM      6  O   UNL     1      38.179 -30.973  11.690  1.00  0.00    -0.247 OA
ATOM      7  O   UNL     1      40.049 -32.293  12.098  1.00  0.00    -0.455 OA
ENDROOT
BRANCH   2   8
ATOM      8  C   UNL     1      42.471 -29.940  12.012  1.00  0.00     0.017 C 
BRANCH   8   9
ATOM      9  C   UNL     1      43.882 -29.454  11.584  1.00  0.00     0.031 C 
BRANCH   9  10
ATOM     10  C   UNL     1      44.305 -29.866  10.188  1.00  0.00    -0.077 C 
ATOM     11  C   UNL     1      43.971 -28.944   9.043  1.00  0.00     0.039 C 
ATOM     12  C   UNL     1      44.952 -31.023   9.914  1.00  0.00    -0.028 CG0
ATOM     13  G   UNL     1      45.305 -32.103  10.914  1.00  0.00     0.000 G0
ENDBRANCH   9  10
ENDBRANCH   8   9
ENDBRANCH   2   8
BRANCH   1  14
ATOM     14  C   UNL     1      42.276 -33.072  12.676  1.00  0.00     0.192 C 
ATOM     15  C   UNL     1      43.639 -33.558  12.272  1.00  0.00     0.096 C 
ATOM     16  O   UNL     1      43.448 -32.387  13.031  1.00  0.00    -0.362 OA
ATOM     17  C   UNL     1      44.284 -34.655  13.120  1.00  0.00     0.045 C 
BRANCH  15  18
ATOM     18  C   UNL     1      44.257 -33.262  10.884  1.00  0.00     0.042 C 
BRANCH  18  19
ATOM     19  C   UNL     1      45.305 -32.127  10.897  1.00  0.00     0.030 CG0
ATOM     20  G   UNL     1      44.949 -31.020   9.928  1.00  0.00     0.000 G0
ENDBRANCH  18  19
ENDBRANCH  15  18
ENDBRANCH   1  14
TORSDOF 0
ENDMDL
MODEL 2
REMARK VINA RESULT:    -1.052      1.688      1.904
REMARK INTER + INTRA:          -1.155
REMARK INTER:                  -3.515
REMARK INTRA:                   2.360
REMARK UNBOUND:                 0.266
REMARK SMILES C=C1C(=O)O[C@H]2[C@@H]1CCC(C)=CCC[C@@]1(C)O[C@@H]21
REMARK SMILES IDX 6 1 7 2 2 3 1 4 3 5 4 6 5 7 8 8 9 9 10 10 11 11 12 12 18 14
REMARK SMILES IDX 15 15 17 16 16 17 14 18 13 19
REMARK H PARENT
REMARK Flexibility Score: 70.00
ROOT
ATOM      1  C   UNL     1      41.961 -32.629  11.373  1.00  0.00     0.216 C 
ATOM      2  C   UNL     1      41.835 -31.665  10.127  1.00  0.00     0.070 C 
ATOM      3  C   UNL     1      40.891 -30.625  10.667  1.00  0.00     0.037 C 
ATOM      4  C   UNL     1      40.189 -29.753   9.944  1.00  0.00     0.021 C 
ATOM      5  C   UNL     1      40.874 -30.738  12.104  1.00  0.00     0.334 C 
ATOM      6  O   UNL     1      40.305 -29.945  12.899  1.00  0.00    -0.247 OA
ATOM      7  O   UNL     1      41.585 -31.846  12.503  1.00  0.00    -0.455 OA
ENDROOT
BRANCH   2   8
ATOM      8  C   UNL     1      43.133 -30.939   9.642  1.00  0.00     0.017 C 
BRANCH   8   9
ATOM      9  C   UNL     1      43.761 -29.880  10.587  1.00  0.00     0.031 C 
BRANCH   9  10
ATOM     10  C   UNL     1      45.276 -29.868  10.619  1.00  0.00    -0.077 C 
ATOM     11  C   UNL     1      46.012 -29.582   9.335  1.00  0.00     0.039 C 
ATOM     12  C   UNL     1      46.002 -30.117  11.735  1.00  0.00    -0.028 CG0
ATOM     13  G   UNL     1      45.446 -30.494  13.091  1.00  0.00     0.000 G0
ENDBRANCH   9  10
ENDBRANCH   8   9
ENDBRANCH   2   8
BRANCH   1  14
ATOM     14  C   UNL     1      43.260 -33.405  11.688  1.00  0.00     0.192 C 
ATOM     15  C   UNL     1      44.348 -32.717  12.461  1.00  0.00     0.096 C 
ATOM     16  O   UNL     1      43.490 -33.669  13.046  1.00  0.00    -0.362 OA
ATOM     17  C   UNL     1      45.769 -33.269  12.337  1.00  0.00     0.045 C 
BRANCH  15  18
ATOM     18  C   UNL     1      44.173 -31.310  13.084  1.00  0.00     0.042 C 
BRANCH  18  19
ATOM     19  C   UNL     1      45.473 -30.477  13.117  1.00  0.00     0.030 CG0
ATOM     20  G   UNL     1      45.985 -30.175  11.724  1.00  0.00     0.000 G0
ENDBRANCH  18  19
ENDBRANCH  15  18
ENDBRANCH   1  14
TORSDOF 0
ENDMDL
MODEL 3
REMARK VINA RESULT:    -1.007      3.160      5.533
REMARK INTER + INTRA:          -1.094
REMARK INTER:                  -3.295
REMARK INTRA:                   2.201
REMARK UNBOUND:                 0.266
REMARK SMILES C=C1C(=O)O[C@H]2[C@@H]1CCC(C)=CCC[C@@]1(C)O[C@@H]21
REMARK SMILES IDX 6 1 7 2 2 3 1 4 3 5 4 6 5 7 8 8 9 9 10 10 11 11 12 12 18 14
REMARK SMILES IDX 15 15 17 16 16 17 14 18 13 19
REMARK H PARENT
REMARK Flexibility Score: 70.00
ROOT
ATOM      1  C   UNL     1      41.381 -31.897  11.805  1.00  0.00     0.216 C 
ATOM      2  C   UNL     1      41.340 -30.480  11.105  1.00  0.00     0.070 C 
ATOM      3  C   UNL     1      42.701 -30.441  10.464  1.00  0.00     0.037 C 
ATOM      4  C   UNL     1      43.326 -29.351  10.018  1.00  0.00     0.021 C 
ATOM      5  C   UNL     1      43.216 -31.786  10.422  1.00  0.00     0.334 C 
ATOM      6  O   UNL     1      44.267 -32.156   9.835  1.00  0.00    -0.247 OA
ATOM      7  O   UNL     1      42.386 -32.636  11.115  1.00  0.00    -0.455 OA
ENDROOT
BRANCH   2   8
ATOM      8  C   UNL     1      40.270 -30.259   9.985  1.00  0.00     0.017 C 
BRANCH   8   9
ATOM      9  C   UNL     1      39.247 -29.109  10.185  1.00  0.00     0.031 C 
BRANCH   9  10
ATOM     10  C   UNL     1      37.797 -29.496   9.968  1.00  0.00    -0.077 C 
ATOM     11  C   UNL     1      37.225 -29.358   8.580  1.00  0.00     0.039 C 
ATOM     12  C   UNL     1      36.986 -29.941  10.957  1.00  0.00    -0.028 CG0
ATOM     13  G   UNL     1      37.358 -30.074  12.418  1.00  0.00     0.000 G0
ENDBRANCH   9  10
ENDBRANCH   8   9
ENDBRANCH   2   8
BRANCH   1  14
ATOM     14  C   UNL     1      40.118 -32.771  11.974  1.00  0.00     0.192 C 
ATOM     15  C   UNL     1      38.859 -32.135  12.493  1.00  0.00     0.096 C 
ATOM     16  O   UNL     1      39.044 -32.447  11.132  1.00  0.00    -0.362 OA
ATOM     17  C   UNL     1      37.807 -33.049  13.122  1.00  0.00     0.045 C 
BRANCH  15  18
ATOM     18  C   UNL     1      38.727 -30.611  12.731  1.00  0.00     0.042 C 
BRANCH  18  19
ATOM     19  C   UNL     1      37.314 -30.056  12.448  1.00  0.00     0.030 CG0
ATOM     20  G   UNL     1      37.021 -29.988  10.964  1.00  0.00     0.000 G0
ENDBRANCH  18  19
ENDBRANCH  15  18
ENDBRANCH   1  14
TORSDOF 0
ENDMDL
MODEL 4
REMARK VINA RESULT:    -0.876      1.635      2.171
REMARK INTER + INTRA:          -0.917
REMARK INTER:                  -1.200
REMARK INTRA:                   0.283
REMARK UNBOUND:                 0.266
REMARK SMILES C=C1C(=O)O[C@H]2[C@@H]1CCC(C)=CCC[C@@]1(C)O[C@@H]21
REMARK SMILES IDX 6 1 7 2 2 3 1 4 3 5 4 6 5 7 8 8 9 9 10 10 11 11 12 12 18 14
REMARK SMILES IDX 15 15 17 16 16 17 14 18 13 19
REMARK H PARENT
REMARK Flexibility Score: 70.00
ROOT
ATOM      1  C   UNL     1      39.942 -32.565  11.960  1.00  0.00     0.216 C 
ATOM      2  C   UNL     1      39.698 -31.169  11.258  1.00  0.00     0.070 C 
ATOM      3  C   UNL     1      38.197 -31.085  11.309  1.00  0.00     0.037 C 
ATOM      4  C   UNL     1      37.432 -30.275  10.576  1.00  0.00     0.021 C 
ATOM      5  C   UNL     1      37.727 -32.036  12.284  1.00  0.00     0.334 C 
ATOM      6  O   UNL     1      36.542 -32.149  12.693  1.00  0.00    -0.247 OA
ATOM      7  O   UNL     1      38.769 -32.817  12.728  1.00  0.00    -0.455 OA
ENDROOT
BRANCH   2   8
ATOM      8  C   UNL     1      40.281 -29.897  11.958  1.00  0.00     0.017 C 
BRANCH   8   9
ATOM      9  C   UNL     1      41.264 -29.015  11.143  1.00  0.00     0.031 C 
BRANCH   9  10
ATOM     10  C   UNL     1      41.548 -29.503   9.736  1.00  0.00    -0.077 C 
ATOM     11  C   UNL     1      40.721 -28.939   8.608  1.00  0.00     0.039 C 
ATOM     12  C   UNL     1      42.491 -30.428   9.442  1.00  0.00    -0.028 CG0
ATOM     13  G   UNL     1      43.363 -31.158  10.441  1.00  0.00     0.000 G0
ENDBRANCH   9  10
ENDBRANCH   8   9
ENDBRANCH   2   8
BRANCH   1  14
ATOM     14  C   UNL     1      41.196 -32.849  12.817  1.00  0.00     0.192 C 
ATOM     15  C   UNL     1      42.535 -32.930  12.141  1.00  0.00     0.096 C 
ATOM     16  O   UNL     1      42.130 -31.804  12.884  1.00  0.00    -0.362 OA
ATOM     17  C   UNL     1      43.652 -33.684  12.863  1.00  0.00     0.045 C 
BRANCH  15  18
ATOM     18  C   UNL     1      42.738 -32.600  10.642  1.00  0.00     0.042 C 
BRANCH  18  19
ATOM     19  C   UNL     1      43.342 -31.201  10.388  1.00  0.00     0.030 CG0
ATOM     20  G   UNL     1      42.491 -30.383   9.440  1.00  0.00     0.000 G0
ENDBRANCH  18  19
ENDBRANCH  15  18
ENDBRANCH   1  14
TORSDOF 0
ENDMDL
MODEL 5
REMARK VINA RESULT:    -0.845      3.864      6.237
REMARK INTER + INTRA:          -0.875
REMARK INTER:                  -3.367
REMARK INTRA:                   2.491
REMARK UNBOUND:                 0.266
REMARK SMILES C=C1C(=O)O[C@H]2[C@@H]1CCC(C)=CCC[C@@]1(C)O[C@@H]21
REMARK SMILES IDX 6 1 7 2 2 3 1 4 3 5 4 6 5 7 8 8 9 9 10 10 11 11 12 12 18 14
REMARK SMILES IDX 15 15 17 16 16 17 14 18 13 19
REMARK H PARENT
REMARK Flexibility Score: 70.00
ROOT
ATOM      1  C   UNL     1      38.989 -29.582   9.806  1.00  0.00     0.216 C 
ATOM      2  C   UNL     1      37.759 -28.906  10.535  1.00  0.00     0.070 C 
ATOM      3  C   UNL     1      36.620 -29.396   9.685  1.00  0.00     0.037 C 
ATOM      4  C   UNL     1      35.391 -28.880   9.647  1.00  0.00     0.021 C 
ATOM      5  C   UNL     1      37.087 -30.519   8.913  1.00  0.00     0.334 C 
ATOM      6  O   UNL     1      36.375 -31.268   8.193  1.00  0.00    -0.247 OA
ATOM      7  O   UNL     1      38.444 -30.678   9.075  1.00  0.00    -0.455 OA
ENDROOT
BRANCH   2   8
ATOM      8  C   UNL     1      37.478 -29.327  12.016  1.00  0.00     0.017 C 
BRANCH   8   9
ATOM      9  C   UNL     1      36.005 -29.614  12.414  1.00  0.00     0.031 C 
BRANCH   9  10
ATOM     10  C   UNL     1      35.681 -31.074  12.662  1.00  0.00    -0.077 C 
ATOM     11  C   UNL     1      34.233 -31.492  12.657  1.00  0.00     0.039 C 
ATOM     12  C   UNL     1      36.622 -32.018  12.906  1.00  0.00    -0.028 CG0
ATOM     13  G   UNL     1      38.112 -31.778  13.024  1.00  0.00     0.000 G0
ENDBRANCH   9  10
ENDBRANCH   8   9
ENDBRANCH   2   8
BRANCH   1  14
ATOM     14  C   UNL     1      40.250 -30.042  10.570  1.00  0.00     0.192 C 
ATOM     15  C   UNL     1      40.140 -31.193  11.529  1.00  0.00     0.096 C 
ATOM     16  O   UNL     1      40.713 -31.327  10.249  1.00  0.00    -0.362 OA
ATOM     17  C   UNL     1      41.205 -31.317  12.618  1.00  0.00     0.045 C 
BRANCH  15  18
ATOM     18  C   UNL     1      38.849 -32.034  11.682  1.00  0.00     0.042 C 
BRANCH  18  19
ATOM     19  C   UNL     1      38.115 -31.811  13.023  1.00  0.00     0.030 CG0
ATOM     20  G   UNL     1      36.621 -32.018  12.890  1.00  0.00     0.000 G0
ENDBRANCH  18  19
ENDBRANCH  15  18
ENDBRANCH   1  14
TORSDOF 0
ENDMDL
MODEL 6
REMARK VINA RESULT:    -0.787      2.272      3.705
REMARK INTER + INTRA:          -0.796
REMARK INTER:                  -3.045
REMARK INTRA:                   2.249
REMARK UNBOUND:                 0.266
REMARK SMILES C=C1C(=O)O[C@H]2[C@@H]1CCC(C)=CCC[C@@]1(C)O[C@@H]21
REMARK SMILES IDX 6 1 7 2 2 3 1 4 3 5 4 6 5 7 8 8 9 9 10 10 11 11 12 12 18 14
REMARK SMILES IDX 15 15 17 16 16 17 14 18 13 19
REMARK H PARENT
REMARK Flexibility Score: 70.00
ROOT
ATOM      1  C   UNL     1      41.893 -29.768  10.221  1.00  0.00     0.216 C 
ATOM      2  C   UNL     1      40.535 -29.090  10.664  1.00  0.00     0.070 C 
ATOM      3  C   UNL     1      39.534 -30.042  10.068  1.00  0.00     0.037 C 
ATOM      4  C   UNL     1      38.242 -29.790   9.857  1.00  0.00     0.021 C 
ATOM      5  C   UNL     1      40.215 -31.274   9.759  1.00  0.00     0.334 C 
ATOM      6  O   UNL     1      39.671 -32.342   9.375  1.00  0.00    -0.247 OA
ATOM      7  O   UNL     1      41.570 -31.131   9.952  1.00  0.00    -0.455 OA
ENDROOT
BRANCH   2   8
ATOM      8  C   UNL     1      40.249 -28.983  12.199  1.00  0.00     0.017 C 
BRANCH   8   9
ATOM      9  C   UNL     1      40.835 -30.087  13.118  1.00  0.00     0.031 C 
BRANCH   9  10
ATOM     10  C   UNL     1      40.116 -31.421  13.056  1.00  0.00    -0.077 C 
ATOM     11  C   UNL     1      38.610 -31.421  13.121  1.00  0.00     0.039 C 
ATOM     12  C   UNL     1      40.756 -32.610  12.962  1.00  0.00    -0.028 CG0
ATOM     13  G   UNL     1      42.256 -32.815  12.958  1.00  0.00     0.000 G0
ENDBRANCH   9  10
ENDBRANCH   8   9
ENDBRANCH   2   8
BRANCH   1  14
ATOM     14  C   UNL     1      43.171 -29.698  11.085  1.00  0.00     0.192 C 
ATOM     15  C   UNL     1      43.617 -30.928  11.823  1.00  0.00     0.096 C 
ATOM     16  O   UNL     1      44.243 -30.486  10.641  1.00  0.00    -0.362 OA
ATOM     17  C   UNL     1      44.539 -30.740  13.029  1.00  0.00     0.045 C 
BRANCH  15  18
ATOM     18  C   UNL     1      42.935 -32.306  11.645  1.00  0.00     0.042 C 
BRANCH  18  19
ATOM     19  C   UNL     1      42.279 -32.848  12.934  1.00  0.00     0.030 CG0
ATOM     20  G   UNL     1      40.787 -32.593  12.957  1.00  0.00     0.000 G0
ENDBRANCH  18  19
ENDBRANCH  15  18
ENDBRANCH   1  14
TORSDOF 0
ENDMDL
MODEL 7
REMARK VINA RESULT:    -0.318      1.728      2.434
REMARK INTER + INTRA:          -0.164
REMARK INTER:                  -2.304
REMARK INTRA:                   2.140
REMARK UNBOUND:                 0.266
REMARK SMILES C=C1C(=O)O[C@H]2[C@@H]1CCC(C)=CCC[C@@]1(C)O[C@@H]21
REMARK SMILES IDX 6 1 7 2 2 3 1 4 3 5 4 6 5 7 8 8 9 9 10 10 11 11 12 12 18 14
REMARK SMILES IDX 15 15 17 16 16 17 14 18 13 19
REMARK H PARENT
REMARK Flexibility Score: 70.00
ROOT
ATOM      1  C   UNL     1      39.618 -31.933  11.472  1.00  0.00     0.216 C 
ATOM      2  C   UNL     1      39.493 -30.977  10.218  1.00  0.00     0.070 C 
ATOM      3  C   UNL     1      38.613 -29.892  10.775  1.00  0.00     0.037 C 
ATOM      4  C   UNL     1      37.926 -28.998  10.064  1.00  0.00     0.021 C 
ATOM      5  C   UNL     1      38.638 -29.989  12.213  1.00  0.00     0.334 C 
ATOM      6  O   UNL     1      38.130 -29.163  13.017  1.00  0.00    -0.247 OA
ATOM      7  O   UNL     1      39.313 -31.122  12.603  1.00  0.00    -0.455 OA
ENDROOT
BRANCH   2   8
ATOM      8  C   UNL     1      40.804 -30.313   9.683  1.00  0.00     0.017 C 
BRANCH   8   9
ATOM      9  C   UNL     1      41.473 -29.227  10.567  1.00  0.00     0.031 C 
BRANCH   9  10
ATOM     10  C   UNL     1      42.988 -29.206  10.520  1.00  0.00    -0.077 C 
ATOM     11  C   UNL     1      43.655 -28.887   9.206  1.00  0.00     0.039 C 
ATOM     12  C   UNL     1      43.773 -29.475  11.590  1.00  0.00    -0.028 CG0
ATOM     13  G   UNL     1      43.291 -29.885  12.965  1.00  0.00     0.000 G0
ENDBRANCH   9  10
ENDBRANCH   8   9
ENDBRANCH   2   8
BRANCH   1  14
ATOM     14  C   UNL     1      40.891 -32.761  11.754  1.00  0.00     0.192 C 
ATOM     15  C   UNL     1      42.051 -32.099  12.442  1.00  0.00     0.096 C 
ATOM     16  O   UNL     1      41.179 -32.981  13.109  1.00  0.00    -0.362 OA
ATOM     17  C   UNL     1      43.434 -32.727  12.271  1.00  0.00     0.045 C 
BRANCH  15  18
ATOM     18  C   UNL     1      41.977 -30.661  13.012  1.00  0.00     0.042 C 
BRANCH  18  19
ATOM     19  C   UNL     1      43.329 -29.913  12.993  1.00  0.00     0.030 CG0
ATOM     20  G   UNL     1      43.721 -29.492  11.593  1.00  0.00     0.000 G0
ENDBRANCH  18  19
ENDBRANCH  15  18
ENDBRANCH   1  14
TORSDOF 0
ENDMDL
