MODEL 1
REMARK VINA RESULT:    -5.347      0.000      0.000
REMARK INTER + INTRA:          -5.816
REMARK INTER:                  -5.816
REMARK INTRA:                   0.000
REMARK UNBOUND:                 0.000
REMARK SMILES Cc1cc(O)c2c(c1)C(=O)c1cc(O)cc(O)c1C2=O
REMARK SMILES IDX 1 1 2 2 8 3 7 4 6 5 4 6 3 7 19 8 20 9 18 10 11 11 9 12 10 13
REMARK SMILES IDX 12 14 13 15 15 16 16 17 5 18 17 20 14 22
REMARK H PARENT 5 19 17 21 14 23
REMARK Flexibility Score: inf
ROOT
ATOM      1  C   UNL     1       2.875  -8.230   6.169  1.00  0.00     0.044 C 
ATOM      2  C   UNL     1       3.752  -7.012   6.131  1.00  0.00    -0.047 A 
ATOM      3  C   UNL     1       5.140  -7.140   6.256  1.00  0.00     0.016 A 
ATOM      4  C   UNL     1       5.971  -6.009   6.194  1.00  0.00     0.038 A 
ATOM      5  C   UNL     1       5.404  -4.729   6.002  1.00  0.00     0.076 A 
ATOM      6  C   UNL     1       4.005  -4.617   5.791  1.00  0.00     0.127 A 
ATOM      7  C   UNL     1       3.196  -5.754   5.879  1.00  0.00     0.050 A 
ATOM      8  C   UNL     1       6.297  -3.544   6.089  1.00  0.00     0.201 C 
ATOM      9  O   UNL     1       5.838  -2.443   6.493  1.00  0.00    -0.288 OA
ATOM     10  C   UNL     1       7.759  -3.706   5.881  1.00  0.00     0.076 A 
ATOM     11  C   UNL     1       8.322  -4.988   6.071  1.00  0.00     0.041 A 
ATOM     12  C   UNL     1       7.441  -6.153   6.320  1.00  0.00     0.194 C 
ATOM     13  O   UNL     1       7.942  -7.273   6.614  1.00  0.00    -0.289 OA
ATOM     14  C   UNL     1       9.717  -5.154   6.019  1.00  0.00     0.059 A 
ATOM     15  C   UNL     1      10.551  -4.062   5.765  1.00  0.00     0.120 A 
ATOM     16  C   UNL     1       9.997  -2.803   5.537  1.00  0.00     0.093 A 
ATOM     17  C   UNL     1       8.610  -2.616   5.563  1.00  0.00     0.131 A 
ENDROOT
BRANCH   6  18
ATOM     18  O   UNL     1       3.386  -3.409   5.458  1.00  0.00    -0.507 OA
ATOM     19  H   UNL     1       2.679  -2.968   6.029  1.00  0.00     0.293 HD
ENDBRANCH   6  18
BRANCH  17  20
ATOM     20  O   UNL     1       8.126  -1.348   5.236  1.00  0.00    -0.507 OA
ATOM     21  H   UNL     1       8.122  -0.568   5.880  1.00  0.00     0.293 HD
ENDBRANCH  17  20
BRANCH  15  22
ATOM     22  O   UNL     1      11.935  -4.219   5.726  1.00  0.00    -0.508 OA
ATOM     23  H   UNL     1      12.527  -3.575   5.213  1.00  0.00     0.293 HD
ENDBRANCH  15  22
TORSDOF 3
ENDMDL
MODEL 2
REMARK VINA RESULT:    -5.145     10.010     13.301
REMARK INTER + INTRA:          -5.597
REMARK INTER:                  -5.597
REMARK INTRA:                   0.000
REMARK UNBOUND:                 0.000
REMARK SMILES Cc1cc(O)c2c(c1)C(=O)c1cc(O)cc(O)c1C2=O
REMARK SMILES IDX 1 1 2 2 8 3 7 4 6 5 4 6 3 7 19 8 20 9 18 10 11 11 9 12 10 13
REMARK SMILES IDX 12 14 13 15 15 16 16 17 5 18 17 20 14 22
REMARK H PARENT 5 19 17 21 14 23
REMARK Flexibility Score: inf
ROOT
ATOM      1  C   UNL     1       3.679 -13.370   4.210  1.00  0.00     0.044 C 
ATOM      2  C   UNL     1       3.817 -14.551   5.126  1.00  0.00    -0.047 A 
ATOM      3  C   UNL     1       4.312 -14.381   6.424  1.00  0.00     0.016 A 
ATOM      4  C   UNL     1       4.418 -15.476   7.298  1.00  0.00     0.038 A 
ATOM      5  C   UNL     1       4.021 -16.761   6.866  1.00  0.00     0.076 A 
ATOM      6  C   UNL     1       3.440 -16.910   5.580  1.00  0.00     0.127 A 
ATOM      7  C   UNL     1       3.365 -15.811   4.720  1.00  0.00     0.050 A 
ATOM      8  C   UNL     1       4.285 -17.917   7.764  1.00  0.00     0.201 C 
ATOM      9  O   UNL     1       4.499 -19.055   7.271  1.00  0.00    -0.288 OA
ATOM     10  C   UNL     1       4.481 -17.690   9.219  1.00  0.00     0.076 A 
ATOM     11  C   UNL     1       4.876 -16.402   9.647  1.00  0.00     0.041 A 
ATOM     12  C   UNL     1       4.937 -15.287   8.673  1.00  0.00     0.194 C 
ATOM     13  O   UNL     1       5.407 -14.169   9.023  1.00  0.00    -0.289 OA
ATOM     14  C   UNL     1       5.204 -16.184  10.996  1.00  0.00     0.059 A 
ATOM     15  C   UNL     1       5.128 -17.228  11.922  1.00  0.00     0.120 A 
ATOM     16  C   UNL     1       4.701 -18.490  11.511  1.00  0.00     0.093 A 
ATOM     17  C   UNL     1       4.349 -18.728  10.178  1.00  0.00     0.131 A 
ENDROOT
BRANCH   6  18
ATOM     18  O   UNL     1       2.897 -18.118   5.133  1.00  0.00    -0.507 OA
ATOM     19  H   UNL     1       2.151 -18.605   5.610  1.00  0.00     0.293 HD
ENDBRANCH   6  18
BRANCH  17  20
ATOM     20  O   UNL     1       3.843 -19.991   9.861  1.00  0.00    -0.507 OA
ATOM     21  H   UNL     1       3.076 -20.425  10.356  1.00  0.00     0.293 HD
ENDBRANCH  17  20
BRANCH  15  22
ATOM     22  O   UNL     1       5.465 -17.019  13.257  1.00  0.00    -0.508 OA
ATOM     23  H   UNL     1       5.954 -17.724  13.797  1.00  0.00     0.293 HD
ENDBRANCH  15  22
TORSDOF 3
ENDMDL
MODEL 3
REMARK VINA RESULT:    -5.104     11.539     13.866
REMARK INTER + INTRA:          -5.552
REMARK INTER:                  -5.552
REMARK INTRA:                   0.000
REMARK UNBOUND:                 0.000
REMARK SMILES Cc1cc(O)c2c(c1)C(=O)c1cc(O)cc(O)c1C2=O
REMARK SMILES IDX 1 1 2 2 8 3 7 4 6 5 4 6 3 7 19 8 20 9 18 10 11 11 9 12 10 13
REMARK SMILES IDX 12 14 13 15 15 16 16 17 5 18 17 20 14 22
REMARK H PARENT 5 19 17 21 14 23
REMARK Flexibility Score: inf
ROOT
ATOM      1  C   UNL     1       3.391 -15.689   2.875  1.00  0.00     0.044 C 
ATOM      2  C   UNL     1       3.737 -16.472   4.107  1.00  0.00    -0.047 A 
ATOM      3  C   UNL     1       3.950 -15.813   5.324  1.00  0.00     0.016 A 
ATOM      4  C   UNL     1       4.247 -16.540   6.488  1.00  0.00     0.038 A 
ATOM      5  C   UNL     1       4.332 -17.949   6.436  1.00  0.00     0.076 A 
ATOM      6  C   UNL     1       4.032 -18.615   5.219  1.00  0.00     0.127 A 
ATOM      7  C   UNL     1       3.760 -17.870   4.068  1.00  0.00     0.050 A 
ATOM      8  C   UNL     1       4.793 -18.671   7.650  1.00  0.00     0.201 C 
ATOM      9  O   UNL     1       5.418 -19.758   7.532  1.00  0.00    -0.288 OA
ATOM     10  C   UNL     1       4.682 -18.021   8.981  1.00  0.00     0.076 A 
ATOM     11  C   UNL     1       4.595 -16.611   9.030  1.00  0.00     0.041 A 
ATOM     12  C   UNL     1       4.464 -15.836   7.775  1.00  0.00     0.194 C 
ATOM     13  O   UNL     1       4.511 -14.574   7.804  1.00  0.00    -0.289 OA
ATOM     14  C   UNL     1       4.627 -15.951  10.271  1.00  0.00     0.059 A 
ATOM     15  C   UNL     1       4.731 -16.680  11.459  1.00  0.00     0.120 A 
ATOM     16  C   UNL     1       4.778 -18.073  11.417  1.00  0.00     0.093 A 
ATOM     17  C   UNL     1       4.726 -18.754  10.196  1.00  0.00     0.131 A 
ENDROOT
BRANCH   6  18
ATOM     18  O   UNL     1       3.959 -20.007   5.119  1.00  0.00    -0.507 OA
ATOM     19  H   UNL     1       4.764 -20.615   5.189  1.00  0.00     0.293 HD
ENDBRANCH   6  18
BRANCH  17  20
ATOM     20  O   UNL     1       4.685 -20.149  10.239  1.00  0.00    -0.507 OA
ATOM     21  H   UNL     1       3.972 -20.672  10.730  1.00  0.00     0.293 HD
ENDBRANCH  17  20
BRANCH  15  22
ATOM     22  O   UNL     1       4.776 -16.029  12.690  1.00  0.00    -0.508 OA
ATOM     23  H   UNL     1       4.475 -15.066  12.792  1.00  0.00     0.293 HD
ENDBRANCH  15  22
TORSDOF 3
ENDMDL
MODEL 4
REMARK VINA RESULT:    -4.773      1.677      2.185
REMARK INTER + INTRA:          -5.192
REMARK INTER:                  -5.192
REMARK INTRA:                   0.000
REMARK UNBOUND:                 0.000
REMARK SMILES Cc1cc(O)c2c(c1)C(=O)c1cc(O)cc(O)c1C2=O
REMARK SMILES IDX 1 1 2 2 8 3 7 4 6 5 4 6 3 7 19 8 20 9 18 10 11 11 9 12 10 13
REMARK SMILES IDX 12 14 13 15 15 16 16 17 5 18 17 20 14 22
REMARK H PARENT 5 19 17 21 14 23
REMARK Flexibility Score: inf
ROOT
ATOM      1  C   UNL     1       5.121 -10.945   6.645  1.00  0.00     0.044 C 
ATOM      2  C   UNL     1       5.196  -9.465   6.409  1.00  0.00    -0.047 A 
ATOM      3  C   UNL     1       6.428  -8.804   6.466  1.00  0.00     0.016 A 
ATOM      4  C   UNL     1       6.511  -7.424   6.218  1.00  0.00     0.038 A 
ATOM      5  C   UNL     1       5.342  -6.693   5.907  1.00  0.00     0.076 A 
ATOM      6  C   UNL     1       4.111  -7.385   5.767  1.00  0.00     0.127 A 
ATOM      7  C   UNL     1       4.049  -8.754   6.039  1.00  0.00     0.050 A 
ATOM      8  C   UNL     1       5.446  -5.215   5.797  1.00  0.00     0.201 C 
ATOM      9  O   UNL     1       4.456  -4.494   6.092  1.00  0.00    -0.288 OA
ATOM     10  C   UNL     1       6.765  -4.586   5.524  1.00  0.00     0.076 A 
ATOM     11  C   UNL     1       7.931  -5.321   5.834  1.00  0.00     0.041 A 
ATOM     12  C   UNL     1       7.821  -6.732   6.273  1.00  0.00     0.194 C 
ATOM     13  O   UNL     1       8.846  -7.352   6.670  1.00  0.00    -0.289 OA
ATOM     14  C   UNL     1       9.193  -4.712   5.720  1.00  0.00     0.059 A 
ATOM     15  C   UNL     1       9.303  -3.387   5.287  1.00  0.00     0.120 A 
ATOM     16  C   UNL     1       8.156  -2.672   4.942  1.00  0.00     0.093 A 
ATOM     17  C   UNL     1       6.891  -3.263   5.028  1.00  0.00     0.131 A 
ENDROOT
BRANCH   6  18
ATOM     18  O   UNL     1       2.941  -6.761   5.328  1.00  0.00    -0.507 OA
ATOM     19  H   UNL     1       2.080  -7.257   5.140  1.00  0.00     0.293 HD
ENDBRANCH   6  18
BRANCH  17  20
ATOM     20  O   UNL     1       5.801  -2.515   4.579  1.00  0.00    -0.507 OA
ATOM     21  H   UNL     1       5.035  -2.908   4.048  1.00  0.00     0.293 HD
ENDBRANCH  17  20
BRANCH  15  22
ATOM     22  O   UNL     1      10.550  -2.775   5.185  1.00  0.00    -0.508 OA
ATOM     23  H   UNL     1      10.980  -2.595   4.285  1.00  0.00     0.293 HD
ENDBRANCH  15  22
TORSDOF 3
ENDMDL
MODEL 5
REMARK VINA RESULT:    -4.338      8.886     12.543
REMARK INTER + INTRA:          -4.719
REMARK INTER:                  -4.719
REMARK INTRA:                   0.000
REMARK UNBOUND:                 0.000
REMARK SMILES Cc1cc(O)c2c(c1)C(=O)c1cc(O)cc(O)c1C2=O
REMARK SMILES IDX 1 1 2 2 8 3 7 4 6 5 4 6 3 7 19 8 20 9 18 10 11 11 9 12 10 13
REMARK SMILES IDX 12 14 13 15 15 16 16 17 5 18 17 20 14 22
REMARK H PARENT 5 19 17 21 14 23
REMARK Flexibility Score: inf
ROOT
ATOM      1  C   UNL     1       5.119 -10.706   6.660  1.00  0.00     0.044 C 
ATOM      2  C   UNL     1       4.839 -12.177   6.764  1.00  0.00    -0.047 A 
ATOM      3  C   UNL     1       5.123 -12.865   7.950  1.00  0.00     0.016 A 
ATOM      4  C   UNL     1       4.840 -14.236   8.066  1.00  0.00     0.038 A 
ATOM      5  C   UNL     1       4.260 -14.929   6.980  1.00  0.00     0.076 A 
ATOM      6  C   UNL     1       3.897 -14.207   5.814  1.00  0.00     0.127 A 
ATOM      7  C   UNL     1       4.209 -12.849   5.712  1.00  0.00     0.050 A 
ATOM      8  C   UNL     1       4.111 -16.404   7.087  1.00  0.00     0.201 C 
ATOM      9  O   UNL     1       4.162 -17.115   6.049  1.00  0.00    -0.288 OA
ATOM     10  C   UNL     1       4.092 -17.048   8.426  1.00  0.00     0.076 A 
ATOM     11  C   UNL     1       4.670 -16.351   9.511  1.00  0.00     0.041 A 
ATOM     12  C   UNL     1       5.136 -14.956   9.327  1.00  0.00     0.194 C 
ATOM     13  O   UNL     1       5.765 -14.374  10.254  1.00  0.00    -0.289 OA
ATOM     14  C   UNL     1       4.794 -16.981  10.761  1.00  0.00     0.059 A 
ATOM     15  C   UNL     1       4.338 -18.289  10.944  1.00  0.00     0.120 A 
ATOM     16  C   UNL     1       3.731 -18.966   9.886  1.00  0.00     0.093 A 
ATOM     17  C   UNL     1       3.576 -18.353   8.638  1.00  0.00     0.131 A 
ENDROOT
BRANCH   6  18
ATOM     18  O   UNL     1       3.197 -14.790   4.754  1.00  0.00    -0.507 OA
ATOM     19  H   UNL     1       3.132 -14.376   3.834  1.00  0.00     0.293 HD
ENDBRANCH   6  18
BRANCH  17  20
ATOM     20  O   UNL     1       2.878 -19.060   7.656  1.00  0.00    -0.507 OA
ATOM     21  H   UNL     1       2.506 -18.632   6.819  1.00  0.00     0.293 HD
ENDBRANCH  17  20
BRANCH  15  22
ATOM     22  O   UNL     1       4.471 -18.922  12.177  1.00  0.00    -0.508 OA
ATOM     23  H   UNL     1       3.955 -19.766  12.398  1.00  0.00     0.293 HD
ENDBRANCH  15  22
TORSDOF 3
ENDMDL
MODEL 6
REMARK VINA RESULT:    -4.327      9.772     13.496
REMARK INTER + INTRA:          -4.707
REMARK INTER:                  -4.707
REMARK INTRA:                   0.000
REMARK UNBOUND:                 0.000
REMARK SMILES Cc1cc(O)c2c(c1)C(=O)c1cc(O)cc(O)c1C2=O
REMARK SMILES IDX 1 1 2 2 8 3 7 4 6 5 4 6 3 7 19 8 20 9 18 10 11 11 9 12 10 13
REMARK SMILES IDX 12 14 13 15 15 16 16 17 5 18 17 20 14 22
REMARK H PARENT 5 19 17 21 14 23
REMARK Flexibility Score: inf
ROOT
ATOM      1  C   UNL     1       4.757 -11.616   7.233  1.00  0.00     0.044 C 
ATOM      2  C   UNL     1       4.768 -13.072   7.597  1.00  0.00    -0.047 A 
ATOM      3  C   UNL     1       4.385 -14.036   6.658  1.00  0.00     0.016 A 
ATOM      4  C   UNL     1       4.419 -15.403   6.981  1.00  0.00     0.038 A 
ATOM      5  C   UNL     1       4.845 -15.812   8.264  1.00  0.00     0.076 A 
ATOM      6  C   UNL     1       5.313 -14.835   9.181  1.00  0.00     0.127 A 
ATOM      7  C   UNL     1       5.250 -13.480   8.845  1.00  0.00     0.050 A 
ATOM      8  C   UNL     1       4.728 -17.251   8.619  1.00  0.00     0.201 C 
ATOM      9  O   UNL     1       4.532 -17.586   9.816  1.00  0.00    -0.288 OA
ATOM     10  C   UNL     1       4.653 -18.271   7.541  1.00  0.00     0.076 A 
ATOM     11  C   UNL     1       4.228 -17.858   6.258  1.00  0.00     0.041 A 
ATOM     12  C   UNL     1       4.018 -16.418   5.978  1.00  0.00     0.194 C 
ATOM     13  O   UNL     1       3.520 -16.055   4.876  1.00  0.00    -0.289 OA
ATOM     14  C   UNL     1       4.013 -18.815   5.251  1.00  0.00     0.059 A 
ATOM     15  C   UNL     1       4.229 -20.172   5.505  1.00  0.00     0.120 A 
ATOM     16  C   UNL     1       4.686 -20.579   6.758  1.00  0.00     0.093 A 
ATOM     17  C   UNL     1       4.928 -19.645   7.770  1.00  0.00     0.131 A 
ENDROOT
BRANCH   6  18
ATOM     18  O   UNL     1       5.879 -15.168  10.415  1.00  0.00    -0.507 OA
ATOM     19  H   UNL     1       5.341 -15.287  11.262  1.00  0.00     0.293 HD
ENDBRANCH   6  18
BRANCH  17  20
ATOM     20  O   UNL     1       5.471 -20.118   8.967  1.00  0.00    -0.507 OA
ATOM     21  H   UNL     1       5.038 -19.978   9.870  1.00  0.00     0.293 HD
ENDBRANCH  17  20
BRANCH  15  22
ATOM     22  O   UNL     1       4.004 -21.125   4.514  1.00  0.00    -0.508 OA
ATOM     23  H   UNL     1       3.993 -22.116   4.724  1.00  0.00     0.293 HD
ENDBRANCH  15  22
TORSDOF 3
ENDMDL
MODEL 7
REMARK VINA RESULT:    -3.938      8.881     12.050
REMARK INTER + INTRA:          -4.283
REMARK INTER:                  -4.283
REMARK INTRA:                   0.000
REMARK UNBOUND:                 0.000
REMARK SMILES Cc1cc(O)c2c(c1)C(=O)c1cc(O)cc(O)c1C2=O
REMARK SMILES IDX 1 1 2 2 8 3 7 4 6 5 4 6 3 7 19 8 20 9 18 10 11 11 9 12 10 13
REMARK SMILES IDX 12 14 13 15 15 16 16 17 5 18 17 20 14 22
REMARK H PARENT 5 19 17 21 14 23
REMARK Flexibility Score: inf
ROOT
ATOM      1  C   UNL     1       5.108 -20.720   8.480  1.00  0.00     0.044 C 
ATOM      2  C   UNL     1       4.761 -19.531   7.632  1.00  0.00    -0.047 A 
ATOM      3  C   UNL     1       4.824 -18.240   8.170  1.00  0.00     0.016 A 
ATOM      4  C   UNL     1       4.528 -17.120   7.377  1.00  0.00     0.038 A 
ATOM      5  C   UNL     1       4.164 -17.293   6.023  1.00  0.00     0.076 A 
ATOM      6  C   UNL     1       4.186 -18.596   5.462  1.00  0.00     0.127 A 
ATOM      7  C   UNL     1       4.462 -19.698   6.276  1.00  0.00     0.050 A 
ATOM      8  C   UNL     1       3.716 -16.100   5.257  1.00  0.00     0.201 C 
ATOM      9  O   UNL     1       2.882 -16.233   4.323  1.00  0.00    -0.288 OA
ATOM     10  C   UNL     1       4.105 -14.741   5.715  1.00  0.00     0.076 A 
ATOM     11  C   UNL     1       4.470 -14.572   7.069  1.00  0.00     0.041 A 
ATOM     12  C   UNL     1       4.603 -15.755   7.951  1.00  0.00     0.194 C 
ATOM     13  O   UNL     1       4.806 -15.602   9.188  1.00  0.00    -0.289 OA
ATOM     14  C   UNL     1       4.712 -13.282   7.573  1.00  0.00     0.059 A 
ATOM     15  C   UNL     1       4.607 -12.165   6.740  1.00  0.00     0.120 A 
ATOM     16  C   UNL     1       4.285 -12.332   5.393  1.00  0.00     0.093 A 
ATOM     17  C   UNL     1       4.061 -13.607   4.863  1.00  0.00     0.131 A 
ENDROOT
BRANCH   6  18
ATOM     18  O   UNL     1       3.974 -18.836   4.101  1.00  0.00    -0.507 OA
ATOM     19  H   UNL     1       3.077 -19.093   3.713  1.00  0.00     0.293 HD
ENDBRANCH   6  18
BRANCH  17  20
ATOM     20  O   UNL     1       3.834 -13.701   3.488  1.00  0.00    -0.507 OA
ATOM     21  H   UNL     1       4.483 -14.131   2.843  1.00  0.00     0.293 HD
ENDBRANCH  17  20
BRANCH  15  22
ATOM     22  O   UNL     1       4.832 -10.884   7.238  1.00  0.00    -0.508 OA
ATOM     23  H   UNL     1       4.635 -10.649   8.204  1.00  0.00     0.293 HD
ENDBRANCH  15  22
TORSDOF 3
ENDMDL
MODEL 8
REMARK VINA RESULT:    -3.904      2.094      4.497
REMARK INTER + INTRA:          -4.246
REMARK INTER:                  -4.246
REMARK INTRA:                   0.000
REMARK UNBOUND:                 0.000
REMARK SMILES Cc1cc(O)c2c(c1)C(=O)c1cc(O)cc(O)c1C2=O
REMARK SMILES IDX 1 1 2 2 8 3 7 4 6 5 4 6 3 7 19 8 20 9 18 10 11 11 9 12 10 13
REMARK SMILES IDX 12 14 13 15 15 16 16 17 5 18 17 20 14 22
REMARK H PARENT 5 19 17 21 14 23
REMARK Flexibility Score: inf
ROOT
ATOM      1  C   UNL     1       5.170 -10.537   6.199  1.00  0.00     0.044 C 
ATOM      2  C   UNL     1       5.616  -9.104   6.188  1.00  0.00    -0.047 A 
ATOM      3  C   UNL     1       4.687  -8.079   5.972  1.00  0.00     0.016 A 
ATOM      4  C   UNL     1       5.090  -6.734   5.988  1.00  0.00     0.038 A 
ATOM      5  C   UNL     1       6.444  -6.408   6.225  1.00  0.00     0.076 A 
ATOM      6  C   UNL     1       7.363  -7.446   6.527  1.00  0.00     0.127 A 
ATOM      7  C   UNL     1       6.944  -8.779   6.484  1.00  0.00     0.050 A 
ATOM      8  C   UNL     1       6.860  -4.987   6.088  1.00  0.00     0.201 C 
ATOM      9  O   UNL     1       8.033  -4.711   5.721  1.00  0.00    -0.288 OA
ATOM     10  C   UNL     1       5.845  -3.908   6.200  1.00  0.00     0.076 A 
ATOM     11  C   UNL     1       4.491  -4.238   5.965  1.00  0.00     0.041 A 
ATOM     12  C   UNL     1       4.100  -5.653   5.766  1.00  0.00     0.194 C 
ATOM     13  O   UNL     1       2.917  -5.941   5.433  1.00  0.00    -0.289 OA
ATOM     14  C   UNL     1       3.520  -3.222   5.926  1.00  0.00     0.059 A 
ATOM     15  C   UNL     1       3.882  -1.888   6.132  1.00  0.00     0.120 A 
ATOM     16  C   UNL     1       5.211  -1.563   6.403  1.00  0.00     0.093 A 
ATOM     17  C   UNL     1       6.192  -2.558   6.468  1.00  0.00     0.131 A 
ENDROOT
BRANCH   6  18
ATOM     18  O   UNL     1       8.685  -7.198   6.907  1.00  0.00    -0.507 OA
ATOM     19  H   UNL     1       9.433  -7.033   6.249  1.00  0.00     0.293 HD
ENDBRANCH   6  18
BRANCH  17  20
ATOM     20  O   UNL     1       7.481  -2.167   6.835  1.00  0.00    -0.507 OA
ATOM     21  H   UNL     1       8.315  -2.466   6.347  1.00  0.00     0.293 HD
ENDBRANCH  17  20
BRANCH  15  22
ATOM     22  O   UNL     1       2.925  -0.877   6.080  1.00  0.00    -0.508 OA
ATOM     23  H   UNL     1       1.976  -1.060   5.776  1.00  0.00     0.293 HD
ENDBRANCH  15  22
TORSDOF 3
ENDMDL
