MODEL 1
REMARK VINA RESULT:    -4.465      0.000      0.000
REMARK INTER + INTRA:          -7.208
REMARK INTER:                  -6.814
REMARK INTRA:                  -0.394
REMARK UNBOUND:                -0.394
REMARK SMILES O=C([O-])CCCCCCCCC(=O)[O-]
REMARK SMILES IDX 7 1 6 2 5 3 4 4 2 5 1 6 3 7 8 8 9 9 10 10 11 11 12 12 13 13
REMARK SMILES IDX 14 14
REMARK H PARENT
REMARK Flexibility Score: inf
ROOT
ATOM      1  C   UNL     1      19.939   3.781   7.949  1.00  0.00     0.000 C 
ENDROOT
BRANCH   1   2
ATOM      2  C   UNL     1      20.499   2.577   8.727  1.00  0.00     0.000 C 
BRANCH   2   3
ATOM      3  C   UNL     1      19.477   1.436   8.875  1.00  0.00     0.006 C 
BRANCH   3   4
ATOM      4  C   UNL     1      18.118   1.940   9.378  1.00  0.00     0.053 C 
BRANCH   4   5
ATOM      5  C   UNL     1      17.662   1.191  10.593  1.00  0.00     0.041 C 
ATOM      6  O   UNL     1      16.605   1.529  11.188  1.00  0.00    -0.550 OA
ATOM      7  O   UNL     1      18.390   0.100  11.052  1.00  0.00    -0.550 OA
ENDBRANCH   4   5
ENDBRANCH   3   4
ENDBRANCH   2   3
ENDBRANCH   1   2
BRANCH   1   8
ATOM      8  C   UNL     1      20.837   5.036   7.946  1.00  0.00     0.000 C 
BRANCH   8   9
ATOM      9  C   UNL     1      22.328   4.772   8.220  1.00  0.00     0.000 C 
BRANCH   9  10
ATOM     10  C   UNL     1      23.251   5.780   7.514  1.00  0.00     0.006 C 
BRANCH  10  11
ATOM     11  C   UNL     1      23.931   5.174   6.280  1.00  0.00     0.053 C 
BRANCH  11  12
ATOM     12  C   UNL     1      24.916   4.110   6.657  1.00  0.00     0.041 C 
ATOM     13  O   UNL     1      25.993   4.418   7.233  1.00  0.00    -0.550 OA
ATOM     14  O   UNL     1      24.658   2.782   6.342  1.00  0.00    -0.550 OA
ENDBRANCH  11  12
ENDBRANCH  10  11
ENDBRANCH   9  10
ENDBRANCH   8   9
ENDBRANCH   1   8
TORSDOF 9
ENDMDL
MODEL 2
REMARK VINA RESULT:    -4.272     13.524     15.130
REMARK INTER + INTRA:          -6.915
REMARK INTER:                  -6.152
REMARK INTRA:                  -0.763
REMARK UNBOUND:                -0.394
REMARK SMILES O=C([O-])CCCCCCCCC(=O)[O-]
REMARK SMILES IDX 7 1 6 2 5 3 4 4 2 5 1 6 3 7 8 8 9 9 10 10 11 11 12 12 13 13
REMARK SMILES IDX 14 14
REMARK H PARENT
REMARK Flexibility Score: inf
ROOT
ATOM      1  C   UNL     1      26.002  -6.302  19.267  1.00  0.00     0.000 C 
ENDROOT
BRANCH   1   2
ATOM      2  C   UNL     1      26.231  -7.125  17.987  1.00  0.00     0.000 C 
BRANCH   2   3
ATOM      3  C   UNL     1      25.072  -8.089  17.682  1.00  0.00     0.006 C 
BRANCH   3   4
ATOM      4  C   UNL     1      23.715  -7.514  18.108  1.00  0.00     0.053 C 
BRANCH   4   5
ATOM      5  C   UNL     1      22.980  -8.444  19.026  1.00  0.00     0.041 C 
ATOM      6  O   UNL     1      23.145  -9.689  18.933  1.00  0.00    -0.550 OA
ATOM      7  O   UNL     1      22.134  -7.932  20.002  1.00  0.00    -0.550 OA
ENDBRANCH   4   5
ENDBRANCH   3   4
ENDBRANCH   2   3
ENDBRANCH   1   2
BRANCH   1   8
ATOM      8  C   UNL     1      26.260  -4.787  19.131  1.00  0.00     0.000 C 
BRANCH   8   9
ATOM      9  C   UNL     1      25.010  -3.936  18.846  1.00  0.00     0.000 C 
BRANCH   9  10
ATOM     10  C   UNL     1      23.885  -4.169  19.870  1.00  0.00     0.006 C 
BRANCH  10  11
ATOM     11  C   UNL     1      22.511  -4.298  19.200  1.00  0.00     0.053 C 
BRANCH  11  12
ATOM     12  C   UNL     1      21.403  -3.917  20.133  1.00  0.00     0.041 C 
ATOM     13  O   UNL     1      20.552  -3.053  19.789  1.00  0.00    -0.550 OA
ATOM     14  O   UNL     1      21.328  -4.491  21.395  1.00  0.00    -0.550 OA
ENDBRANCH  11  12
ENDBRANCH  10  11
ENDBRANCH   9  10
ENDBRANCH   8   9
ENDBRANCH   1   8
TORSDOF 9
ENDMDL
MODEL 3
REMARK VINA RESULT:    -4.271     13.016     14.863
REMARK INTER + INTRA:          -6.913
REMARK INTER:                  -6.067
REMARK INTRA:                  -0.846
REMARK UNBOUND:                -0.394
REMARK SMILES O=C([O-])CCCCCCCCC(=O)[O-]
REMARK SMILES IDX 7 1 6 2 5 3 4 4 2 5 1 6 3 7 8 8 9 9 10 10 11 11 12 12 13 13
REMARK SMILES IDX 14 14
REMARK H PARENT
REMARK Flexibility Score: inf
ROOT
ATOM      1  C   UNL     1      25.708  -3.844  19.259  1.00  0.00     0.000 C 
ENDROOT
BRANCH   1   2
ATOM      2  C   UNL     1      24.766  -3.647  18.058  1.00  0.00     0.000 C 
BRANCH   2   3
ATOM      3  C   UNL     1      23.313  -4.047  18.368  1.00  0.00     0.006 C 
BRANCH   3   4
ATOM      4  C   UNL     1      23.101  -4.343  19.858  1.00  0.00     0.053 C 
BRANCH   4   5
ATOM      5  C   UNL     1      21.717  -3.978  20.306  1.00  0.00     0.041 C 
ATOM      6  O   UNL     1      20.851  -3.623  19.464  1.00  0.00    -0.550 OA
ATOM      7  O   UNL     1      21.378  -4.059  21.650  1.00  0.00    -0.550 OA
ENDBRANCH   4   5
ENDBRANCH   3   4
ENDBRANCH   2   3
ENDBRANCH   1   2
BRANCH   1   8
ATOM      8  C   UNL     1      26.778  -4.941  19.083  1.00  0.00     0.000 C 
BRANCH   8   9
ATOM      9  C   UNL     1      26.337  -6.356  19.498  1.00  0.00     0.000 C 
BRANCH   9  10
ATOM     10  C   UNL     1      25.733  -7.158  18.332  1.00  0.00     0.006 C 
BRANCH  10  11
ATOM     11  C   UNL     1      24.346  -7.718  18.673  1.00  0.00     0.053 C 
BRANCH  11  12
ATOM     12  C   UNL     1      24.084  -9.014  17.970  1.00  0.00     0.041 C 
ATOM     13  O   UNL     1      24.611  -9.246  16.848  1.00  0.00    -0.550 OA
ATOM     14  O   UNL     1      23.232  -9.953  18.536  1.00  0.00    -0.550 OA
ENDBRANCH  11  12
ENDBRANCH  10  11
ENDBRANCH   9  10
ENDBRANCH   8   9
ENDBRANCH   1   8
TORSDOF 9
ENDMDL
MODEL 4
REMARK VINA RESULT:    -4.251      1.091      7.296
REMARK INTER + INTRA:          -6.882
REMARK INTER:                  -6.492
REMARK INTRA:                  -0.390
REMARK UNBOUND:                -0.394
REMARK SMILES O=C([O-])CCCCCCCCC(=O)[O-]
REMARK SMILES IDX 7 1 6 2 5 3 4 4 2 5 1 6 3 7 8 8 9 9 10 10 11 11 12 12 13 13
REMARK SMILES IDX 14 14
REMARK H PARENT
REMARK Flexibility Score: inf
ROOT
ATOM      1  C   UNL     1      21.032   4.555   8.202  1.00  0.00     0.000 C 
ENDROOT
BRANCH   1   2
ATOM      2  C   UNL     1      21.690   5.499   7.180  1.00  0.00     0.000 C 
BRANCH   2   3
ATOM      3  C   UNL     1      23.218   5.582   7.343  1.00  0.00     0.006 C 
BRANCH   3   4
ATOM      4  C   UNL     1      23.957   5.237   6.043  1.00  0.00     0.053 C 
BRANCH   4   5
ATOM      5  C   UNL     1      25.223   4.480   6.307  1.00  0.00     0.041 C 
ATOM      6  O   UNL     1      25.836   3.918   5.362  1.00  0.00    -0.550 OA
ATOM      7  O   UNL     1      25.741   4.420   7.595  1.00  0.00    -0.550 OA
ENDBRANCH   4   5
ENDBRANCH   3   4
ENDBRANCH   2   3
ENDBRANCH   1   2
BRANCH   1   8
ATOM      8  C   UNL     1      21.855   3.301   8.564  1.00  0.00     0.000 C 
BRANCH   8   9
ATOM      9  C   UNL     1      21.024   2.059   8.930  1.00  0.00     0.000 C 
BRANCH   9  10
ATOM     10  C   UNL     1      19.512   2.281   8.756  1.00  0.00     0.006 C 
BRANCH  10  11
ATOM     11  C   UNL     1      18.683   1.321   9.620  1.00  0.00     0.053 C 
BRANCH  11  12
ATOM     12  C   UNL     1      17.412   1.958  10.090  1.00  0.00     0.041 C 
ATOM     13  O   UNL     1      16.857   2.854   9.399  1.00  0.00    -0.550 OA
ATOM     14  O   UNL     1      16.858   1.587  11.309  1.00  0.00    -0.550 OA
ENDBRANCH  11  12
ENDBRANCH  10  11
ENDBRANCH   9  10
ENDBRANCH   8   9
ENDBRANCH   1   8
TORSDOF 9
ENDMDL
MODEL 5
REMARK VINA RESULT:    -4.180     14.028     14.826
REMARK INTER + INTRA:          -6.774
REMARK INTER:                  -6.536
REMARK INTRA:                  -0.238
REMARK UNBOUND:                -0.394
REMARK SMILES O=C([O-])CCCCCCCCC(=O)[O-]
REMARK SMILES IDX 7 1 6 2 5 3 4 4 2 5 1 6 3 7 8 8 9 9 10 10 11 11 12 12 13 13
REMARK SMILES IDX 14 14
REMARK H PARENT
REMARK Flexibility Score: inf
ROOT
ATOM      1  C   UNL     1      25.721  -3.421  19.680  1.00  0.00     0.000 C 
ENDROOT
BRANCH   1   2
ATOM      2  C   UNL     1      24.878  -3.792  18.447  1.00  0.00     0.000 C 
BRANCH   2   3
ATOM      3  C   UNL     1      23.575  -4.522  18.814  1.00  0.00     0.006 C 
BRANCH   3   4
ATOM      4  C   UNL     1      23.194  -4.320  20.286  1.00  0.00     0.053 C 
BRANCH   4   5
ATOM      5  C   UNL     1      21.738  -4.001  20.445  1.00  0.00     0.041 C 
ATOM      6  O   UNL     1      21.207  -4.005  21.587  1.00  0.00    -0.550 OA
ATOM      7  O   UNL     1      20.973  -3.671  19.333  1.00  0.00    -0.550 OA
ENDBRANCH   4   5
ENDBRANCH   3   4
ENDBRANCH   2   3
ENDBRANCH   1   2
BRANCH   1   8
ATOM      8  C   UNL     1      27.196  -3.076  19.388  1.00  0.00     0.000 C 
BRANCH   8   9
ATOM      9  C   UNL     1      28.102  -2.983  20.629  1.00  0.00     0.000 C 
BRANCH   9  10
ATOM     10  C   UNL     1      29.298  -2.038  20.425  1.00  0.00     0.006 C 
BRANCH  10  11
ATOM     11  C   UNL     1      30.409  -2.280  21.456  1.00  0.00     0.053 C 
BRANCH  11  12
ATOM     12  C   UNL     1      30.717  -1.041  22.238  1.00  0.00     0.041 C 
ATOM     13  O   UNL     1      30.840  -1.095  23.491  1.00  0.00    -0.550 OA
ATOM     14  O   UNL     1      30.835   0.181  21.588  1.00  0.00    -0.550 OA
ENDBRANCH  11  12
ENDBRANCH  10  11
ENDBRANCH   9  10
ENDBRANCH   8   9
ENDBRANCH   1   8
TORSDOF 9
ENDMDL
MODEL 6
REMARK VINA RESULT:    -4.129      1.422      2.154
REMARK INTER + INTRA:          -6.696
REMARK INTER:                  -6.374
REMARK INTRA:                  -0.323
REMARK UNBOUND:                -0.394
REMARK SMILES O=C([O-])CCCCCCCCC(=O)[O-]
REMARK SMILES IDX 7 1 6 2 5 3 4 4 2 5 1 6 3 7 8 8 9 9 10 10 11 11 12 12 13 13
REMARK SMILES IDX 14 14
REMARK H PARENT
REMARK Flexibility Score: inf
ROOT
ATOM      1  C   UNL     1      21.224   5.288   7.473  1.00  0.00     0.000 C 
ENDROOT
BRANCH   1   2
ATOM      2  C   UNL     1      21.021   3.961   8.225  1.00  0.00     0.000 C 
BRANCH   2   3
ATOM      3  C   UNL     1      19.564   3.470   8.186  1.00  0.00     0.006 C 
BRANCH   3   4
ATOM      4  C   UNL     1      19.404   2.083   8.821  1.00  0.00     0.053 C 
BRANCH   4   5
ATOM      5  C   UNL     1      18.088   1.940   9.522  1.00  0.00     0.041 C 
ATOM      6  O   UNL     1      17.117   2.678   9.208  1.00  0.00    -0.550 OA
ATOM      7  O   UNL     1      17.925   0.972  10.505  1.00  0.00    -0.550 OA
ENDBRANCH   4   5
ENDBRANCH   3   4
ENDBRANCH   2   3
ENDBRANCH   1   2
BRANCH   1   8
ATOM      8  C   UNL     1      22.612   5.471   6.824  1.00  0.00     0.000 C 
BRANCH   8   9
ATOM      9  C   UNL     1      23.604   4.321   7.072  1.00  0.00     0.000 C 
BRANCH   9  10
ATOM     10  C   UNL     1      24.930   4.801   7.687  1.00  0.00     0.006 C 
BRANCH  10  11
ATOM     11  C   UNL     1      25.993   3.694   7.705  1.00  0.00     0.053 C 
BRANCH  11  12
ATOM     12  C   UNL     1      26.820   3.702   6.456  1.00  0.00     0.041 C 
ATOM     13  O   UNL     1      26.458   3.035   5.450  1.00  0.00    -0.550 OA
ATOM     14  O   UNL     1      28.009   4.419   6.414  1.00  0.00    -0.550 OA
ENDBRANCH  11  12
ENDBRANCH  10  11
ENDBRANCH   9  10
ENDBRANCH   8   9
ENDBRANCH   1   8
TORSDOF 9
ENDMDL
MODEL 7
REMARK VINA RESULT:    -4.066      2.304      3.092
REMARK INTER + INTRA:          -6.599
REMARK INTER:                  -5.995
REMARK INTRA:                  -0.604
REMARK UNBOUND:                -0.394
REMARK SMILES O=C([O-])CCCCCCCCC(=O)[O-]
REMARK SMILES IDX 7 1 6 2 5 3 4 4 2 5 1 6 3 7 8 8 9 9 10 10 11 11 12 12 13 13
REMARK SMILES IDX 14 14
REMARK H PARENT
REMARK Flexibility Score: inf
ROOT
ATOM      1  C   UNL     1      22.372  -0.046   8.681  1.00  0.00     0.000 C 
ENDROOT
BRANCH   1   2
ATOM      2  C   UNL     1      20.852  -0.220   8.522  1.00  0.00     0.000 C 
BRANCH   2   3
ATOM      3  C   UNL     1      20.049   0.563   9.575  1.00  0.00     0.006 C 
BRANCH   3   4
ATOM      4  C   UNL     1      19.208   1.682   8.947  1.00  0.00     0.053 C 
BRANCH   4   5
ATOM      5  C   UNL     1      17.886   1.839   9.637  1.00  0.00     0.041 C 
ATOM      6  O   UNL     1      17.083   2.738   9.274  1.00  0.00    -0.550 OA
ATOM      7  O   UNL     1      17.530   0.972  10.662  1.00  0.00    -0.550 OA
ENDBRANCH   4   5
ENDBRANCH   3   4
ENDBRANCH   2   3
ENDBRANCH   1   2
BRANCH   1   8
ATOM      8  C   UNL     1      22.809   1.009   9.719  1.00  0.00     0.000 C 
BRANCH   8   9
ATOM      9  C   UNL     1      23.488   2.258   9.133  1.00  0.00     0.000 C 
BRANCH   9  10
ATOM     10  C   UNL     1      22.480   3.328   8.680  1.00  0.00     0.006 C 
BRANCH  10  11
ATOM     11  C   UNL     1      23.104   4.730   8.638  1.00  0.00     0.053 C 
BRANCH  11  12
ATOM     12  C   UNL     1      22.538   5.554   7.523  1.00  0.00     0.041 C 
ATOM     13  O   UNL     1      21.400   5.288   7.052  1.00  0.00    -0.550 OA
ATOM     14  O   UNL     1      23.280   6.596   6.982  1.00  0.00    -0.550 OA
ENDBRANCH  11  12
ENDBRANCH  10  11
ENDBRANCH   9  10
ENDBRANCH   8   9
ENDBRANCH   1   8
TORSDOF 9
ENDMDL
MODEL 8
REMARK VINA RESULT:    -4.061     14.053     16.162
REMARK INTER + INTRA:          -6.592
REMARK INTER:                  -6.380
REMARK INTRA:                  -0.212
REMARK UNBOUND:                -0.394
REMARK SMILES O=C([O-])CCCCCCCCC(=O)[O-]
REMARK SMILES IDX 7 1 6 2 5 3 4 4 2 5 1 6 3 7 8 8 9 9 10 10 11 11 12 12 13 13
REMARK SMILES IDX 14 14
REMARK H PARENT
REMARK Flexibility Score: inf
ROOT
ATOM      1  C   UNL     1      27.543  -2.618  18.907  1.00  0.00     0.000 C 
ENDROOT
BRANCH   1   2
ATOM      2  C   UNL     1      28.970  -2.686  19.478  1.00  0.00     0.000 C 
BRANCH   2   3
ATOM      3  C   UNL     1      29.041  -2.267  20.957  1.00  0.00     0.006 C 
BRANCH   3   4
ATOM      4  C   UNL     1      30.484  -2.210  21.473  1.00  0.00     0.053 C 
BRANCH   4   5
ATOM      5  C   UNL     1      30.718  -1.011  22.341  1.00  0.00     0.041 C 
ATOM      6  O   UNL     1      30.767   0.141  21.834  1.00  0.00    -0.550 OA
ATOM      7  O   UNL     1      30.853  -1.163  23.715  1.00  0.00    -0.550 OA
ENDBRANCH   4   5
ENDBRANCH   3   4
ENDBRANCH   2   3
ENDBRANCH   1   2
BRANCH   1   8
ATOM      8  C   UNL     1      26.485  -3.430  19.682  1.00  0.00     0.000 C 
BRANCH   8   9
ATOM      9  C   UNL     1      25.194  -3.733  18.899  1.00  0.00     0.000 C 
BRANCH   9  10
ATOM     10  C   UNL     1      24.082  -4.316  19.788  1.00  0.00     0.006 C 
BRANCH  10  11
ATOM     11  C   UNL     1      22.717  -4.305  19.086  1.00  0.00     0.053 C 
BRANCH  11  12
ATOM     12  C   UNL     1      21.642  -3.762  19.976  1.00  0.00     0.041 C 
ATOM     13  O   UNL     1      20.585  -3.289  19.479  1.00  0.00    -0.550 OA
ATOM     14  O   UNL     1      21.822  -3.745  21.353  1.00  0.00    -0.550 OA
ENDBRANCH  11  12
ENDBRANCH  10  11
ENDBRANCH   9  10
ENDBRANCH   8   9
ENDBRANCH   1   8
TORSDOF 9
ENDMDL
MODEL 9
REMARK VINA RESULT:    -4.043     10.132     12.785
REMARK INTER + INTRA:          -6.565
REMARK INTER:                  -6.064
REMARK INTRA:                  -0.501
REMARK UNBOUND:                -0.394
REMARK SMILES O=C([O-])CCCCCCCCC(=O)[O-]
REMARK SMILES IDX 7 1 6 2 5 3 4 4 2 5 1 6 3 7 8 8 9 9 10 10 11 11 12 12 13 13
REMARK SMILES IDX 14 14
REMARK H PARENT
REMARK Flexibility Score: inf
ROOT
ATOM      1  C   UNL     1      22.517  -4.455  15.724  1.00  0.00     0.000 C 
ENDROOT
BRANCH   1   2
ATOM      2  C   UNL     1      22.297  -3.750  14.374  1.00  0.00     0.000 C 
BRANCH   2   3
ATOM      3  C   UNL     1      21.324  -4.510  13.456  1.00  0.00     0.006 C 
BRANCH   3   4
ATOM      4  C   UNL     1      21.195  -5.988  13.849  1.00  0.00     0.053 C 
BRANCH   4   5
ATOM      5  C   UNL     1      21.813  -6.891  12.825  1.00  0.00     0.041 C 
ATOM      6  O   UNL     1      22.590  -6.424  11.952  1.00  0.00    -0.550 OA
ATOM      7  O   UNL     1      21.552  -8.256  12.854  1.00  0.00    -0.550 OA
ENDBRANCH   4   5
ENDBRANCH   3   4
ENDBRANCH   2   3
ENDBRANCH   1   2
BRANCH   1   8
ATOM      8  C   UNL     1      22.786  -3.518  16.920  1.00  0.00     0.000 C 
BRANCH   8   9
ATOM      9  C   UNL     1      21.742  -3.584  18.048  1.00  0.00     0.000 C 
BRANCH   9  10
ATOM     10  C   UNL     1      22.343  -4.037  19.390  1.00  0.00     0.006 C 
BRANCH  10  11
ATOM     11  C   UNL     1      23.760  -4.601  19.227  1.00  0.00     0.053 C 
BRANCH  11  12
ATOM     12  C   UNL     1      23.835  -6.037  19.647  1.00  0.00     0.041 C 
ATOM     13  O   UNL     1      24.954  -6.591  19.819  1.00  0.00    -0.550 OA
ATOM     14  O   UNL     1      22.670  -6.774  19.816  1.00  0.00    -0.550 OA
ENDBRANCH  11  12
ENDBRANCH  10  11
ENDBRANCH   9  10
ENDBRANCH   8   9
ENDBRANCH   1   8
TORSDOF 9
ENDMDL
