MODEL 1
REMARK VINA RESULT:    -3.979      0.000      0.000
REMARK INTER + INTRA:          -6.937
REMARK INTER:                  -6.304
REMARK INTRA:                  -0.632
REMARK UNBOUND:                -0.632
REMARK SMILES CCCCCCCCCCCC(=O)[O-]
REMARK SMILES IDX 7 1 8 2 9 3 10 4 11 5 12 6 13 7 14 8 6 9 5 10 4 11 3 12 2 13
REMARK SMILES IDX 1 14
REMARK H PARENT
REMARK Flexibility Score: inf
ROOT
ATOM      1  C   UNL     1       4.391  -8.909   3.665  1.00  0.00     0.000 C 
ENDROOT
BRANCH   1   2
ATOM      2  C   UNL     1       2.903  -8.752   4.028  1.00  0.00     0.000 C 
BRANCH   2   3
ATOM      3  C   UNL     1       2.557  -7.492   4.843  1.00  0.00     0.000 C 
BRANCH   3   4
ATOM      4  C   UNL     1       1.048  -7.200   4.887  1.00  0.00     0.006 C 
BRANCH   4   5
ATOM      5  C   UNL     1       0.215  -8.373   4.352  1.00  0.00     0.053 C 
BRANCH   5   6
ATOM      6  C   UNL     1      -1.254  -8.078   4.396  1.00  0.00     0.041 C 
ATOM      7  O   UNL     1      -1.875  -7.793   3.338  1.00  0.00    -0.550 OA
ATOM      8  O   UNL     1      -1.940  -8.143   5.601  1.00  0.00    -0.550 OA
ENDBRANCH   5   6
ENDBRANCH   4   5
ENDBRANCH   3   4
ENDBRANCH   2   3
ENDBRANCH   1   2
BRANCH   1   9
ATOM      9  C   UNL     1       5.283  -9.177   4.889  1.00  0.00     0.000 C 
BRANCH   9  10
ATOM     10  C   UNL     1       6.392  -8.124   5.053  1.00  0.00    -0.000 C 
BRANCH  10  11
ATOM     11  C   UNL     1       6.335  -7.029   3.976  1.00  0.00    -0.000 C 
BRANCH  11  12
ATOM     12  C   UNL     1       6.593  -5.645   4.591  1.00  0.00    -0.000 C 
BRANCH  12  13
ATOM     13  C   UNL     1       7.550  -4.791   3.744  1.00  0.00    -0.003 C 
ATOM     14  C   UNL     1       8.091  -5.541   2.527  1.00  0.00     0.004 C 
ENDBRANCH  12  13
ENDBRANCH  11  12
ENDBRANCH  10  11
ENDBRANCH   9  10
ENDBRANCH   1   9
TORSDOF 10
ENDMDL
MODEL 2
REMARK VINA RESULT:    -3.933      4.039      6.287
REMARK INTER + INTRA:          -6.865
REMARK INTER:                  -6.109
REMARK INTRA:                  -0.755
REMARK UNBOUND:                -0.632
REMARK SMILES CCCCCCCCCCCC(=O)[O-]
REMARK SMILES IDX 7 1 8 2 9 3 10 4 11 5 12 6 13 7 14 8 6 9 5 10 4 11 3 12 2 13
REMARK SMILES IDX 1 14
REMARK H PARENT
REMARK Flexibility Score: inf
ROOT
ATOM      1  C   UNL     1       6.745  -6.996   3.837  1.00  0.00     0.000 C 
ENDROOT
BRANCH   1   2
ATOM      2  C   UNL     1       6.484  -5.592   4.413  1.00  0.00     0.000 C 
BRANCH   2   3
ATOM      3  C   UNL     1       5.212  -5.462   5.271  1.00  0.00     0.000 C 
BRANCH   3   4
ATOM      4  C   UNL     1       4.838  -4.001   5.573  1.00  0.00     0.006 C 
BRANCH   4   5
ATOM      5  C   UNL     1       5.874  -3.012   5.023  1.00  0.00     0.053 C 
BRANCH   5   6
ATOM      6  C   UNL     1       5.256  -1.687   4.691  1.00  0.00     0.041 C 
ATOM      7  O   UNL     1       4.015  -1.597   4.499  1.00  0.00    -0.550 OA
ATOM      8  O   UNL     1       6.049  -0.549   4.620  1.00  0.00    -0.550 OA
ENDBRANCH   5   6
ENDBRANCH   4   5
ENDBRANCH   3   4
ENDBRANCH   2   3
ENDBRANCH   1   2
BRANCH   1   9
ATOM      9  C   UNL     1       5.787  -8.061   4.396  1.00  0.00     0.000 C 
BRANCH   9  10
ATOM     10  C   UNL     1       5.194  -8.958   3.296  1.00  0.00    -0.000 C 
BRANCH  10  11
ATOM     11  C   UNL     1       3.708  -9.275   3.524  1.00  0.00    -0.000 C 
BRANCH  11  12
ATOM     12  C   UNL     1       3.095  -8.310   4.552  1.00  0.00    -0.000 C 
BRANCH  12  13
ATOM     13  C   UNL     1       1.587  -8.105   4.343  1.00  0.00    -0.003 C 
ATOM     14  C   UNL     1       1.045  -6.892   5.100  1.00  0.00     0.004 C 
ENDBRANCH  12  13
ENDBRANCH  11  12
ENDBRANCH  10  11
ENDBRANCH   9  10
ENDBRANCH   1   9
TORSDOF 10
ENDMDL
MODEL 3
REMARK VINA RESULT:    -3.895      0.958      1.535
REMARK INTER + INTRA:          -6.804
REMARK INTER:                  -6.123
REMARK INTRA:                  -0.681
REMARK UNBOUND:                -0.632
REMARK SMILES CCCCCCCCCCCC(=O)[O-]
REMARK SMILES IDX 7 1 8 2 9 3 10 4 11 5 12 6 13 7 14 8 6 9 5 10 4 11 3 12 2 13
REMARK SMILES IDX 1 14
REMARK H PARENT
REMARK Flexibility Score: inf
ROOT
ATOM      1  C   UNL     1       4.510  -8.975   3.533  1.00  0.00     0.000 C 
ENDROOT
BRANCH   1   2
ATOM      2  C   UNL     1       3.055  -8.814   4.011  1.00  0.00     0.000 C 
BRANCH   2   3
ATOM      3  C   UNL     1       2.728  -7.463   4.672  1.00  0.00     0.000 C 
BRANCH   3   4
ATOM      4  C   UNL     1       1.263  -7.356   5.129  1.00  0.00     0.006 C 
BRANCH   4   5
ATOM      5  C   UNL     1       0.334  -8.263   4.312  1.00  0.00     0.053 C 
BRANCH   5   6
ATOM      6  C   UNL     1      -1.094  -7.814   4.394  1.00  0.00     0.041 C 
ATOM      7  O   UNL     1      -1.848  -7.912   3.391  1.00  0.00    -0.550 OA
ATOM      8  O   UNL     1      -1.597  -7.314   5.588  1.00  0.00    -0.550 OA
ENDBRANCH   5   6
ENDBRANCH   4   5
ENDBRANCH   3   4
ENDBRANCH   2   3
ENDBRANCH   1   2
BRANCH   1   9
ATOM      9  C   UNL     1       5.528  -8.307   4.474  1.00  0.00     0.000 C 
BRANCH   9  10
ATOM     10  C   UNL     1       6.388  -7.252   3.759  1.00  0.00    -0.000 C 
BRANCH  10  11
ATOM     11  C   UNL     1       6.885  -6.150   4.708  1.00  0.00    -0.000 C 
BRANCH  11  12
ATOM     12  C   UNL     1       6.840  -4.776   4.020  1.00  0.00    -0.000 C 
BRANCH  12  13
ATOM     13  C   UNL     1       6.018  -3.747   4.810  1.00  0.00    -0.003 C 
ATOM     14  C   UNL     1       4.810  -4.368   5.513  1.00  0.00     0.004 C 
ENDBRANCH  12  13
ENDBRANCH  11  12
ENDBRANCH  10  11
ENDBRANCH   9  10
ENDBRANCH   1   9
TORSDOF 10
ENDMDL
MODEL 4
REMARK VINA RESULT:    -3.823     19.011     20.894
REMARK INTER + INTRA:          -6.690
REMARK INTER:                  -5.259
REMARK INTRA:                  -1.431
REMARK UNBOUND:                -0.632
REMARK SMILES CCCCCCCCCCCC(=O)[O-]
REMARK SMILES IDX 7 1 8 2 9 3 10 4 11 5 12 6 13 7 14 8 6 9 5 10 4 11 3 12 2 13
REMARK SMILES IDX 1 14
REMARK H PARENT
REMARK Flexibility Score: inf
ROOT
ATOM      1  C   UNL     1      -4.891   6.615  -3.539  1.00  0.00     0.000 C 
ENDROOT
BRANCH   1   2
ATOM      2  C   UNL     1      -4.781   7.535  -2.310  1.00  0.00     0.000 C 
BRANCH   2   3
ATOM      3  C   UNL     1      -5.238   8.988  -2.537  1.00  0.00     0.000 C 
BRANCH   3   4
ATOM      4  C   UNL     1      -5.257   9.387  -4.022  1.00  0.00     0.006 C 
BRANCH   4   5
ATOM      5  C   UNL     1      -6.598  10.006  -4.440  1.00  0.00     0.053 C 
BRANCH   5   6
ATOM      6  C   UNL     1      -7.008   9.569  -5.813  1.00  0.00     0.041 C 
ATOM      7  O   UNL     1      -6.286   9.841  -6.808  1.00  0.00    -0.550 OA
ATOM      8  O   UNL     1      -8.176   8.837  -5.989  1.00  0.00    -0.550 OA
ENDBRANCH   5   6
ENDBRANCH   4   5
ENDBRANCH   3   4
ENDBRANCH   2   3
ENDBRANCH   1   2
BRANCH   1   9
ATOM      9  C   UNL     1      -6.055   5.614  -3.437  1.00  0.00     0.000 C 
BRANCH   9  10
ATOM     10  C   UNL     1      -7.418   6.262  -3.735  1.00  0.00    -0.000 C 
BRANCH  10  11
ATOM     11  C   UNL     1      -8.263   6.476  -2.469  1.00  0.00    -0.000 C 
BRANCH  11  12
ATOM     12  C   UNL     1      -8.800   7.915  -2.408  1.00  0.00    -0.000 C 
BRANCH  12  13
ATOM     13  C   UNL     1      -9.065   8.386  -0.970  1.00  0.00    -0.003 C 
ATOM     14  C   UNL     1      -8.338   9.688  -0.631  1.00  0.00     0.004 C 
ENDBRANCH  12  13
ENDBRANCH  11  12
ENDBRANCH  10  11
ENDBRANCH   9  10
ENDBRANCH   1   9
TORSDOF 10
ENDMDL
MODEL 5
REMARK VINA RESULT:    -3.808      4.318      6.198
REMARK INTER + INTRA:          -6.667
REMARK INTER:                  -5.872
REMARK INTRA:                  -0.795
REMARK UNBOUND:                -0.632
REMARK SMILES CCCCCCCCCCCC(=O)[O-]
REMARK SMILES IDX 7 1 8 2 9 3 10 4 11 5 12 6 13 7 14 8 6 9 5 10 4 11 3 12 2 13
REMARK SMILES IDX 1 14
REMARK H PARENT
REMARK Flexibility Score: inf
ROOT
ATOM      1  C   UNL     1       0.617  -5.599   6.190  1.00  0.00     0.000 C 
ENDROOT
BRANCH   1   2
ATOM      2  C   UNL     1       0.974  -4.154   5.798  1.00  0.00     0.000 C 
BRANCH   2   3
ATOM      3  C   UNL     1       2.279  -3.612   6.408  1.00  0.00     0.000 C 
BRANCH   3   4
ATOM      4  C   UNL     1       3.221  -2.994   5.360  1.00  0.00     0.006 C 
BRANCH   4   5
ATOM      5  C   UNL     1       4.696  -3.293   5.658  1.00  0.00     0.053 C 
BRANCH   5   6
ATOM      6  C   UNL     1       5.603  -2.710   4.618  1.00  0.00     0.041 C 
ATOM      7  O   UNL     1       5.344  -1.589   4.106  1.00  0.00    -0.550 OA
ATOM      8  O   UNL     1       6.749  -3.394   4.233  1.00  0.00    -0.550 OA
ENDBRANCH   5   6
ENDBRANCH   4   5
ENDBRANCH   3   4
ENDBRANCH   2   3
ENDBRANCH   1   2
BRANCH   1   9
ATOM      9  C   UNL     1       0.932  -6.617   5.081  1.00  0.00     0.000 C 
BRANCH   9  10
ATOM     10  C   UNL     1       2.147  -7.498   5.415  1.00  0.00    -0.000 C 
BRANCH  10  11
ATOM     11  C   UNL     1       3.478  -6.861   4.985  1.00  0.00    -0.000 C 
BRANCH  11  12
ATOM     12  C   UNL     1       4.470  -7.934   4.511  1.00  0.00    -0.000 C 
BRANCH  12  13
ATOM     13  C   UNL     1       3.799  -9.026   3.663  1.00  0.00    -0.003 C 
ATOM     14  C   UNL     1       4.774  -9.718   2.711  1.00  0.00     0.004 C 
ENDBRANCH  12  13
ENDBRANCH  11  12
ENDBRANCH  10  11
ENDBRANCH   9  10
ENDBRANCH   1   9
TORSDOF 10
ENDMDL
MODEL 6
REMARK VINA RESULT:    -3.766      4.260      5.336
REMARK INTER + INTRA:          -6.600
REMARK INTER:                  -5.695
REMARK INTRA:                  -0.904
REMARK UNBOUND:                -0.632
REMARK SMILES CCCCCCCCCCCC(=O)[O-]
REMARK SMILES IDX 7 1 8 2 9 3 10 4 11 5 12 6 13 7 14 8 6 9 5 10 4 11 3 12 2 13
REMARK SMILES IDX 1 14
REMARK H PARENT
REMARK Flexibility Score: inf
ROOT
ATOM      1  C   UNL     1       2.610  -6.776   5.125  1.00  0.00     0.000 C 
ENDROOT
BRANCH   1   2
ATOM      2  C   UNL     1       2.876  -5.421   5.805  1.00  0.00     0.000 C 
BRANCH   2   3
ATOM      3  C   UNL     1       4.338  -5.170   6.217  1.00  0.00     0.000 C 
BRANCH   3   4
ATOM      4  C   UNL     1       4.925  -3.888   5.602  1.00  0.00     0.006 C 
BRANCH   4   5
ATOM      5  C   UNL     1       3.980  -2.688   5.751  1.00  0.00     0.053 C 
BRANCH   5   6
ATOM      6  C   UNL     1       4.502  -1.477   5.040  1.00  0.00     0.041 C 
ATOM      7  O   UNL     1       5.186  -1.603   3.991  1.00  0.00    -0.550 OA
ATOM      8  O   UNL     1       4.210  -0.208   5.524  1.00  0.00    -0.550 OA
ENDBRANCH   5   6
ENDBRANCH   4   5
ENDBRANCH   3   4
ENDBRANCH   2   3
ENDBRANCH   1   2
BRANCH   1   9
ATOM      9  C   UNL     1       3.799  -7.746   5.236  1.00  0.00     0.000 C 
BRANCH   9  10
ATOM     10  C   UNL     1       4.035  -8.540   3.940  1.00  0.00    -0.000 C 
BRANCH  10  11
ATOM     11  C   UNL     1       5.504  -8.518   3.490  1.00  0.00    -0.000 C 
BRANCH  11  12
ATOM     12  C   UNL     1       6.257  -7.344   4.137  1.00  0.00    -0.000 C 
BRANCH  12  13
ATOM     13  C   UNL     1       6.967  -6.455   3.105  1.00  0.00    -0.003 C 
ATOM     14  C   UNL     1       8.295  -5.899   3.618  1.00  0.00     0.004 C 
ENDBRANCH  12  13
ENDBRANCH  11  12
ENDBRANCH  10  11
ENDBRANCH   9  10
ENDBRANCH   1   9
TORSDOF 10
ENDMDL
MODEL 7
REMARK VINA RESULT:    -3.764      1.127      1.794
REMARK INTER + INTRA:          -6.597
REMARK INTER:                  -5.957
REMARK INTRA:                  -0.639
REMARK UNBOUND:                -0.632
REMARK SMILES CCCCCCCCCCCC(=O)[O-]
REMARK SMILES IDX 7 1 8 2 9 3 10 4 11 5 12 6 13 7 14 8 6 9 5 10 4 11 3 12 2 13
REMARK SMILES IDX 1 14
REMARK H PARENT
REMARK Flexibility Score: inf
ROOT
ATOM      1  C   UNL     1       5.284  -7.074   4.648  1.00  0.00     0.000 C 
ENDROOT
BRANCH   1   2
ATOM      2  C   UNL     1       4.035  -7.952   4.452  1.00  0.00     0.000 C 
BRANCH   2   3
ATOM      3  C   UNL     1       2.721  -7.351   4.983  1.00  0.00     0.000 C 
BRANCH   3   4
ATOM      4  C   UNL     1       1.471  -7.997   4.363  1.00  0.00     0.006 C 
BRANCH   4   5
ATOM      5  C   UNL     1       0.174  -7.342   4.856  1.00  0.00     0.053 C 
BRANCH   5   6
ATOM      6  C   UNL     1      -1.033  -8.151   4.488  1.00  0.00     0.041 C 
ATOM      7  O   UNL     1      -1.740  -7.820   3.500  1.00  0.00    -0.550 OA
ATOM      8  O   UNL     1      -1.359  -9.285   5.220  1.00  0.00    -0.550 OA
ENDBRANCH   5   6
ENDBRANCH   4   5
ENDBRANCH   3   4
ENDBRANCH   2   3
ENDBRANCH   1   2
BRANCH   1   9
ATOM      9  C   UNL     1       5.216  -6.209   5.918  1.00  0.00     0.000 C 
BRANCH   9  10
ATOM     10  C   UNL     1       5.578  -4.739   5.651  1.00  0.00    -0.000 C 
BRANCH  10  11
ATOM     11  C   UNL     1       6.284  -4.537   4.301  1.00  0.00    -0.000 C 
BRANCH  11  12
ATOM     12  C   UNL     1       7.781  -4.256   4.504  1.00  0.00    -0.000 C 
BRANCH  12  13
ATOM     13  C   UNL     1       8.642  -4.766   3.339  1.00  0.00    -0.003 C 
ATOM     14  C   UNL     1       7.890  -5.739   2.430  1.00  0.00     0.004 C 
ENDBRANCH  12  13
ENDBRANCH  11  12
ENDBRANCH  10  11
ENDBRANCH   9  10
ENDBRANCH   1   9
TORSDOF 10
ENDMDL
MODEL 8
REMARK VINA RESULT:    -3.727      3.599      5.982
REMARK INTER + INTRA:          -6.537
REMARK INTER:                  -5.650
REMARK INTRA:                  -0.888
REMARK UNBOUND:                -0.632
REMARK SMILES CCCCCCCCCCCC(=O)[O-]
REMARK SMILES IDX 7 1 8 2 9 3 10 4 11 5 12 6 13 7 14 8 6 9 5 10 4 11 3 12 2 13
REMARK SMILES IDX 1 14
REMARK H PARENT
REMARK Flexibility Score: inf
ROOT
ATOM      1  C   UNL     1       5.249  -9.007   3.219  1.00  0.00     0.000 C 
ENDROOT
BRANCH   1   2
ATOM      2  C   UNL     1       5.544  -8.196   4.494  1.00  0.00     0.000 C 
BRANCH   2   3
ATOM      3  C   UNL     1       6.449  -6.966   4.294  1.00  0.00     0.000 C 
BRANCH   3   4
ATOM      4  C   UNL     1       5.910  -5.704   4.991  1.00  0.00     0.006 C 
BRANCH   4   5
ATOM      5  C   UNL     1       6.446  -4.416   4.353  1.00  0.00     0.053 C 
BRANCH   5   6
ATOM      6  C   UNL     1       5.674  -3.212   4.798  1.00  0.00     0.041 C 
ATOM      7  O   UNL     1       5.950  -2.074   4.335  1.00  0.00    -0.550 OA
ATOM      8  O   UNL     1       4.631  -3.352   5.705  1.00  0.00    -0.550 OA
ENDBRANCH   5   6
ENDBRANCH   4   5
ENDBRANCH   3   4
ENDBRANCH   2   3
ENDBRANCH   1   2
BRANCH   1   9
ATOM      9  C   UNL     1       3.823  -9.581   3.191  1.00  0.00     0.000 C 
BRANCH   9  10
ATOM     10  C   UNL     1       2.990  -9.155   4.411  1.00  0.00    -0.000 C 
BRANCH  10  11
ATOM     11  C   UNL     1       1.530  -8.837   4.051  1.00  0.00    -0.000 C 
BRANCH  11  12
ATOM     12  C   UNL     1       1.064  -7.548   4.746  1.00  0.00    -0.000 C 
BRANCH  12  13
ATOM     13  C   UNL     1       2.236  -6.697   5.259  1.00  0.00    -0.003 C 
ATOM     14  C   UNL     1       1.787  -5.343   5.810  1.00  0.00     0.004 C 
ENDBRANCH  12  13
ENDBRANCH  11  12
ENDBRANCH  10  11
ENDBRANCH   9  10
ENDBRANCH   1   9
TORSDOF 10
ENDMDL
MODEL 9
REMARK VINA RESULT:    -3.702      4.197      6.519
REMARK INTER + INTRA:          -6.498
REMARK INTER:                  -5.135
REMARK INTRA:                  -1.363
REMARK UNBOUND:                -0.632
REMARK SMILES CCCCCCCCCCCC(=O)[O-]
REMARK SMILES IDX 7 1 8 2 9 3 10 4 11 5 12 6 13 7 14 8 6 9 5 10 4 11 3 12 2 13
REMARK SMILES IDX 1 14
REMARK H PARENT
REMARK Flexibility Score: inf
ROOT
ATOM      1  C   UNL     1       5.621  -8.240   3.553  1.00  0.00     0.000 C 
ENDROOT
BRANCH   1   2
ATOM      2  C   UNL     1       6.231  -8.156   4.964  1.00  0.00     0.000 C 
BRANCH   2   3
ATOM      3  C   UNL     1       6.527  -6.731   5.466  1.00  0.00     0.000 C 
BRANCH   3   4
ATOM      4  C   UNL     1       6.111  -5.642   4.463  1.00  0.00     0.006 C 
BRANCH   4   5
ATOM      5  C   UNL     1       7.303  -4.797   3.996  1.00  0.00     0.053 C 
BRANCH   5   6
ATOM      6  C   UNL     1       8.240  -5.587   3.134  1.00  0.00     0.041 C 
ATOM      7  O   UNL     1       7.978  -5.773   1.917  1.00  0.00    -0.550 OA
ATOM      8  O   UNL     1       9.417  -6.093   3.670  1.00  0.00    -0.550 OA
ENDBRANCH   5   6
ENDBRANCH   4   5
ENDBRANCH   3   4
ENDBRANCH   2   3
ENDBRANCH   1   2
BRANCH   1   9
ATOM      9  C   UNL     1       4.778  -9.509   3.339  1.00  0.00     0.000 C 
BRANCH   9  10
ATOM     10  C   UNL     1       3.614  -9.621   4.338  1.00  0.00    -0.000 C 
BRANCH  10  11
ATOM     11  C   UNL     1       2.346  -8.899   3.855  1.00  0.00    -0.000 C 
BRANCH  11  12
ATOM     12  C   UNL     1       1.779  -7.993   4.959  1.00  0.00    -0.000 C 
BRANCH  12  13
ATOM     13  C   UNL     1       2.578  -6.692   5.125  1.00  0.00    -0.003 C 
ATOM     14  C   UNL     1       3.024  -6.452   6.568  1.00  0.00     0.004 C 
ENDBRANCH  12  13
ENDBRANCH  11  12
ENDBRANCH  10  11
ENDBRANCH   9  10
ENDBRANCH   1   9
TORSDOF 10
ENDMDL
