MODEL 1
REMARK VINA RESULT:    -3.387      0.000      0.000
REMARK INTER + INTRA:          -5.155
REMARK INTER:                  -4.675
REMARK INTRA:                  -0.480
REMARK UNBOUND:                -0.480
REMARK SMILES CCCCCCCCO
REMARK SMILES IDX 5 1 4 2 3 3 2 4 1 5 6 6 7 7 8 8 9 9
REMARK H PARENT 9 10
REMARK Flexibility Score: inf
ROOT
ATOM      1  C   UNL     1     160.477 177.861 150.999  1.00  0.00     0.000 C 
ENDROOT
BRANCH   1   2
ATOM      2  C   UNL     1     161.719 177.159 150.431  1.00  0.00    -0.000 C 
BRANCH   2   3
ATOM      3  C   UNL     1     162.989 177.610 151.164  1.00  0.00    -0.000 C 
BRANCH   3   4
ATOM      4  C   UNL     1     163.931 176.425 151.412  1.00  0.00    -0.003 C 
ATOM      5  C   UNL     1     163.311 175.118 150.928  1.00  0.00     0.004 C 
ENDBRANCH   3   4
ENDBRANCH   2   3
ENDBRANCH   1   2
BRANCH   1   6
ATOM      6  C   UNL     1     160.280 177.594 152.499  1.00  0.00     0.002 C 
BRANCH   6   7
ATOM      7  C   UNL     1     160.091 176.102 152.815  1.00  0.00     0.028 C 
BRANCH   7   8
ATOM      8  C   UNL     1     160.775 175.703 154.126  1.00  0.00     0.156 C 
BRANCH   8   9
ATOM      9  O   UNL     1     159.851 175.685 155.182  1.00  0.00    -0.396 OA
ATOM     10  H   UNL     1     159.020 176.108 154.845  1.00  0.00     0.210 HD
ENDBRANCH   8   9
ENDBRANCH   7   8
ENDBRANCH   6   7
ENDBRANCH   1   6
TORSDOF 7
ENDMDL
MODEL 2
REMARK VINA RESULT:    -3.241      1.929      2.429
REMARK INTER + INTRA:          -4.953
REMARK INTER:                  -4.502
REMARK INTRA:                  -0.451
REMARK UNBOUND:                -0.480
REMARK SMILES CCCCCCCCO
REMARK SMILES IDX 5 1 4 2 3 3 2 4 1 5 6 6 7 7 8 8 9 9
REMARK H PARENT 9 10
REMARK Flexibility Score: inf
ROOT
ATOM      1  C   UNL     1     160.204 176.381 152.645  1.00  0.00     0.000 C 
ENDROOT
BRANCH   1   2
ATOM      2  C   UNL     1     160.312 177.613 151.734  1.00  0.00    -0.000 C 
BRANCH   2   3
ATOM      3  C   UNL     1     161.539 177.513 150.818  1.00  0.00    -0.000 C 
BRANCH   3   4
ATOM      4  C   UNL     1     162.833 177.440 151.638  1.00  0.00    -0.003 C 
ATOM      5  C   UNL     1     163.715 176.285 151.173  1.00  0.00     0.004 C 
ENDBRANCH   3   4
ENDBRANCH   2   3
ENDBRANCH   1   2
BRANCH   1   6
ATOM      6  C   UNL     1     159.647 175.150 151.912  1.00  0.00     0.002 C 
BRANCH   6   7
ATOM      7  C   UNL     1     160.682 174.020 151.784  1.00  0.00     0.028 C 
BRANCH   7   8
ATOM      8  C   UNL     1     160.097 172.661 152.178  1.00  0.00     0.156 C 
BRANCH   8   9
ATOM      9  O   UNL     1     159.315 172.774 153.338  1.00  0.00    -0.396 OA
ATOM     10  H   UNL     1     159.664 173.552 153.845  1.00  0.00     0.210 HD
ENDBRANCH   8   9
ENDBRANCH   7   8
ENDBRANCH   6   7
ENDBRANCH   1   6
TORSDOF 7
ENDMDL
MODEL 3
REMARK VINA RESULT:    -3.228      1.571      2.430
REMARK INTER + INTRA:          -4.935
REMARK INTER:                  -4.427
REMARK INTRA:                  -0.509
REMARK UNBOUND:                -0.480
REMARK SMILES CCCCCCCCO
REMARK SMILES IDX 5 1 4 2 3 3 2 4 1 5 6 6 7 7 8 8 9 9
REMARK H PARENT 9 10
REMARK Flexibility Score: inf
ROOT
ATOM      1  C   UNL     1     162.334 177.735 152.269  1.00  0.00     0.000 C 
ENDROOT
BRANCH   1   2
ATOM      2  C   UNL     1     161.070 178.054 151.458  1.00  0.00    -0.000 C 
BRANCH   2   3
ATOM      3  C   UNL     1     160.714 176.896 150.517  1.00  0.00    -0.000 C 
BRANCH   3   4
ATOM      4  C   UNL     1     160.853 175.545 151.229  1.00  0.00    -0.003 C 
ATOM      5  C   UNL     1     159.536 175.125 151.874  1.00  0.00     0.004 C 
ENDBRANCH   3   4
ENDBRANCH   2   3
ENDBRANCH   1   2
BRANCH   1   6
ATOM      6  C   UNL     1     162.176 178.058 153.763  1.00  0.00     0.002 C 
BRANCH   6   7
ATOM      7  C   UNL     1     160.762 177.760 154.287  1.00  0.00     0.028 C 
BRANCH   7   8
ATOM      8  C   UNL     1     160.726 176.491 155.144  1.00  0.00     0.156 C 
BRANCH   8   9
ATOM      9  O   UNL     1     159.765 176.606 156.161  1.00  0.00    -0.396 OA
ATOM     10  H   UNL     1     158.948 176.146 155.838  1.00  0.00     0.210 HD
ENDBRANCH   8   9
ENDBRANCH   7   8
ENDBRANCH   6   7
ENDBRANCH   1   6
TORSDOF 7
ENDMDL
MODEL 4
REMARK VINA RESULT:    -3.190     11.667     13.319
REMARK INTER + INTRA:          -4.883
REMARK INTER:                  -4.639
REMARK INTRA:                  -0.244
REMARK UNBOUND:                -0.480
REMARK SMILES CCCCCCCCO
REMARK SMILES IDX 5 1 4 2 3 3 2 4 1 5 6 6 7 7 8 8 9 9
REMARK H PARENT 9 10
REMARK Flexibility Score: inf
ROOT
ATOM      1  C   UNL     1     174.592 177.013 150.487  1.00  0.00     0.000 C 
ENDROOT
BRANCH   1   2
ATOM      2  C   UNL     1     175.414 176.046 151.353  1.00  0.00    -0.000 C 
BRANCH   2   3
ATOM      3  C   UNL     1     174.861 174.619 151.259  1.00  0.00    -0.000 C 
BRANCH   3   4
ATOM      4  C   UNL     1     175.990 173.585 151.345  1.00  0.00    -0.003 C 
ATOM      5  C   UNL     1     177.227 174.055 150.586  1.00  0.00     0.004 C 
ENDBRANCH   3   4
ENDBRANCH   2   3
ENDBRANCH   1   2
BRANCH   1   6
ATOM      6  C   UNL     1     173.853 178.072 151.321  1.00  0.00     0.002 C 
BRANCH   6   7
ATOM      7  C   UNL     1     174.087 177.905 152.831  1.00  0.00     0.028 C 
BRANCH   7   8
ATOM      8  C   UNL     1     172.783 177.625 153.584  1.00  0.00     0.156 C 
BRANCH   8   9
ATOM      9  O   UNL     1     172.870 178.072 154.912  1.00  0.00    -0.396 OA
ATOM     10  H   UNL     1     173.670 177.640 155.309  1.00  0.00     0.210 HD
ENDBRANCH   8   9
ENDBRANCH   7   8
ENDBRANCH   6   7
ENDBRANCH   1   6
TORSDOF 7
ENDMDL
MODEL 5
REMARK VINA RESULT:    -3.179     13.200     14.692
REMARK INTER + INTRA:          -4.867
REMARK INTER:                  -4.622
REMARK INTRA:                  -0.245
REMARK UNBOUND:                -0.480
REMARK SMILES CCCCCCCCO
REMARK SMILES IDX 5 1 4 2 3 3 2 4 1 5 6 6 7 7 8 8 9 9
REMARK H PARENT 9 10
REMARK Flexibility Score: inf
ROOT
ATOM      1  C   UNL     1     174.985 174.444 151.133  1.00  0.00     0.000 C 
ENDROOT
BRANCH   1   2
ATOM      2  C   UNL     1     174.361 175.741 151.669  1.00  0.00    -0.000 C 
BRANCH   2   3
ATOM      3  C   UNL     1     173.838 176.614 150.522  1.00  0.00    -0.000 C 
BRANCH   3   4
ATOM      4  C   UNL     1     174.424 178.029 150.596  1.00  0.00    -0.003 C 
ATOM      5  C   UNL     1     175.501 178.123 151.672  1.00  0.00     0.004 C 
ENDBRANCH   3   4
ENDBRANCH   2   3
ENDBRANCH   1   2
BRANCH   1   6
ATOM      6  C   UNL     1     176.438 174.251 151.595  1.00  0.00     0.002 C 
BRANCH   6   7
ATOM      7  C   UNL     1     176.723 172.816 152.067  1.00  0.00     0.028 C 
BRANCH   7   8
ATOM      8  C   UNL     1     176.729 172.707 153.595  1.00  0.00     0.156 C 
BRANCH   8   9
ATOM      9  O   UNL     1     178.038 172.561 154.078  1.00  0.00    -0.396 OA
ATOM     10  H   UNL     1     178.618 173.135 153.515  1.00  0.00     0.210 HD
ENDBRANCH   8   9
ENDBRANCH   7   8
ENDBRANCH   6   7
ENDBRANCH   1   6
TORSDOF 7
ENDMDL
MODEL 6
REMARK VINA RESULT:    -3.168     12.975     14.621
REMARK INTER + INTRA:          -4.852
REMARK INTER:                  -4.389
REMARK INTRA:                  -0.463
REMARK UNBOUND:                -0.480
REMARK SMILES CCCCCCCCO
REMARK SMILES IDX 5 1 4 2 3 3 2 4 1 5 6 6 7 7 8 8 9 9
REMARK H PARENT 9 10
REMARK Flexibility Score: inf
ROOT
ATOM      1  C   UNL     1     174.238 174.372 151.868  1.00  0.00     0.000 C 
ENDROOT
BRANCH   1   2
ATOM      2  C   UNL     1     173.763 175.257 150.705  1.00  0.00    -0.000 C 
BRANCH   2   3
ATOM      3  C   UNL     1     173.450 176.678 151.188  1.00  0.00    -0.000 C 
BRANCH   3   4
ATOM      4  C   UNL     1     174.275 177.716 150.418  1.00  0.00    -0.003 C 
ATOM      5  C   UNL     1     175.520 178.122 151.201  1.00  0.00     0.004 C 
ENDBRANCH   3   4
ENDBRANCH   2   3
ENDBRANCH   1   2
BRANCH   1   6
ATOM      6  C   UNL     1     175.769 174.341 152.000  1.00  0.00     0.002 C 
BRANCH   6   7
ATOM      7  C   UNL     1     176.482 174.448 150.642  1.00  0.00     0.028 C 
BRANCH   7   8
ATOM      8  C   UNL     1     177.344 173.216 150.349  1.00  0.00     0.156 C 
BRANCH   8   9
ATOM      9  O   UNL     1     178.055 173.381 149.151  1.00  0.00    -0.396 OA
ATOM     10  H   UNL     1     177.618 172.801 148.474  1.00  0.00     0.210 HD
ENDBRANCH   8   9
ENDBRANCH   7   8
ENDBRANCH   6   7
ENDBRANCH   1   6
TORSDOF 7
ENDMDL
MODEL 7
REMARK VINA RESULT:    -3.154     10.352     12.177
REMARK INTER + INTRA:          -4.833
REMARK INTER:                  -4.395
REMARK INTRA:                  -0.438
REMARK UNBOUND:                -0.480
REMARK SMILES CCCCCCCCO
REMARK SMILES IDX 5 1 4 2 3 3 2 4 1 5 6 6 7 7 8 8 9 9
REMARK H PARENT 9 10
REMARK Flexibility Score: inf
ROOT
ATOM      1  C   UNL     1     173.036 177.734 151.417  1.00  0.00     0.000 C 
ENDROOT
BRANCH   1   2
ATOM      2  C   UNL     1     174.171 177.551 150.399  1.00  0.00    -0.000 C 
BRANCH   2   3
ATOM      3  C   UNL     1     175.468 177.113 151.093  1.00  0.00    -0.000 C 
BRANCH   3   4
ATOM      4  C   UNL     1     175.621 175.588 151.062  1.00  0.00    -0.003 C 
ATOM      5  C   UNL     1     175.681 175.012 152.474  1.00  0.00     0.004 C 
ENDBRANCH   3   4
ENDBRANCH   2   3
ENDBRANCH   1   2
BRANCH   1   6
ATOM      6  C   UNL     1     173.550 178.121 152.813  1.00  0.00     0.002 C 
BRANCH   6   7
ATOM      7  C   UNL     1     172.818 177.376 153.941  1.00  0.00     0.028 C 
BRANCH   7   8
ATOM      8  C   UNL     1     171.408 176.948 153.522  1.00  0.00     0.156 C 
BRANCH   8   9
ATOM      9  O   UNL     1     170.535 176.970 154.620  1.00  0.00    -0.396 OA
ATOM     10  H   UNL     1     170.405 176.028 154.903  1.00  0.00     0.210 HD
ENDBRANCH   8   9
ENDBRANCH   7   8
ENDBRANCH   6   7
ENDBRANCH   1   6
TORSDOF 7
ENDMDL
MODEL 8
REMARK VINA RESULT:    -3.110     10.442     11.981
REMARK INTER + INTRA:          -4.772
REMARK INTER:                  -4.256
REMARK INTRA:                  -0.516
REMARK UNBOUND:                -0.480
REMARK SMILES CCCCCCCCO
REMARK SMILES IDX 5 1 4 2 3 3 2 4 1 5 6 6 7 7 8 8 9 9
REMARK H PARENT 9 10
REMARK Flexibility Score: inf
ROOT
ATOM      1  C   UNL     1     172.771 174.947 152.062  1.00  0.00     0.000 C 
ENDROOT
BRANCH   1   2
ATOM      2  C   UNL     1     173.614 175.266 150.819  1.00  0.00    -0.000 C 
BRANCH   2   3
ATOM      3  C   UNL     1     175.048 175.644 151.210  1.00  0.00    -0.000 C 
BRANCH   3   4
ATOM      4  C   UNL     1     175.191 177.161 151.378  1.00  0.00    -0.003 C 
ATOM      5  C   UNL     1     174.505 177.908 150.238  1.00  0.00     0.004 C 
ENDBRANCH   3   4
ENDBRANCH   2   3
ENDBRANCH   1   2
BRANCH   1   6
ATOM      6  C   UNL     1     171.498 175.804 152.150  1.00  0.00     0.002 C 
BRANCH   6   7
ATOM      7  C   UNL     1     171.717 177.108 152.934  1.00  0.00     0.028 C 
BRANCH   7   8
ATOM      8  C   UNL     1     172.508 176.874 154.224  1.00  0.00     0.156 C 
BRANCH   8   9
ATOM      9  O   UNL     1     172.718 178.084 154.905  1.00  0.00    -0.396 OA
ATOM     10  H   UNL     1     171.826 178.498 155.037  1.00  0.00     0.210 HD
ENDBRANCH   8   9
ENDBRANCH   7   8
ENDBRANCH   6   7
ENDBRANCH   1   6
TORSDOF 7
ENDMDL
MODEL 9
REMARK VINA RESULT:    -3.093      3.623      5.395
REMARK INTER + INTRA:          -4.748
REMARK INTER:                  -4.478
REMARK INTRA:                  -0.271
REMARK UNBOUND:                -0.480
REMARK SMILES CCCCCCCCO
REMARK SMILES IDX 5 1 4 2 3 3 2 4 1 5 6 6 7 7 8 8 9 9
REMARK H PARENT 9 10
REMARK Flexibility Score: inf
ROOT
ATOM      1  C   UNL     1     163.832 176.485 151.145  1.00  0.00     0.000 C 
ENDROOT
BRANCH   1   2
ATOM      2  C   UNL     1     162.351 176.524 151.552  1.00  0.00    -0.000 C 
BRANCH   2   3
ATOM      3  C   UNL     1     161.481 177.060 150.409  1.00  0.00    -0.000 C 
BRANCH   3   4
ATOM      4  C   UNL     1     160.495 178.119 150.917  1.00  0.00    -0.003 C 
ATOM      5  C   UNL     1     160.389 178.087 152.439  1.00  0.00     0.004 C 
ENDBRANCH   3   4
ENDBRANCH   2   3
ENDBRANCH   1   2
BRANCH   1   6
ATOM      6  C   UNL     1     164.508 177.862 151.240  1.00  0.00     0.002 C 
BRANCH   6   7
ATOM      7  C   UNL     1     165.694 178.006 150.273  1.00  0.00     0.028 C 
BRANCH   7   8
ATOM      8  C   UNL     1     166.842 177.058 150.631  1.00  0.00     0.156 C 
BRANCH   8   9
ATOM      9  O   UNL     1     167.998 177.378 149.901  1.00  0.00    -0.396 OA
ATOM     10  H   UNL     1     168.758 176.929 150.354  1.00  0.00     0.210 HD
ENDBRANCH   8   9
ENDBRANCH   7   8
ENDBRANCH   6   7
ENDBRANCH   1   6
TORSDOF 7
ENDMDL
