MODEL 1
REMARK VINA RESULT:    -4.267      0.000      0.000
REMARK INTER + INTRA:          -6.250
REMARK INTER:                  -6.512
REMARK INTRA:                   0.262
REMARK UNBOUND:                 0.262
REMARK SMILES CC1=CCC[C@H](C)C(=O)C[C@H](C(C)C)C(=O)C1
REMARK SMILES IDX 8 1 9 2 6 3 7 4 5 5 4 6 3 7 2 8 1 9 10 11 11 12 15 13 16 14
REMARK SMILES IDX 17 15 12 17 13 18 14 19
REMARK H PARENT
REMARK Flexibility Score: 70.00
ROOT
ATOM      1  C   UNL     1     -15.329  15.195 -30.532  1.00  0.00     0.136 C 
ATOM      2  O   UNL     1     -15.810  15.836 -29.608  1.00  0.00    -0.299 OA
ENDROOT
BRANCH   1   3
ATOM      3  C   UNL     1     -16.216  14.704 -31.655  1.00  0.00     0.053 C 
ATOM      4  C   UNL     1     -15.381  13.871 -32.634  1.00  0.00     0.016 C 
BRANCH   3   5
ATOM      5  C   UNL     1     -17.421  13.880 -31.146  1.00  0.00     0.015 C 
BRANCH   5   6
ATOM      6  C   UNL     1     -17.031  12.513 -30.550  1.00  0.00     0.028 C 
BRANCH   6   7
ATOM      7  C   UNL     1     -16.858  12.589 -29.049  1.00  0.00    -0.028 C 
ATOM      8  C   UNL     1     -15.767  12.205 -28.344  1.00  0.00    -0.070 CG0
ATOM      9  C   UNL     1     -15.791  12.396 -26.849  1.00  0.00     0.039 C 
ATOM     10  G   UNL     1     -14.559  11.531 -28.961  1.00  0.00     0.000 G0
ENDBRANCH   6   7
ENDBRANCH   5   6
ENDBRANCH   3   5
ENDBRANCH   1   3
BRANCH   1  11
ATOM     11  C   UNL     1     -13.854  14.871 -30.521  1.00  0.00     0.087 C 
BRANCH  11  12
ATOM     12  C   UNL     1     -13.485  13.883 -29.389  1.00  0.00     0.066 C 
BRANCH  12  13
ATOM     13  C   UNL     1     -13.752  12.452 -29.822  1.00  0.00     0.140 C 
ATOM     14  O   UNL     1     -13.343  12.057 -30.905  1.00  0.00    -0.299 OA
BRANCH  13  15
ATOM     15  C   UNL     1     -14.544  11.510 -28.958  1.00  0.00     0.106 CG0
ATOM     16  G   UNL     1     -15.747  12.224 -28.376  1.00  0.00     0.000 G0
ENDBRANCH  13  15
ENDBRANCH  12  13
BRANCH  12  17
ATOM     17  C   UNL     1     -12.025  14.047 -28.862  1.00  0.00    -0.006 C 
ATOM     18  C   UNL     1     -11.190  15.086 -29.632  1.00  0.00     0.008 C 
ATOM     19  C   UNL     1     -12.001  14.369 -27.359  1.00  0.00     0.008 C 
ENDBRANCH  12  17
ENDBRANCH  11  12
ENDBRANCH   1  11
TORSDOF 1
ENDMDL
MODEL 2
REMARK VINA RESULT:    -4.183      1.929      3.512
REMARK INTER + INTRA:          -6.121
REMARK INTER:                  -6.044
REMARK INTRA:                  -0.077
REMARK UNBOUND:                 0.262
REMARK SMILES CC1=CCC[C@H](C)C(=O)C[C@H](C(C)C)C(=O)C1
REMARK SMILES IDX 8 1 9 2 6 3 7 4 5 5 4 6 3 7 2 8 1 9 10 11 11 12 15 13 16 14
REMARK SMILES IDX 17 15 12 17 13 18 14 19
REMARK H PARENT
REMARK Flexibility Score: 70.00
ROOT
ATOM      1  C   UNL     1     -16.799  13.549 -28.884  1.00  0.00     0.136 C 
ATOM      2  O   UNL     1     -17.315  14.592 -28.508  1.00  0.00    -0.299 OA
ENDROOT
BRANCH   1   3
ATOM      3  C   UNL     1     -17.315  12.855 -30.125  1.00  0.00     0.053 C 
ATOM      4  C   UNL     1     -18.725  12.316 -29.856  1.00  0.00     0.016 C 
BRANCH   3   5
ATOM      5  C   UNL     1     -17.323  13.778 -31.365  1.00  0.00     0.015 C 
BRANCH   5   6
ATOM      6  C   UNL     1     -15.935  13.965 -32.009  1.00  0.00     0.028 C 
BRANCH   6   7
ATOM      7  C   UNL     1     -15.273  15.243 -31.544  1.00  0.00    -0.028 C 
ATOM      8  C   UNL     1     -14.058  15.351 -30.955  1.00  0.00    -0.070 CG0
ATOM      9  C   UNL     1     -13.570  16.732 -30.596  1.00  0.00     0.039 C 
ATOM     10  G   UNL     1     -13.198  14.165 -30.573  1.00  0.00     0.000 G0
ENDBRANCH   6   7
ENDBRANCH   5   6
ENDBRANCH   3   5
ENDBRANCH   1   3
BRANCH   1  11
ATOM     11  C   UNL     1     -15.671  12.947 -28.080  1.00  0.00     0.087 C 
BRANCH  11  12
ATOM     12  C   UNL     1     -14.489  12.509 -28.976  1.00  0.00     0.066 C 
BRANCH  12  13
ATOM     13  C   UNL     1     -13.525  13.662 -29.190  1.00  0.00     0.140 C 
ATOM     14  O   UNL     1     -13.027  14.226 -28.227  1.00  0.00    -0.299 OA
BRANCH  13  15
ATOM     15  C   UNL     1     -13.192  14.154 -30.573  1.00  0.00     0.106 CG0
ATOM     16  G   UNL     1     -14.060  15.344 -30.925  1.00  0.00     0.000 G0
ENDBRANCH  13  15
ENDBRANCH  12  13
BRANCH  12  17
ATOM     17  C   UNL     1     -13.741  11.241 -28.455  1.00  0.00    -0.006 C 
ATOM     18  C   UNL     1     -12.230  11.237 -28.746  1.00  0.00     0.008 C 
ATOM     19  C   UNL     1     -13.983  11.021 -26.952  1.00  0.00     0.008 C 
ENDBRANCH  12  17
ENDBRANCH  11  12
ENDBRANCH   1  11
TORSDOF 1
ENDMDL
MODEL 3
REMARK VINA RESULT:    -4.107      2.192      3.796
REMARK INTER + INTRA:          -6.006
REMARK INTER:                  -5.846
REMARK INTRA:                  -0.160
REMARK UNBOUND:                 0.262
REMARK SMILES CC1=CCC[C@H](C)C(=O)C[C@H](C(C)C)C(=O)C1
REMARK SMILES IDX 8 1 9 2 6 3 7 4 5 5 4 6 3 7 2 8 1 9 10 11 11 12 15 13 16 14
REMARK SMILES IDX 17 15 12 17 13 18 14 19
REMARK H PARENT
REMARK Flexibility Score: 70.00
ROOT
ATOM      1  C   UNL     1     -12.596  14.521 -29.255  1.00  0.00     0.136 C 
ATOM      2  O   UNL     1     -12.103  14.984 -28.237  1.00  0.00    -0.299 OA
ENDROOT
BRANCH   1   3
ATOM      3  C   UNL     1     -12.506  13.036 -29.533  1.00  0.00     0.053 C 
ATOM      4  C   UNL     1     -11.171  12.502 -29.002  1.00  0.00     0.016 C 
BRANCH   3   5
ATOM      5  C   UNL     1     -13.682  12.242 -28.918  1.00  0.00     0.015 C 
BRANCH   5   6
ATOM      6  C   UNL     1     -14.807  13.134 -28.358  1.00  0.00     0.028 C 
BRANCH   6   7
ATOM      7  C   UNL     1     -16.123  12.878 -29.058  1.00  0.00    -0.028 C 
ATOM      8  C   UNL     1     -16.654  13.610 -30.066  1.00  0.00    -0.070 CG0
ATOM      9  C   UNL     1     -17.971  13.160 -30.646  1.00  0.00     0.039 C 
ATOM     10  G   UNL     1     -16.039  14.890 -30.593  1.00  0.00     0.000 G0
ENDBRANCH   6   7
ENDBRANCH   5   6
ENDBRANCH   3   5
ENDBRANCH   1   3
BRANCH   1  11
ATOM     11  C   UNL     1     -13.262  15.448 -30.244  1.00  0.00     0.087 C 
BRANCH  11  12
ATOM     12  C   UNL     1     -13.591  14.736 -31.577  1.00  0.00     0.066 C 
BRANCH  12  13
ATOM     13  C   UNL     1     -15.092  14.592 -31.750  1.00  0.00     0.140 C 
ATOM     14  O   UNL     1     -15.550  14.246 -32.829  1.00  0.00    -0.299 OA
BRANCH  13  15
ATOM     15  C   UNL     1     -16.040  14.899 -30.623  1.00  0.00     0.106 CG0
ATOM     16  G   UNL     1     -16.645  13.617 -30.089  1.00  0.00     0.000 G0
ENDBRANCH  13  15
ENDBRANCH  12  13
BRANCH  12  17
ATOM     17  C   UNL     1     -12.944  15.412 -32.827  1.00  0.00    -0.006 C 
ATOM     18  C   UNL     1     -12.773  16.937 -32.701  1.00  0.00     0.008 C 
ATOM     19  C   UNL     1     -11.596  14.764 -33.186  1.00  0.00     0.008 C 
ENDBRANCH  12  17
ENDBRANCH  11  12
ENDBRANCH   1  11
TORSDOF 1
ENDMDL
MODEL 4
REMARK VINA RESULT:    -4.106      1.675      2.270
REMARK INTER + INTRA:          -6.004
REMARK INTER:                  -5.768
REMARK INTRA:                  -0.236
REMARK UNBOUND:                 0.262
REMARK SMILES CC1=CCC[C@H](C)C(=O)C[C@H](C(C)C)C(=O)C1
REMARK SMILES IDX 8 1 9 2 6 3 7 4 5 5 4 6 3 7 2 8 1 9 10 11 11 12 15 13 16 14
REMARK SMILES IDX 17 15 12 17 13 18 14 19
REMARK H PARENT
REMARK Flexibility Score: 70.00
ROOT
ATOM      1  C   UNL     1     -13.556  14.784 -31.487  1.00  0.00     0.136 C 
ATOM      2  O   UNL     1     -13.145  15.050 -32.607  1.00  0.00    -0.299 OA
ENDROOT
BRANCH   1   3
ATOM      3  C   UNL     1     -14.376  15.800 -30.721  1.00  0.00     0.053 C 
ATOM      4  C   UNL     1     -13.900  17.211 -31.082  1.00  0.00     0.016 C 
BRANCH   3   5
ATOM      5  C   UNL     1     -15.893  15.664 -30.986  1.00  0.00     0.015 C 
BRANCH   5   6
ATOM      6  C   UNL     1     -16.297  14.306 -31.594  1.00  0.00     0.028 C 
BRANCH   6   7
ATOM      7  C   UNL     1     -17.160  13.505 -30.643  1.00  0.00    -0.028 C 
ATOM      8  C   UNL     1     -16.785  12.403 -29.951  1.00  0.00    -0.070 CG0
ATOM      9  C   UNL     1     -17.798  11.771 -29.029  1.00  0.00     0.039 C 
ATOM     10  G   UNL     1     -15.437  11.729 -30.104  1.00  0.00     0.000 G0
ENDBRANCH   6   7
ENDBRANCH   5   6
ENDBRANCH   3   5
ENDBRANCH   1   3
BRANCH   1  11
ATOM     11  C   UNL     1     -13.208  13.453 -30.866  1.00  0.00     0.087 C 
BRANCH  11  12
ATOM     12  C   UNL     1     -13.549  13.409 -29.357  1.00  0.00     0.066 C 
BRANCH  12  13
ATOM     13  C   UNL     1     -14.476  12.246 -29.053  1.00  0.00     0.140 C 
ATOM     14  O   UNL     1     -14.429  11.700 -27.960  1.00  0.00    -0.299 OA
BRANCH  13  15
ATOM     15  C   UNL     1     -15.436  11.722 -30.087  1.00  0.00     0.106 CG0
ATOM     16  G   UNL     1     -16.781  12.402 -29.939  1.00  0.00     0.000 G0
ENDBRANCH  13  15
ENDBRANCH  12  13
BRANCH  12  17
ATOM     17  C   UNL     1     -12.293  13.384 -28.429  1.00  0.00    -0.006 C 
ATOM     18  C   UNL     1     -11.068  12.687 -29.045  1.00  0.00     0.008 C 
ATOM     19  C   UNL     1     -11.909  14.798 -27.962  1.00  0.00     0.008 C 
ENDBRANCH  12  17
ENDBRANCH  11  12
ENDBRANCH   1  11
TORSDOF 1
ENDMDL
MODEL 5
REMARK VINA RESULT:    -4.105      1.748      2.684
REMARK INTER + INTRA:          -6.002
REMARK INTER:                  -6.160
REMARK INTRA:                   0.157
REMARK UNBOUND:                 0.262
REMARK SMILES CC1=CCC[C@H](C)C(=O)C[C@H](C(C)C)C(=O)C1
REMARK SMILES IDX 8 1 9 2 6 3 7 4 5 5 4 6 3 7 2 8 1 9 10 11 11 12 15 13 16 14
REMARK SMILES IDX 17 15 12 17 13 18 14 19
REMARK H PARENT
REMARK Flexibility Score: 70.00
ROOT
ATOM      1  C   UNL     1     -17.047  13.673 -30.982  1.00  0.00     0.136 C 
ATOM      2  O   UNL     1     -17.640  14.271 -31.868  1.00  0.00    -0.299 OA
ENDROOT
BRANCH   1   3
ATOM      3  C   UNL     1     -17.786  13.250 -29.731  1.00  0.00     0.053 C 
ATOM      4  C   UNL     1     -19.098  14.035 -29.627  1.00  0.00     0.016 C 
BRANCH   3   5
ATOM      5  C   UNL     1     -18.067  11.730 -29.689  1.00  0.00     0.015 C 
BRANCH   5   6
ATOM      6  C   UNL     1     -16.816  10.875 -29.409  1.00  0.00     0.028 C 
BRANCH   6   7
ATOM      7  C   UNL     1     -16.172  11.243 -28.090  1.00  0.00    -0.028 C 
ATOM      8  C   UNL     1     -14.972  11.846 -27.921  1.00  0.00    -0.070 CG0
ATOM      9  C   UNL     1     -14.529  12.152 -26.512  1.00  0.00     0.039 C 
ATOM     10  G   UNL     1     -14.020  12.164 -29.056  1.00  0.00     0.000 G0
ENDBRANCH   6   7
ENDBRANCH   5   6
ENDBRANCH   3   5
ENDBRANCH   1   3
BRANCH   1  11
ATOM     11  C   UNL     1     -15.572  13.393 -31.135  1.00  0.00     0.087 C 
BRANCH  11  12
ATOM     12  C   UNL     1     -14.706  14.384 -30.321  1.00  0.00     0.066 C 
BRANCH  12  13
ATOM     13  C   UNL     1     -13.916  13.650 -29.252  1.00  0.00     0.140 C 
ATOM     14  O   UNL     1     -13.144  14.267 -28.534  1.00  0.00    -0.299 OA
BRANCH  13  15
ATOM     15  C   UNL     1     -14.037  12.160 -29.077  1.00  0.00     0.106 CG0
ATOM     16  G   UNL     1     -14.976  11.846 -27.930  1.00  0.00     0.000 G0
ENDBRANCH  13  15
ENDBRANCH  12  13
BRANCH  12  17
ATOM     17  C   UNL     1     -13.770  15.272 -31.201  1.00  0.00    -0.006 C 
ATOM     18  C   UNL     1     -13.820  14.942 -32.703  1.00  0.00     0.008 C 
ATOM     19  C   UNL     1     -14.046  16.769 -30.986  1.00  0.00     0.008 C 
ENDBRANCH  12  17
ENDBRANCH  11  12
ENDBRANCH   1  11
TORSDOF 1
ENDMDL
MODEL 6
REMARK VINA RESULT:    -3.839      1.432      2.733
REMARK INTER + INTRA:          -5.597
REMARK INTER:                  -6.084
REMARK INTRA:                   0.487
REMARK UNBOUND:                 0.262
REMARK SMILES CC1=CCC[C@H](C)C(=O)C[C@H](C(C)C)C(=O)C1
REMARK SMILES IDX 8 1 9 2 6 3 7 4 5 5 4 6 3 7 2 8 1 9 10 11 11 12 15 13 16 14
REMARK SMILES IDX 17 15 12 17 13 18 14 19
REMARK H PARENT
REMARK Flexibility Score: 70.00
ROOT
ATOM      1  C   UNL     1     -16.785  14.506 -29.527  1.00  0.00     0.136 C 
ATOM      2  O   UNL     1     -16.662  15.379 -28.679  1.00  0.00    -0.299 OA
ENDROOT
BRANCH   1   3
ATOM      3  C   UNL     1     -17.633  13.287 -29.239  1.00  0.00     0.053 C 
ATOM      4  C   UNL     1     -17.753  12.441 -30.511  1.00  0.00     0.016 C 
BRANCH   3   5
ATOM      5  C   UNL     1     -17.072  12.430 -28.080  1.00  0.00     0.015 C 
BRANCH   5   6
ATOM      6  C   UNL     1     -15.747  11.720 -28.418  1.00  0.00     0.028 C 
BRANCH   6   7
ATOM      7  C   UNL     1     -14.561  12.428 -27.800  1.00  0.00    -0.028 C 
ATOM      8  C   UNL     1     -13.418  12.785 -28.432  1.00  0.00    -0.070 CG0
ATOM      9  C   UNL     1     -12.368  13.514 -27.631  1.00  0.00     0.039 C 
ATOM     10  G   UNL     1     -13.104  12.432 -29.871  1.00  0.00     0.000 G0
ENDBRANCH   6   7
ENDBRANCH   5   6
ENDBRANCH   3   5
ENDBRANCH   1   3
BRANCH   1  11
ATOM     11  C   UNL     1     -16.057  14.643 -30.843  1.00  0.00     0.087 C 
BRANCH  11  12
ATOM     12  C   UNL     1     -14.525  14.502 -30.676  1.00  0.00     0.066 C 
BRANCH  12  13
ATOM     13  C   UNL     1     -14.103  13.052 -30.821  1.00  0.00     0.140 C 
ATOM     14  O   UNL     1     -14.605  12.355 -31.692  1.00  0.00    -0.299 OA
BRANCH  13  15
ATOM     15  C   UNL     1     -13.097  12.434 -29.888  1.00  0.00     0.106 CG0
ATOM     16  G   UNL     1     -13.434  12.785 -28.454  1.00  0.00     0.000 G0
ENDBRANCH  13  15
ENDBRANCH  12  13
BRANCH  12  17
ATOM     17  C   UNL     1     -13.702  15.425 -31.630  1.00  0.00    -0.006 C 
ATOM     18  C   UNL     1     -13.724  16.914 -31.239  1.00  0.00     0.008 C 
ATOM     19  C   UNL     1     -12.248  14.943 -31.765  1.00  0.00     0.008 C 
ENDBRANCH  12  17
ENDBRANCH  11  12
ENDBRANCH   1  11
TORSDOF 1
ENDMDL
MODEL 7
REMARK VINA RESULT:    -3.603      1.924      3.485
REMARK INTER + INTRA:          -5.237
REMARK INTER:                  -5.249
REMARK INTRA:                   0.012
REMARK UNBOUND:                 0.262
REMARK SMILES CC1=CCC[C@H](C)C(=O)C[C@H](C(C)C)C(=O)C1
REMARK SMILES IDX 8 1 9 2 6 3 7 4 5 5 4 6 3 7 2 8 1 9 10 11 11 12 15 13 16 14
REMARK SMILES IDX 17 15 12 17 13 18 14 19
REMARK H PARENT
REMARK Flexibility Score: 70.00
ROOT
ATOM      1  C   UNL     1     -16.427  13.360 -28.986  1.00  0.00     0.136 C 
ATOM      2  O   UNL     1     -17.104  14.377 -28.946  1.00  0.00    -0.299 OA
ENDROOT
BRANCH   1   3
ATOM      3  C   UNL     1     -16.831  12.150 -28.171  1.00  0.00     0.053 C 
ATOM      4  C   UNL     1     -16.667  10.887 -29.025  1.00  0.00     0.016 C 
BRANCH   3   5
ATOM      5  C   UNL     1     -16.023  12.017 -26.860  1.00  0.00     0.015 C 
BRANCH   5   6
ATOM      6  C   UNL     1     -14.984  10.879 -26.884  1.00  0.00     0.028 C 
BRANCH   6   7
ATOM      7  C   UNL     1     -13.632  11.348 -26.391  1.00  0.00    -0.028 C 
ATOM      8  C   UNL     1     -12.700  12.015 -27.112  1.00  0.00    -0.070 CG0
ATOM      9  C   UNL     1     -11.425  12.417 -26.414  1.00  0.00     0.039 C 
ATOM     10  G   UNL     1     -12.833  12.315 -28.591  1.00  0.00     0.000 G0
ENDBRANCH   6   7
ENDBRANCH   5   6
ENDBRANCH   3   5
ENDBRANCH   1   3
BRANCH   1  11
ATOM     11  C   UNL     1     -15.172  13.337 -29.825  1.00  0.00     0.087 C 
BRANCH  11  12
ATOM     12  C   UNL     1     -14.168  14.433 -29.399  1.00  0.00     0.066 C 
BRANCH  12  13
ATOM     13  C   UNL     1     -12.905  13.810 -28.833  1.00  0.00     0.140 C 
ATOM     14  O   UNL     1     -11.942  14.516 -28.571  1.00  0.00    -0.299 OA
BRANCH  13  15
ATOM     15  C   UNL     1     -12.797  12.325 -28.616  1.00  0.00     0.106 CG0
ATOM     16  G   UNL     1     -12.713  12.020 -27.135  1.00  0.00     0.000 G0
ENDBRANCH  13  15
ENDBRANCH  12  13
BRANCH  12  17
ATOM     17  C   UNL     1     -13.832  15.454 -30.532  1.00  0.00    -0.006 C 
ATOM     18  C   UNL     1     -13.368  14.803 -31.848  1.00  0.00     0.008 C 
ATOM     19  C   UNL     1     -15.011  16.401 -30.807  1.00  0.00     0.008 C 
ENDBRANCH  12  17
ENDBRANCH  11  12
ENDBRANCH   1  11
TORSDOF 1
ENDMDL
MODEL 8
REMARK VINA RESULT:    -3.358      9.474     11.498
REMARK INTER + INTRA:          -4.863
REMARK INTER:                  -5.846
REMARK INTRA:                   0.984
REMARK UNBOUND:                 0.262
REMARK SMILES CC1=CCC[C@H](C)C(=O)C[C@H](C(C)C)C(=O)C1
REMARK SMILES IDX 8 1 9 2 6 3 7 4 5 5 4 6 3 7 2 8 1 9 10 11 11 12 15 13 16 14
REMARK SMILES IDX 17 15 12 17 13 18 14 19
REMARK H PARENT
REMARK Flexibility Score: 70.00
ROOT
ATOM      1  C   UNL     1     -27.531  12.777 -30.982  1.00  0.00     0.136 C 
ATOM      2  O   UNL     1     -27.789  11.822 -31.700  1.00  0.00    -0.299 OA
ENDROOT
BRANCH   1   3
ATOM      3  C   UNL     1     -28.391  13.067 -29.771  1.00  0.00     0.053 C 
ATOM      4  C   UNL     1     -29.713  12.300 -29.893  1.00  0.00     0.016 C 
BRANCH   3   5
ATOM      5  C   UNL     1     -27.688  12.712 -28.441  1.00  0.00     0.015 C 
BRANCH   5   6
ATOM      6  C   UNL     1     -27.403  11.206 -28.273  1.00  0.00     0.028 C 
BRANCH   6   7
ATOM      7  C   UNL     1     -26.029  10.961 -27.688  1.00  0.00    -0.028 C 
ATOM      8  C   UNL     1     -24.843  11.162 -28.310  1.00  0.00    -0.070 CG0
ATOM      9  C   UNL     1     -23.582  10.881 -27.530  1.00  0.00     0.039 C 
ATOM     10  G   UNL     1     -24.710  11.580 -29.759  1.00  0.00     0.000 G0
ENDBRANCH   6   7
ENDBRANCH   5   6
ENDBRANCH   3   5
ENDBRANCH   1   3
BRANCH   1  11
ATOM     11  C   UNL     1     -26.374  13.680 -31.335  1.00  0.00     0.087 C 
BRANCH  11  12
ATOM     12  C   UNL     1     -25.528  14.053 -30.094  1.00  0.00     0.066 C 
BRANCH  12  13
ATOM     13  C   UNL     1     -24.417  13.042 -29.882  1.00  0.00     0.140 C 
ATOM     14  O   UNL     1     -23.254  13.416 -29.829  1.00  0.00    -0.299 OA
BRANCH  13  15
ATOM     15  C   UNL     1     -24.711  11.570 -29.767  1.00  0.00     0.106 CG0
ATOM     16  G   UNL     1     -24.800  11.170 -28.309  1.00  0.00     0.000 G0
ENDBRANCH  13  15
ENDBRANCH  12  13
BRANCH  12  17
ATOM     17  C   UNL     1     -24.964  15.509 -30.132  1.00  0.00    -0.006 C 
ATOM     18  C   UNL     1     -23.944  15.760 -31.257  1.00  0.00     0.008 C 
ATOM     19  C   UNL     1     -26.093  16.550 -30.210  1.00  0.00     0.008 C 
ENDBRANCH  12  17
ENDBRANCH  11  12
ENDBRANCH   1  11
TORSDOF 1
ENDMDL
MODEL 9
REMARK VINA RESULT:    -1.961      9.334     11.591
REMARK INTER + INTRA:          -2.731
REMARK INTER:                  -3.566
REMARK INTRA:                   0.835
REMARK UNBOUND:                 0.262
REMARK SMILES CC1=CCC[C@H](C)C(=O)C[C@H](C(C)C)C(=O)C1
REMARK SMILES IDX 8 1 9 2 6 3 7 4 5 5 4 6 3 7 2 8 1 9 10 11 11 12 15 13 16 14
REMARK SMILES IDX 17 15 12 17 13 18 14 19
REMARK H PARENT
REMARK Flexibility Score: 70.00
ROOT
ATOM      1  C   UNL     1     -23.324  12.769 -29.667  1.00  0.00     0.136 C 
ATOM      2  O   UNL     1     -22.227  13.114 -30.085  1.00  0.00    -0.299 OA
ENDROOT
BRANCH   1   3
ATOM      3  C   UNL     1     -23.607  11.306 -29.404  1.00  0.00     0.053 C 
ATOM      4  C   UNL     1     -23.246  10.974 -27.952  1.00  0.00     0.016 C 
BRANCH   3   5
ATOM      5  C   UNL     1     -25.077  10.922 -29.690  1.00  0.00     0.015 C 
BRANCH   5   6
ATOM      6  C   UNL     1     -25.983  10.965 -28.444  1.00  0.00     0.028 C 
BRANCH   6   7
ATOM      7  C   UNL     1     -27.442  11.101 -28.821  1.00  0.00    -0.028 C 
ATOM      8  C   UNL     1     -28.052  12.216 -29.289  1.00  0.00    -0.070 CG0
ATOM      9  C   UNL     1     -29.517  12.125 -29.634  1.00  0.00     0.039 C 
ATOM     10  G   UNL     1     -27.367  13.561 -29.417  1.00  0.00     0.000 G0
ENDBRANCH   6   7
ENDBRANCH   5   6
ENDBRANCH   3   5
ENDBRANCH   1   3
BRANCH   1  11
ATOM     11  C   UNL     1     -24.396  13.810 -29.451  1.00  0.00     0.087 C 
BRANCH  11  12
ATOM     12  C   UNL     1     -25.146  14.151 -30.760  1.00  0.00     0.066 C 
BRANCH  12  13
ATOM     13  C   UNL     1     -26.558  13.595 -30.726  1.00  0.00     0.140 C 
ATOM     14  O   UNL     1     -27.077  13.188 -31.756  1.00  0.00    -0.299 OA
BRANCH  13  15
ATOM     15  C   UNL     1     -27.354  13.562 -29.450  1.00  0.00     0.106 CG0
ATOM     16  G   UNL     1     -28.044  12.222 -29.301  1.00  0.00     0.000 G0
ENDBRANCH  13  15
ENDBRANCH  12  13
BRANCH  12  17
ATOM     17  C   UNL     1     -25.151  15.674 -31.104  1.00  0.00    -0.006 C 
ATOM     18  C   UNL     1     -25.844  16.556 -30.050  1.00  0.00     0.008 C 
ATOM     19  C   UNL     1     -23.729  16.197 -31.368  1.00  0.00     0.008 C 
ENDBRANCH  12  17
ENDBRANCH  11  12
ENDBRANCH   1  11
TORSDOF 1
ENDMDL
