MODEL 1
REMARK VINA RESULT:    10.529      0.000      0.000
REMARK INTER + INTRA:          18.311
REMARK INTER:                  19.147
REMARK INTRA:                  -0.836
REMARK UNBOUND:                -0.836
REMARK SMILES CCCCCCCCCCCCCCCC(=O)[O-]
REMARK SMILES IDX 9 1 10 2 11 3 12 4 13 5 14 6 15 7 16 8 17 9 18 10 8 11 7 12
REMARK SMILES IDX 6 13 5 14 4 15 3 16 2 17 1 18
REMARK H PARENT
REMARK Flexibility Score: inf
ROOT
ATOM      1  C   UNL     1       7.331  17.331  27.328  1.00  0.00     0.000 C 
ENDROOT
BRANCH   1   2
ATOM      2  C   UNL     1       6.872  18.118  26.094  1.00  0.00     0.000 C 
BRANCH   2   3
ATOM      3  C   UNL     1       5.344  18.267  26.074  1.00  0.00     0.000 C 
BRANCH   3   4
ATOM      4  C   UNL     1       4.693  17.861  27.406  1.00  0.00     0.000 C 
BRANCH   4   5
ATOM      5  C   UNL     1       3.156  17.832  27.329  1.00  0.00     0.000 C 
BRANCH   5   6
ATOM      6  C   UNL     1       2.631  17.994  25.891  1.00  0.00     0.006 C 
BRANCH   6   7
ATOM      7  C   UNL     1       1.249  17.365  25.649  1.00  0.00     0.053 C 
BRANCH   7   8
ATOM      8  C   UNL     1       0.536  18.005  24.499  1.00  0.00     0.041 C 
ATOM      9  O   UNL     1       0.049  17.294  23.580  1.00  0.00    -0.550 OA
ATOM     10  O   UNL     1       0.378  19.384  24.458  1.00  0.00    -0.550 OA
ENDBRANCH   7   8
ENDBRANCH   6   7
ENDBRANCH   5   6
ENDBRANCH   4   5
ENDBRANCH   3   4
ENDBRANCH   2   3
ENDBRANCH   1   2
BRANCH   1  11
ATOM     11  C   UNL     1       8.860  17.272  27.407  1.00  0.00     0.000 C 
BRANCH  11  12
ATOM     12  C   UNL     1       9.371  17.909  28.705  1.00  0.00    -0.000 C 
BRANCH  12  13
ATOM     13  C   UNL     1       8.502  17.496  29.899  1.00  0.00    -0.000 C 
BRANCH  13  14
ATOM     14  C   UNL     1       9.249  17.717  31.224  1.00  0.00    -0.000 C 
BRANCH  14  15
ATOM     15  C   UNL     1       8.554  17.037  32.415  1.00  0.00    -0.000 C 
BRANCH  15  16
ATOM     16  C   UNL     1       7.489  17.936  33.070  1.00  0.00    -0.000 C 
BRANCH  16  17
ATOM     17  C   UNL     1       7.854  19.427  32.998  1.00  0.00    -0.003 C 
ATOM     18  C   UNL     1       6.631  20.338  33.096  1.00  0.00     0.004 C 
ENDBRANCH  16  17
ENDBRANCH  15  16
ENDBRANCH  14  15
ENDBRANCH  13  14
ENDBRANCH  12  13
ENDBRANCH  11  12
ENDBRANCH   1  11
TORSDOF 14
ENDMDL
MODEL 2
REMARK VINA RESULT:    11.160      0.819      1.558
REMARK INTER + INTRA:          19.458
REMARK INTER:                  20.278
REMARK INTRA:                  -0.820
REMARK UNBOUND:                -0.836
REMARK SMILES CCCCCCCCCCCCCCCC(=O)[O-]
REMARK SMILES IDX 9 1 10 2 11 3 12 4 13 5 14 6 15 7 16 8 17 9 18 10 8 11 7 12
REMARK SMILES IDX 6 13 5 14 4 15 3 16 2 17 1 18
REMARK H PARENT
REMARK Flexibility Score: inf
ROOT
ATOM      1  C   UNL     1       7.059  17.989  26.046  1.00  0.00     0.000 C 
ENDROOT
BRANCH   1   2
ATOM      2  C   UNL     1       5.568  18.338  26.129  1.00  0.00     0.000 C 
BRANCH   2   3
ATOM      3  C   UNL     1       4.956  17.830  27.442  1.00  0.00     0.000 C 
BRANCH   3   4
ATOM      4  C   UNL     1       3.419  17.858  27.428  1.00  0.00     0.000 C 
BRANCH   4   5
ATOM      5  C   UNL     1       2.841  17.842  26.002  1.00  0.00     0.000 C 
BRANCH   5   6
ATOM      6  C   UNL     1       1.319  18.073  25.976  1.00  0.00     0.006 C 
BRANCH   6   7
ATOM      7  C   UNL     1       0.789  18.635  24.647  1.00  0.00     0.053 C 
BRANCH   7   8
ATOM      8  C   UNL     1       0.184  17.567  23.789  1.00  0.00     0.041 C 
ATOM      9  O   UNL     1      -0.032  16.420  24.262  1.00  0.00    -0.550 OA
ATOM     10  O   UNL     1      -0.174  17.849  22.477  1.00  0.00    -0.550 OA
ENDBRANCH   7   8
ENDBRANCH   6   7
ENDBRANCH   5   6
ENDBRANCH   4   5
ENDBRANCH   3   4
ENDBRANCH   2   3
ENDBRANCH   1   2
BRANCH   1  11
ATOM     11  C   UNL     1       7.526  17.262  27.311  1.00  0.00     0.000 C 
BRANCH  11  12
ATOM     12  C   UNL     1       9.054  17.128  27.338  1.00  0.00    -0.000 C 
BRANCH  12  13
ATOM     13  C   UNL     1       9.631  17.671  28.651  1.00  0.00    -0.000 C 
BRANCH  13  14
ATOM     14  C   UNL     1       8.611  17.548  29.793  1.00  0.00    -0.000 C 
BRANCH  14  15
ATOM     15  C   UNL     1       9.178  18.012  31.144  1.00  0.00    -0.000 C 
BRANCH  15  16
ATOM     16  C   UNL     1       8.751  17.100  32.309  1.00  0.00    -0.000 C 
BRANCH  16  17
ATOM     17  C   UNL     1       7.566  17.673  33.100  1.00  0.00    -0.003 C 
ATOM     18  C   UNL     1       7.557  19.200  33.124  1.00  0.00     0.004 C 
ENDBRANCH  16  17
ENDBRANCH  15  16
ENDBRANCH  14  15
ENDBRANCH  13  14
ENDBRANCH  12  13
ENDBRANCH  11  12
ENDBRANCH   1  11
TORSDOF 14
ENDMDL
MODEL 3
REMARK VINA RESULT:    11.653      2.181      2.586
REMARK INTER + INTRA:          20.355
REMARK INTER:                  21.013
REMARK INTRA:                  -0.658
REMARK UNBOUND:                -0.836
REMARK SMILES CCCCCCCCCCCCCCCC(=O)[O-]
REMARK SMILES IDX 9 1 10 2 11 3 12 4 13 5 14 6 15 7 16 8 17 9 18 10 8 11 7 12
REMARK SMILES IDX 6 13 5 14 4 15 3 16 2 17 1 18
REMARK H PARENT
REMARK Flexibility Score: inf
ROOT
ATOM      1  C   UNL     1       7.486  17.103  27.014  1.00  0.00     0.000 C 
ENDROOT
BRANCH   1   2
ATOM      2  C   UNL     1       6.275  17.982  27.346  1.00  0.00     0.000 C 
BRANCH   2   3
ATOM      3  C   UNL     1       5.445  18.273  26.087  1.00  0.00     0.000 C 
BRANCH   3   4
ATOM      4  C   UNL     1       6.280  18.195  24.798  1.00  0.00     0.000 C 
BRANCH   4   5
ATOM      5  C   UNL     1       5.492  18.647  23.556  1.00  0.00     0.000 C 
BRANCH   5   6
ATOM      6  C   UNL     1       4.593  19.865  23.833  1.00  0.00     0.006 C 
BRANCH   6   7
ATOM      7  C   UNL     1       4.229  20.678  22.581  1.00  0.00     0.053 C 
BRANCH   7   8
ATOM      8  C   UNL     1       2.749  20.850  22.435  1.00  0.00     0.041 C 
ATOM      9  O   UNL     1       2.111  20.166  21.591  1.00  0.00    -0.550 OA
ATOM     10  O   UNL     1       2.067  21.741  23.255  1.00  0.00    -0.550 OA
ENDBRANCH   7   8
ENDBRANCH   6   7
ENDBRANCH   5   6
ENDBRANCH   4   5
ENDBRANCH   3   4
ENDBRANCH   2   3
ENDBRANCH   1   2
BRANCH   1  11
ATOM     11  C   UNL     1       8.798  17.821  27.352  1.00  0.00     0.000 C 
BRANCH  11  12
ATOM     12  C   UNL     1       9.455  17.211  28.596  1.00  0.00    -0.000 C 
BRANCH  12  13
ATOM     13  C   UNL     1       9.105  18.016  29.854  1.00  0.00    -0.000 C 
BRANCH  13  14
ATOM     14  C   UNL     1       7.958  17.351  30.631  1.00  0.00    -0.000 C 
BRANCH  14  15
ATOM     15  C   UNL     1       8.364  16.952  32.058  1.00  0.00    -0.000 C 
BRANCH  15  16
ATOM     16  C   UNL     1       7.816  17.922  33.121  1.00  0.00    -0.000 C 
BRANCH  16  17
ATOM     17  C   UNL     1       7.950  19.393  32.700  1.00  0.00    -0.003 C 
ATOM     18  C   UNL     1       6.682  20.201  32.969  1.00  0.00     0.004 C 
ENDBRANCH  16  17
ENDBRANCH  15  16
ENDBRANCH  14  15
ENDBRANCH  13  14
ENDBRANCH  12  13
ENDBRANCH  11  12
ENDBRANCH   1  11
TORSDOF 14
ENDMDL
MODEL 4
REMARK VINA RESULT:    11.957      3.932      8.508
REMARK INTER + INTRA:          20.907
REMARK INTER:                  21.741
REMARK INTRA:                  -0.835
REMARK UNBOUND:                -0.836
REMARK SMILES CCCCCCCCCCCCCCCC(=O)[O-]
REMARK SMILES IDX 9 1 10 2 11 3 12 4 13 5 14 6 15 7 16 8 17 9 18 10 8 11 7 12
REMARK SMILES IDX 6 13 5 14 4 15 3 16 2 17 1 18
REMARK H PARENT
REMARK Flexibility Score: inf
ROOT
ATOM      1  C   UNL     1       7.088  18.015  26.152  1.00  0.00     0.000 C 
ENDROOT
BRANCH   1   2
ATOM      2  C   UNL     1       7.461  17.053  27.286  1.00  0.00     0.000 C 
BRANCH   2   3
ATOM      3  C   UNL     1       8.982  17.005  27.488  1.00  0.00     0.000 C 
BRANCH   3   4
ATOM      4  C   UNL     1       9.459  17.941  28.612  1.00  0.00     0.000 C 
BRANCH   4   5
ATOM      5  C   UNL     1       8.784  17.636  29.961  1.00  0.00     0.000 C 
BRANCH   5   6
ATOM      6  C   UNL     1       9.723  17.861  31.159  1.00  0.00     0.006 C 
BRANCH   6   7
ATOM      7  C   UNL     1       9.337  17.072  32.420  1.00  0.00     0.053 C 
BRANCH   7   8
ATOM      8  C   UNL     1       7.914  17.316  32.819  1.00  0.00     0.041 C 
ATOM      9  O   UNL     1       7.527  18.479  33.107  1.00  0.00    -0.550 OA
ATOM     10  O   UNL     1       7.008  16.263  32.841  1.00  0.00    -0.550 OA
ENDBRANCH   7   8
ENDBRANCH   6   7
ENDBRANCH   5   6
ENDBRANCH   4   5
ENDBRANCH   3   4
ENDBRANCH   2   3
ENDBRANCH   1   2
BRANCH   1  11
ATOM     11  C   UNL     1       5.582  18.299  26.142  1.00  0.00     0.000 C 
BRANCH  11  12
ATOM     12  C   UNL     1       4.950  17.971  27.501  1.00  0.00    -0.000 C 
BRANCH  12  13
ATOM     13  C   UNL     1       3.451  17.686  27.357  1.00  0.00    -0.000 C 
BRANCH  13  14
ATOM     14  C   UNL     1       2.909  18.245  26.032  1.00  0.00    -0.000 C 
BRANCH  14  15
ATOM     15  C   UNL     1       1.412  17.957  25.837  1.00  0.00    -0.000 C 
BRANCH  15  16
ATOM     16  C   UNL     1       0.713  19.023  24.973  1.00  0.00    -0.000 C 
BRANCH  16  17
ATOM     17  C   UNL     1       0.113  18.435  23.687  1.00  0.00    -0.003 C 
ATOM     18  C   UNL     1      -0.037  16.916  23.747  1.00  0.00     0.004 C 
ENDBRANCH  16  17
ENDBRANCH  15  16
ENDBRANCH  14  15
ENDBRANCH  13  14
ENDBRANCH  12  13
ENDBRANCH  11  12
ENDBRANCH   1  11
TORSDOF 14
ENDMDL
MODEL 5
REMARK VINA RESULT:    12.333      4.188      8.489
REMARK INTER + INTRA:          21.591
REMARK INTER:                  21.225
REMARK INTRA:                   0.366
REMARK UNBOUND:                -0.836
REMARK SMILES CCCCCCCCCCCCCCCC(=O)[O-]
REMARK SMILES IDX 9 1 10 2 11 3 12 4 13 5 14 6 15 7 16 8 17 9 18 10 8 11 7 12
REMARK SMILES IDX 6 13 5 14 4 15 3 16 2 17 1 18
REMARK H PARENT
REMARK Flexibility Score: inf
ROOT
ATOM      1  C   UNL     1       8.140  16.738  27.464  1.00  0.00     0.000 C 
ENDROOT
BRANCH   1   2
ATOM      2  C   UNL     1       9.581  17.105  27.836  1.00  0.00     0.000 C 
BRANCH   2   3
ATOM      3  C   UNL     1       9.618  17.986  29.093  1.00  0.00     0.000 C 
BRANCH   3   4
ATOM      4  C   UNL     1       8.699  17.461  30.209  1.00  0.00     0.000 C 
BRANCH   4   5
ATOM      5  C   UNL     1       9.315  17.626  31.609  1.00  0.00     0.000 C 
BRANCH   5   6
ATOM      6  C   UNL     1       8.421  17.052  32.723  1.00  0.00     0.006 C 
BRANCH   6   7
ATOM      7  C   UNL     1       7.182  17.905  33.039  1.00  0.00     0.053 C 
BRANCH   7   8
ATOM      8  C   UNL     1       7.457  19.369  32.889  1.00  0.00     0.041 C 
ATOM      9  O   UNL     1       8.640  19.783  32.762  1.00  0.00    -0.550 OA
ATOM     10  O   UNL     1       6.405  20.275  32.854  1.00  0.00    -0.550 OA
ENDBRANCH   7   8
ENDBRANCH   6   7
ENDBRANCH   5   6
ENDBRANCH   4   5
ENDBRANCH   3   4
ENDBRANCH   2   3
ENDBRANCH   1   2
BRANCH   1  11
ATOM     11  C   UNL     1       7.645  17.576  26.279  1.00  0.00     0.000 C 
BRANCH  11  12
ATOM     12  C   UNL     1       6.168  17.951  26.448  1.00  0.00    -0.000 C 
BRANCH  12  13
ATOM     13  C   UNL     1       5.803  19.158  25.575  1.00  0.00    -0.000 C 
BRANCH  13  14
ATOM     14  C   UNL     1       5.565  18.730  24.118  1.00  0.00    -0.000 C 
BRANCH  14  15
ATOM     15  C   UNL     1       4.279  19.331  23.529  1.00  0.00    -0.000 C 
BRANCH  15  16
ATOM     16  C   UNL     1       4.531  20.656  22.787  1.00  0.00    -0.000 C 
BRANCH  16  17
ATOM     17  C   UNL     1       3.239  21.275  22.233  1.00  0.00    -0.003 C 
ATOM     18  C   UNL     1       2.039  20.336  22.350  1.00  0.00     0.004 C 
ENDBRANCH  16  17
ENDBRANCH  15  16
ENDBRANCH  14  15
ENDBRANCH  13  14
ENDBRANCH  12  13
ENDBRANCH  11  12
ENDBRANCH   1  11
TORSDOF 14
ENDMDL
MODEL 6
REMARK VINA RESULT:    12.335      3.761      8.221
REMARK INTER + INTRA:          21.594
REMARK INTER:                  22.150
REMARK INTRA:                  -0.556
REMARK UNBOUND:                -0.836
REMARK SMILES CCCCCCCCCCCCCCCC(=O)[O-]
REMARK SMILES IDX 9 1 10 2 11 3 12 4 13 5 14 6 15 7 16 8 17 9 18 10 8 11 7 12
REMARK SMILES IDX 6 13 5 14 4 15 3 16 2 17 1 18
REMARK H PARENT
REMARK Flexibility Score: inf
ROOT
ATOM      1  C   UNL     1       7.144  17.220  27.361  1.00  0.00     0.000 C 
ENDROOT
BRANCH   1   2
ATOM      2  C   UNL     1       8.630  16.853  27.456  1.00  0.00     0.000 C 
BRANCH   2   3
ATOM      3  C   UNL     1       9.432  17.976  28.132  1.00  0.00     0.000 C 
BRANCH   3   4
ATOM      4  C   UNL     1       9.740  17.676  29.608  1.00  0.00     0.000 C 
BRANCH   4   5
ATOM      5  C   UNL     1       8.468  17.433  30.439  1.00  0.00     0.000 C 
BRANCH   5   6
ATOM      6  C   UNL     1       8.758  17.312  31.947  1.00  0.00     0.006 C 
BRANCH   6   7
ATOM      7  C   UNL     1       7.646  17.869  32.850  1.00  0.00     0.053 C 
BRANCH   7   8
ATOM      8  C   UNL     1       7.548  19.361  32.762  1.00  0.00     0.041 C 
ATOM      9  O   UNL     1       6.464  19.942  33.034  1.00  0.00    -0.550 OA
ATOM     10  O   UNL     1       8.663  20.112  32.414  1.00  0.00    -0.550 OA
ENDBRANCH   7   8
ENDBRANCH   6   7
ENDBRANCH   5   6
ENDBRANCH   4   5
ENDBRANCH   3   4
ENDBRANCH   2   3
ENDBRANCH   1   2
BRANCH   1  11
ATOM     11  C   UNL     1       6.897  18.234  26.238  1.00  0.00     0.000 C 
BRANCH  11  12
ATOM     12  C   UNL     1       5.399  18.513  26.067  1.00  0.00    -0.000 C 
BRANCH  12  13
ATOM     13  C   UNL     1       4.574  17.749  27.110  1.00  0.00    -0.000 C 
BRANCH  13  14
ATOM     14  C   UNL     1       3.102  18.188  27.075  1.00  0.00    -0.000 C 
BRANCH  14  15
ATOM     15  C   UNL     1       2.365  17.686  25.823  1.00  0.00    -0.000 C 
BRANCH  15  16
ATOM     16  C   UNL     1       0.985  18.345  25.646  1.00  0.00    -0.000 C 
BRANCH  16  17
ATOM     17  C   UNL     1       0.552  18.415  24.174  1.00  0.00    -0.003 C 
ATOM     18  C   UNL     1      -0.038  17.099  23.670  1.00  0.00     0.004 C 
ENDBRANCH  16  17
ENDBRANCH  15  16
ENDBRANCH  14  15
ENDBRANCH  13  14
ENDBRANCH  12  13
ENDBRANCH  11  12
ENDBRANCH   1  11
TORSDOF 14
ENDMDL
MODEL 7
REMARK VINA RESULT:    12.618      1.924      2.981
REMARK INTER + INTRA:          22.109
REMARK INTER:                  22.522
REMARK INTRA:                  -0.413
REMARK UNBOUND:                -0.836
REMARK SMILES CCCCCCCCCCCCCCCC(=O)[O-]
REMARK SMILES IDX 9 1 10 2 11 3 12 4 13 5 14 6 15 7 16 8 17 9 18 10 8 11 7 12
REMARK SMILES IDX 6 13 5 14 4 15 3 16 2 17 1 18
REMARK H PARENT
REMARK Flexibility Score: inf
ROOT
ATOM      1  C   UNL     1       5.771  18.247  25.723  1.00  0.00     0.000 C 
ENDROOT
BRANCH   1   2
ATOM      2  C   UNL     1       5.740  18.777  24.285  1.00  0.00     0.000 C 
BRANCH   2   3
ATOM      3  C   UNL     1       4.344  19.303  23.922  1.00  0.00     0.000 C 
BRANCH   3   4
ATOM      4  C   UNL     1       4.377  20.323  22.773  1.00  0.00     0.000 C 
BRANCH   4   5
ATOM      5  C   UNL     1       3.015  21.002  22.545  1.00  0.00     0.000 C 
BRANCH   5   6
ATOM      6  C   UNL     1       1.841  20.006  22.586  1.00  0.00     0.006 C 
BRANCH   6   7
ATOM      7  C   UNL     1       1.037  20.032  23.895  1.00  0.00     0.053 C 
BRANCH   7   8
ATOM      8  C   UNL     1       0.702  18.654  24.374  1.00  0.00     0.041 C 
ATOM      9  O   UNL     1       0.122  17.840  23.607  1.00  0.00    -0.550 OA
ATOM     10  O   UNL     1       1.059  18.257  25.657  1.00  0.00    -0.550 OA
ENDBRANCH   7   8
ENDBRANCH   6   7
ENDBRANCH   5   6
ENDBRANCH   4   5
ENDBRANCH   3   4
ENDBRANCH   2   3
ENDBRANCH   1   2
BRANCH   1  11
ATOM     11  C   UNL     1       7.189  18.306  26.302  1.00  0.00     0.000 C 
BRANCH  11  12
ATOM     12  C   UNL     1       7.452  17.122  27.240  1.00  0.00    -0.000 C 
BRANCH  12  13
ATOM     13  C   UNL     1       8.906  17.116  27.727  1.00  0.00    -0.000 C 
BRANCH  13  14
ATOM     14  C   UNL     1       9.071  17.999  28.974  1.00  0.00    -0.000 C 
BRANCH  14  15
ATOM     15  C   UNL     1       8.476  17.356  30.236  1.00  0.00    -0.000 C 
BRANCH  15  16
ATOM     16  C   UNL     1       8.881  18.097  31.524  1.00  0.00    -0.000 C 
BRANCH  16  17
ATOM     17  C   UNL     1       7.982  17.737  32.717  1.00  0.00    -0.003 C 
ATOM     18  C   UNL     1       7.747  16.232  32.844  1.00  0.00     0.004 C 
ENDBRANCH  16  17
ENDBRANCH  15  16
ENDBRANCH  14  15
ENDBRANCH  13  14
ENDBRANCH  12  13
ENDBRANCH  11  12
ENDBRANCH   1  11
TORSDOF 14
ENDMDL
MODEL 8
REMARK VINA RESULT:    12.803      4.302      8.852
REMARK INTER + INTRA:          22.445
REMARK INTER:                  23.146
REMARK INTRA:                  -0.700
REMARK UNBOUND:                -0.836
REMARK SMILES CCCCCCCCCCCCCCCC(=O)[O-]
REMARK SMILES IDX 9 1 10 2 11 3 12 4 13 5 14 6 15 7 16 8 17 9 18 10 8 11 7 12
REMARK SMILES IDX 6 13 5 14 4 15 3 16 2 17 1 18
REMARK H PARENT
REMARK Flexibility Score: inf
ROOT
ATOM      1  C   UNL     1       6.108  18.242  26.715  1.00  0.00     0.000 C 
ENDROOT
BRANCH   1   2
ATOM      2  C   UNL     1       6.854  16.991  27.192  1.00  0.00     0.000 C 
BRANCH   2   3
ATOM      3  C   UNL     1       8.364  17.125  26.947  1.00  0.00     0.000 C 
BRANCH   3   4
ATOM      4  C   UNL     1       9.002  18.247  27.782  1.00  0.00     0.000 C 
BRANCH   4   5
ATOM      5  C   UNL     1       9.652  17.726  29.075  1.00  0.00     0.000 C 
BRANCH   5   6
ATOM      6  C   UNL     1       8.627  17.485  30.199  1.00  0.00     0.006 C 
BRANCH   6   7
ATOM      7  C   UNL     1       9.213  17.576  31.617  1.00  0.00     0.053 C 
BRANCH   7   8
ATOM      8  C   UNL     1       8.162  17.409  32.670  1.00  0.00     0.041 C 
ATOM      9  O   UNL     1       7.555  18.415  33.125  1.00  0.00    -0.550 OA
ATOM     10  O   UNL     1       7.828  16.140  33.125  1.00  0.00    -0.550 OA
ENDBRANCH   7   8
ENDBRANCH   6   7
ENDBRANCH   5   6
ENDBRANCH   4   5
ENDBRANCH   3   4
ENDBRANCH   2   3
ENDBRANCH   1   2
BRANCH   1  11
ATOM     11  C   UNL     1       6.185  18.383  25.191  1.00  0.00     0.000 C 
BRANCH  11  12
ATOM     12  C   UNL     1       5.396  19.607  24.710  1.00  0.00    -0.000 C 
BRANCH  12  13
ATOM     13  C   UNL     1       4.620  19.292  23.425  1.00  0.00    -0.000 C 
BRANCH  13  14
ATOM     14  C   UNL     1       4.015  20.568  22.821  1.00  0.00    -0.000 C 
BRANCH  14  15
ATOM     15  C   UNL     1       2.571  20.365  22.335  1.00  0.00    -0.000 C 
BRANCH  15  16
ATOM     16  C   UNL     1       1.529  20.840  23.364  1.00  0.00    -0.000 C 
BRANCH  16  17
ATOM     17  C   UNL     1       1.011  19.695  24.248  1.00  0.00    -0.003 C 
ATOM     18  C   UNL     1       0.237  18.643  23.455  1.00  0.00     0.004 C 
ENDBRANCH  16  17
ENDBRANCH  15  16
ENDBRANCH  14  15
ENDBRANCH  13  14
ENDBRANCH  12  13
ENDBRANCH  11  12
ENDBRANCH   1  11
TORSDOF 14
ENDMDL
MODEL 9
REMARK VINA RESULT:    12.883      5.395      6.912
REMARK INTER + INTRA:          22.591
REMARK INTER:                  23.206
REMARK INTRA:                  -0.615
REMARK UNBOUND:                -0.836
REMARK SMILES CCCCCCCCCCCCCCCC(=O)[O-]
REMARK SMILES IDX 9 1 10 2 11 3 12 4 13 5 14 6 15 7 16 8 17 9 18 10 8 11 7 12
REMARK SMILES IDX 6 13 5 14 4 15 3 16 2 17 1 18
REMARK H PARENT
REMARK Flexibility Score: inf
ROOT
ATOM      1  C   UNL     1       9.755  14.354  26.678  1.00  0.00     0.000 C 
ENDROOT
BRANCH   1   2
ATOM      2  C   UNL     1      11.065  13.595  26.436  1.00  0.00     0.000 C 
BRANCH   2   3
ATOM      3  C   UNL     1      11.046  12.228  27.135  1.00  0.00     0.000 C 
BRANCH   3   4
ATOM      4  C   UNL     1       9.819  11.385  26.751  1.00  0.00     0.000 C 
BRANCH   4   5
ATOM      5  C   UNL     1       9.938   9.922  27.212  1.00  0.00     0.000 C 
BRANCH   5   6
ATOM      6  C   UNL     1       8.574   9.289  27.540  1.00  0.00     0.006 C 
BRANCH   6   7
ATOM      7  C   UNL     1       7.502   9.506  26.460  1.00  0.00     0.053 C 
BRANCH   7   8
ATOM      8  C   UNL     1       6.286  10.188  27.005  1.00  0.00     0.041 C 
ATOM      9  O   UNL     1       5.861  11.247  26.472  1.00  0.00    -0.550 OA
ATOM     10  O   UNL     1       5.602   9.636  28.080  1.00  0.00    -0.550 OA
ENDBRANCH   7   8
ENDBRANCH   6   7
ENDBRANCH   5   6
ENDBRANCH   4   5
ENDBRANCH   3   4
ENDBRANCH   2   3
ENDBRANCH   1   2
BRANCH   1  11
ATOM     11  C   UNL     1      10.026  15.796  27.120  1.00  0.00     0.000 C 
BRANCH  11  12
ATOM     12  C   UNL     1       8.716  16.564  27.330  1.00  0.00    -0.000 C 
BRANCH  12  13
ATOM     13  C   UNL     1       8.979  17.945  27.944  1.00  0.00    -0.000 C 
BRANCH  13  14
ATOM     14  C   UNL     1       9.513  17.817  29.379  1.00  0.00    -0.000 C 
BRANCH  14  15
ATOM     15  C   UNL     1       8.408  17.483  30.393  1.00  0.00    -0.000 C 
BRANCH  15  16
ATOM     16  C   UNL     1       8.937  17.393  31.836  1.00  0.00    -0.000 C 
BRANCH  16  17
ATOM     17  C   UNL     1       7.832  17.609  32.882  1.00  0.00    -0.003 C 
ATOM     18  C   UNL     1       7.487  19.085  33.077  1.00  0.00     0.004 C 
ENDBRANCH  16  17
ENDBRANCH  15  16
ENDBRANCH  14  15
ENDBRANCH  13  14
ENDBRANCH  12  13
ENDBRANCH  11  12
ENDBRANCH   1  11
TORSDOF 14
ENDMDL
