MODEL 1
REMARK VINA RESULT:    -4.734      0.000      0.000
REMARK INTER + INTRA:          -5.830
REMARK INTER:                  -5.703
REMARK INTRA:                  -0.127
REMARK UNBOUND:                -0.127
REMARK SMILES CC[C@H](C)[C@H]([NH3+])C(=O)[O-]
REMARK SMILES IDX 3 1 4 2 5 3 6 4 7 8 8 9 9 10 2 11 1 12
REMARK H PARENT 6 5 6 6 6 7
REMARK Flexibility Score: inf
ROOT
ATOM      1  C   UNL     1     -18.901  13.307 -13.425  1.00  0.00     0.050 C 
ATOM      2  C   UNL     1     -20.147  13.702 -14.242  1.00  0.00     0.014 C 
ENDROOT
BRANCH   1   3
ATOM      3  C   UNL     1     -17.666  12.979 -14.322  1.00  0.00     0.230 C 
BRANCH   3   4
ATOM      4  N   UNL     1     -17.824  11.703 -15.035  1.00  0.00    -0.350 N 
ATOM      5  H   UNL     1     -18.417  11.057 -14.463  1.00  0.00     0.345 HD
ATOM      6  H   UNL     1     -16.892  11.249 -15.171  1.00  0.00     0.345 HD
ATOM      7  H   UNL     1     -18.282  11.834 -15.964  1.00  0.00     0.345 HD
ENDBRANCH   3   4
BRANCH   3   8
ATOM      8  C   UNL     1     -16.366  13.009 -13.553  1.00  0.00     0.099 C 
ATOM      9  O   UNL     1     -16.181  13.848 -12.631  1.00  0.00    -0.544 OA
ATOM     10  O   UNL     1     -15.347  12.125 -13.885  1.00  0.00    -0.544 OA
ENDBRANCH   3   8
ENDBRANCH   1   3
BRANCH   1  11
ATOM     11  C   UNL     1     -19.209  12.128 -12.468  1.00  0.00     0.006 C 
ATOM     12  C   UNL     1     -19.057  12.497 -10.991  1.00  0.00     0.004 C 
ENDBRANCH   1  11
TORSDOF 4
ENDMDL
MODEL 2
REMARK VINA RESULT:    -4.677      1.763      2.518
REMARK INTER + INTRA:          -5.761
REMARK INTER:                  -5.753
REMARK INTRA:                  -0.008
REMARK UNBOUND:                -0.127
REMARK SMILES CC[C@H](C)[C@H]([NH3+])C(=O)[O-]
REMARK SMILES IDX 3 1 4 2 5 3 6 4 7 8 8 9 9 10 2 11 1 12
REMARK H PARENT 6 5 6 6 6 7
REMARK Flexibility Score: inf
ROOT
ATOM      1  C   UNL     1     -19.519  12.513 -13.228  1.00  0.00     0.050 C 
ATOM      2  C   UNL     1     -20.683  11.982 -12.367  1.00  0.00     0.014 C 
ENDROOT
BRANCH   1   3
ATOM      3  C   UNL     1     -18.213  12.746 -12.406  1.00  0.00     0.230 C 
BRANCH   3   4
ATOM      4  N   UNL     1     -18.377  13.802 -11.396  1.00  0.00    -0.350 N 
ATOM      5  H   UNL     1     -18.746  14.668 -11.854  1.00  0.00     0.345 HD
ATOM      6  H   UNL     1     -17.453  14.034 -10.965  1.00  0.00     0.345 HD
ATOM      7  H   UNL     1     -19.045  13.518 -10.645  1.00  0.00     0.345 HD
ENDBRANCH   3   4
BRANCH   3   8
ATOM      8  C   UNL     1     -17.016  13.023 -13.285  1.00  0.00     0.099 C 
ATOM      9  O   UNL     1     -16.083  13.770 -12.887  1.00  0.00    -0.544 OA
ATOM     10  O   UNL     1     -16.955  12.476 -14.560  1.00  0.00    -0.544 OA
ENDBRANCH   3   8
ENDBRANCH   1   3
BRANCH   1  11
ATOM     11  C   UNL     1     -19.926  13.803 -13.985  1.00  0.00     0.006 C 
ATOM     12  C   UNL     1     -21.438  13.938 -14.174  1.00  0.00     0.004 C 
ENDBRANCH   1  11
TORSDOF 4
ENDMDL
MODEL 3
REMARK VINA RESULT:    -4.563      0.737      1.822
REMARK INTER + INTRA:          -5.624
REMARK INTER:                  -5.749
REMARK INTRA:                   0.125
REMARK UNBOUND:                -0.127
REMARK SMILES CC[C@H](C)[C@H]([NH3+])C(=O)[O-]
REMARK SMILES IDX 3 1 4 2 5 3 6 4 7 8 8 9 9 10 2 11 1 12
REMARK H PARENT 6 5 6 6 6 7
REMARK Flexibility Score: inf
ROOT
ATOM      1  C   UNL     1     -18.861  12.475 -13.860  1.00  0.00     0.050 C 
ATOM      2  C   UNL     1     -18.733  11.960 -12.413  1.00  0.00     0.014 C 
ENDROOT
BRANCH   1   3
ATOM      3  C   UNL     1     -17.479  12.724 -14.541  1.00  0.00     0.230 C 
BRANCH   3   4
ATOM      4  N   UNL     1     -17.135  11.662 -15.499  1.00  0.00    -0.350 N 
ATOM      5  H   UNL     1     -17.644  11.828 -16.398  1.00  0.00     0.345 HD
ATOM      6  H   UNL     1     -17.433  10.732 -15.126  1.00  0.00     0.345 HD
ATOM      7  H   UNL     1     -16.110  11.641 -15.700  1.00  0.00     0.345 HD
ENDBRANCH   3   4
BRANCH   3   8
ATOM      8  C   UNL     1     -16.366  12.927 -13.539  1.00  0.00     0.099 C 
ATOM      9  O   UNL     1     -16.372  13.918 -12.761  1.00  0.00    -0.544 OA
ATOM     10  O   UNL     1     -15.305  12.032 -13.495  1.00  0.00    -0.544 OA
ENDBRANCH   3   8
ENDBRANCH   1   3
BRANCH   1  11
ATOM     11  C   UNL     1     -19.738  13.752 -13.925  1.00  0.00     0.006 C 
ATOM     12  C   UNL     1     -21.238  13.449 -13.964  1.00  0.00     0.004 C 
ENDBRANCH   1  11
TORSDOF 4
ENDMDL
MODEL 4
REMARK VINA RESULT:    -4.509     19.287     19.881
REMARK INTER + INTRA:          -5.559
REMARK INTER:                  -5.600
REMARK INTRA:                   0.041
REMARK UNBOUND:                -0.127
REMARK SMILES CC[C@H](C)[C@H]([NH3+])C(=O)[O-]
REMARK SMILES IDX 3 1 4 2 5 3 6 4 7 8 8 9 9 10 2 11 1 12
REMARK H PARENT 6 5 6 6 6 7
REMARK Flexibility Score: inf
ROOT
ATOM      1  C   UNL     1     -14.210  -3.940 -22.696  1.00  0.00     0.050 C 
ATOM      2  C   UNL     1     -14.805  -3.736 -24.103  1.00  0.00     0.014 C 
ENDROOT
BRANCH   1   3
ATOM      3  C   UNL     1     -12.662  -3.743 -22.657  1.00  0.00     0.230 C 
BRANCH   3   4
ATOM      4  N   UNL     1     -11.958  -4.741 -23.477  1.00  0.00    -0.350 N 
ATOM      5  H   UNL     1     -11.491  -4.262 -24.282  1.00  0.00     0.345 HD
ATOM      6  H   UNL     1     -12.639  -5.433 -23.865  1.00  0.00     0.345 HD
ATOM      7  H   UNL     1     -11.228  -5.247 -22.927  1.00  0.00     0.345 HD
ENDBRANCH   3   4
BRANCH   3   8
ATOM      8  C   UNL     1     -12.115  -3.720 -21.249  1.00  0.00     0.099 C 
ATOM      9  O   UNL     1     -10.929  -4.073 -21.012  1.00  0.00    -0.544 OA
ATOM     10  O   UNL     1     -12.936  -3.338 -20.196  1.00  0.00    -0.544 OA
ENDBRANCH   3   8
ENDBRANCH   1   3
BRANCH   1  11
ATOM     11  C   UNL     1     -14.599  -5.324 -22.118  1.00  0.00     0.006 C 
ATOM     12  C   UNL     1     -15.782  -5.968 -22.843  1.00  0.00     0.004 C 
ENDBRANCH   1  11
TORSDOF 4
ENDMDL
MODEL 5
REMARK VINA RESULT:    -4.438     18.570     19.346
REMARK INTER + INTRA:          -5.473
REMARK INTER:                  -5.347
REMARK INTRA:                  -0.126
REMARK UNBOUND:                -0.127
REMARK SMILES CC[C@H](C)[C@H]([NH3+])C(=O)[O-]
REMARK SMILES IDX 3 1 4 2 5 3 6 4 7 8 8 9 9 10 2 11 1 12
REMARK H PARENT 6 5 6 6 6 7
REMARK Flexibility Score: inf
ROOT
ATOM      1  C   UNL     1     -13.702  -4.508 -22.204  1.00  0.00     0.050 C 
ATOM      2  C   UNL     1     -15.000  -5.339 -22.235  1.00  0.00     0.014 C 
ENDROOT
BRANCH   1   3
ATOM      3  C   UNL     1     -13.374  -3.945 -20.786  1.00  0.00     0.230 C 
BRANCH   3   4
ATOM      4  N   UNL     1     -14.250  -2.822 -20.420  1.00  0.00    -0.350 N 
ATOM      5  H   UNL     1     -13.997  -1.984 -20.993  1.00  0.00     0.345 HD
ATOM      6  H   UNL     1     -14.117  -2.575 -19.413  1.00  0.00     0.345 HD
ATOM      7  H   UNL     1     -15.256  -3.046 -20.590  1.00  0.00     0.345 HD
ENDBRANCH   3   4
BRANCH   3   8
ATOM      8  C   UNL     1     -11.920  -3.566 -20.633  1.00  0.00     0.099 C 
ATOM      9  O   UNL     1     -11.574  -2.631 -19.863  1.00  0.00    -0.544 OA
ATOM     10  O   UNL     1     -10.952  -4.232 -21.375  1.00  0.00    -0.544 OA
ENDBRANCH   3   8
ENDBRANCH   1   3
BRANCH   1  11
ATOM     11  C   UNL     1     -13.745  -3.363 -23.248  1.00  0.00     0.006 C 
ATOM     12  C   UNL     1     -12.709  -3.527 -24.363  1.00  0.00     0.004 C 
ENDBRANCH   1  11
TORSDOF 4
ENDMDL
MODEL 6
REMARK VINA RESULT:    -4.343      3.006      3.894
REMARK INTER + INTRA:          -5.359
REMARK INTER:                  -5.313
REMARK INTRA:                  -0.046
REMARK UNBOUND:                -0.127
REMARK SMILES CC[C@H](C)[C@H]([NH3+])C(=O)[O-]
REMARK SMILES IDX 3 1 4 2 5 3 6 4 7 8 8 9 9 10 2 11 1 12
REMARK H PARENT 6 5 6 6 6 7
REMARK Flexibility Score: inf
ROOT
ATOM      1  C   UNL     1     -17.610  12.680 -13.245  1.00  0.00     0.050 C 
ATOM      2  C   UNL     1     -17.876  12.281 -14.711  1.00  0.00     0.014 C 
ENDROOT
BRANCH   1   3
ATOM      3  C   UNL     1     -18.720  13.606 -12.656  1.00  0.00     0.230 C 
BRANCH   3   4
ATOM      4  N   UNL     1     -18.641  13.701 -11.191  1.00  0.00    -0.350 N 
ATOM      5  H   UNL     1     -17.646  13.580 -10.888  1.00  0.00     0.345 HD
ATOM      6  H   UNL     1     -19.207  12.940 -10.750  1.00  0.00     0.345 HD
ATOM      7  H   UNL     1     -18.980  14.626 -10.845  1.00  0.00     0.345 HD
ENDBRANCH   3   4
BRANCH   3   8
ATOM      8  C   UNL     1     -20.107  13.202 -13.096  1.00  0.00     0.099 C 
ATOM      9  O   UNL     1     -20.629  12.132 -12.682  1.00  0.00    -0.544 OA
ATOM     10  O   UNL     1     -20.806  13.998 -13.995  1.00  0.00    -0.544 OA
ENDBRANCH   3   8
ENDBRANCH   1   3
BRANCH   1  11
ATOM     11  C   UNL     1     -16.213  13.333 -13.086  1.00  0.00     0.006 C 
ATOM     12  C   UNL     1     -15.065  12.400 -13.478  1.00  0.00     0.004 C 
ENDBRANCH   1  11
TORSDOF 4
ENDMDL
MODEL 7
REMARK VINA RESULT:    -4.118     18.627     19.390
REMARK INTER + INTRA:          -5.088
REMARK INTER:                  -5.480
REMARK INTRA:                   0.392
REMARK UNBOUND:                -0.127
REMARK SMILES CC[C@H](C)[C@H]([NH3+])C(=O)[O-]
REMARK SMILES IDX 3 1 4 2 5 3 6 4 7 8 8 9 9 10 2 11 1 12
REMARK H PARENT 6 5 6 6 6 7
REMARK Flexibility Score: inf
ROOT
ATOM      1  C   UNL     1     -13.406  -3.635 -22.629  1.00  0.00     0.050 C 
ATOM      2  C   UNL     1     -12.314  -4.307 -23.485  1.00  0.00     0.014 C 
ENDROOT
BRANCH   1   3
ATOM      3  C   UNL     1     -13.177  -3.822 -21.096  1.00  0.00     0.230 C 
BRANCH   3   4
ATOM      4  N   UNL     1     -14.134  -3.043 -20.295  1.00  0.00    -0.350 N 
ATOM      5  H   UNL     1     -14.984  -2.842 -20.870  1.00  0.00     0.345 HD
ATOM      6  H   UNL     1     -13.709  -2.129 -20.016  1.00  0.00     0.345 HD
ATOM      7  H   UNL     1     -14.430  -3.561 -19.438  1.00  0.00     0.345 HD
ENDBRANCH   3   4
BRANCH   3   8
ATOM      8  C   UNL     1     -11.756  -3.521 -20.681  1.00  0.00     0.099 C 
ATOM      9  O   UNL     1     -10.811  -4.284 -21.015  1.00  0.00    -0.544 OA
ATOM     10  O   UNL     1     -11.488  -2.409 -19.892  1.00  0.00    -0.544 OA
ENDBRANCH   3   8
ENDBRANCH   1   3
BRANCH   1  11
ATOM     11  C   UNL     1     -14.818  -4.130 -23.033  1.00  0.00     0.006 C 
ATOM     12  C   UNL     1     -15.136  -5.533 -22.511  1.00  0.00     0.004 C 
ENDBRANCH   1  11
TORSDOF 4
ENDMDL
MODEL 8
REMARK VINA RESULT:    -4.096      2.979      4.052
REMARK INTER + INTRA:          -5.061
REMARK INTER:                  -5.014
REMARK INTRA:                  -0.047
REMARK UNBOUND:                -0.127
REMARK SMILES CC[C@H](C)[C@H]([NH3+])C(=O)[O-]
REMARK SMILES IDX 3 1 4 2 5 3 6 4 7 8 8 9 9 10 2 11 1 12
REMARK H PARENT 6 5 6 6 6 7
REMARK Flexibility Score: inf
ROOT
ATOM      1  C   UNL     1     -18.256  13.369 -13.401  1.00  0.00     0.050 C 
ATOM      2  C   UNL     1     -17.163  13.655 -12.352  1.00  0.00     0.014 C 
ENDROOT
BRANCH   1   3
ATOM      3  C   UNL     1     -19.650  13.076 -12.763  1.00  0.00     0.230 C 
BRANCH   3   4
ATOM      4  N   UNL     1     -19.721  11.725 -12.186  1.00  0.00    -0.350 N 
ATOM      5  H   UNL     1     -20.679  11.332 -12.338  1.00  0.00     0.345 HD
ATOM      6  H   UNL     1     -19.548  11.764 -11.155  1.00  0.00     0.345 HD
ATOM      7  H   UNL     1     -19.027  11.080 -12.626  1.00  0.00     0.345 HD
ENDBRANCH   3   4
BRANCH   3   8
ATOM      8  C   UNL     1     -20.791  13.312 -13.725  1.00  0.00     0.099 C 
ATOM      9  O   UNL     1     -20.671  14.125 -14.680  1.00  0.00    -0.544 OA
ATOM     10  O   UNL     1     -21.999  12.652 -13.537  1.00  0.00    -0.544 OA
ENDBRANCH   3   8
ENDBRANCH   1   3
BRANCH   1  11
ATOM     11  C   UNL     1     -17.836  12.215 -14.347  1.00  0.00     0.006 C 
ATOM     12  C   UNL     1     -16.447  12.413 -14.958  1.00  0.00     0.004 C 
ENDBRANCH   1  11
TORSDOF 4
ENDMDL
MODEL 9
REMARK VINA RESULT:    -3.930     19.207     19.959
REMARK INTER + INTRA:          -4.861
REMARK INTER:                  -4.799
REMARK INTRA:                  -0.063
REMARK UNBOUND:                -0.127
REMARK SMILES CC[C@H](C)[C@H]([NH3+])C(=O)[O-]
REMARK SMILES IDX 3 1 4 2 5 3 6 4 7 8 8 9 9 10 2 11 1 12
REMARK H PARENT 6 5 6 6 6 7
REMARK Flexibility Score: inf
ROOT
ATOM      1  C   UNL     1     -13.106  -4.466 -21.878  1.00  0.00     0.050 C 
ATOM      2  C   UNL     1     -11.587  -4.304 -22.087  1.00  0.00     0.014 C 
ENDROOT
BRANCH   1   3
ATOM      3  C   UNL     1     -13.904  -4.504 -23.219  1.00  0.00     0.230 C 
BRANCH   3   4
ATOM      4  N   UNL     1     -13.982  -3.179 -23.853  1.00  0.00    -0.350 N 
ATOM      5  H   UNL     1     -14.711  -2.605 -23.369  1.00  0.00     0.345 HD
ATOM      6  H   UNL     1     -14.263  -3.277 -24.856  1.00  0.00     0.345 HD
ATOM      7  H   UNL     1     -13.072  -2.671 -23.798  1.00  0.00     0.345 HD
ENDBRANCH   3   4
BRANCH   3   8
ATOM      8  C   UNL     1     -15.279  -5.108 -23.059  1.00  0.00     0.099 C 
ATOM      9  O   UNL     1     -15.486  -6.031 -22.228  1.00  0.00    -0.544 OA
ATOM     10  O   UNL     1     -16.324  -4.665 -23.861  1.00  0.00    -0.544 OA
ENDBRANCH   3   8
ENDBRANCH   1   3
BRANCH   1  11
ATOM     11  C   UNL     1     -13.664  -3.362 -20.943  1.00  0.00     0.006 C 
ATOM     12  C   UNL     1     -12.837  -3.180 -19.668  1.00  0.00     0.004 C 
ENDBRANCH   1  11
TORSDOF 4
ENDMDL
