MODEL 1
REMARK VINA RESULT:    -5.595      0.000      0.000
REMARK INTER + INTRA:          -6.708
REMARK INTER:                  -6.576
REMARK INTRA:                  -0.132
REMARK UNBOUND:                -0.132
REMARK SMILES O=C([O-])C=Cc1ccc(O)c(O)c1
REMARK SMILES IDX 6 1 13 2 7 3 11 4 8 5 9 6 5 7 4 8 2 9 1 10 3 11 12 12 10 14
REMARK H PARENT 12 13 10 15
REMARK Flexibility Score: inf
ROOT
ATOM      1  C   UNL     1       9.640  69.497   0.290  1.00  0.00    -0.022 A 
ATOM      2  C   UNL     1       9.569  70.125  -0.969  1.00  0.00     0.058 A 
ATOM      3  C   UNL     1       9.612  68.096   0.349  1.00  0.00     0.012 A 
ATOM      4  C   UNL     1       9.444  69.373  -2.144  1.00  0.00     0.157 A 
ATOM      5  C   UNL     1       9.485  67.339  -0.817  1.00  0.00     0.051 A 
ATOM      6  C   UNL     1       9.396  67.960  -2.067  1.00  0.00     0.157 A 
ENDROOT
BRANCH   1   7
ATOM      7  C   UNL     1       9.785  70.258   1.556  1.00  0.00     0.010 C 
ATOM      8  C   UNL     1       8.782  70.460   2.421  1.00  0.00     0.025 C 
BRANCH   8   9
ATOM      9  C   UNL     1       8.974  71.212   3.671  1.00  0.00     0.064 C 
ATOM     10  O   UNL     1       9.859  70.845   4.488  1.00  0.00    -0.545 OA
ATOM     11  O   UNL     1       8.192  72.324   3.967  1.00  0.00    -0.545 OA
ENDBRANCH   8   9
ENDBRANCH   1   7
BRANCH   4  12
ATOM     12  O   UNL     1       9.379  70.063  -3.356  1.00  0.00    -0.504 OA
ATOM     13  H   UNL     1      10.188  70.395  -3.861  1.00  0.00     0.293 HD
ENDBRANCH   4  12
BRANCH   6  14
ATOM     14  O   UNL     1       9.264  67.146  -3.193  1.00  0.00    -0.504 OA
ATOM     15  H   UNL     1       8.739  67.402  -4.017  1.00  0.00     0.293 HD
ENDBRANCH   6  14
TORSDOF 4
ENDMDL
MODEL 2
REMARK VINA RESULT:    -5.531      2.803      3.548
REMARK INTER + INTRA:          -6.633
REMARK INTER:                  -6.500
REMARK INTRA:                  -0.133
REMARK UNBOUND:                -0.132
REMARK SMILES O=C([O-])C=Cc1ccc(O)c(O)c1
REMARK SMILES IDX 6 1 13 2 7 3 11 4 8 5 9 6 5 7 4 8 2 9 1 10 3 11 12 12 10 14
REMARK H PARENT 12 13 10 15
REMARK Flexibility Score: inf
ROOT
ATOM      1  C   UNL     1       9.869  69.695  -0.694  1.00  0.00    -0.022 A 
ATOM      2  C   UNL     1      10.121  71.080  -0.636  1.00  0.00     0.058 A 
ATOM      3  C   UNL     1      10.235  68.988  -1.848  1.00  0.00     0.012 A 
ATOM      4  C   UNL     1      10.702  71.752  -1.719  1.00  0.00     0.157 A 
ATOM      5  C   UNL     1      10.812  69.651  -2.932  1.00  0.00     0.051 A 
ATOM      6  C   UNL     1      11.047  71.028  -2.885  1.00  0.00     0.157 A 
ENDROOT
BRANCH   1   7
ATOM      7  C   UNL     1       9.266  68.945   0.437  1.00  0.00     0.010 C 
ATOM      8  C   UNL     1       9.918  68.011   1.141  1.00  0.00     0.025 C 
BRANCH   8   9
ATOM      9  C   UNL     1       9.285  67.300   2.263  1.00  0.00     0.064 C 
ATOM     10  O   UNL     1       9.450  67.720   3.438  1.00  0.00    -0.545 OA
ATOM     11  O   UNL     1       8.505  66.168   2.048  1.00  0.00    -0.545 OA
ENDBRANCH   8   9
ENDBRANCH   1   7
BRANCH   4  12
ATOM     12  O   UNL     1      10.922  73.125  -1.592  1.00  0.00    -0.504 OA
ATOM     13  H   UNL     1      11.694  73.615  -2.022  1.00  0.00     0.293 HD
ENDBRANCH   4  12
BRANCH   6  14
ATOM     14  O   UNL     1      11.621  71.631  -4.006  1.00  0.00    -0.504 OA
ATOM     15  H   UNL     1      11.576  71.247  -4.940  1.00  0.00     0.293 HD
ENDBRANCH   6  14
TORSDOF 4
ENDMDL
MODEL 3
REMARK VINA RESULT:    -5.520      1.854      5.403
REMARK INTER + INTRA:          -6.620
REMARK INTER:                  -6.496
REMARK INTRA:                  -0.124
REMARK UNBOUND:                -0.132
REMARK SMILES O=C([O-])C=Cc1ccc(O)c(O)c1
REMARK SMILES IDX 6 1 13 2 7 3 11 4 8 5 9 6 5 7 4 8 2 9 1 10 3 11 12 12 10 14
REMARK H PARENT 12 13 10 15
REMARK Flexibility Score: inf
ROOT
ATOM      1  C   UNL     1       9.766  69.001  -0.131  1.00  0.00    -0.022 A 
ATOM      2  C   UNL     1      10.028  69.780   1.013  1.00  0.00     0.058 A 
ATOM      3  C   UNL     1       9.362  67.669   0.036  1.00  0.00     0.012 A 
ATOM      4  C   UNL     1       9.917  69.234   2.298  1.00  0.00     0.157 A 
ATOM      5  C   UNL     1       9.252  67.116   1.312  1.00  0.00     0.051 A 
ATOM      6  C   UNL     1       9.529  67.882   2.449  1.00  0.00     0.157 A 
ENDROOT
BRANCH   1   7
ATOM      7  C   UNL     1       9.860  69.547  -1.509  1.00  0.00     0.010 C 
ATOM      8  C   UNL     1      10.891  70.282  -1.948  1.00  0.00     0.025 C 
BRANCH   8   9
ATOM      9  C   UNL     1      10.948  70.793  -3.327  1.00  0.00     0.064 C 
ATOM     10  O   UNL     1      10.016  70.525  -4.129  1.00  0.00    -0.545 OA
ATOM     11  O   UNL     1      12.019  71.568  -3.761  1.00  0.00    -0.545 OA
ENDBRANCH   8   9
ENDBRANCH   1   7
BRANCH   4  12
ATOM     12  O   UNL     1      10.192  70.065   3.386  1.00  0.00    -0.504 OA
ATOM     13  H   UNL     1       9.659  70.892   3.614  1.00  0.00     0.293 HD
ENDBRANCH   4  12
BRANCH   6  14
ATOM     14  O   UNL     1       9.405  67.266   3.697  1.00  0.00    -0.504 OA
ATOM     15  H   UNL     1      10.064  66.594   4.063  1.00  0.00     0.293 HD
ENDBRANCH   6  14
TORSDOF 4
ENDMDL
MODEL 4
REMARK VINA RESULT:    -5.450      0.831      1.939
REMARK INTER + INTRA:          -6.538
REMARK INTER:                  -6.413
REMARK INTRA:                  -0.126
REMARK UNBOUND:                -0.132
REMARK SMILES O=C([O-])C=Cc1ccc(O)c(O)c1
REMARK SMILES IDX 6 1 13 2 7 3 11 4 8 5 9 6 5 7 4 8 2 9 1 10 3 11 12 12 10 14
REMARK H PARENT 12 13 10 15
REMARK Flexibility Score: inf
ROOT
ATOM      1  C   UNL     1       9.707  69.311   0.324  1.00  0.00    -0.022 A 
ATOM      2  C   UNL     1       9.856  67.911   0.331  1.00  0.00     0.058 A 
ATOM      3  C   UNL     1       9.378  69.950  -0.880  1.00  0.00     0.012 A 
ATOM      4  C   UNL     1       9.707  67.164  -0.844  1.00  0.00     0.157 A 
ATOM      5  C   UNL     1       9.231  69.214  -2.057  1.00  0.00     0.051 A 
ATOM      6  C   UNL     1       9.395  67.825  -2.056  1.00  0.00     0.157 A 
ENDROOT
BRANCH   1   7
ATOM      7  C   UNL     1       9.845  70.136   1.551  1.00  0.00     0.010 C 
ATOM      8  C   UNL     1       8.852  70.338   2.427  1.00  0.00     0.025 C 
BRANCH   8   9
ATOM      9  C   UNL     1       9.037  71.154   3.638  1.00  0.00     0.064 C 
ATOM     10  O   UNL     1       9.921  70.833   4.474  1.00  0.00    -0.545 OA
ATOM     11  O   UNL     1       8.250  72.276   3.874  1.00  0.00    -0.545 OA
ENDBRANCH   8   9
ENDBRANCH   1   7
BRANCH   4  12
ATOM     12  O   UNL     1       9.868  65.779  -0.762  1.00  0.00    -0.504 OA
ATOM     13  H   UNL     1      10.633  65.328  -0.282  1.00  0.00     0.293 HD
ENDBRANCH   4  12
BRANCH   6  14
ATOM     14  O   UNL     1       9.240  67.149  -3.268  1.00  0.00    -0.504 OA
ATOM     15  H   UNL     1       8.369  67.092  -3.775  1.00  0.00     0.293 HD
ENDBRANCH   6  14
TORSDOF 4
ENDMDL
MODEL 5
REMARK VINA RESULT:    -5.401      2.339      5.455
REMARK INTER + INTRA:          -6.480
REMARK INTER:                  -6.339
REMARK INTRA:                  -0.141
REMARK UNBOUND:                -0.132
REMARK SMILES O=C([O-])C=Cc1ccc(O)c(O)c1
REMARK SMILES IDX 6 1 13 2 7 3 11 4 8 5 9 6 5 7 4 8 2 9 1 10 3 11 12 12 10 14
REMARK H PARENT 12 13 10 15
REMARK Flexibility Score: inf
ROOT
ATOM      1  C   UNL     1       9.654  68.999  -0.161  1.00  0.00    -0.022 A 
ATOM      2  C   UNL     1       9.144  67.699   0.023  1.00  0.00     0.058 A 
ATOM      3  C   UNL     1      10.111  69.711   0.958  1.00  0.00     0.012 A 
ATOM      4  C   UNL     1       9.064  67.130   1.300  1.00  0.00     0.157 A 
ATOM      5  C   UNL     1      10.033  69.152   2.234  1.00  0.00     0.051 A 
ATOM      6  C   UNL     1       9.510  67.868   2.422  1.00  0.00     0.157 A 
ENDROOT
BRANCH   1   7
ATOM      7  C   UNL     1       9.766  69.632  -1.499  1.00  0.00     0.010 C 
ATOM      8  C   UNL     1      10.911  70.116  -2.000  1.00  0.00     0.025 C 
BRANCH   8   9
ATOM      9  C   UNL     1      10.978  70.725  -3.338  1.00  0.00     0.064 C 
ATOM     10  O   UNL     1      10.040  70.533  -4.155  1.00  0.00    -0.545 OA
ATOM     11  O   UNL     1      12.062  71.511  -3.715  1.00  0.00    -0.545 OA
ENDBRANCH   8   9
ENDBRANCH   1   7
BRANCH   4  12
ATOM     12  O   UNL     1       8.547  65.837   1.407  1.00  0.00    -0.504 OA
ATOM     13  H   UNL     1       7.916  65.540   2.137  1.00  0.00     0.293 HD
ENDBRANCH   4  12
BRANCH   6  14
ATOM     14  O   UNL     1       9.454  67.370   3.725  1.00  0.00    -0.504 OA
ATOM     15  H   UNL     1       8.646  66.910   4.120  1.00  0.00     0.293 HD
ENDBRANCH   6  14
TORSDOF 4
ENDMDL
MODEL 6
REMARK VINA RESULT:    -5.391      1.377      5.735
REMARK INTER + INTRA:          -6.469
REMARK INTER:                  -6.327
REMARK INTRA:                  -0.141
REMARK UNBOUND:                -0.132
REMARK SMILES O=C([O-])C=Cc1ccc(O)c(O)c1
REMARK SMILES IDX 6 1 13 2 7 3 11 4 8 5 9 6 5 7 4 8 2 9 1 10 3 11 12 12 10 14
REMARK H PARENT 12 13 10 15
REMARK Flexibility Score: inf
ROOT
ATOM      1  C   UNL     1       9.711  69.575   0.913  1.00  0.00    -0.022 A 
ATOM      2  C   UNL     1      10.107  70.927   0.878  1.00  0.00     0.058 A 
ATOM      3  C   UNL     1       8.970  69.116   2.012  1.00  0.00     0.012 A 
ATOM      4  C   UNL     1       9.794  71.798   1.929  1.00  0.00     0.157 A 
ATOM      5  C   UNL     1       8.657  69.977   3.065  1.00  0.00     0.051 A 
ATOM      6  C   UNL     1       9.063  71.315   3.041  1.00  0.00     0.157 A 
ENDROOT
BRANCH   1   7
ATOM      7  C   UNL     1      10.013  68.625  -0.186  1.00  0.00     0.010 C 
ATOM      8  C   UNL     1       9.117  67.771  -0.698  1.00  0.00     0.025 C 
BRANCH   8   9
ATOM      9  C   UNL     1       9.457  66.853  -1.798  1.00  0.00     0.064 C 
ATOM     10  O   UNL     1       9.234  67.200  -2.987  1.00  0.00    -0.545 OA
ATOM     11  O   UNL     1      10.020  65.608  -1.544  1.00  0.00    -0.545 OA
ENDBRANCH   8   9
ENDBRANCH   1   7
BRANCH   4  12
ATOM     12  O   UNL     1      10.219  73.124   1.826  1.00  0.00    -0.504 OA
ATOM     13  H   UNL     1       9.839  73.788   1.167  1.00  0.00     0.293 HD
ENDBRANCH   4  12
BRANCH   6  14
ATOM     14  O   UNL     1       8.723  72.121   4.129  1.00  0.00    -0.504 OA
ATOM     15  H   UNL     1       8.966  71.910   5.086  1.00  0.00     0.293 HD
ENDBRANCH   6  14
TORSDOF 4
ENDMDL
MODEL 7
REMARK VINA RESULT:    -5.147      1.706      5.902
REMARK INTER + INTRA:          -6.182
REMARK INTER:                  -6.029
REMARK INTRA:                  -0.152
REMARK UNBOUND:                -0.132
REMARK SMILES O=C([O-])C=Cc1ccc(O)c(O)c1
REMARK SMILES IDX 6 1 13 2 7 3 11 4 8 5 9 6 5 7 4 8 2 9 1 10 3 11 12 12 10 14
REMARK H PARENT 12 13 10 15
REMARK Flexibility Score: inf
ROOT
ATOM      1  C   UNL     1       9.973  70.131   0.381  1.00  0.00    -0.022 A 
ATOM      2  C   UNL     1       9.826  69.007   1.217  1.00  0.00     0.058 A 
ATOM      3  C   UNL     1       9.894  71.411   0.950  1.00  0.00     0.012 A 
ATOM      4  C   UNL     1       9.578  69.154   2.587  1.00  0.00     0.157 A 
ATOM      5  C   UNL     1       9.644  71.567   2.314  1.00  0.00     0.051 A 
ATOM      6  C   UNL     1       9.481  70.452   3.143  1.00  0.00     0.157 A 
ENDROOT
BRANCH   1   7
ATOM      7  C   UNL     1      10.248  70.016  -1.073  1.00  0.00     0.010 C 
ATOM      8  C   UNL     1      10.554  71.059  -1.857  1.00  0.00     0.025 C 
BRANCH   8   9
ATOM      9  C   UNL     1      10.832  70.897  -3.293  1.00  0.00     0.064 C 
ATOM     10  O   UNL     1      10.006  70.285  -4.020  1.00  0.00    -0.545 OA
ATOM     11  O   UNL     1      11.993  71.408  -3.861  1.00  0.00    -0.545 OA
ENDBRANCH   8   9
ENDBRANCH   1   7
BRANCH   4  12
ATOM     12  O   UNL     1       9.444  67.995   3.354  1.00  0.00    -0.504 OA
ATOM     13  H   UNL     1       8.877  67.203   3.086  1.00  0.00     0.293 HD
ENDBRANCH   4  12
BRANCH   6  14
ATOM     14  O   UNL     1       9.227  70.677   4.497  1.00  0.00    -0.504 OA
ATOM     15  H   UNL     1       8.307  70.646   4.913  1.00  0.00     0.293 HD
ENDBRANCH   6  14
TORSDOF 4
ENDMDL
MODEL 8
REMARK VINA RESULT:    -5.063      0.965      2.242
REMARK INTER + INTRA:          -6.082
REMARK INTER:                  -5.931
REMARK INTRA:                  -0.151
REMARK UNBOUND:                -0.132
REMARK SMILES O=C([O-])C=Cc1ccc(O)c(O)c1
REMARK SMILES IDX 6 1 13 2 7 3 11 4 8 5 9 6 5 7 4 8 2 9 1 10 3 11 12 12 10 14
REMARK H PARENT 12 13 10 15
REMARK Flexibility Score: inf
ROOT
ATOM      1  C   UNL     1       9.592  70.087  -0.062  1.00  0.00    -0.022 A 
ATOM      2  C   UNL     1       9.383  68.915  -0.814  1.00  0.00     0.058 A 
ATOM      3  C   UNL     1      10.050  71.238  -0.717  1.00  0.00     0.012 A 
ATOM      4  C   UNL     1       9.651  68.883  -2.189  1.00  0.00     0.157 A 
ATOM      5  C   UNL     1      10.323  71.215  -2.086  1.00  0.00     0.051 A 
ATOM      6  C   UNL     1      10.132  70.048  -2.832  1.00  0.00     0.157 A 
ENDROOT
BRANCH   1   7
ATOM      7  C   UNL     1       9.309  70.163   1.394  1.00  0.00     0.010 C 
ATOM      8  C   UNL     1       9.426  71.285   2.116  1.00  0.00     0.025 C 
BRANCH   8   9
ATOM      9  C   UNL     1       9.123  71.318   3.556  1.00  0.00     0.064 C 
ATOM     10  O   UNL     1       8.166  72.021   3.973  1.00  0.00    -0.545 OA
ATOM     11  O   UNL     1       9.877  70.583   4.465  1.00  0.00    -0.545 OA
ENDBRANCH   8   9
ENDBRANCH   1   7
BRANCH   4  12
ATOM     12  O   UNL     1       9.419  67.687  -2.871  1.00  0.00    -0.504 OA
ATOM     13  H   UNL     1       8.849  67.612  -3.702  1.00  0.00     0.293 HD
ENDBRANCH   4  12
BRANCH   6  14
ATOM     14  O   UNL     1      10.429  70.089  -4.196  1.00  0.00    -0.504 OA
ATOM     15  H   UNL     1      11.354  70.254  -4.568  1.00  0.00     0.293 HD
ENDBRANCH   6  14
TORSDOF 4
ENDMDL
MODEL 9
REMARK VINA RESULT:    -4.892      1.637      2.183
REMARK INTER + INTRA:          -5.882
REMARK INTER:                  -5.759
REMARK INTRA:                  -0.123
REMARK UNBOUND:                -0.132
REMARK SMILES O=C([O-])C=Cc1ccc(O)c(O)c1
REMARK SMILES IDX 6 1 13 2 7 3 11 4 8 5 9 6 5 7 4 8 2 9 1 10 3 11 12 12 10 14
REMARK H PARENT 12 13 10 15
REMARK Flexibility Score: inf
ROOT
ATOM      1  C   UNL     1       9.768  70.493  -0.357  1.00  0.00    -0.022 A 
ATOM      2  C   UNL     1      10.525  71.558  -0.883  1.00  0.00     0.058 A 
ATOM      3  C   UNL     1       9.439  69.418  -1.196  1.00  0.00     0.012 A 
ATOM      4  C   UNL     1      10.923  71.566  -2.226  1.00  0.00     0.157 A 
ATOM      5  C   UNL     1       9.829  69.419  -2.536  1.00  0.00     0.051 A 
ATOM      6  C   UNL     1      10.565  70.484  -3.065  1.00  0.00     0.157 A 
ENDROOT
BRANCH   1   7
ATOM      7  C   UNL     1       9.338  70.443   1.063  1.00  0.00     0.010 C 
ATOM      8  C   UNL     1       9.737  71.321   1.992  1.00  0.00     0.025 C 
BRANCH   8   9
ATOM      9  C   UNL     1       9.276  71.240   3.387  1.00  0.00     0.064 C 
ATOM     10  O   UNL     1       9.849  70.455   4.187  1.00  0.00    -0.545 OA
ATOM     11  O   UNL     1       8.215  72.017   3.838  1.00  0.00    -0.545 OA
ENDBRANCH   8   9
ENDBRANCH   1   7
BRANCH   4  12
ATOM     12  O   UNL     1      11.671  72.654  -2.679  1.00  0.00    -0.504 OA
ATOM     13  H   UNL     1      12.449  73.053  -2.173  1.00  0.00     0.293 HD
ENDBRANCH   4  12
BRANCH   6  14
ATOM     14  O   UNL     1      10.918  70.426  -4.415  1.00  0.00    -0.504 OA
ATOM     15  H   UNL     1      11.736  69.947  -4.765  1.00  0.00     0.293 HD
ENDBRANCH   6  14
TORSDOF 4
ENDMDL
