MODEL 1
REMARK VINA RESULT:    -4.586      0.000      0.000
REMARK INTER + INTRA:         -14.419
REMARK INTER:                 -10.484
REMARK INTRA:                  -3.935
REMARK UNBOUND:                -3.935
REMARK SMILES CCCCCCCCCCCCCCCCCCCCCCCC(=O)[O-]
REMARK SMILES IDX 13 1 14 2 15 3 16 4 17 5 18 6 19 7 20 8 21 9 22 10 23 11
REMARK SMILES IDX 24 12 25 13 26 14 12 15 11 16 10 17 9 18 8 19 7 20 6 21 5 22
REMARK SMILES IDX 4 23 3 24 2 25 1 26
REMARK H PARENT
REMARK Flexibility Score: inf
ROOT
ATOM      1  C   UNL     1      55.191  22.344  51.651  1.00  0.00     0.000 C 
ENDROOT
BRANCH   1   2
ATOM      2  C   UNL     1      55.397  21.362  52.814  1.00  0.00     0.000 C 
BRANCH   2   3
ATOM      3  C   UNL     1      56.717  21.606  53.567  1.00  0.00     0.000 C 
BRANCH   3   4
ATOM      4  C   UNL     1      56.712  20.995  54.977  1.00  0.00     0.000 C 
BRANCH   4   5
ATOM      5  C   UNL     1      56.781  22.063  56.083  1.00  0.00     0.000 C 
BRANCH   5   6
ATOM      6  C   UNL     1      56.288  23.444  55.613  1.00  0.00     0.000 C 
BRANCH   6   7
ATOM      7  C   UNL     1      54.815  23.756  55.936  1.00  0.00     0.000 C 
BRANCH   7   8
ATOM      8  C   UNL     1      54.122  24.574  54.833  1.00  0.00     0.000 C 
BRANCH   8   9
ATOM      9  C   UNL     1      52.773  23.974  54.398  1.00  0.00     0.000 C 
BRANCH   9  10
ATOM     10  C   UNL     1      52.599  22.468  54.683  1.00  0.00     0.006 C 
BRANCH  10  11
ATOM     11  C   UNL     1      51.774  21.709  53.632  1.00  0.00     0.053 C 
BRANCH  11  12
ATOM     12  C   UNL     1      50.322  22.071  53.694  1.00  0.00     0.041 C 
ATOM     13  O   UNL     1      49.680  22.304  52.635  1.00  0.00    -0.550 OA
ATOM     14  O   UNL     1      49.672  22.137  54.920  1.00  0.00    -0.550 OA
ENDBRANCH  11  12
ENDBRANCH  10  11
ENDBRANCH   9  10
ENDBRANCH   8   9
ENDBRANCH   7   8
ENDBRANCH   6   7
ENDBRANCH   5   6
ENDBRANCH   4   5
ENDBRANCH   3   4
ENDBRANCH   2   3
ENDBRANCH   1   2
BRANCH   1  15
ATOM     15  C   UNL     1      56.092  23.583  51.760  1.00  0.00     0.000 C 
BRANCH  15  16
ATOM     16  C   UNL     1      55.462  24.787  51.049  1.00  0.00     0.000 C 
BRANCH  16  17
ATOM     17  C   UNL     1      53.932  24.716  51.100  1.00  0.00     0.000 C 
BRANCH  17  18
ATOM     18  C   UNL     1      53.320  25.003  49.722  1.00  0.00    -0.000 C 
BRANCH  18  19
ATOM     19  C   UNL     1      53.765  23.994  48.648  1.00  0.00    -0.000 C 
BRANCH  19  20
ATOM     20  C   UNL     1      53.931  24.580  47.231  1.00  0.00    -0.000 C 
BRANCH  20  21
ATOM     21  C   UNL     1      55.358  25.048  46.881  1.00  0.00    -0.000 C 
BRANCH  21  22
ATOM     22  C   UNL     1      56.483  24.330  47.655  1.00  0.00    -0.000 C 
BRANCH  22  23
ATOM     23  C   UNL     1      57.356  23.384  46.807  1.00  0.00    -0.000 C 
BRANCH  23  24
ATOM     24  C   UNL     1      57.254  21.894  47.181  1.00  0.00    -0.000 C 
BRANCH  24  25
ATOM     25  C   UNL     1      56.307  21.639  48.361  1.00  0.00    -0.003 C 
ATOM     26  C   UNL     1      56.293  20.163  48.746  1.00  0.00     0.004 C 
ENDBRANCH  24  25
ENDBRANCH  23  24
ENDBRANCH  22  23
ENDBRANCH  21  22
ENDBRANCH  20  21
ENDBRANCH  19  20
ENDBRANCH  18  19
ENDBRANCH  17  18
ENDBRANCH  16  17
ENDBRANCH  15  16
ENDBRANCH   1  15
TORSDOF 22
ENDMDL
MODEL 2
REMARK VINA RESULT:    -4.513      0.986      1.750
REMARK INTER + INTRA:         -14.253
REMARK INTER:                 -10.085
REMARK INTRA:                  -4.167
REMARK UNBOUND:                -3.935
REMARK SMILES CCCCCCCCCCCCCCCCCCCCCCCC(=O)[O-]
REMARK SMILES IDX 13 1 14 2 15 3 16 4 17 5 18 6 19 7 20 8 21 9 22 10 23 11
REMARK SMILES IDX 24 12 25 13 26 14 12 15 11 16 10 17 9 18 8 19 7 20 6 21 5 22
REMARK SMILES IDX 4 23 3 24 2 25 1 26
REMARK H PARENT
REMARK Flexibility Score: inf
ROOT
ATOM      1  C   UNL     1      56.567  21.452  52.987  1.00  0.00     0.000 C 
ENDROOT
BRANCH   1   2
ATOM      2  C   UNL     1      55.944  20.991  54.313  1.00  0.00     0.000 C 
BRANCH   2   3
ATOM      3  C   UNL     1      56.799  21.375  55.533  1.00  0.00     0.000 C 
BRANCH   3   4
ATOM      4  C   UNL     1      56.209  22.558  56.316  1.00  0.00     0.000 C 
BRANCH   4   5
ATOM      5  C   UNL     1      56.640  23.920  55.742  1.00  0.00     0.000 C 
BRANCH   5   6
ATOM      6  C   UNL     1      55.447  24.841  55.428  1.00  0.00     0.000 C 
BRANCH   6   7
ATOM      7  C   UNL     1      54.094  24.372  55.991  1.00  0.00     0.000 C 
BRANCH   7   8
ATOM      8  C   UNL     1      53.003  24.262  54.913  1.00  0.00     0.000 C 
BRANCH   8   9
ATOM      9  C   UNL     1      52.894  22.849  54.311  1.00  0.00     0.000 C 
BRANCH   9  10
ATOM     10  C   UNL     1      51.722  22.637  53.331  1.00  0.00     0.006 C 
BRANCH  10  11
ATOM     11  C   UNL     1      50.742  21.525  53.736  1.00  0.00     0.053 C 
BRANCH  11  12
ATOM     12  C   UNL     1      49.423  22.076  54.181  1.00  0.00     0.041 C 
ATOM     13  O   UNL     1      48.758  21.486  55.074  1.00  0.00    -0.550 OA
ATOM     14  O   UNL     1      48.935  23.251  53.623  1.00  0.00    -0.550 OA
ENDBRANCH  11  12
ENDBRANCH  10  11
ENDBRANCH   9  10
ENDBRANCH   8   9
ENDBRANCH   7   8
ENDBRANCH   6   7
ENDBRANCH   5   6
ENDBRANCH   4   5
ENDBRANCH   3   4
ENDBRANCH   2   3
ENDBRANCH   1   2
BRANCH   1  15
ATOM     15  C   UNL     1      55.811  22.632  52.359  1.00  0.00     0.000 C 
BRANCH  15  16
ATOM     16  C   UNL     1      56.759  23.801  52.064  1.00  0.00     0.000 C 
BRANCH  16  17
ATOM     17  C   UNL     1      55.986  25.015  51.536  1.00  0.00     0.000 C 
BRANCH  17  18
ATOM     18  C   UNL     1      54.470  24.792  51.641  1.00  0.00    -0.000 C 
BRANCH  18  19
ATOM     19  C   UNL     1      53.748  24.941  50.289  1.00  0.00    -0.000 C 
BRANCH  19  20
ATOM     20  C   UNL     1      53.507  23.621  49.531  1.00  0.00    -0.000 C 
BRANCH  20  21
ATOM     21  C   UNL     1      53.860  23.656  48.030  1.00  0.00    -0.000 C 
BRANCH  21  22
ATOM     22  C   UNL     1      55.349  23.914  47.721  1.00  0.00    -0.000 C 
BRANCH  22  23
ATOM     23  C   UNL     1      56.337  22.980  48.447  1.00  0.00    -0.000 C 
BRANCH  23  24
ATOM     24  C   UNL     1      56.808  21.767  47.626  1.00  0.00    -0.000 C 
BRANCH  24  25
ATOM     25  C   UNL     1      56.687  20.444  48.395  1.00  0.00    -0.003 C 
ATOM     26  C   UNL     1      55.623  20.537  49.485  1.00  0.00     0.004 C 
ENDBRANCH  24  25
ENDBRANCH  23  24
ENDBRANCH  22  23
ENDBRANCH  21  22
ENDBRANCH  20  21
ENDBRANCH  19  20
ENDBRANCH  18  19
ENDBRANCH  17  18
ENDBRANCH  16  17
ENDBRANCH  15  16
ENDBRANCH   1  15
TORSDOF 22
ENDMDL
MODEL 3
REMARK VINA RESULT:    -4.280      2.420      4.205
REMARK INTER + INTRA:         -13.719
REMARK INTER:                  -9.863
REMARK INTRA:                  -3.856
REMARK UNBOUND:                -3.935
REMARK SMILES CCCCCCCCCCCCCCCCCCCCCCCC(=O)[O-]
REMARK SMILES IDX 13 1 14 2 15 3 16 4 17 5 18 6 19 7 20 8 21 9 22 10 23 11
REMARK SMILES IDX 24 12 25 13 26 14 12 15 11 16 10 17 9 18 8 19 7 20 6 21 5 22
REMARK SMILES IDX 4 23 3 24 2 25 1 26
REMARK H PARENT
REMARK Flexibility Score: inf
ROOT
ATOM      1  C   UNL     1      53.976  21.194  51.921  1.00  0.00     0.000 C 
ENDROOT
BRANCH   1   2
ATOM      2  C   UNL     1      53.779  21.495  53.415  1.00  0.00     0.000 C 
BRANCH   2   3
ATOM      3  C   UNL     1      52.592  20.725  54.020  1.00  0.00     0.000 C 
BRANCH   3   4
ATOM      4  C   UNL     1      51.238  21.365  53.672  1.00  0.00     0.000 C 
BRANCH   4   5
ATOM      5  C   UNL     1      51.222  22.884  53.921  1.00  0.00     0.000 C 
BRANCH   5   6
ATOM      6  C   UNL     1      51.052  23.244  55.408  1.00  0.00     0.000 C 
BRANCH   6   7
ATOM      7  C   UNL     1      52.247  23.978  56.043  1.00  0.00     0.000 C 
BRANCH   7   8
ATOM      8  C   UNL     1      53.191  24.598  54.998  1.00  0.00     0.000 C 
BRANCH   8   9
ATOM      9  C   UNL     1      54.655  24.656  55.472  1.00  0.00     0.000 C 
BRANCH   9  10
ATOM     10  C   UNL     1      55.158  23.402  56.215  1.00  0.00     0.006 C 
BRANCH  10  11
ATOM     11  C   UNL     1      56.671  23.159  56.109  1.00  0.00     0.053 C 
BRANCH  11  12
ATOM     12  C   UNL     1      57.009  21.701  56.173  1.00  0.00     0.041 C 
ATOM     13  O   UNL     1      56.735  20.943  55.205  1.00  0.00    -0.550 OA
ATOM     14  O   UNL     1      57.642  21.182  57.296  1.00  0.00    -0.550 OA
ENDBRANCH  11  12
ENDBRANCH  10  11
ENDBRANCH   9  10
ENDBRANCH   8   9
ENDBRANCH   7   8
ENDBRANCH   6   7
ENDBRANCH   5   6
ENDBRANCH   4   5
ENDBRANCH   3   4
ENDBRANCH   2   3
ENDBRANCH   1   2
BRANCH   1  15
ATOM     15  C   UNL     1      55.396  21.520  51.436  1.00  0.00     0.000 C 
BRANCH  15  16
ATOM     16  C   UNL     1      56.020  22.645  52.272  1.00  0.00     0.000 C 
BRANCH  16  17
ATOM     17  C   UNL     1      56.189  23.919  51.438  1.00  0.00     0.000 C 
BRANCH  17  18
ATOM     18  C   UNL     1      55.193  25.002  51.877  1.00  0.00    -0.000 C 
BRANCH  18  19
ATOM     19  C   UNL     1      53.769  24.755  51.345  1.00  0.00    -0.000 C 
BRANCH  19  20
ATOM     20  C   UNL     1      53.597  24.953  49.825  1.00  0.00    -0.000 C 
BRANCH  20  21
ATOM     21  C   UNL     1      53.665  23.661  48.987  1.00  0.00    -0.000 C 
BRANCH  21  22
ATOM     22  C   UNL     1      54.678  23.695  47.824  1.00  0.00    -0.000 C 
BRANCH  22  23
ATOM     23  C   UNL     1      55.867  22.725  47.967  1.00  0.00    -0.000 C 
BRANCH  23  24
ATOM     24  C   UNL     1      57.188  23.218  47.349  1.00  0.00    -0.000 C 
BRANCH  24  25
ATOM     25  C   UNL     1      57.203  24.733  47.107  1.00  0.00    -0.003 C 
ATOM     26  C   UNL     1      58.318  25.124  46.141  1.00  0.00     0.004 C 
ENDBRANCH  24  25
ENDBRANCH  23  24
ENDBRANCH  22  23
ENDBRANCH  21  22
ENDBRANCH  20  21
ENDBRANCH  19  20
ENDBRANCH  18  19
ENDBRANCH  17  18
ENDBRANCH  16  17
ENDBRANCH  15  16
ENDBRANCH   1  15
TORSDOF 22
ENDMDL
MODEL 4
REMARK VINA RESULT:    -4.261      2.557      6.706
REMARK INTER + INTRA:         -13.675
REMARK INTER:                 -10.537
REMARK INTRA:                  -3.138
REMARK UNBOUND:                -3.935
REMARK SMILES CCCCCCCCCCCCCCCCCCCCCCCC(=O)[O-]
REMARK SMILES IDX 13 1 14 2 15 3 16 4 17 5 18 6 19 7 20 8 21 9 22 10 23 11
REMARK SMILES IDX 24 12 25 13 26 14 12 15 11 16 10 17 9 18 8 19 7 20 6 21 5 22
REMARK SMILES IDX 4 23 3 24 2 25 1 26
REMARK H PARENT
REMARK Flexibility Score: inf
ROOT
ATOM      1  C   UNL     1      54.337  24.004  47.639  1.00  0.00     0.000 C 
ENDROOT
BRANCH   1   2
ATOM      2  C   UNL     1      55.811  24.224  47.266  1.00  0.00     0.000 C 
BRANCH   2   3
ATOM      3  C   UNL     1      56.760  23.289  48.037  1.00  0.00     0.000 C 
BRANCH   3   4
ATOM      4  C   UNL     1      56.752  21.855  47.484  1.00  0.00     0.000 C 
BRANCH   4   5
ATOM      5  C   UNL     1      56.414  20.809  48.561  1.00  0.00     0.000 C 
BRANCH   5   6
ATOM      6  C   UNL     1      55.473  21.355  49.650  1.00  0.00     0.000 C 
BRANCH   6   7
ATOM      7  C   UNL     1      55.861  20.987  51.093  1.00  0.00     0.000 C 
BRANCH   7   8
ATOM      8  C   UNL     1      56.303  22.205  51.923  1.00  0.00     0.000 C 
BRANCH   8   9
ATOM      9  C   UNL     1      57.021  21.814  53.227  1.00  0.00     0.000 C 
BRANCH   9  10
ATOM     10  C   UNL     1      56.098  21.548  54.434  1.00  0.00     0.006 C 
BRANCH  10  11
ATOM     11  C   UNL     1      56.832  21.162  55.728  1.00  0.00     0.053 C 
BRANCH  11  12
ATOM     12  C   UNL     1      57.027  22.340  56.633  1.00  0.00     0.041 C 
ATOM     13  O   UNL     1      57.778  23.289  56.285  1.00  0.00    -0.550 OA
ATOM     14  O   UNL     1      56.365  22.398  57.853  1.00  0.00    -0.550 OA
ENDBRANCH  11  12
ENDBRANCH  10  11
ENDBRANCH   9  10
ENDBRANCH   8   9
ENDBRANCH   7   8
ENDBRANCH   6   7
ENDBRANCH   5   6
ENDBRANCH   4   5
ENDBRANCH   3   4
ENDBRANCH   2   3
ENDBRANCH   1   2
BRANCH   1  15
ATOM     15  C   UNL     1      53.797  25.097  48.573  1.00  0.00     0.000 C 
BRANCH  15  16
ATOM     16  C   UNL     1      54.534  25.088  49.918  1.00  0.00     0.000 C 
BRANCH  16  17
ATOM     17  C   UNL     1      53.547  24.972  51.084  1.00  0.00     0.000 C 
BRANCH  17  18
ATOM     18  C   UNL     1      52.998  23.543  51.203  1.00  0.00    -0.000 C 
BRANCH  18  19
ATOM     19  C   UNL     1      52.844  23.080  52.663  1.00  0.00    -0.000 C 
BRANCH  19  20
ATOM     20  C   UNL     1      52.881  21.553  52.870  1.00  0.00    -0.000 C 
BRANCH  20  21
ATOM     21  C   UNL     1      51.964  21.023  53.991  1.00  0.00    -0.000 C 
BRANCH  21  22
ATOM     22  C   UNL     1      51.150  22.107  54.728  1.00  0.00    -0.000 C 
BRANCH  22  23
ATOM     23  C   UNL     1      49.620  21.956  54.625  1.00  0.00    -0.000 C 
BRANCH  23  24
ATOM     24  C   UNL     1      48.920  23.010  53.747  1.00  0.00    -0.000 C 
BRANCH  24  25
ATOM     25  C   UNL     1      49.206  22.823  52.250  1.00  0.00    -0.003 C 
ATOM     26  C   UNL     1      48.868  21.405  51.799  1.00  0.00     0.004 C 
ENDBRANCH  24  25
ENDBRANCH  23  24
ENDBRANCH  22  23
ENDBRANCH  21  22
ENDBRANCH  20  21
ENDBRANCH  19  20
ENDBRANCH  18  19
ENDBRANCH  17  18
ENDBRANCH  16  17
ENDBRANCH  15  16
ENDBRANCH   1  15
TORSDOF 22
ENDMDL
MODEL 5
REMARK VINA RESULT:    -4.228      2.745      7.704
REMARK INTER + INTRA:         -13.600
REMARK INTER:                 -10.384
REMARK INTRA:                  -3.216
REMARK UNBOUND:                -3.935
REMARK SMILES CCCCCCCCCCCCCCCCCCCCCCCC(=O)[O-]
REMARK SMILES IDX 13 1 14 2 15 3 16 4 17 5 18 6 19 7 20 8 21 9 22 10 23 11
REMARK SMILES IDX 24 12 25 13 26 14 12 15 11 16 10 17 9 18 8 19 7 20 6 21 5 22
REMARK SMILES IDX 4 23 3 24 2 25 1 26
REMARK H PARENT
REMARK Flexibility Score: inf
ROOT
ATOM      1  C   UNL     1      56.149  21.381  52.176  1.00  0.00     0.000 C 
ENDROOT
BRANCH   1   2
ATOM      2  C   UNL     1      54.719  21.909  51.983  1.00  0.00     0.000 C 
BRANCH   2   3
ATOM      3  C   UNL     1      54.690  23.336  51.409  1.00  0.00     0.000 C 
BRANCH   3   4
ATOM      4  C   UNL     1      53.293  23.742  50.912  1.00  0.00     0.000 C 
BRANCH   4   5
ATOM      5  C   UNL     1      53.350  24.678  49.691  1.00  0.00     0.000 C 
BRANCH   5   6
ATOM      6  C   UNL     1      53.748  23.948  48.396  1.00  0.00     0.000 C 
BRANCH   6   7
ATOM      7  C   UNL     1      54.431  24.828  47.334  1.00  0.00     0.000 C 
BRANCH   7   8
ATOM      8  C   UNL     1      55.875  24.391  47.034  1.00  0.00     0.000 C 
BRANCH   8   9
ATOM      9  C   UNL     1      56.487  23.531  48.155  1.00  0.00     0.000 C 
BRANCH   9  10
ATOM     10  C   UNL     1      56.737  22.053  47.790  1.00  0.00     0.006 C 
BRANCH  10  11
ATOM     11  C   UNL     1      56.037  21.040  48.709  1.00  0.00     0.053 C 
BRANCH  11  12
ATOM     12  C   UNL     1      56.522  19.642  48.472  1.00  0.00     0.041 C 
ATOM     13  O   UNL     1      57.655  19.285  48.888  1.00  0.00    -0.550 OA
ATOM     14  O   UNL     1      55.714  18.730  47.805  1.00  0.00    -0.550 OA
ENDBRANCH  11  12
ENDBRANCH  10  11
ENDBRANCH   9  10
ENDBRANCH   8   9
ENDBRANCH   7   8
ENDBRANCH   6   7
ENDBRANCH   5   6
ENDBRANCH   4   5
ENDBRANCH   3   4
ENDBRANCH   2   3
ENDBRANCH   1   2
BRANCH   1  15
ATOM     15  C   UNL     1      56.708  21.690  53.572  1.00  0.00     0.000 C 
BRANCH  15  16
ATOM     16  C   UNL     1      55.634  21.502  54.651  1.00  0.00     0.000 C 
BRANCH  16  17
ATOM     17  C   UNL     1      55.783  22.547  55.762  1.00  0.00     0.000 C 
BRANCH  17  18
ATOM     18  C   UNL     1      54.424  23.159  56.130  1.00  0.00    -0.000 C 
BRANCH  18  19
ATOM     19  C   UNL     1      53.792  23.954  54.973  1.00  0.00    -0.000 C 
BRANCH  19  20
ATOM     20  C   UNL     1      52.334  23.576  54.642  1.00  0.00    -0.000 C 
BRANCH  20  21
ATOM     21  C   UNL     1      52.086  22.072  54.411  1.00  0.00    -0.000 C 
BRANCH  21  22
ATOM     22  C   UNL     1      51.010  21.748  53.355  1.00  0.00    -0.000 C 
BRANCH  22  23
ATOM     23  C   UNL     1      49.722  22.588  53.457  1.00  0.00    -0.000 C 
BRANCH  23  24
ATOM     24  C   UNL     1      48.603  21.964  54.311  1.00  0.00    -0.000 C 
BRANCH  24  25
ATOM     25  C   UNL     1      47.873  22.996  55.183  1.00  0.00    -0.003 C 
ATOM     26  C   UNL     1      48.559  24.357  55.114  1.00  0.00     0.004 C 
ENDBRANCH  24  25
ENDBRANCH  23  24
ENDBRANCH  22  23
ENDBRANCH  21  22
ENDBRANCH  20  21
ENDBRANCH  19  20
ENDBRANCH  18  19
ENDBRANCH  17  18
ENDBRANCH  16  17
ENDBRANCH  15  16
ENDBRANCH   1  15
TORSDOF 22
ENDMDL
MODEL 6
REMARK VINA RESULT:    -4.122      1.999      5.669
REMARK INTER + INTRA:         -13.357
REMARK INTER:                  -9.818
REMARK INTRA:                  -3.540
REMARK UNBOUND:                -3.935
REMARK SMILES CCCCCCCCCCCCCCCCCCCCCCCC(=O)[O-]
REMARK SMILES IDX 13 1 14 2 15 3 16 4 17 5 18 6 19 7 20 8 21 9 22 10 23 11
REMARK SMILES IDX 24 12 25 13 26 14 12 15 11 16 10 17 9 18 8 19 7 20 6 21 5 22
REMARK SMILES IDX 4 23 3 24 2 25 1 26
REMARK H PARENT
REMARK Flexibility Score: inf
ROOT
ATOM      1  C   UNL     1      53.817  23.837  48.442  1.00  0.00     0.000 C 
ENDROOT
BRANCH   1   2
ATOM      2  C   UNL     1      53.720  25.104  49.305  1.00  0.00     0.000 C 
BRANCH   2   3
ATOM      3  C   UNL     1      53.676  24.791  50.811  1.00  0.00     0.000 C 
BRANCH   3   4
ATOM      4  C   UNL     1      52.699  23.652  51.147  1.00  0.00     0.000 C 
BRANCH   4   5
ATOM      5  C   UNL     1      52.531  23.448  52.663  1.00  0.00     0.000 C 
BRANCH   5   6
ATOM      6  C   UNL     1      52.377  21.967  53.054  1.00  0.00     0.000 C 
BRANCH   6   7
ATOM      7  C   UNL     1      51.007  21.585  53.641  1.00  0.00     0.000 C 
BRANCH   7   8
ATOM      8  C   UNL     1      49.834  22.261  52.911  1.00  0.00     0.000 C 
BRANCH   8   9
ATOM      9  C   UNL     1      48.797  22.868  53.873  1.00  0.00     0.000 C 
BRANCH   9  10
ATOM     10  C   UNL     1      48.777  22.259  55.291  1.00  0.00     0.006 C 
BRANCH  10  11
ATOM     11  C   UNL     1      47.434  22.389  56.024  1.00  0.00     0.053 C 
BRANCH  11  12
ATOM     12  C   UNL     1      46.712  21.079  56.105  1.00  0.00     0.041 C 
ATOM     13  O   UNL     1      46.439  20.440  55.054  1.00  0.00    -0.550 OA
ATOM     14  O   UNL     1      46.355  20.556  57.341  1.00  0.00    -0.550 OA
ENDBRANCH  11  12
ENDBRANCH  10  11
ENDBRANCH   9  10
ENDBRANCH   8   9
ENDBRANCH   7   8
ENDBRANCH   6   7
ENDBRANCH   5   6
ENDBRANCH   4   5
ENDBRANCH   3   4
ENDBRANCH   2   3
ENDBRANCH   1   2
BRANCH   1  15
ATOM     15  C   UNL     1      55.183  23.694  47.756  1.00  0.00     0.000 C 
BRANCH  15  16
ATOM     16  C   UNL     1      56.176  22.943  48.651  1.00  0.00     0.000 C 
BRANCH  16  17
ATOM     17  C   UNL     1      56.080  21.430  48.428  1.00  0.00     0.000 C 
BRANCH  17  18
ATOM     18  C   UNL     1      56.081  20.674  49.765  1.00  0.00    -0.000 C 
BRANCH  18  19
ATOM     19  C   UNL     1      55.195  21.343  50.831  1.00  0.00    -0.000 C 
BRANCH  19  20
ATOM     20  C   UNL     1      55.902  21.649  52.167  1.00  0.00    -0.000 C 
BRANCH  20  21
ATOM     21  C   UNL     1      56.519  23.058  52.271  1.00  0.00    -0.000 C 
BRANCH  21  22
ATOM     22  C   UNL     1      56.285  23.770  53.619  1.00  0.00    -0.000 C 
BRANCH  22  23
ATOM     23  C   UNL     1      55.566  22.923  54.687  1.00  0.00    -0.000 C 
BRANCH  23  24
ATOM     24  C   UNL     1      54.694  23.722  55.673  1.00  0.00    -0.000 C 
BRANCH  24  25
ATOM     25  C   UNL     1      53.511  22.908  56.216  1.00  0.00    -0.003 C 
ATOM     26  C   UNL     1      52.286  23.793  56.427  1.00  0.00     0.004 C 
ENDBRANCH  24  25
ENDBRANCH  23  24
ENDBRANCH  22  23
ENDBRANCH  21  22
ENDBRANCH  20  21
ENDBRANCH  19  20
ENDBRANCH  18  19
ENDBRANCH  17  18
ENDBRANCH  16  17
ENDBRANCH  15  16
ENDBRANCH   1  15
TORSDOF 22
ENDMDL
MODEL 7
REMARK VINA RESULT:    -4.096      2.416      7.145
REMARK INTER + INTRA:         -13.299
REMARK INTER:                  -9.740
REMARK INTRA:                  -3.558
REMARK UNBOUND:                -3.935
REMARK SMILES CCCCCCCCCCCCCCCCCCCCCCCC(=O)[O-]
REMARK SMILES IDX 13 1 14 2 15 3 16 4 17 5 18 6 19 7 20 8 21 9 22 10 23 11
REMARK SMILES IDX 24 12 25 13 26 14 12 15 11 16 10 17 9 18 8 19 7 20 6 21 5 22
REMARK SMILES IDX 4 23 3 24 2 25 1 26
REMARK H PARENT
REMARK Flexibility Score: inf
ROOT
ATOM      1  C   UNL     1      56.293  21.436  52.599  1.00  0.00     0.000 C 
ENDROOT
BRANCH   1   2
ATOM      2  C   UNL     1      56.644  22.837  52.075  1.00  0.00     0.000 C 
BRANCH   2   3
ATOM      3  C   UNL     1      55.410  23.751  51.961  1.00  0.00     0.000 C 
BRANCH   3   4
ATOM      4  C   UNL     1      54.123  22.966  51.663  1.00  0.00     0.000 C 
BRANCH   4   5
ATOM      5  C   UNL     1      53.114  23.782  50.834  1.00  0.00     0.000 C 
BRANCH   5   6
ATOM      6  C   UNL     1      53.751  25.008  50.155  1.00  0.00     0.000 C 
BRANCH   6   7
ATOM      7  C   UNL     1      53.497  25.122  48.641  1.00  0.00     0.000 C 
BRANCH   7   8
ATOM      8  C   UNL     1      54.014  23.905  47.855  1.00  0.00     0.000 C 
BRANCH   8   9
ATOM      9  C   UNL     1      55.531  23.956  47.599  1.00  0.00     0.000 C 
BRANCH   9  10
ATOM     10  C   UNL     1      56.377  22.982  48.445  1.00  0.00     0.006 C 
BRANCH  10  11
ATOM     11  C   UNL     1      56.729  21.663  47.741  1.00  0.00     0.053 C 
BRANCH  11  12
ATOM     12  C   UNL     1      56.533  20.481  48.640  1.00  0.00     0.041 C 
ATOM     13  O   UNL     1      55.471  20.360  49.307  1.00  0.00    -0.550 OA
ATOM     14  O   UNL     1      57.516  19.503  48.728  1.00  0.00    -0.550 OA
ENDBRANCH  11  12
ENDBRANCH  10  11
ENDBRANCH   9  10
ENDBRANCH   8   9
ENDBRANCH   7   8
ENDBRANCH   6   7
ENDBRANCH   5   6
ENDBRANCH   4   5
ENDBRANCH   3   4
ENDBRANCH   2   3
ENDBRANCH   1   2
BRANCH   1  15
ATOM     15  C   UNL     1      57.096  21.058  53.852  1.00  0.00     0.000 C 
BRANCH  15  16
ATOM     16  C   UNL     1      56.197  21.022  55.094  1.00  0.00     0.000 C 
BRANCH  16  17
ATOM     17  C   UNL     1      56.762  21.911  56.206  1.00  0.00     0.000 C 
BRANCH  17  18
ATOM     18  C   UNL     1      57.128  23.302  55.669  1.00  0.00    -0.000 C 
BRANCH  18  19
ATOM     19  C   UNL     1      55.916  24.247  55.579  1.00  0.00    -0.000 C 
BRANCH  19  20
ATOM     20  C   UNL     1      54.541  23.549  55.617  1.00  0.00    -0.000 C 
BRANCH  20  21
ATOM     21  C   UNL     1      53.371  24.380  55.052  1.00  0.00    -0.000 C 
BRANCH  21  22
ATOM     22  C   UNL     1      52.068  23.589  54.821  1.00  0.00    -0.000 C 
BRANCH  22  23
ATOM     23  C   UNL     1      52.254  22.075  54.602  1.00  0.00    -0.000 C 
BRANCH  23  24
ATOM     24  C   UNL     1      51.236  21.425  53.647  1.00  0.00    -0.000 C 
BRANCH  24  25
ATOM     25  C   UNL     1      50.312  22.449  52.974  1.00  0.00    -0.003 C 
ATOM     26  C   UNL     1      48.940  22.475  53.642  1.00  0.00     0.004 C 
ENDBRANCH  24  25
ENDBRANCH  23  24
ENDBRANCH  22  23
ENDBRANCH  21  22
ENDBRANCH  20  21
ENDBRANCH  19  20
ENDBRANCH  18  19
ENDBRANCH  17  18
ENDBRANCH  16  17
ENDBRANCH  15  16
ENDBRANCH   1  15
TORSDOF 22
ENDMDL
MODEL 8
REMARK VINA RESULT:    -4.095      1.878      2.844
REMARK INTER + INTRA:         -13.297
REMARK INTER:                 -10.195
REMARK INTRA:                  -3.101
REMARK UNBOUND:                -3.935
REMARK SMILES CCCCCCCCCCCCCCCCCCCCCCCC(=O)[O-]
REMARK SMILES IDX 13 1 14 2 15 3 16 4 17 5 18 6 19 7 20 8 21 9 22 10 23 11
REMARK SMILES IDX 24 12 25 13 26 14 12 15 11 16 10 17 9 18 8 19 7 20 6 21 5 22
REMARK SMILES IDX 4 23 3 24 2 25 1 26
REMARK H PARENT
REMARK Flexibility Score: inf
ROOT
ATOM      1  C   UNL     1      56.353  22.279  52.409  1.00  0.00     0.000 C 
ENDROOT
BRANCH   1   2
ATOM      2  C   UNL     1      56.003  21.300  53.541  1.00  0.00     0.000 C 
BRANCH   2   3
ATOM      3  C   UNL     1      54.643  21.611  54.190  1.00  0.00     0.000 C 
BRANCH   3   4
ATOM      4  C   UNL     1      53.473  21.463  53.203  1.00  0.00     0.000 C 
BRANCH   4   5
ATOM      5  C   UNL     1      52.280  22.367  53.563  1.00  0.00     0.000 C 
BRANCH   5   6
ATOM      6  C   UNL     1      52.670  23.529  54.494  1.00  0.00     0.000 C 
BRANCH   6   7
ATOM      7  C   UNL     1      51.953  23.543  55.856  1.00  0.00     0.000 C 
BRANCH   7   8
ATOM      8  C   UNL     1      50.718  24.461  55.872  1.00  0.00     0.000 C 
BRANCH   8   9
ATOM      9  C   UNL     1      49.404  23.695  56.106  1.00  0.00     0.000 C 
BRANCH   9  10
ATOM     10  C   UNL     1      48.652  23.269  54.828  1.00  0.00     0.006 C 
BRANCH  10  11
ATOM     11  C   UNL     1      48.212  21.797  54.805  1.00  0.00     0.053 C 
BRANCH  11  12
ATOM     12  C   UNL     1      46.887  21.599  55.475  1.00  0.00     0.041 C 
ATOM     13  O   UNL     1      46.538  20.454  55.865  1.00  0.00    -0.550 OA
ATOM     14  O   UNL     1      46.045  22.684  55.685  1.00  0.00    -0.550 OA
ENDBRANCH  11  12
ENDBRANCH  10  11
ENDBRANCH   9  10
ENDBRANCH   8   9
ENDBRANCH   7   8
ENDBRANCH   6   7
ENDBRANCH   5   6
ENDBRANCH   4   5
ENDBRANCH   3   4
ENDBRANCH   2   3
ENDBRANCH   1   2
BRANCH   1  15
ATOM     15  C   UNL     1      57.083  23.531  52.918  1.00  0.00     0.000 C 
BRANCH  15  16
ATOM     16  C   UNL     1      56.154  24.751  52.914  1.00  0.00     0.000 C 
BRANCH  16  17
ATOM     17  C   UNL     1      55.613  25.025  51.506  1.00  0.00     0.000 C 
BRANCH  17  18
ATOM     18  C   UNL     1      54.078  25.044  51.499  1.00  0.00    -0.000 C 
BRANCH  18  19
ATOM     19  C   UNL     1      53.476  24.254  50.323  1.00  0.00    -0.000 C 
BRANCH  19  20
ATOM     20  C   UNL     1      53.419  25.018  48.985  1.00  0.00    -0.000 C 
BRANCH  20  21
ATOM     21  C   UNL     1      53.816  24.193  47.744  1.00  0.00    -0.000 C 
BRANCH  21  22
ATOM     22  C   UNL     1      55.227  24.485  47.196  1.00  0.00    -0.000 C 
BRANCH  22  23
ATOM     23  C   UNL     1      56.385  23.914  48.038  1.00  0.00    -0.000 C 
BRANCH  23  24
ATOM     24  C   UNL     1      56.686  22.423  47.805  1.00  0.00    -0.000 C 
BRANCH  24  25
ATOM     25  C   UNL     1      56.038  21.512  48.858  1.00  0.00    -0.003 C 
ATOM     26  C   UNL     1      56.459  20.059  48.661  1.00  0.00     0.004 C 
ENDBRANCH  24  25
ENDBRANCH  23  24
ENDBRANCH  22  23
ENDBRANCH  21  22
ENDBRANCH  20  21
ENDBRANCH  19  20
ENDBRANCH  18  19
ENDBRANCH  17  18
ENDBRANCH  16  17
ENDBRANCH  15  16
ENDBRANCH   1  15
TORSDOF 22
ENDMDL
MODEL 9
REMARK VINA RESULT:    -4.007      2.713      5.688
REMARK INTER + INTRA:         -13.096
REMARK INTER:                  -9.574
REMARK INTRA:                  -3.522
REMARK UNBOUND:                -3.935
REMARK SMILES CCCCCCCCCCCCCCCCCCCCCCCC(=O)[O-]
REMARK SMILES IDX 13 1 14 2 15 3 16 4 17 5 18 6 19 7 20 8 21 9 22 10 23 11
REMARK SMILES IDX 24 12 25 13 26 14 12 15 11 16 10 17 9 18 8 19 7 20 6 21 5 22
REMARK SMILES IDX 4 23 3 24 2 25 1 26
REMARK H PARENT
REMARK Flexibility Score: inf
ROOT
ATOM      1  C   UNL     1      56.192  21.096  47.981  1.00  0.00     0.000 C 
ENDROOT
BRANCH   1   2
ATOM      2  C   UNL     1      56.290  20.416  49.355  1.00  0.00     0.000 C 
BRANCH   2   3
ATOM      3  C   UNL     1      55.286  20.990  50.371  1.00  0.00     0.000 C 
BRANCH   3   4
ATOM      4  C   UNL     1      55.972  21.814  51.472  1.00  0.00     0.000 C 
BRANCH   4   5
ATOM      5  C   UNL     1      55.546  21.379  52.886  1.00  0.00     0.000 C 
BRANCH   5   6
ATOM      6  C   UNL     1      56.743  21.113  53.816  1.00  0.00     0.000 C 
BRANCH   6   7
ATOM      7  C   UNL     1      56.397  21.016  55.313  1.00  0.00     0.000 C 
BRANCH   7   8
ATOM      8  C   UNL     1      56.754  22.293  56.093  1.00  0.00     0.000 C 
BRANCH   8   9
ATOM      9  C   UNL     1      55.690  23.397  55.956  1.00  0.00     0.000 C 
BRANCH   9  10
ATOM     10  C   UNL     1      56.151  24.669  55.216  1.00  0.00     0.006 C 
BRANCH  10  11
ATOM     11  C   UNL     1      57.644  24.693  54.852  1.00  0.00     0.053 C 
BRANCH  11  12
ATOM     12  C   UNL     1      57.861  24.995  53.401  1.00  0.00     0.041 C 
ATOM     13  O   UNL     1      59.029  25.125  52.949  1.00  0.00    -0.550 OA
ATOM     14  O   UNL     1      56.773  25.118  52.546  1.00  0.00    -0.550 OA
ENDBRANCH  11  12
ENDBRANCH  10  11
ENDBRANCH   9  10
ENDBRANCH   8   9
ENDBRANCH   7   8
ENDBRANCH   6   7
ENDBRANCH   5   6
ENDBRANCH   4   5
ENDBRANCH   3   4
ENDBRANCH   2   3
ENDBRANCH   1   2
BRANCH   1  15
ATOM     15  C   UNL     1      56.764  22.522  47.988  1.00  0.00     0.000 C 
BRANCH  15  16
ATOM     16  C   UNL     1      55.645  23.565  47.880  1.00  0.00     0.000 C 
BRANCH  16  17
ATOM     17  C   UNL     1      55.918  24.760  48.802  1.00  0.00     0.000 C 
BRANCH  17  18
ATOM     18  C   UNL     1      54.678  25.106  49.639  1.00  0.00    -0.000 C 
BRANCH  18  19
ATOM     19  C   UNL     1      53.634  23.974  49.658  1.00  0.00    -0.000 C 
BRANCH  19  20
ATOM     20  C   UNL     1      52.682  23.985  50.871  1.00  0.00    -0.000 C 
BRANCH  20  21
ATOM     21  C   UNL     1      53.337  24.381  52.210  1.00  0.00    -0.000 C 
BRANCH  21  22
ATOM     22  C   UNL     1      53.009  23.446  53.392  1.00  0.00    -0.000 C 
BRANCH  22  23
ATOM     23  C   UNL     1      51.911  22.401  53.112  1.00  0.00    -0.000 C 
BRANCH  23  24
ATOM     24  C   UNL     1      50.920  22.173  54.267  1.00  0.00    -0.000 C 
BRANCH  24  25
ATOM     25  C   UNL     1      49.456  22.167  53.804  1.00  0.00    -0.003 C 
ATOM     26  C   UNL     1      49.311  22.821  52.433  1.00  0.00     0.004 C 
ENDBRANCH  24  25
ENDBRANCH  23  24
ENDBRANCH  22  23
ENDBRANCH  21  22
ENDBRANCH  20  21
ENDBRANCH  19  20
ENDBRANCH  18  19
ENDBRANCH  17  18
ENDBRANCH  16  17
ENDBRANCH  15  16
ENDBRANCH   1  15
TORSDOF 22
ENDMDL
