MODEL 1
REMARK VINA RESULT:     4.849      0.000      0.000
REMARK INTER + INTRA:          10.442
REMARK INTER:                   6.408
REMARK INTRA:                   4.034
REMARK UNBOUND:                 4.034
REMARK SMILES CC(C)=CCC[C@@H](C(=O)[O-])[C@H]1CC[C@]2(C)C3=C(CC[C@]12C)[C@@]1(C)CC[C@@H](O)C(C)(C)[C@H]1CC3
REMARK SMILES IDX 6 1 7 2 8 3 9 4 10 5 11 6 12 7 20 8 13 9 14 10 19 11 21 12
REMARK SMILES IDX 15 13 16 14 18 15 17 16 33 17 22 18 32 19 31 20 24 21 23 22
REMARK SMILES IDX 28 23 25 24 26 25 29 26 30 27 27 28 5 30 4 31 2 32 1 33 3 34
REMARK H PARENT 27 29
REMARK Flexibility Score: inf
ROOT
ATOM      1  C   UNL     1      11.655 -32.602  11.879  1.00  0.00     0.014 C 
ENDROOT
BRANCH   1   2
ATOM      2  C   UNL     1      10.116 -32.819  11.888  1.00  0.00     0.039 C 
BRANCH   2   3
ATOM      3  C   UNL     1       9.827 -34.301  11.980  1.00  0.00     0.045 C 
ATOM      4  O   UNL     1      10.773 -35.125  12.078  1.00  0.00    -0.550 OA
ATOM      5  O   UNL     1       8.512 -34.768  11.946  1.00  0.00    -0.550 OA
ENDBRANCH   2   3
BRANCH   2   6
ATOM      6  C   UNL     1       9.344 -32.043  13.020  1.00  0.00     0.004 C 
ATOM      7  C   UNL     1       8.303 -31.041  12.495  1.00  0.00     0.006 C 
ATOM      8  C   UNL     1       8.638 -32.884  14.175  1.00  0.00    -0.020 C 
ATOM      9  C   UNL     1       6.966 -31.542  12.990  1.00  0.00     0.012 C 
ATOM     10  C   UNL     1       7.230 -32.167  14.375  1.00  0.00    -0.006 C 
ATOM     11  C   UNL     1       9.518 -32.835  15.476  1.00  0.00     0.012 C 
ATOM     12  C   UNL     1       8.452 -34.394  13.823  1.00  0.00     0.012 C 
ATOM     13  C   UNL     1       6.022 -33.097  14.694  1.00  0.00     0.017 C 
ATOM     14  C   UNL     1       7.287 -31.125  15.528  1.00  0.00    -0.064 C 
ATOM     15  C   UNL     1       8.667 -32.776  16.737  1.00  0.00     0.032 C 
ATOM     16  C   UNL     1       7.831 -31.500  16.726  1.00  0.00    -0.064 C 
ATOM     17  C   UNL     1       6.544 -29.818  15.393  1.00  0.00     0.032 C 
ATOM     18  C   UNL     1       7.654 -30.694  18.048  1.00  0.00    -0.008 C 
ATOM     19  C   UNL     1       6.852 -28.832  16.506  1.00  0.00     0.009 C 
ATOM     20  C   UNL     1       6.640 -29.481  17.889  1.00  0.00     0.007 C 
ATOM     21  C   UNL     1       9.053 -30.165  18.479  1.00  0.00     0.014 C 
ATOM     22  C   UNL     1       7.108 -31.710  19.090  1.00  0.00     0.016 C 
ATOM     23  C   UNL     1       6.655 -28.409  19.078  1.00  0.00    -0.006 C 
ATOM     24  C   UNL     1       9.016 -29.233  19.693  1.00  0.00     0.033 C 
ATOM     25  C   UNL     1       8.115 -28.013  19.469  1.00  0.00     0.120 C 
ATOM     26  C   UNL     1       5.875 -27.116  18.690  1.00  0.00     0.014 C 
ATOM     27  C   UNL     1       5.910 -28.956  20.339  1.00  0.00     0.014 C 
BRANCH  25  28
ATOM     28  O   UNL     1       8.703 -27.205  18.474  1.00  0.00    -0.393 OA
ATOM     29  H   UNL     1       9.665 -27.102  18.698  1.00  0.00     0.210 HD
ENDBRANCH  25  28
ENDBRANCH   2   6
ENDBRANCH   1   2
BRANCH   1  30
ATOM     30  C   UNL     1      12.035 -31.144  12.180  1.00  0.00     0.028 C 
BRANCH  30  31
ATOM     31  C   UNL     1      11.514 -30.721  13.536  1.00  0.00    -0.028 C 
ATOM     32  C   UNL     1      11.031 -29.486  13.793  1.00  0.00    -0.080 C 
ATOM     33  C   UNL     1      10.539 -29.178  15.185  1.00  0.00     0.039 C 
ATOM     34  C   UNL     1      10.988 -28.415  12.726  1.00  0.00     0.039 C 
ENDBRANCH  30  31
ENDBRANCH   1  30
TORSDOF 6
ENDMDL
