MODEL 1
REMARK VINA RESULT:    -3.881      0.000      0.000
REMARK INTER + INTRA:          -5.750
REMARK INTER:                  -5.242
REMARK INTRA:                  -0.509
REMARK UNBOUND:                -0.509
REMARK SMILES COc1ccc(-c2cc(=O)c3c(OC)c(OC)c(OC)cc3o2)cc1OC
REMARK SMILES IDX 7 1 8 2 9 3 10 4 11 5 12 6 15 7 18 8 21 9 22 10 23 11 6 12
REMARK SMILES IDX 3 13 25 14 4 15 24 16 5 17 2 18 1 19 26 20 27 21 13 22 14 23
REMARK SMILES IDX 19 24 20 25 16 26 17 27
REMARK H PARENT
REMARK Flexibility Score: inf
ROOT
ATOM      1  C   UNL     1      18.204  35.025  43.084  1.00  0.00     0.138 A 
ATOM      2  C   UNL     1      18.153  35.651  44.340  1.00  0.00     0.100 A 
ATOM      3  C   UNL     1      19.287  35.655  45.151  1.00  0.00     0.197 A 
ATOM      4  O   UNL     1      19.231  36.227  46.273  1.00  0.00    -0.289 OA
ATOM      5  C   UNL     1      20.471  35.035  44.699  1.00  0.00     0.111 A 
ATOM      6  C   UNL     1      21.658  34.974  45.469  1.00  0.00     0.179 A 
ATOM      7  C   UNL     1      22.828  34.399  44.916  1.00  0.00     0.204 A 
ATOM      8  C   UNL     1      22.781  33.797  43.651  1.00  0.00     0.168 A 
ATOM      9  C   UNL     1      21.588  33.817  42.911  1.00  0.00     0.098 A 
ATOM     10  C   UNL     1      20.448  34.442  43.417  1.00  0.00     0.146 A 
ATOM     11  O   UNL     1      19.341  34.462  42.682  1.00  0.00    -0.456 OA
ENDROOT
BRANCH   1  12
ATOM     12  C   UNL     1      17.026  34.985  42.179  1.00  0.00     0.021 A 
ATOM     13  C   UNL     1      14.754  34.914  40.505  1.00  0.00     0.160 A 
ATOM     14  C   UNL     1      16.024  35.134  39.951  1.00  0.00     0.161 A 
ATOM     15  C   UNL     1      14.623  34.747  41.896  1.00  0.00     0.051 A 
ATOM     16  C   UNL     1      17.155  35.172  40.789  1.00  0.00     0.062 A 
ATOM     17  C   UNL     1      15.747  34.789  42.722  1.00  0.00     0.016 A 
BRANCH  13  18
ATOM     18  O   UNL     1      13.647  34.872  39.642  1.00  0.00    -0.493 OA
ATOM     19  C   UNL     1      12.738  35.949  39.443  1.00  0.00     0.278 C 
ENDBRANCH  13  18
BRANCH  14  20
ATOM     20  O   UNL     1      16.120  35.310  38.561  1.00  0.00    -0.493 OA
ATOM     21  C   UNL     1      16.516  36.521  37.926  1.00  0.00     0.278 C 
ENDBRANCH  14  20
ENDBRANCH   1  12
BRANCH   6  22
ATOM     22  O   UNL     1      21.662  35.442  46.784  1.00  0.00    -0.492 OA
ATOM     23  C   UNL     1      22.315  36.663  47.125  1.00  0.00     0.278 C 
ENDBRANCH   6  22
BRANCH   8  24
ATOM     24  O   UNL     1      23.951  33.197  43.154  1.00  0.00    -0.493 OA
ATOM     25  C   UNL     1      24.006  32.352  42.007  1.00  0.00     0.278 C 
ENDBRANCH   8  24
BRANCH   7  26
ATOM     26  O   UNL     1      24.061  34.403  45.589  1.00  0.00    -0.490 OA
ATOM     27  C   UNL     1      24.442  33.447  46.582  1.00  0.00     0.278 C 
ENDBRANCH   7  26
TORSDOF 6
ENDMDL
MODEL 2
REMARK VINA RESULT:    -3.854      1.280      3.036
REMARK INTER + INTRA:          -5.714
REMARK INTER:                  -5.176
REMARK INTRA:                  -0.538
REMARK UNBOUND:                -0.509
REMARK SMILES COc1ccc(-c2cc(=O)c3c(OC)c(OC)c(OC)cc3o2)cc1OC
REMARK SMILES IDX 7 1 8 2 9 3 10 4 11 5 12 6 15 7 18 8 21 9 22 10 23 11 6 12
REMARK SMILES IDX 3 13 25 14 4 15 24 16 5 17 2 18 1 19 26 20 27 21 13 22 14 23
REMARK SMILES IDX 19 24 20 25 16 26 17 27
REMARK H PARENT
REMARK Flexibility Score: inf
ROOT
ATOM      1  C   UNL     1      18.137  34.519  42.153  1.00  0.00     0.138 A 
ATOM      2  C   UNL     1      18.883  33.478  41.575  1.00  0.00     0.100 A 
ATOM      3  C   UNL     1      20.060  33.053  42.191  1.00  0.00     0.197 A 
ATOM      4  O   UNL     1      20.717  32.114  41.667  1.00  0.00    -0.289 OA
ATOM      5  C   UNL     1      20.482  33.668  43.389  1.00  0.00     0.111 A 
ATOM      6  C   UNL     1      21.673  33.312  44.066  1.00  0.00     0.179 A 
ATOM      7  C   UNL     1      21.992  33.925  45.302  1.00  0.00     0.204 A 
ATOM      8  C   UNL     1      21.183  34.956  45.801  1.00  0.00     0.168 A 
ATOM      9  C   UNL     1      20.028  35.339  45.101  1.00  0.00     0.098 A 
ATOM     10  C   UNL     1      19.667  34.694  43.917  1.00  0.00     0.146 A 
ATOM     11  O   UNL     1      18.556  35.066  43.291  1.00  0.00    -0.456 OA
ENDROOT
BRANCH   1  12
ATOM     12  C   UNL     1      16.880  35.016  41.539  1.00  0.00     0.021 A 
ATOM     13  C   UNL     1      14.467  35.965  40.421  1.00  0.00     0.160 A 
ATOM     14  C   UNL     1      15.636  35.946  39.646  1.00  0.00     0.161 A 
ATOM     15  C   UNL     1      14.512  35.527  41.757  1.00  0.00     0.051 A 
ATOM     16  C   UNL     1      16.839  35.475  40.208  1.00  0.00     0.062 A 
ATOM     17  C   UNL     1      15.707  35.064  42.309  1.00  0.00     0.016 A 
BRANCH  13  18
ATOM     18  O   UNL     1      13.281  36.432  39.830  1.00  0.00    -0.493 OA
ATOM     19  C   UNL     1      12.664  37.679  40.135  1.00  0.00     0.278 C 
ENDBRANCH  13  18
BRANCH  14  20
ATOM     20  O   UNL     1      15.561  36.404  38.320  1.00  0.00    -0.493 OA
ATOM     21  C   UNL     1      15.974  37.695  37.887  1.00  0.00     0.278 C 
ENDBRANCH  14  20
ENDBRANCH   1  12
BRANCH   6  22
ATOM     22  O   UNL     1      22.553  32.391  43.495  1.00  0.00    -0.492 OA
ATOM     23  C   UNL     1      23.697  32.827  42.764  1.00  0.00     0.278 C 
ENDBRANCH   6  22
BRANCH   8  24
ATOM     24  O   UNL     1      21.556  35.570  47.009  1.00  0.00    -0.493 OA
ATOM     25  C   UNL     1      22.161  36.857  47.112  1.00  0.00     0.278 C 
ENDBRANCH   8  24
BRANCH   7  26
ATOM     26  O   UNL     1      23.103  33.541  46.071  1.00  0.00    -0.490 OA
ATOM     27  C   UNL     1      24.393  34.151  45.987  1.00  0.00     0.278 C 
ENDBRANCH   7  26
TORSDOF 6
ENDMDL
MODEL 3
REMARK VINA RESULT:    -3.731      3.041      5.612
REMARK INTER + INTRA:          -5.549
REMARK INTER:                  -4.918
REMARK INTRA:                  -0.630
REMARK UNBOUND:                -0.509
REMARK SMILES COc1ccc(-c2cc(=O)c3c(OC)c(OC)c(OC)cc3o2)cc1OC
REMARK SMILES IDX 7 1 8 2 9 3 10 4 11 5 12 6 15 7 18 8 21 9 22 10 23 11 6 12
REMARK SMILES IDX 3 13 25 14 4 15 24 16 5 17 2 18 1 19 26 20 27 21 13 22 14 23
REMARK SMILES IDX 19 24 20 25 16 26 17 27
REMARK H PARENT
REMARK Flexibility Score: inf
ROOT
ATOM      1  C   UNL     1      17.649  35.529  38.906  1.00  0.00     0.138 A 
ATOM      2  C   UNL     1      18.100  35.306  37.594  1.00  0.00     0.100 A 
ATOM      3  C   UNL     1      19.339  34.701  37.389  1.00  0.00     0.197 A 
ATOM      4  O   UNL     1      19.730  34.499  36.207  1.00  0.00    -0.289 OA
ATOM      5  C   UNL     1      20.121  34.317  38.498  1.00  0.00     0.111 A 
ATOM      6  C   UNL     1      21.398  33.718  38.378  1.00  0.00     0.179 A 
ATOM      7  C   UNL     1      22.090  33.293  39.538  1.00  0.00     0.204 A 
ATOM      8  C   UNL     1      21.558  33.560  40.807  1.00  0.00     0.168 A 
ATOM      9  C   UNL     1      20.313  34.197  40.923  1.00  0.00     0.098 A 
ATOM     10  C   UNL     1      19.590  34.559  39.785  1.00  0.00     0.146 A 
ATOM     11  O   UNL     1      18.405  35.141  39.929  1.00  0.00    -0.456 OA
ENDROOT
BRANCH   1  12
ATOM     12  C   UNL     1      16.340  36.174  39.185  1.00  0.00     0.021 A 
ATOM     13  C   UNL     1      13.858  37.430  39.670  1.00  0.00     0.160 A 
ATOM     14  C   UNL     1      14.198  36.262  40.368  1.00  0.00     0.161 A 
ATOM     15  C   UNL     1      14.752  37.956  38.719  1.00  0.00     0.051 A 
ATOM     16  C   UNL     1      15.436  35.636  40.122  1.00  0.00     0.062 A 
ATOM     17  C   UNL     1      15.975  37.329  38.477  1.00  0.00     0.016 A 
BRANCH  13  18
ATOM     18  O   UNL     1      12.621  38.036  39.944  1.00  0.00    -0.493 OA
ATOM     19  C   UNL     1      11.542  38.122  39.020  1.00  0.00     0.278 C 
ENDBRANCH  13  18
BRANCH  14  20
ATOM     20  O   UNL     1      13.279  35.755  41.301  1.00  0.00    -0.493 OA
ATOM     21  C   UNL     1      13.350  35.975  42.706  1.00  0.00     0.278 C 
ENDBRANCH  14  20
ENDBRANCH   1  12
BRANCH   6  22
ATOM     22  O   UNL     1      21.992  33.587  37.122  1.00  0.00    -0.492 OA
ATOM     23  C   UNL     1      23.057  34.447  36.721  1.00  0.00     0.278 C 
ENDBRANCH   6  22
BRANCH   8  24
ATOM     24  O   UNL     1      22.295  33.162  41.936  1.00  0.00    -0.493 OA
ATOM     25  C   UNL     1      22.320  33.864  43.177  1.00  0.00     0.278 C 
ENDBRANCH   8  24
BRANCH   7  26
ATOM     26  O   UNL     1      23.311  32.601  39.477  1.00  0.00    -0.490 OA
ATOM     27  C   UNL     1      23.432  31.196  39.237  1.00  0.00     0.278 C 
ENDBRANCH   7  26
TORSDOF 6
ENDMDL
MODEL 4
REMARK VINA RESULT:    -3.713      2.272      4.552
REMARK INTER + INTRA:          -5.524
REMARK INTER:                  -5.028
REMARK INTRA:                  -0.497
REMARK UNBOUND:                -0.509
REMARK SMILES COc1ccc(-c2cc(=O)c3c(OC)c(OC)c(OC)cc3o2)cc1OC
REMARK SMILES IDX 7 1 8 2 9 3 10 4 11 5 12 6 15 7 18 8 21 9 22 10 23 11 6 12
REMARK SMILES IDX 3 13 25 14 4 15 24 16 5 17 2 18 1 19 26 20 27 21 13 22 14 23
REMARK SMILES IDX 19 24 20 25 16 26 17 27
REMARK H PARENT
REMARK Flexibility Score: inf
ROOT
ATOM      1  C   UNL     1      21.096  34.001  40.531  1.00  0.00     0.138 A 
ATOM      2  C   UNL     1      22.101  33.023  40.443  1.00  0.00     0.100 A 
ATOM      3  C   UNL     1      22.866  32.722  41.570  1.00  0.00     0.197 A 
ATOM      4  O   UNL     1      23.760  31.838  41.480  1.00  0.00    -0.289 OA
ATOM      5  C   UNL     1      22.617  33.397  42.783  1.00  0.00     0.111 A 
ATOM      6  C   UNL     1      23.360  33.167  43.966  1.00  0.00     0.179 A 
ATOM      7  C   UNL     1      23.002  33.831  45.164  1.00  0.00     0.204 A 
ATOM      8  C   UNL     1      21.981  34.792  45.153  1.00  0.00     0.168 A 
ATOM      9  C   UNL     1      21.278  35.052  43.966  1.00  0.00     0.098 A 
ATOM     10  C   UNL     1      21.577  34.353  42.795  1.00  0.00     0.146 A 
ATOM     11  O   UNL     1      20.878  34.608  41.695  1.00  0.00    -0.456 OA
ENDROOT
BRANCH   1  12
ATOM     12  C   UNL     1      20.255  34.367  39.363  1.00  0.00     0.021 A 
ATOM     13  C   UNL     1      18.695  35.041  37.108  1.00  0.00     0.160 A 
ATOM     14  C   UNL     1      18.123  35.075  38.389  1.00  0.00     0.161 A 
ATOM     15  C   UNL     1      20.039  34.654  36.958  1.00  0.00     0.051 A 
ATOM     16  C   UNL     1      18.904  34.735  39.511  1.00  0.00     0.062 A 
ATOM     17  C   UNL     1      20.806  34.315  38.073  1.00  0.00     0.016 A 
BRANCH  13  18
ATOM     18  O   UNL     1      17.894  35.394  36.010  1.00  0.00    -0.493 OA
ATOM     19  C   UNL     1      18.276  36.318  34.996  1.00  0.00     0.278 C 
ENDBRANCH  13  18
BRANCH  14  20
ATOM     20  O   UNL     1      16.776  35.453  38.505  1.00  0.00    -0.493 OA
ATOM     21  C   UNL     1      16.328  36.784  38.735  1.00  0.00     0.278 C 
ENDBRANCH  14  20
ENDBRANCH   1  12
BRANCH   6  22
ATOM     22  O   UNL     1      24.470  32.321  43.940  1.00  0.00    -0.492 OA
ATOM     23  C   UNL     1      24.447  31.062  44.611  1.00  0.00     0.278 C 
ENDBRANCH   6  22
BRANCH   8  24
ATOM     24  O   UNL     1      21.684  35.462  46.353  1.00  0.00    -0.493 OA
ATOM     25  C   UNL     1      22.176  36.753  46.704  1.00  0.00     0.278 C 
ENDBRANCH   8  24
BRANCH   7  26
ATOM     26  O   UNL     1      23.633  33.567  46.391  1.00  0.00    -0.490 OA
ATOM     27  C   UNL     1      24.903  34.099  46.777  1.00  0.00     0.278 C 
ENDBRANCH   7  26
TORSDOF 6
ENDMDL
MODEL 5
REMARK VINA RESULT:    -3.666      2.407      8.403
REMARK INTER + INTRA:          -5.461
REMARK INTER:                  -4.945
REMARK INTRA:                  -0.516
REMARK UNBOUND:                -0.509
REMARK SMILES COc1ccc(-c2cc(=O)c3c(OC)c(OC)c(OC)cc3o2)cc1OC
REMARK SMILES IDX 7 1 8 2 9 3 10 4 11 5 12 6 15 7 18 8 21 9 22 10 23 11 6 12
REMARK SMILES IDX 3 13 25 14 4 15 24 16 5 17 2 18 1 19 26 20 27 21 13 22 14 23
REMARK SMILES IDX 19 24 20 25 16 26 17 27
REMARK H PARENT
REMARK Flexibility Score: inf
ROOT
ATOM      1  C   UNL     1      21.060  34.169  42.448  1.00  0.00     0.138 A 
ATOM      2  C   UNL     1      19.702  34.082  42.796  1.00  0.00     0.100 A 
ATOM      3  C   UNL     1      18.733  34.115  41.794  1.00  0.00     0.197 A 
ATOM      4  O   UNL     1      17.518  34.029  42.119  1.00  0.00    -0.289 OA
ATOM      5  C   UNL     1      19.128  34.231  40.445  1.00  0.00     0.111 A 
ATOM      6  C   UNL     1      18.209  34.294  39.370  1.00  0.00     0.179 A 
ATOM      7  C   UNL     1      18.684  34.336  38.037  1.00  0.00     0.204 A 
ATOM      8  C   UNL     1      20.062  34.421  37.788  1.00  0.00     0.168 A 
ATOM      9  C   UNL     1      20.968  34.406  38.860  1.00  0.00     0.098 A 
ATOM     10  C   UNL     1      20.513  34.295  40.174  1.00  0.00     0.146 A 
ATOM     11  O   UNL     1      21.398  34.262  41.164  1.00  0.00    -0.456 OA
ENDROOT
BRANCH   1  12
ATOM     12  C   UNL     1      22.135  34.144  43.472  1.00  0.00     0.021 A 
ATOM     13  C   UNL     1      24.214  34.078  45.381  1.00  0.00     0.160 A 
ATOM     14  C   UNL     1      23.025  34.765  45.667  1.00  0.00     0.161 A 
ATOM     15  C   UNL     1      24.367  33.443  44.136  1.00  0.00     0.051 A 
ATOM     16  C   UNL     1      21.990  34.798  44.712  1.00  0.00     0.062 A 
ATOM     17  C   UNL     1      23.340  33.482  43.191  1.00  0.00     0.016 A 
BRANCH  13  18
ATOM     18  O   UNL     1      25.224  34.055  46.358  1.00  0.00    -0.493 OA
ATOM     19  C   UNL     1      26.589  33.746  46.100  1.00  0.00     0.278 C 
ENDBRANCH  13  18
BRANCH  14  20
ATOM     20  O   UNL     1      22.908  35.400  46.914  1.00  0.00    -0.493 OA
ATOM     21  C   UNL     1      22.265  36.653  47.125  1.00  0.00     0.278 C 
ENDBRANCH  14  20
ENDBRANCH   1  12
BRANCH   6  22
ATOM     22  O   UNL     1      16.838  34.359  39.626  1.00  0.00    -0.492 OA
ATOM     23  C   UNL     1      16.156  35.611  39.655  1.00  0.00     0.278 C 
ENDBRANCH   6  22
BRANCH   8  24
ATOM     24  O   UNL     1      20.494  34.505  36.453  1.00  0.00    -0.493 OA
ATOM     25  C   UNL     1      21.111  35.650  35.871  1.00  0.00     0.278 C 
ENDBRANCH   8  24
BRANCH   7  26
ATOM     26  O   UNL     1      17.825  34.294  36.927  1.00  0.00    -0.490 OA
ATOM     27  C   UNL     1      17.295  35.450  36.272  1.00  0.00     0.278 C 
ENDBRANCH   7  26
TORSDOF 6
ENDMDL
MODEL 6
REMARK VINA RESULT:    -3.644      2.656      8.870
REMARK INTER + INTRA:          -5.431
REMARK INTER:                  -4.699
REMARK INTRA:                  -0.732
REMARK UNBOUND:                -0.509
REMARK SMILES COc1ccc(-c2cc(=O)c3c(OC)c(OC)c(OC)cc3o2)cc1OC
REMARK SMILES IDX 7 1 8 2 9 3 10 4 11 5 12 6 15 7 18 8 21 9 22 10 23 11 6 12
REMARK SMILES IDX 3 13 25 14 4 15 24 16 5 17 2 18 1 19 26 20 27 21 13 22 14 23
REMARK SMILES IDX 19 24 20 25 16 26 17 27
REMARK H PARENT
REMARK Flexibility Score: inf
ROOT
ATOM      1  C   UNL     1      21.091  34.139  40.944  1.00  0.00     0.138 A 
ATOM      2  C   UNL     1      21.848  33.842  39.799  1.00  0.00     0.100 A 
ATOM      3  C   UNL     1      21.275  34.003  38.537  1.00  0.00     0.197 A 
ATOM      4  O   UNL     1      21.966  33.740  37.516  1.00  0.00    -0.289 OA
ATOM      5  C   UNL     1      19.948  34.467  38.428  1.00  0.00     0.111 A 
ATOM      6  C   UNL     1      19.284  34.637  37.188  1.00  0.00     0.179 A 
ATOM      7  C   UNL     1      17.976  35.177  37.157  1.00  0.00     0.204 A 
ATOM      8  C   UNL     1      17.300  35.444  38.356  1.00  0.00     0.168 A 
ATOM      9  C   UNL     1      17.944  35.229  39.584  1.00  0.00     0.098 A 
ATOM     10  C   UNL     1      19.259  34.762  39.625  1.00  0.00     0.146 A 
ATOM     11  O   UNL     1      19.847  34.589  40.804  1.00  0.00    -0.456 OA
ENDROOT
BRANCH   1  12
ATOM     12  C   UNL     1      21.646  33.982  42.313  1.00  0.00     0.021 A 
ATOM     13  C   UNL     1      22.747  33.656  44.892  1.00  0.00     0.160 A 
ATOM     14  C   UNL     1      21.685  34.552  44.693  1.00  0.00     0.161 A 
ATOM     15  C   UNL     1      23.266  32.940  43.798  1.00  0.00     0.051 A 
ATOM     16  C   UNL     1      21.141  34.714  43.404  1.00  0.00     0.062 A 
ATOM     17  C   UNL     1      22.724  33.108  42.523  1.00  0.00     0.016 A 
BRANCH  13  18
ATOM     18  O   UNL     1      23.262  33.509  46.191  1.00  0.00    -0.493 OA
ATOM     19  C   UNL     1      24.462  34.118  46.656  1.00  0.00     0.278 C 
ENDBRANCH  13  18
BRANCH  14  20
ATOM     20  O   UNL     1      21.199  35.261  45.803  1.00  0.00    -0.493 OA
ATOM     21  C   UNL     1      21.427  36.647  46.039  1.00  0.00     0.278 C 
ENDBRANCH  14  20
ENDBRANCH   1  12
BRANCH   6  22
ATOM     22  O   UNL     1      19.903  34.233  36.004  1.00  0.00    -0.492 OA
ATOM     23  C   UNL     1      19.496  33.041  35.335  1.00  0.00     0.278 C 
ENDBRANCH   6  22
BRANCH   8  24
ATOM     24  O   UNL     1      15.986  35.938  38.284  1.00  0.00    -0.493 OA
ATOM     25  C   UNL     1      15.617  37.297  38.509  1.00  0.00     0.278 C 
ENDBRANCH   8  24
BRANCH   7  26
ATOM     26  O   UNL     1      17.307  35.466  35.955  1.00  0.00    -0.490 OA
ATOM     27  C   UNL     1      17.514  36.650  35.180  1.00  0.00     0.278 C 
ENDBRANCH   7  26
TORSDOF 6
ENDMDL
MODEL 7
REMARK VINA RESULT:    -3.625      1.783      8.759
REMARK INTER + INTRA:          -5.405
REMARK INTER:                  -4.685
REMARK INTRA:                  -0.720
REMARK UNBOUND:                -0.509
REMARK SMILES COc1ccc(-c2cc(=O)c3c(OC)c(OC)c(OC)cc3o2)cc1OC
REMARK SMILES IDX 7 1 8 2 9 3 10 4 11 5 12 6 15 7 18 8 21 9 22 10 23 11 6 12
REMARK SMILES IDX 3 13 25 14 4 15 24 16 5 17 2 18 1 19 26 20 27 21 13 22 14 23
REMARK SMILES IDX 19 24 20 25 16 26 17 27
REMARK H PARENT
REMARK Flexibility Score: inf
ROOT
ATOM      1  C   UNL     1      20.460  34.285  41.742  1.00  0.00     0.138 A 
ATOM      2  C   UNL     1      20.966  34.380  40.436  1.00  0.00     0.100 A 
ATOM      3  C   UNL     1      20.086  34.581  39.372  1.00  0.00     0.197 A 
ATOM      4  O   UNL     1      20.553  34.671  38.204  1.00  0.00    -0.289 OA
ATOM      5  C   UNL     1      18.703  34.693  39.622  1.00  0.00     0.111 A 
ATOM      6  C   UNL     1      17.741  34.876  38.599  1.00  0.00     0.179 A 
ATOM      7  C   UNL     1      16.378  35.054  38.937  1.00  0.00     0.204 A 
ATOM      8  C   UNL     1      15.967  34.943  40.273  1.00  0.00     0.168 A 
ATOM      9  C   UNL     1      16.918  34.713  41.279  1.00  0.00     0.098 A 
ATOM     10  C   UNL     1      18.274  34.606  40.965  1.00  0.00     0.146 A 
ATOM     11  O   UNL     1      19.150  34.410  41.944  1.00  0.00    -0.456 OA
ENDROOT
BRANCH   1  12
ATOM     12  C   UNL     1      21.348  34.065  42.913  1.00  0.00     0.021 A 
ATOM     13  C   UNL     1      23.072  33.621  45.103  1.00  0.00     0.160 A 
ATOM     14  C   UNL     1      22.018  34.540  45.219  1.00  0.00     0.161 A 
ATOM     15  C   UNL     1      23.271  32.941  43.888  1.00  0.00     0.051 A 
ATOM     16  C   UNL     1      21.162  34.761  44.123  1.00  0.00     0.062 A 
ATOM     17  C   UNL     1      22.421  33.167  42.805  1.00  0.00     0.016 A 
BRANCH  13  18
ATOM     18  O   UNL     1      23.904  33.416  46.217  1.00  0.00    -0.493 OA
ATOM     19  C   UNL     1      25.204  33.976  46.368  1.00  0.00     0.278 C 
ENDBRANCH  13  18
BRANCH  14  20
ATOM     20  O   UNL     1      21.855  35.213  46.441  1.00  0.00    -0.493 OA
ATOM     21  C   UNL     1      22.274  36.551  46.688  1.00  0.00     0.278 C 
ENDBRANCH  14  20
ENDBRANCH   1  12
BRANCH   6  22
ATOM     22  O   UNL     1      18.131  34.839  37.260  1.00  0.00    -0.492 OA
ATOM     23  C   UNL     1      17.853  33.701  36.447  1.00  0.00     0.278 C 
ENDBRANCH   6  22
BRANCH   8  24
ATOM     24  O   UNL     1      14.599  35.081  40.564  1.00  0.00    -0.493 OA
ATOM     25  C   UNL     1      14.005  36.244  41.135  1.00  0.00     0.278 C 
ENDBRANCH   8  24
BRANCH   7  26
ATOM     26  O   UNL     1      15.394  35.343  37.976  1.00  0.00    -0.490 OA
ATOM     27  C   UNL     1      15.145  36.645  37.441  1.00  0.00     0.278 C 
ENDBRANCH   7  26
TORSDOF 6
ENDMDL
MODEL 8
REMARK VINA RESULT:    -3.603      1.613      8.515
REMARK INTER + INTRA:          -5.375
REMARK INTER:                  -4.763
REMARK INTRA:                  -0.613
REMARK UNBOUND:                -0.509
REMARK SMILES COc1ccc(-c2cc(=O)c3c(OC)c(OC)c(OC)cc3o2)cc1OC
REMARK SMILES IDX 7 1 8 2 9 3 10 4 11 5 12 6 15 7 18 8 21 9 22 10 23 11 6 12
REMARK SMILES IDX 3 13 25 14 4 15 24 16 5 17 2 18 1 19 26 20 27 21 13 22 14 23
REMARK SMILES IDX 19 24 20 25 16 26 17 27
REMARK H PARENT
REMARK Flexibility Score: inf
ROOT
ATOM      1  C   UNL     1      17.806  34.767  42.483  1.00  0.00     0.138 A 
ATOM      2  C   UNL     1      16.603  34.674  43.202  1.00  0.00     0.100 A 
ATOM      3  C   UNL     1      15.404  35.026  42.583  1.00  0.00     0.197 A 
ATOM      4  O   UNL     1      14.330  34.931  43.236  1.00  0.00    -0.289 OA
ATOM      5  C   UNL     1      15.413  35.465  41.243  1.00  0.00     0.111 A 
ATOM      6  C   UNL     1      14.246  35.862  40.548  1.00  0.00     0.179 A 
ATOM      7  C   UNL     1      14.326  36.222  39.181  1.00  0.00     0.204 A 
ATOM      8  C   UNL     1      15.576  36.286  38.547  1.00  0.00     0.168 A 
ATOM      9  C   UNL     1      16.737  35.937  39.254  1.00  0.00     0.098 A 
ATOM     10  C   UNL     1      16.661  35.515  40.582  1.00  0.00     0.146 A 
ATOM     11  O   UNL     1      17.777  35.172  41.216  1.00  0.00    -0.456 OA
ENDROOT
BRANCH   1  12
ATOM     12  C   UNL     1      19.113  34.411  43.092  1.00  0.00     0.021 A 
ATOM     13  C   UNL     1      21.609  33.703  44.205  1.00  0.00     0.160 A 
ATOM     14  C   UNL     1      20.879  34.771  44.749  1.00  0.00     0.161 A 
ATOM     15  C   UNL     1      21.096  33.004  43.098  1.00  0.00     0.051 A 
ATOM     16  C   UNL     1      19.636  35.124  44.189  1.00  0.00     0.062 A 
ATOM     17  C   UNL     1      19.865  33.360  42.545  1.00  0.00     0.016 A 
BRANCH  13  18
ATOM     18  O   UNL     1      22.841  33.370  44.792  1.00  0.00    -0.493 OA
ATOM     19  C   UNL     1      24.110  33.767  44.283  1.00  0.00     0.278 C 
ENDBRANCH  13  18
BRANCH  14  20
ATOM     20  O   UNL     1      21.424  35.458  45.846  1.00  0.00    -0.493 OA
ATOM     21  C   UNL     1      21.323  36.863  46.050  1.00  0.00     0.278 C 
ENDBRANCH  14  20
ENDBRANCH   1  12
BRANCH   6  22
ATOM     22  O   UNL     1      13.025  35.940  41.220  1.00  0.00    -0.492 OA
ATOM     23  C   UNL     1      12.484  37.200  41.613  1.00  0.00     0.278 C 
ENDBRANCH   6  22
BRANCH   8  24
ATOM     24  O   UNL     1      15.620  36.689  37.201  1.00  0.00    -0.493 OA
ATOM     25  C   UNL     1      15.959  38.001  36.758  1.00  0.00     0.278 C 
ENDBRANCH   8  24
BRANCH   7  26
ATOM     26  O   UNL     1      13.191  36.523  38.411  1.00  0.00    -0.490 OA
ATOM     27  C   UNL     1      12.347  35.545  37.798  1.00  0.00     0.278 C 
ENDBRANCH   7  26
TORSDOF 6
ENDMDL
MODEL 9
REMARK VINA RESULT:    -3.567      2.987      4.392
REMARK INTER + INTRA:          -5.326
REMARK INTER:                  -4.853
REMARK INTRA:                  -0.473
REMARK UNBOUND:                -0.509
REMARK SMILES COc1ccc(-c2cc(=O)c3c(OC)c(OC)c(OC)cc3o2)cc1OC
REMARK SMILES IDX 7 1 8 2 9 3 10 4 11 5 12 6 15 7 18 8 21 9 22 10 23 11 6 12
REMARK SMILES IDX 3 13 25 14 4 15 24 16 5 17 2 18 1 19 26 20 27 21 13 22 14 23
REMARK SMILES IDX 19 24 20 25 16 26 17 27
REMARK H PARENT
REMARK Flexibility Score: inf
ROOT
ATOM      1  C   UNL     1      18.070  34.935  40.135  1.00  0.00     0.138 A 
ATOM      2  C   UNL     1      18.380  34.345  41.371  1.00  0.00     0.100 A 
ATOM      3  C   UNL     1      19.620  33.731  41.546  1.00  0.00     0.197 A 
ATOM      4  O   UNL     1      19.889  33.210  42.663  1.00  0.00    -0.289 OA
ATOM      5  C   UNL     1      20.547  33.715  40.484  1.00  0.00     0.111 A 
ATOM      6  C   UNL     1      21.817  33.095  40.571  1.00  0.00     0.179 A 
ATOM      7  C   UNL     1      22.722  33.186  39.486  1.00  0.00     0.204 A 
ATOM      8  C   UNL     1      22.321  33.797  38.290  1.00  0.00     0.168 A 
ATOM      9  C   UNL     1      21.043  34.369  38.191  1.00  0.00     0.098 A 
ATOM     10  C   UNL     1      20.168  34.346  39.278  1.00  0.00     0.146 A 
ATOM     11  O   UNL     1      18.974  34.916  39.159  1.00  0.00    -0.456 OA
ENDROOT
BRANCH   1  12
ATOM     12  C   UNL     1      16.764  35.598  39.889  1.00  0.00     0.021 A 
ATOM     13  C   UNL     1      14.263  36.841  39.472  1.00  0.00     0.160 A 
ATOM     14  C   UNL     1      15.354  37.174  38.655  1.00  0.00     0.161 A 
ATOM     15  C   UNL     1      14.431  35.901  40.505  1.00  0.00     0.051 A 
ATOM     16  C   UNL     1      16.601  36.554  38.868  1.00  0.00     0.062 A 
ATOM     17  C   UNL     1      15.670  35.293  40.714  1.00  0.00     0.016 A 
BRANCH  13  18
ATOM     18  O   UNL     1      13.030  37.468  39.229  1.00  0.00    -0.493 OA
ATOM     19  C   UNL     1      11.989  37.602  40.191  1.00  0.00     0.278 C 
ENDBRANCH  13  18
BRANCH  14  20
ATOM     20  O   UNL     1      15.157  38.125  37.640  1.00  0.00    -0.493 OA
ATOM     21  C   UNL     1      15.836  38.122  36.389  1.00  0.00     0.278 C 
ENDBRANCH  14  20
ENDBRANCH   1  12
BRANCH   6  22
ATOM     22  O   UNL     1      22.159  32.360  41.707  1.00  0.00    -0.492 OA
ATOM     23  C   UNL     1      23.110  32.859  42.645  1.00  0.00     0.278 C 
ENDBRANCH   6  22
BRANCH   8  24
ATOM     24  O   UNL     1      23.232  33.829  37.219  1.00  0.00    -0.493 OA
ATOM     25  C   UNL     1      22.926  34.296  35.908  1.00  0.00     0.278 C 
ENDBRANCH   8  24
BRANCH   7  26
ATOM     26  O   UNL     1      24.032  32.682  39.551  1.00  0.00    -0.490 OA
ATOM     27  C   UNL     1      24.383  31.313  39.333  1.00  0.00     0.278 C 
ENDBRANCH   7  26
TORSDOF 6
ENDMDL
