MODEL 1
REMARK VINA RESULT:    -4.153      0.000      0.000
REMARK INTER + INTRA:          -4.379
REMARK INTER:                  -5.124
REMARK INTRA:                   0.746
REMARK UNBOUND:                 0.746
REMARK SMILES CC1=CC=CC(C)(C)CC1=O
REMARK SMILES IDX 1 1 2 2 3 3 10 4 11 5 9 6 4 8 5 9 6 10 7 11 8 12
REMARK H PARENT
REMARK Flexibility Score: 80.00
ROOT
ATOM      1  C   UNL     1     -12.505 -38.725  32.004  1.00  0.00     0.048 C 
ATOM      2  C   UNL     1     -12.476 -37.697  30.897  1.00  0.00    -0.008 C 
ATOM      3  C   UNL     1     -13.391 -37.814  29.911  1.00  0.00     0.007 C 
ENDROOT
BRANCH   2   4
ATOM      4  C   UNL     1     -11.489 -36.596  31.023  1.00  0.00     0.159 C 
ATOM      5  O   UNL     1     -10.861 -36.464  32.109  1.00  0.00    -0.295 OA
BRANCH   4   6
ATOM      6  C   UNL     1     -11.183 -35.630  29.919  1.00  0.00     0.091 CG0
ATOM      7  G   UNL     1     -12.425 -34.856  29.425  1.00  0.00     0.000 G0
ENDBRANCH   4   6
ENDBRANCH   2   4
BRANCH   3   8
ATOM      8  C   UNL     1     -13.624 -36.959  28.723  1.00  0.00    -0.003 C 
ATOM      9  C   UNL     1     -13.231 -35.698  28.500  1.00  0.00    -0.020 C 
BRANCH   9  10
ATOM     10  C   UNL     1     -12.405 -34.838  29.429  1.00  0.00    -0.010 CG0
ATOM     11  C   UNL     1     -13.290 -34.306  30.579  1.00  0.00     0.016 C 
ATOM     12  C   UNL     1     -11.883 -33.625  28.627  1.00  0.00     0.016 C 
ATOM     13  G   UNL     1     -11.187 -35.641  29.935  1.00  0.00     0.000 G0
ENDBRANCH   9  10
ENDBRANCH   3   8
TORSDOF 0
ENDMDL
MODEL 2
REMARK VINA RESULT:    -4.009      1.750      2.885
REMARK INTER + INTRA:          -4.201
REMARK INTER:                  -4.961
REMARK INTRA:                   0.760
REMARK UNBOUND:                 0.746
REMARK SMILES CC1=CC=CC(C)(C)CC1=O
REMARK SMILES IDX 1 1 2 2 3 3 10 4 11 5 9 6 4 8 5 9 6 10 7 11 8 12
REMARK H PARENT
REMARK Flexibility Score: 80.00
ROOT
ATOM      1  C   UNL     1     -14.010 -38.339  28.651  1.00  0.00     0.048 C 
ATOM      2  C   UNL     1     -13.362 -37.429  29.668  1.00  0.00    -0.008 C 
ATOM      3  C   UNL     1     -12.873 -37.995  30.792  1.00  0.00     0.007 C 
ENDROOT
BRANCH   2   4
ATOM      4  C   UNL     1     -13.249 -35.992  29.314  1.00  0.00     0.159 C 
ATOM      5  O   UNL     1     -13.514 -35.634  28.134  1.00  0.00    -0.295 OA
BRANCH   4   6
ATOM      6  C   UNL     1     -12.846 -34.930  30.290  1.00  0.00     0.091 CG0
ATOM      7  G   UNL     1     -11.447 -35.163  30.902  1.00  0.00     0.000 G0
ENDBRANCH   4   6
ENDBRANCH   2   4
BRANCH   3   8
ATOM      8  C   UNL     1     -12.171 -37.376  31.941  1.00  0.00    -0.003 C 
ATOM      9  C   UNL     1     -11.551 -36.191  32.013  1.00  0.00    -0.020 C 
BRANCH   9  10
ATOM     10  C   UNL     1     -11.446 -35.164  30.909  1.00  0.00    -0.010 CG0
ATOM     11  C   UNL     1     -10.392 -35.613  29.871  1.00  0.00     0.016 C 
ATOM     12  C   UNL     1     -10.968 -33.833  31.531  1.00  0.00     0.016 C 
ATOM     13  G   UNL     1     -12.839 -34.930  30.283  1.00  0.00     0.000 G0
ENDBRANCH   9  10
ENDBRANCH   3   8
TORSDOF 0
ENDMDL
MODEL 3
REMARK VINA RESULT:    -4.002      1.432      2.348
REMARK INTER + INTRA:          -4.193
REMARK INTER:                  -4.948
REMARK INTRA:                   0.755
REMARK UNBOUND:                 0.746
REMARK SMILES CC1=CC=CC(C)(C)CC1=O
REMARK SMILES IDX 1 1 2 2 3 3 10 4 11 5 9 6 4 8 5 9 6 10 7 11 8 12
REMARK H PARENT
REMARK Flexibility Score: 80.00
ROOT
ATOM      1  C   UNL     1     -14.315 -37.973  28.647  1.00  0.00     0.048 C 
ATOM      2  C   UNL     1     -13.319 -36.932  29.102  1.00  0.00    -0.008 C 
ATOM      3  C   UNL     1     -13.081 -35.890  28.277  1.00  0.00     0.007 C 
ENDROOT
BRANCH   2   4
ATOM      4  C   UNL     1     -12.736 -37.101  30.457  1.00  0.00     0.159 C 
ATOM      5  O   UNL     1     -13.228 -37.974  31.225  1.00  0.00    -0.295 OA
BRANCH   4   6
ATOM      6  C   UNL     1     -11.580 -36.297  30.966  1.00  0.00     0.091 CG0
ATOM      7  G   UNL     1     -11.852 -34.777  30.977  1.00  0.00     0.000 G0
ENDBRANCH   4   6
ENDBRANCH   2   4
BRANCH   3   8
ATOM      8  C   UNL     1     -12.191 -34.719  28.455  1.00  0.00    -0.003 C 
ATOM      9  C   UNL     1     -11.666 -34.222  29.583  1.00  0.00    -0.020 C 
BRANCH   9  10
ATOM     10  C   UNL     1     -11.844 -34.777  30.977  1.00  0.00    -0.010 CG0
ATOM     11  C   UNL     1     -13.246 -34.410  31.515  1.00  0.00     0.016 C 
ATOM     12  C   UNL     1     -10.792 -34.119  31.897  1.00  0.00     0.016 C 
ATOM     13  G   UNL     1     -11.588 -36.300  30.966  1.00  0.00     0.000 G0
ENDBRANCH   9  10
ENDBRANCH   3   8
TORSDOF 0
ENDMDL
MODEL 4
REMARK VINA RESULT:    -3.906      1.812      2.750
REMARK INTER + INTRA:          -4.074
REMARK INTER:                  -4.841
REMARK INTRA:                   0.767
REMARK UNBOUND:                 0.746
REMARK SMILES CC1=CC=CC(C)(C)CC1=O
REMARK SMILES IDX 1 1 2 2 3 3 10 4 11 5 9 6 4 8 5 9 6 10 7 11 8 12
REMARK H PARENT
REMARK Flexibility Score: 80.00
ROOT
ATOM      1  C   UNL     1     -13.345 -35.790  32.217  1.00  0.00     0.048 C 
ATOM      2  C   UNL     1     -13.196 -35.303  30.795  1.00  0.00    -0.008 C 
ATOM      3  C   UNL     1     -13.292 -33.974  30.576  1.00  0.00     0.007 C 
ENDROOT
BRANCH   2   4
ATOM      4  C   UNL     1     -12.879 -36.320  29.762  1.00  0.00     0.159 C 
ATOM      5  O   UNL     1     -12.564 -37.485  30.133  1.00  0.00    -0.295 OA
BRANCH   4   6
ATOM      6  C   UNL     1     -12.925 -36.046  28.291  1.00  0.00     0.091 CG0
ATOM      7  G   UNL     1     -11.966 -34.918  27.850  1.00  0.00     0.000 G0
ENDBRANCH   4   6
ENDBRANCH   2   4
BRANCH   3   8
ATOM      8  C   UNL     1     -13.166 -33.206  29.314  1.00  0.00    -0.003 C 
ATOM      9  C   UNL     1     -12.597 -33.571  28.158  1.00  0.00    -0.020 C 
BRANCH   9  10
ATOM     10  C   UNL     1     -11.957 -34.905  27.853  1.00  0.00    -0.010 CG0
ATOM     11  C   UNL     1     -10.573 -34.993  28.536  1.00  0.00     0.016 C 
ATOM     12  C   UNL     1     -11.744 -35.003  26.326  1.00  0.00     0.016 C 
ATOM     13  G   UNL     1     -12.906 -36.047  28.280  1.00  0.00     0.000 G0
ENDBRANCH   9  10
ENDBRANCH   3   8
TORSDOF 0
ENDMDL
MODEL 5
REMARK VINA RESULT:    -3.897      1.469      2.390
REMARK INTER + INTRA:          -4.062
REMARK INTER:                  -4.808
REMARK INTRA:                   0.746
REMARK UNBOUND:                 0.746
REMARK SMILES CC1=CC=CC(C)(C)CC1=O
REMARK SMILES IDX 1 1 2 2 3 3 10 4 11 5 9 6 4 8 5 9 6 10 7 11 8 12
REMARK H PARENT
REMARK Flexibility Score: 80.00
ROOT
ATOM      1  C   UNL     1     -12.549 -38.229  32.128  1.00  0.00     0.048 C 
ATOM      2  C   UNL     1     -12.788 -36.953  31.355  1.00  0.00    -0.008 C 
ATOM      3  C   UNL     1     -12.672 -35.786  32.022  1.00  0.00     0.007 C 
ENDROOT
BRANCH   2   4
ATOM      4  C   UNL     1     -13.058 -37.085  29.901  1.00  0.00     0.159 C 
ATOM      5  O   UNL     1     -12.866 -38.202  29.346  1.00  0.00    -0.295 OA
BRANCH   4   6
ATOM      6  C   UNL     1     -13.561 -35.961  29.049  1.00  0.00     0.091 CG0
ATOM      7  G   UNL     1     -12.602 -34.750  29.009  1.00  0.00     0.000 G0
ENDBRANCH   4   6
ENDBRANCH   2   4
BRANCH   3   8
ATOM      8  C   UNL     1     -12.820 -34.393  31.537  1.00  0.00    -0.003 C 
ATOM      9  C   UNL     1     -12.786 -33.929  30.282  1.00  0.00    -0.020 C 
BRANCH   9  10
ATOM     10  C   UNL     1     -12.611 -34.750  29.025  1.00  0.00    -0.010 CG0
ATOM     11  C   UNL     1     -11.126 -35.145  28.856  1.00  0.00     0.016 C 
ATOM     12  C   UNL     1     -13.013 -33.876  27.816  1.00  0.00     0.016 C 
ATOM     13  G   UNL     1     -13.553 -35.974  29.069  1.00  0.00     0.000 G0
ENDBRANCH   9  10
ENDBRANCH   3   8
TORSDOF 0
ENDMDL
MODEL 6
REMARK VINA RESULT:    -3.840      1.639      3.747
REMARK INTER + INTRA:          -3.992
REMARK INTER:                  -4.745
REMARK INTRA:                   0.753
REMARK UNBOUND:                 0.746
REMARK SMILES CC1=CC=CC(C)(C)CC1=O
REMARK SMILES IDX 1 1 2 2 3 3 10 4 11 5 9 6 4 8 5 9 6 10 7 11 8 12
REMARK H PARENT
REMARK Flexibility Score: 80.00
ROOT
ATOM      1  C   UNL     1     -12.856 -32.749  28.643  1.00  0.00     0.048 C 
ATOM      2  C   UNL     1     -12.775 -33.827  29.699  1.00  0.00    -0.008 C 
ATOM      3  C   UNL     1     -13.618 -33.738  30.750  1.00  0.00     0.007 C 
ENDROOT
BRANCH   2   4
ATOM      4  C   UNL     1     -11.824 -34.940  29.456  1.00  0.00     0.159 C 
ATOM      5  O   UNL     1     -11.281 -35.039  28.321  1.00  0.00    -0.295 OA
BRANCH   4   6
ATOM      6  C   UNL     1     -11.457 -35.955  30.494  1.00  0.00     0.091 CG0
ATOM      7  G   UNL     1     -12.671 -36.750  31.025  1.00  0.00     0.000 G0
ENDBRANCH   4   6
ENDBRANCH   2   4
BRANCH   3   8
ATOM      8  C   UNL     1     -13.789 -34.642  31.911  1.00  0.00    -0.003 C 
ATOM      9  C   UNL     1     -13.409 -35.919  32.050  1.00  0.00    -0.020 C 
BRANCH   9  10
ATOM     10  C   UNL     1     -12.668 -36.751  31.030  1.00  0.00    -0.010 CG0
ATOM     11  C   UNL     1     -13.639 -37.206  29.916  1.00  0.00     0.016 C 
ATOM     12  C   UNL     1     -12.127 -38.014  31.736  1.00  0.00     0.016 C 
ATOM     13  G   UNL     1     -11.464 -35.953  30.483  1.00  0.00     0.000 G0
ENDBRANCH   9  10
ENDBRANCH   3   8
TORSDOF 0
ENDMDL
MODEL 7
REMARK VINA RESULT:    -3.837      1.943      3.749
REMARK INTER + INTRA:          -3.988
REMARK INTER:                  -4.741
REMARK INTRA:                   0.753
REMARK UNBOUND:                 0.746
REMARK SMILES CC1=CC=CC(C)(C)CC1=O
REMARK SMILES IDX 1 1 2 2 3 3 10 4 11 5 9 6 4 8 5 9 6 10 7 11 8 12
REMARK H PARENT
REMARK Flexibility Score: 80.00
ROOT
ATOM      1  C   UNL     1     -13.446 -34.240  26.775  1.00  0.00     0.048 C 
ATOM      2  C   UNL     1     -12.643 -34.623  27.996  1.00  0.00    -0.008 C 
ATOM      3  C   UNL     1     -11.739 -33.732  28.454  1.00  0.00     0.007 C 
ENDROOT
BRANCH   2   4
ATOM      4  C   UNL     1     -12.968 -35.921  28.638  1.00  0.00     0.159 C 
ATOM      5  O   UNL     1     -13.994 -36.548  28.256  1.00  0.00    -0.295 OA
BRANCH   4   6
ATOM      6  C   UNL     1     -12.133 -36.541  29.716  1.00  0.00     0.091 CG0
ATOM      7  G   UNL     1     -11.992 -35.647  30.968  1.00  0.00     0.000 G0
ENDBRANCH   4   6
ENDBRANCH   2   4
BRANCH   3   8
ATOM      8  C   UNL     1     -10.836 -33.810  29.627  1.00  0.00    -0.003 C 
ATOM      9  C   UNL     1     -10.918 -34.602  30.704  1.00  0.00    -0.020 C 
BRANCH   9  10
ATOM     10  C   UNL     1     -11.970 -35.653  30.967  1.00  0.00    -0.010 CG0
ATOM     11  C   UNL     1     -13.288 -34.979  31.413  1.00  0.00     0.016 C 
ATOM     12  C   UNL     1     -11.478 -36.551  32.124  1.00  0.00     0.016 C 
ATOM     13  G   UNL     1     -12.147 -36.538  29.713  1.00  0.00     0.000 G0
ENDBRANCH   9  10
ENDBRANCH   3   8
TORSDOF 0
ENDMDL
MODEL 8
REMARK VINA RESULT:    -3.344      2.127      3.645
REMARK INTER + INTRA:          -3.380
REMARK INTER:                  -4.138
REMARK INTRA:                   0.758
REMARK UNBOUND:                 0.746
REMARK SMILES CC1=CC=CC(C)(C)CC1=O
REMARK SMILES IDX 1 1 2 2 3 3 10 4 11 5 9 6 4 8 5 9 6 10 7 11 8 12
REMARK H PARENT
REMARK Flexibility Score: 80.00
ROOT
ATOM      1  C   UNL     1     -15.074 -32.335  31.321  1.00  0.00     0.048 C 
ATOM      2  C   UNL     1     -14.019 -33.286  30.806  1.00  0.00    -0.008 C 
ATOM      3  C   UNL     1     -13.387 -32.959  29.659  1.00  0.00     0.007 C 
ENDROOT
BRANCH   2   4
ATOM      4  C   UNL     1     -13.709 -34.470  31.646  1.00  0.00     0.159 C 
ATOM      5  O   UNL     1     -14.185 -34.529  32.813  1.00  0.00    -0.295 OA
BRANCH   4   6
ATOM      6  C   UNL     1     -12.867 -35.617  31.179  1.00  0.00     0.091 CG0
ATOM      7  G   UNL     1     -11.438 -35.196  30.769  1.00  0.00     0.000 G0
ENDBRANCH   4   6
ENDBRANCH   2   4
BRANCH   3   8
ATOM      8  C   UNL     1     -12.307 -33.666  28.932  1.00  0.00    -0.003 C 
ATOM      9  C   UNL     1     -11.464 -34.606  29.379  1.00  0.00    -0.020 C 
BRANCH   9  10
ATOM     10  C   UNL     1     -11.437 -35.202  30.767  1.00  0.00    -0.010 CG0
ATOM     11  C   UNL     1     -10.788 -34.205  31.755  1.00  0.00     0.016 C 
ATOM     12  C   UNL     1     -10.564 -36.475  30.730  1.00  0.00     0.016 C 
ATOM     13  G   UNL     1     -12.867 -35.611  31.185  1.00  0.00     0.000 G0
ENDBRANCH   9  10
ENDBRANCH   3   8
TORSDOF 0
ENDMDL
MODEL 9
REMARK VINA RESULT:    -3.338      1.272      2.038
REMARK INTER + INTRA:          -3.373
REMARK INTER:                  -4.425
REMARK INTRA:                   1.052
REMARK UNBOUND:                 0.746
REMARK SMILES CC1=CC=CC(C)(C)CC1=O
REMARK SMILES IDX 1 1 2 2 3 3 10 4 11 5 9 6 4 8 5 9 6 10 7 11 8 12
REMARK H PARENT
REMARK Flexibility Score: 80.00
ROOT
ATOM      1  C   UNL     1     -13.471 -37.973  30.233  1.00  0.00     0.048 C 
ATOM      2  C   UNL     1     -12.890 -36.642  29.818  1.00  0.00    -0.008 C 
ATOM      3  C   UNL     1     -13.166 -36.200  28.572  1.00  0.00     0.007 C 
ENDROOT
BRANCH   2   4
ATOM      4  C   UNL     1     -12.121 -35.891  30.842  1.00  0.00     0.159 C 
ATOM      5  O   UNL     1     -11.723 -36.502  31.872  1.00  0.00    -0.295 OA
BRANCH   4   6
ATOM      6  C   UNL     1     -11.777 -34.439  30.717  1.00  0.00     0.091 CG0
ATOM      7  G   UNL     1     -10.911 -34.123  29.477  1.00  0.00     0.000 G0
ENDBRANCH   4   6
ENDBRANCH   2   4
BRANCH   3   8
ATOM      8  C   UNL     1     -12.766 -34.942  27.899  1.00  0.00    -0.003 C 
ATOM      9  C   UNL     1     -11.836 -34.049  28.262  1.00  0.00    -0.020 C 
BRANCH   9  10
ATOM     10  C   UNL     1     -10.930 -34.136  29.468  1.00  0.00    -0.010 CG0
ATOM     11  C   UNL     1     -10.109 -32.833  29.605  1.00  0.00     0.016 C 
ATOM     12  C   UNL     1      -9.941 -35.302  29.247  1.00  0.00     0.016 C 
ATOM     13  G   UNL     1     -11.769 -34.448  30.727  1.00  0.00     0.000 G0
ENDBRANCH   9  10
ENDBRANCH   3   8
TORSDOF 0
ENDMDL
