MODEL 1
REMARK VINA RESULT:    -3.565      0.000      0.000
REMARK INTER + INTRA:          -4.313
REMARK INTER:                  -4.190
REMARK INTRA:                  -0.122
REMARK UNBOUND:                -0.122
REMARK SMILES O=C([O-])CCC(=O)[O-]
REMARK SMILES IDX 4 1 2 2 1 3 3 4 5 5 6 6 7 7 8 8
REMARK H PARENT
REMARK Flexibility Score: inf
ROOT
ATOM      1  C   UNL     1       4.749   4.722   0.361  1.00  0.00     0.059 C 
ENDROOT
BRANCH   1   2
ATOM      2  C   UNL     1       4.150   5.712   1.312  1.00  0.00     0.042 C 
ATOM      3  O   UNL     1       4.130   6.937   1.022  1.00  0.00    -0.550 OA
ATOM      4  O   UNL     1       3.578   5.277   2.501  1.00  0.00    -0.550 OA
ENDBRANCH   1   2
BRANCH   1   5
ATOM      5  C   UNL     1       5.868   3.910   1.021  1.00  0.00     0.059 C 
BRANCH   5   6
ATOM      6  C   UNL     1       7.191   4.604   0.912  1.00  0.00     0.042 C 
ATOM      7  O   UNL     1       8.060   4.457   1.812  1.00  0.00    -0.550 OA
ATOM      8  O   UNL     1       7.448   5.444  -0.164  1.00  0.00    -0.550 OA
ENDBRANCH   5   6
ENDBRANCH   1   5
TORSDOF 3
ENDMDL
MODEL 2
REMARK VINA RESULT:    -3.556      0.155      1.619
REMARK INTER + INTRA:          -4.301
REMARK INTER:                  -4.184
REMARK INTRA:                  -0.117
REMARK UNBOUND:                -0.122
REMARK SMILES O=C([O-])CCC(=O)[O-]
REMARK SMILES IDX 4 1 2 2 1 3 3 4 5 5 6 6 7 7 8 8
REMARK H PARENT
REMARK Flexibility Score: inf
ROOT
ATOM      1  C   UNL     1       4.778   4.726   0.359  1.00  0.00     0.059 C 
ENDROOT
BRANCH   1   2
ATOM      2  C   UNL     1       4.143   5.690   1.312  1.00  0.00     0.042 C 
ATOM      3  O   UNL     1       3.608   5.273   2.373  1.00  0.00    -0.550 OA
ATOM      4  O   UNL     1       4.177   7.054   1.049  1.00  0.00    -0.550 OA
ENDBRANCH   1   2
BRANCH   1   5
ATOM      5  C   UNL     1       5.901   3.925   1.029  1.00  0.00     0.059 C 
BRANCH   5   6
ATOM      6  C   UNL     1       7.209   4.653   0.968  1.00  0.00     0.042 C 
ATOM      7  O   UNL     1       7.553   5.252  -0.085  1.00  0.00    -0.550 OA
ATOM      8  O   UNL     1       8.065   4.636   2.062  1.00  0.00    -0.550 OA
ENDBRANCH   5   6
ENDBRANCH   1   5
TORSDOF 3
ENDMDL
MODEL 3
REMARK VINA RESULT:    -3.551      0.174      3.469
REMARK INTER + INTRA:          -4.296
REMARK INTER:                  -4.161
REMARK INTRA:                  -0.135
REMARK UNBOUND:                -0.122
REMARK SMILES O=C([O-])CCC(=O)[O-]
REMARK SMILES IDX 4 1 2 2 1 3 3 4 5 5 6 6 7 7 8 8
REMARK H PARENT
REMARK Flexibility Score: inf
ROOT
ATOM      1  C   UNL     1       5.907   3.956   1.024  1.00  0.00     0.059 C 
ENDROOT
BRANCH   1   2
ATOM      2  C   UNL     1       7.162   4.766   0.914  1.00  0.00     0.042 C 
ATOM      3  O   UNL     1       7.411   5.410  -0.139  1.00  0.00    -0.550 OA
ATOM      4  O   UNL     1       8.039   4.842   1.990  1.00  0.00    -0.550 OA
ENDBRANCH   1   2
BRANCH   1   5
ATOM      5  C   UNL     1       4.711   4.681   0.398  1.00  0.00     0.059 C 
BRANCH   5   6
ATOM      6  C   UNL     1       4.127   5.693   1.336  1.00  0.00     0.042 C 
ATOM      7  O   UNL     1       3.586   5.324   2.411  1.00  0.00    -0.550 OA
ATOM      8  O   UNL     1       4.148   7.042   1.002  1.00  0.00    -0.550 OA
ENDBRANCH   5   6
ENDBRANCH   1   5
TORSDOF 3
ENDMDL
MODEL 4
REMARK VINA RESULT:    -3.199      1.794      2.127
REMARK INTER + INTRA:          -3.883
REMARK INTER:                  -3.798
REMARK INTRA:                  -0.084
REMARK UNBOUND:                -0.122
REMARK SMILES O=C([O-])CCC(=O)[O-]
REMARK SMILES IDX 4 1 2 2 1 3 3 4 5 5 6 6 7 7 8 8
REMARK H PARENT
REMARK Flexibility Score: inf
ROOT
ATOM      1  C   UNL     1       4.912   7.128   1.736  1.00  0.00     0.059 C 
ENDROOT
BRANCH   1   2
ATOM      2  C   UNL     1       3.771   6.232   2.106  1.00  0.00     0.042 C 
ATOM      3  O   UNL     1       3.923   4.982   2.113  1.00  0.00    -0.550 OA
ATOM      4  O   UNL     1       2.550   6.778   2.483  1.00  0.00    -0.550 OA
ENDBRANCH   1   2
BRANCH   1   5
ATOM      5  C   UNL     1       6.225   6.347   1.606  1.00  0.00     0.059 C 
BRANCH   5   6
ATOM      6  C   UNL     1       6.598   6.132   0.172  1.00  0.00     0.042 C 
ATOM      7  O   UNL     1       7.488   5.294  -0.133  1.00  0.00    -0.550 OA
ATOM      8  O   UNL     1       5.990   6.885  -0.825  1.00  0.00    -0.550 OA
ENDBRANCH   5   6
ENDBRANCH   1   5
TORSDOF 3
ENDMDL
MODEL 5
REMARK VINA RESULT:    -3.184      1.650      3.957
REMARK INTER + INTRA:          -3.865
REMARK INTER:                  -3.769
REMARK INTRA:                  -0.096
REMARK UNBOUND:                -0.122
REMARK SMILES O=C([O-])CCC(=O)[O-]
REMARK SMILES IDX 4 1 2 2 1 3 3 4 5 5 6 6 7 7 8 8
REMARK H PARENT
REMARK Flexibility Score: inf
ROOT
ATOM      1  C   UNL     1       6.082   6.160   1.606  1.00  0.00     0.059 C 
ENDROOT
BRANCH   1   2
ATOM      2  C   UNL     1       6.425   5.637   0.245  1.00  0.00     0.042 C 
ATOM      3  O   UNL     1       5.518   5.218  -0.520  1.00  0.00    -0.550 OA
ATOM      4  O   UNL     1       7.744   5.651  -0.194  1.00  0.00    -0.550 OA
ENDBRANCH   1   2
BRANCH   1   5
ATOM      5  C   UNL     1       4.795   6.994   1.582  1.00  0.00     0.059 C 
BRANCH   5   6
ATOM      6  C   UNL     1       3.649   6.255   2.202  1.00  0.00     0.042 C 
ATOM      7  O   UNL     1       3.724   5.013   2.393  1.00  0.00    -0.550 OA
ATOM      8  O   UNL     1       2.482   6.934   2.533  1.00  0.00    -0.550 OA
ENDBRANCH   5   6
ENDBRANCH   1   5
TORSDOF 3
ENDMDL
MODEL 6
REMARK VINA RESULT:    -2.922      2.490      3.587
REMARK INTER + INTRA:          -3.557
REMARK INTER:                  -3.461
REMARK INTRA:                  -0.096
REMARK UNBOUND:                -0.122
REMARK SMILES O=C([O-])CCC(=O)[O-]
REMARK SMILES IDX 4 1 2 2 1 3 3 4 5 5 6 6 7 7 8 8
REMARK H PARENT
REMARK Flexibility Score: inf
ROOT
ATOM      1  C   UNL     1       2.872   7.351   2.435  1.00  0.00     0.059 C 
ENDROOT
BRANCH   1   2
ATOM      2  C   UNL     1       2.562   7.357   3.900  1.00  0.00     0.042 C 
ATOM      3  O   UNL     1       3.361   6.830   4.719  1.00  0.00    -0.550 OA
ATOM      4  O   UNL     1       1.411   7.979   4.366  1.00  0.00    -0.550 OA
ENDBRANCH   1   2
BRANCH   1   5
ATOM      5  C   UNL     1       4.371   7.161   2.176  1.00  0.00     0.059 C 
BRANCH   5   6
ATOM      6  C   UNL     1       4.650   5.860   1.488  1.00  0.00     0.042 C 
ATOM      7  O   UNL     1       3.702   5.101   1.156  1.00  0.00    -0.550 OA
ATOM      8  O   UNL     1       5.962   5.469   1.248  1.00  0.00    -0.550 OA
ENDBRANCH   5   6
ENDBRANCH   1   5
TORSDOF 3
ENDMDL
MODEL 7
REMARK VINA RESULT:    -2.740      2.245      2.653
REMARK INTER + INTRA:          -3.343
REMARK INTER:                  -3.233
REMARK INTRA:                  -0.110
REMARK UNBOUND:                -0.122
REMARK SMILES O=C([O-])CCC(=O)[O-]
REMARK SMILES IDX 4 1 2 2 1 3 3 4 5 5 6 6 7 7 8 8
REMARK H PARENT
REMARK Flexibility Score: inf
ROOT
ATOM      1  C   UNL     1       6.176   5.063   1.329  1.00  0.00     0.059 C 
ENDROOT
BRANCH   1   2
ATOM      2  C   UNL     1       4.723   4.861   1.027  1.00  0.00     0.042 C 
ATOM      3  O   UNL     1       4.368   4.371  -0.078  1.00  0.00    -0.550 OA
ATOM      4  O   UNL     1       3.763   5.175   1.980  1.00  0.00    -0.550 OA
ENDBRANCH   1   2
BRANCH   1   5
ATOM      5  C   UNL     1       6.596   6.523   1.130  1.00  0.00     0.059 C 
BRANCH   5   6
ATOM      6  C   UNL     1       6.934   7.181   2.433  1.00  0.00     0.042 C 
ATOM      7  O   UNL     1       8.121   7.183   2.854  1.00  0.00    -0.550 OA
ATOM      8  O   UNL     1       5.930   7.759   3.200  1.00  0.00    -0.550 OA
ENDBRANCH   5   6
ENDBRANCH   1   5
TORSDOF 3
ENDMDL
MODEL 8
REMARK VINA RESULT:    -2.718      1.952      4.367
REMARK INTER + INTRA:          -3.317
REMARK INTER:                  -3.203
REMARK INTRA:                  -0.114
REMARK UNBOUND:                -0.122
REMARK SMILES O=C([O-])CCC(=O)[O-]
REMARK SMILES IDX 4 1 2 2 1 3 3 4 5 5 6 6 7 7 8 8
REMARK H PARENT
REMARK Flexibility Score: inf
ROOT
ATOM      1  C   UNL     1       4.364   5.670   1.357  1.00  0.00     0.059 C 
ENDROOT
BRANCH   1   2
ATOM      2  C   UNL     1       5.811   5.926   1.068  1.00  0.00     0.042 C 
ATOM      3  O   UNL     1       6.534   6.509   1.919  1.00  0.00    -0.550 OA
ATOM      4  O   UNL     1       6.372   5.486  -0.125  1.00  0.00    -0.550 OA
ENDBRANCH   1   2
BRANCH   1   5
ATOM      5  C   UNL     1       3.554   6.970   1.383  1.00  0.00     0.059 C 
BRANCH   5   6
ATOM      6  C   UNL     1       2.983   7.236   2.742  1.00  0.00     0.042 C 
ATOM      7  O   UNL     1       2.104   8.124   2.899  1.00  0.00    -0.550 OA
ATOM      8  O   UNL     1       3.452   6.529   3.843  1.00  0.00    -0.550 OA
ENDBRANCH   5   6
ENDBRANCH   1   5
TORSDOF 3
ENDMDL
MODEL 9
REMARK VINA RESULT:    -2.701      1.991      4.047
REMARK INTER + INTRA:          -3.297
REMARK INTER:                  -3.181
REMARK INTRA:                  -0.117
REMARK UNBOUND:                -0.122
REMARK SMILES O=C([O-])CCC(=O)[O-]
REMARK SMILES IDX 4 1 2 2 1 3 3 4 5 5 6 6 7 7 8 8
REMARK H PARENT
REMARK Flexibility Score: inf
ROOT
ATOM      1  C   UNL     1       5.571   6.499   1.804  1.00  0.00     0.059 C 
ENDROOT
BRANCH   1   2
ATOM      2  C   UNL     1       5.205   5.460   0.789  1.00  0.00     0.042 C 
ATOM      3  O   UNL     1       5.999   5.182  -0.147  1.00  0.00    -0.550 OA
ATOM      4  O   UNL     1       4.004   4.770   0.901  1.00  0.00    -0.550 OA
ENDBRANCH   1   2
BRANCH   1   5
ATOM      5  C   UNL     1       4.976   7.867   1.452  1.00  0.00     0.059 C 
BRANCH   5   6
ATOM      6  C   UNL     1       3.617   8.049   2.054  1.00  0.00     0.042 C 
ATOM      7  O   UNL     1       3.479   8.097   3.305  1.00  0.00    -0.550 OA
ATOM      8  O   UNL     1       2.498   8.125   1.234  1.00  0.00    -0.550 OA
ENDBRANCH   5   6
ENDBRANCH   1   5
TORSDOF 3
ENDMDL
