MODEL 1
REMARK VINA RESULT:    -4.351      0.000      0.000
REMARK INTER + INTRA:          -4.588
REMARK INTER:                  -5.368
REMARK INTRA:                   0.781
REMARK UNBOUND:                 0.781
REMARK SMILES CC1=CC=CC(C)(C)CC1=O
REMARK SMILES IDX 1 1 2 2 3 3 10 4 11 5 9 6 4 8 5 9 6 10 7 11 8 12
REMARK H PARENT
REMARK Flexibility Score: 80.00
ROOT
ATOM      1  C   UNL     1      -7.877  33.758  25.823  1.00  0.00     0.048 C 
ATOM      2  C   UNL     1      -8.306  33.585  24.386  1.00  0.00    -0.008 C 
ATOM      3  C   UNL     1      -7.687  34.341  23.452  1.00  0.00     0.007 C 
ENDROOT
BRANCH   2   4
ATOM      4  C   UNL     1      -9.323  32.543  24.104  1.00  0.00     0.159 C 
ATOM      5  O   UNL     1      -9.634  31.731  25.020  1.00  0.00    -0.295 OA
BRANCH   4   6
ATOM      6  C   UNL     1     -10.021  32.401  22.786  1.00  0.00     0.091 CG0
ATOM      7  G   UNL     1      -9.052  32.152  21.608  1.00  0.00     0.000 G0
ENDBRANCH   4   6
ENDBRANCH   2   4
BRANCH   3   8
ATOM      8  C   UNL     1      -7.870  34.376  21.982  1.00  0.00    -0.003 C 
ATOM      9  C   UNL     1      -8.428  33.462  21.178  1.00  0.00    -0.020 C 
BRANCH   9  10
ATOM     10  C   UNL     1      -9.045  32.151  21.604  1.00  0.00    -0.010 CG0
ATOM     11  C   UNL     1      -7.934  31.135  21.959  1.00  0.00     0.016 C 
ATOM     12  C   UNL     1      -9.847  31.582  20.410  1.00  0.00     0.016 C 
ATOM     13  G   UNL     1     -10.028  32.391  22.772  1.00  0.00     0.000 G0
ENDBRANCH   9  10
ENDBRANCH   3   8
TORSDOF 0
ENDMDL
MODEL 2
REMARK VINA RESULT:    -4.282      1.750      3.505
REMARK INTER + INTRA:          -4.503
REMARK INTER:                  -5.256
REMARK INTRA:                   0.754
REMARK UNBOUND:                 0.781
REMARK SMILES CC1=CC=CC(C)(C)CC1=O
REMARK SMILES IDX 1 1 2 2 3 3 10 4 11 5 9 6 4 8 5 9 6 10 7 11 8 12
REMARK H PARENT
REMARK Flexibility Score: 80.00
ROOT
ATOM      1  C   UNL     1      -8.043  32.745  19.857  1.00  0.00     0.048 C 
ATOM      2  C   UNL     1      -7.909  32.909  21.352  1.00  0.00    -0.008 C 
ATOM      3  C   UNL     1      -7.902  34.166  21.845  1.00  0.00     0.007 C 
ENDROOT
BRANCH   2   4
ATOM      4  C   UNL     1      -7.873  31.670  22.167  1.00  0.00     0.159 C 
ATOM      5  O   UNL     1      -8.133  30.567  21.611  1.00  0.00    -0.295 OA
BRANCH   4   6
ATOM      6  C   UNL     1      -7.530  31.649  23.625  1.00  0.00     0.091 CG0
ATOM      7  G   UNL     1      -8.460  32.538  24.482  1.00  0.00     0.000 G0
ENDBRANCH   4   6
ENDBRANCH   2   4
BRANCH   3   8
ATOM      8  C   UNL     1      -7.812  34.638  23.247  1.00  0.00    -0.003 C 
ATOM      9  C   UNL     1      -8.053  33.967  24.381  1.00  0.00    -0.020 C 
BRANCH   9  10
ATOM     10  C   UNL     1      -8.460  32.518  24.496  1.00  0.00    -0.010 CG0
ATOM     11  C   UNL     1      -9.954  32.358  24.127  1.00  0.00     0.016 C 
ATOM     12  C   UNL     1      -8.283  32.079  25.968  1.00  0.00     0.016 C 
ATOM     13  G   UNL     1      -7.535  31.644  23.619  1.00  0.00     0.000 G0
ENDBRANCH   9  10
ENDBRANCH   3   8
TORSDOF 0
ENDMDL
MODEL 3
REMARK VINA RESULT:    -4.258      1.713      2.468
REMARK INTER + INTRA:          -4.473
REMARK INTER:                  -5.233
REMARK INTRA:                   0.760
REMARK UNBOUND:                 0.781
REMARK SMILES CC1=CC=CC(C)(C)CC1=O
REMARK SMILES IDX 1 1 2 2 3 3 10 4 11 5 9 6 4 8 5 9 6 10 7 11 8 12
REMARK H PARENT
REMARK Flexibility Score: 80.00
ROOT
ATOM      1  C   UNL     1      -7.787  34.735  23.657  1.00  0.00     0.048 C 
ATOM      2  C   UNL     1      -8.204  33.337  23.267  1.00  0.00    -0.008 C 
ATOM      3  C   UNL     1      -8.282  33.052  21.949  1.00  0.00     0.007 C 
ENDROOT
BRANCH   2   4
ATOM      4  C   UNL     1      -8.423  32.365  24.366  1.00  0.00     0.159 C 
ATOM      5  O   UNL     1      -8.069  32.679  25.536  1.00  0.00    -0.295 OA
BRANCH   4   6
ATOM      6  C   UNL     1      -9.056  31.022  24.170  1.00  0.00     0.091 CG0
ATOM      7  G   UNL     1      -8.291  30.128  23.168  1.00  0.00     0.000 G0
ENDBRANCH   4   6
ENDBRANCH   2   4
BRANCH   3   8
ATOM      8  C   UNL     1      -8.632  31.783  21.268  1.00  0.00    -0.003 C 
ATOM      9  C   UNL     1      -8.631  30.535  21.756  1.00  0.00    -0.020 C 
BRANCH   9  10
ATOM     10  C   UNL     1      -8.285  30.124  23.167  1.00  0.00    -0.010 CG0
ATOM     11  C   UNL     1      -6.753  30.166  23.370  1.00  0.00     0.016 C 
ATOM     12  C   UNL     1      -8.754  28.665  23.376  1.00  0.00     0.016 C 
ATOM     13  G   UNL     1      -9.043  31.021  24.172  1.00  0.00     0.000 G0
ENDBRANCH   9  10
ENDBRANCH   3   8
TORSDOF 0
ENDMDL
MODEL 4
REMARK VINA RESULT:    -4.189      1.866      2.907
REMARK INTER + INTRA:          -4.388
REMARK INTER:                  -5.137
REMARK INTRA:                   0.749
REMARK UNBOUND:                 0.781
REMARK SMILES CC1=CC=CC(C)(C)CC1=O
REMARK SMILES IDX 1 1 2 2 3 3 10 4 11 5 9 6 4 8 5 9 6 10 7 11 8 12
REMARK H PARENT
REMARK Flexibility Score: 80.00
ROOT
ATOM      1  C   UNL     1      -8.082  29.853  26.261  1.00  0.00     0.048 C 
ATOM      2  C   UNL     1      -7.924  30.494  24.903  1.00  0.00    -0.008 C 
ATOM      3  C   UNL     1      -7.908  29.680  23.825  1.00  0.00     0.007 C 
ENDROOT
BRANCH   2   4
ATOM      4  C   UNL     1      -7.877  31.976  24.856  1.00  0.00     0.159 C 
ATOM      5  O   UNL     1      -8.150  32.627  25.902  1.00  0.00    -0.295 OA
BRANCH   4   6
ATOM      6  C   UNL     1      -7.508  32.753  23.630  1.00  0.00     0.091 CG0
ATOM      7  G   UNL     1      -8.434  32.467  22.426  1.00  0.00     0.000 G0
ENDBRANCH   4   6
ENDBRANCH   2   4
BRANCH   3   8
ATOM      8  C   UNL     1      -7.795  30.010  22.385  1.00  0.00    -0.003 C 
ATOM      9  C   UNL     1      -8.019  31.176  21.766  1.00  0.00    -0.020 C 
BRANCH   9  10
ATOM     10  C   UNL     1      -8.426  32.475  22.420  1.00  0.00    -0.010 CG0
ATOM     11  C   UNL     1      -9.927  32.432  22.791  1.00  0.00     0.016 C 
ATOM     12  C   UNL     1      -8.220  33.618  21.399  1.00  0.00     0.016 C 
ATOM     13  G   UNL     1      -7.519  32.751  23.641  1.00  0.00     0.000 G0
ENDBRANCH   9  10
ENDBRANCH   3   8
TORSDOF 0
ENDMDL
MODEL 5
REMARK VINA RESULT:    -4.185      1.848      3.580
REMARK INTER + INTRA:          -4.382
REMARK INTER:                  -5.137
REMARK INTRA:                   0.755
REMARK UNBOUND:                 0.781
REMARK SMILES CC1=CC=CC(C)(C)CC1=O
REMARK SMILES IDX 1 1 2 2 3 3 10 4 11 5 9 6 4 8 5 9 6 10 7 11 8 12
REMARK H PARENT
REMARK Flexibility Score: 80.00
ROOT
ATOM      1  C   UNL     1      -7.844  28.164  22.750  1.00  0.00     0.048 C 
ATOM      2  C   UNL     1      -8.014  29.664  22.706  1.00  0.00    -0.008 C 
ATOM      3  C   UNL     1      -8.641  30.191  21.631  1.00  0.00     0.007 C 
ENDROOT
BRANCH   2   4
ATOM      4  C   UNL     1      -7.546  30.433  23.885  1.00  0.00     0.159 C 
ATOM      5  O   UNL     1      -7.211  29.805  24.927  1.00  0.00    -0.295 OA
BRANCH   4   6
ATOM      6  C   UNL     1      -7.435  31.926  23.908  1.00  0.00     0.091 CG0
ATOM      7  G   UNL     1      -8.777  32.641  23.632  1.00  0.00     0.000 G0
ENDBRANCH   4   6
ENDBRANCH   2   4
BRANCH   3   8
ATOM      8  C   UNL     1      -8.974  31.601  21.321  1.00  0.00    -0.003 C 
ATOM      9  C   UNL     1      -9.047  32.653  22.147  1.00  0.00    -0.020 C 
BRANCH   9  10
ATOM     10  C   UNL     1      -8.771  32.648  23.631  1.00  0.00    -0.010 CG0
ATOM     11  C   UNL     1      -9.964  32.022  24.389  1.00  0.00     0.016 C 
ATOM     12  C   UNL     1      -8.624  34.114  24.102  1.00  0.00     0.016 C 
ATOM     13  G   UNL     1      -7.438  31.918  23.912  1.00  0.00     0.000 G0
ENDBRANCH   9  10
ENDBRANCH   3   8
TORSDOF 0
ENDMDL
MODEL 6
REMARK VINA RESULT:    -4.065      2.054      3.977
REMARK INTER + INTRA:          -4.234
REMARK INTER:                  -4.963
REMARK INTRA:                   0.728
REMARK UNBOUND:                 0.781
REMARK SMILES CC1=CC=CC(C)(C)CC1=O
REMARK SMILES IDX 1 1 2 2 3 3 10 4 11 5 9 6 4 8 5 9 6 10 7 11 8 12
REMARK H PARENT
REMARK Flexibility Score: 80.00
ROOT
ATOM      1  C   UNL     1      -7.785  32.001  20.989  1.00  0.00     0.048 C 
ATOM      2  C   UNL     1      -8.031  31.562  22.413  1.00  0.00    -0.008 C 
ATOM      3  C   UNL     1      -7.126  30.734  22.977  1.00  0.00     0.007 C 
ENDROOT
BRANCH   2   4
ATOM      4  C   UNL     1      -9.211  32.138  23.104  1.00  0.00     0.159 C 
ATOM      5  O   UNL     1      -9.821  33.103  22.565  1.00  0.00    -0.295 OA
BRANCH   4   6
ATOM      6  C   UNL     1      -9.734  31.629  24.411  1.00  0.00     0.091 CG0
ATOM      7  G   UNL     1      -8.702  31.721  25.558  1.00  0.00     0.000 G0
ENDBRANCH   4   6
ENDBRANCH   2   4
BRANCH   3   8
ATOM      8  C   UNL     1      -7.081  30.161  24.343  1.00  0.00    -0.003 C 
ATOM      9  C   UNL     1      -7.722  30.564  25.449  1.00  0.00    -0.020 C 
BRANCH   9  10
ATOM     10  C   UNL     1      -8.691  31.717  25.554  1.00  0.00    -0.010 CG0
ATOM     11  C   UNL     1      -7.918  33.056  25.592  1.00  0.00     0.016 C 
ATOM     12  C   UNL     1      -9.469  31.578  26.883  1.00  0.00     0.016 C 
ATOM     13  G   UNL     1      -9.709  31.650  24.392  1.00  0.00     0.000 G0
ENDBRANCH   9  10
ENDBRANCH   3   8
TORSDOF 0
ENDMDL
MODEL 7
REMARK VINA RESULT:    -3.838      2.551      3.644
REMARK INTER + INTRA:          -3.954
REMARK INTER:                  -4.710
REMARK INTRA:                   0.756
REMARK UNBOUND:                 0.781
REMARK SMILES CC1=CC=CC(C)(C)CC1=O
REMARK SMILES IDX 1 1 2 2 3 3 10 4 11 5 9 6 4 8 5 9 6 10 7 11 8 12
REMARK H PARENT
REMARK Flexibility Score: 80.00
ROOT
ATOM      1  C   UNL     1      -8.123  35.439  25.717  1.00  0.00     0.048 C 
ATOM      2  C   UNL     1      -7.984  33.936  25.684  1.00  0.00    -0.008 C 
ATOM      3  C   UNL     1      -7.869  33.292  26.866  1.00  0.00     0.007 C 
ENDROOT
BRANCH   2   4
ATOM      4  C   UNL     1      -8.062  33.278  24.356  1.00  0.00     0.159 C 
ATOM      5  O   UNL     1      -8.447  33.955  23.363  1.00  0.00    -0.295 OA
BRANCH   4   6
ATOM      6  C   UNL     1      -7.695  31.846  24.120  1.00  0.00     0.091 CG0
ATOM      7  G   UNL     1      -8.546  30.854  24.944  1.00  0.00     0.000 G0
ENDBRANCH   4   6
ENDBRANCH   2   4
BRANCH   3   8
ATOM      8  C   UNL     1      -7.747  31.843  27.153  1.00  0.00    -0.003 C 
ATOM      9  C   UNL     1      -8.037  30.799  26.366  1.00  0.00    -0.020 C 
BRANCH   9  10
ATOM     10  C   UNL     1      -8.547  30.861  24.946  1.00  0.00    -0.010 CG0
ATOM     11  C   UNL     1     -10.050  31.224  24.939  1.00  0.00     0.016 C 
ATOM     12  C   UNL     1      -8.393  29.459  24.313  1.00  0.00     0.016 C 
ATOM     13  G   UNL     1      -7.692  31.854  24.127  1.00  0.00     0.000 G0
ENDBRANCH   9  10
ENDBRANCH   3   8
TORSDOF 0
ENDMDL
MODEL 8
REMARK VINA RESULT:    -3.722      2.225      3.293
REMARK INTER + INTRA:          -3.811
REMARK INTER:                  -4.563
REMARK INTRA:                   0.752
REMARK UNBOUND:                 0.781
REMARK SMILES CC1=CC=CC(C)(C)CC1=O
REMARK SMILES IDX 1 1 2 2 3 3 10 4 11 5 9 6 4 8 5 9 6 10 7 11 8 12
REMARK H PARENT
REMARK Flexibility Score: 80.00
ROOT
ATOM      1  C   UNL     1      -7.603  32.657  27.906  1.00  0.00     0.048 C 
ATOM      2  C   UNL     1      -7.692  31.986  26.557  1.00  0.00    -0.008 C 
ATOM      3  C   UNL     1      -7.795  30.640  26.533  1.00  0.00     0.007 C 
ENDROOT
BRANCH   2   4
ATOM      4  C   UNL     1      -7.735  32.868  25.365  1.00  0.00     0.159 C 
ATOM      5  O   UNL     1      -7.893  34.110  25.531  1.00  0.00    -0.295 OA
BRANCH   4   6
ATOM      6  C   UNL     1      -7.589  32.369  23.960  1.00  0.00     0.091 CG0
ATOM      7  G   UNL     1      -8.676  31.345  23.561  1.00  0.00     0.000 G0
ENDBRANCH   4   6
ENDBRANCH   2   4
BRANCH   3   8
ATOM      8  C   UNL     1      -7.924  29.715  25.382  1.00  0.00    -0.003 C 
ATOM      9  C   UNL     1      -8.301  29.979  24.125  1.00  0.00    -0.020 C 
BRANCH   9  10
ATOM     10  C   UNL     1      -8.670  31.332  23.565  1.00  0.00    -0.010 CG0
ATOM     11  C   UNL     1     -10.092  31.726  24.027  1.00  0.00     0.016 C 
ATOM     12  C   UNL     1      -8.681  31.233  22.022  1.00  0.00     0.016 C 
ATOM     13  G   UNL     1      -7.603  32.374  23.971  1.00  0.00     0.000 G0
ENDBRANCH   9  10
ENDBRANCH   3   8
TORSDOF 0
ENDMDL
MODEL 9
REMARK VINA RESULT:    -3.647      2.865      4.406
REMARK INTER + INTRA:          -3.719
REMARK INTER:                  -4.474
REMARK INTRA:                   0.755
REMARK UNBOUND:                 0.781
REMARK SMILES CC1=CC=CC(C)(C)CC1=O
REMARK SMILES IDX 1 1 2 2 3 3 10 4 11 5 9 6 4 8 5 9 6 10 7 11 8 12
REMARK H PARENT
REMARK Flexibility Score: 80.00
ROOT
ATOM      1  C   UNL     1      -7.694  31.554  21.713  1.00  0.00     0.048 C 
ATOM      2  C   UNL     1      -7.762  31.474  23.220  1.00  0.00    -0.008 C 
ATOM      3  C   UNL     1      -7.876  32.634  23.903  1.00  0.00     0.007 C 
ENDROOT
BRANCH   2   4
ATOM      4  C   UNL     1      -7.773  30.120  23.825  1.00  0.00     0.159 C 
ATOM      5  O   UNL     1      -7.900  29.116  23.070  1.00  0.00    -0.295 OA
BRANCH   4   6
ATOM      6  C   UNL     1      -7.630  29.869  25.295  1.00  0.00     0.091 CG0
ATOM      7  G   UNL     1      -8.713  30.574  26.142  1.00  0.00     0.000 G0
ENDBRANCH   4   6
ENDBRANCH   2   4
BRANCH   3   8
ATOM      8  C   UNL     1      -7.990  32.871  25.362  1.00  0.00    -0.003 C 
ATOM      9  C   UNL     1      -8.346  32.019  26.331  1.00  0.00    -0.020 C 
BRANCH   9  10
ATOM     10  C   UNL     1      -8.700  30.561  26.157  1.00  0.00    -0.010 CG0
ATOM     11  C   UNL     1     -10.125  30.429  25.572  1.00  0.00     0.016 C 
ATOM     12  C   UNL     1      -8.694  29.891  27.551  1.00  0.00     0.016 C 
ATOM     13  G   UNL     1      -7.631  29.865  25.285  1.00  0.00     0.000 G0
ENDBRANCH   9  10
ENDBRANCH   3   8
TORSDOF 0
ENDMDL
