MODEL 1
REMARK VINA RESULT:    -3.536      0.000      0.000
REMARK INTER + INTRA:          -5.136
REMARK INTER:                  -4.776
REMARK INTRA:                  -0.360
REMARK UNBOUND:                -0.360
REMARK SMILES CCCCCCC=CC(=O)[O-]
REMARK SMILES IDX 5 1 6 2 7 3 8 4 9 5 10 6 11 7 4 8 3 9 2 10 1 11
REMARK H PARENT
REMARK Flexibility Score: inf
ROOT
ATOM      1  C   UNL     1      16.830 -11.392  -3.449  1.00  0.00     0.004 C 
ENDROOT
BRANCH   1   2
ATOM      2  C   UNL     1      16.129 -10.714  -2.259  1.00  0.00     0.027 C 
BRANCH   2   3
ATOM      3  C   UNL     1      15.549  -9.375  -2.616  1.00  0.00    -0.025 C 
ATOM      4  C   UNL     1      14.421  -8.929  -2.053  1.00  0.00     0.020 C 
BRANCH   4   5
ATOM      5  C   UNL     1      13.845  -7.619  -2.390  1.00  0.00     0.064 C 
ATOM      6  O   UNL     1      14.078  -6.629  -1.650  1.00  0.00    -0.545 OA
ATOM      7  O   UNL     1      13.045  -7.456  -3.516  1.00  0.00    -0.545 OA
ENDBRANCH   4   5
ENDBRANCH   2   3
ENDBRANCH   1   2
BRANCH   1   8
ATOM      8  C   UNL     1      16.108 -12.645  -3.987  1.00  0.00     0.000 C 
BRANCH   8   9
ATOM      9  C   UNL     1      14.988 -13.188  -3.083  1.00  0.00    -0.000 C 
BRANCH   9  10
ATOM     10  C   UNL     1      15.304 -14.578  -2.513  1.00  0.00    -0.003 C 
ATOM     11  C   UNL     1      16.806 -14.765  -2.320  1.00  0.00     0.004 C 
ENDBRANCH   9  10
ENDBRANCH   8   9
ENDBRANCH   1   8
TORSDOF 6
ENDMDL
MODEL 2
REMARK VINA RESULT:    -3.490     10.052     11.129
REMARK INTER + INTRA:          -5.074
REMARK INTER:                  -4.450
REMARK INTRA:                  -0.624
REMARK UNBOUND:                -0.360
REMARK SMILES CCCCCCC=CC(=O)[O-]
REMARK SMILES IDX 5 1 6 2 7 3 8 4 9 5 10 6 11 7 4 8 3 9 2 10 1 11
REMARK H PARENT
REMARK Flexibility Score: inf
ROOT
ATOM      1  C   UNL     1      15.474 -20.952  -1.065  1.00  0.00     0.004 C 
ENDROOT
BRANCH   1   2
ATOM      2  C   UNL     1      16.192 -19.730  -0.465  1.00  0.00     0.027 C 
BRANCH   2   3
ATOM      3  C   UNL     1      17.647 -19.992  -0.191  1.00  0.00    -0.025 C 
ATOM      4  C   UNL     1      18.609 -19.447  -0.943  1.00  0.00     0.020 C 
BRANCH   4   5
ATOM      5  C   UNL     1      20.035 -19.691  -0.681  1.00  0.00     0.064 C 
ATOM      6  O   UNL     1      20.876 -18.791  -0.934  1.00  0.00    -0.545 OA
ATOM      7  O   UNL     1      20.470 -20.905  -0.160  1.00  0.00    -0.545 OA
ENDBRANCH   4   5
ENDBRANCH   2   3
ENDBRANCH   1   2
BRANCH   1   8
ATOM      8  C   UNL     1      16.017 -21.403  -2.436  1.00  0.00     0.000 C 
BRANCH   8   9
ATOM      9  C   UNL     1      16.750 -22.756  -2.432  1.00  0.00    -0.000 C 
BRANCH   9  10
ATOM     10  C   UNL     1      18.149 -22.678  -3.059  1.00  0.00    -0.003 C 
ATOM     11  C   UNL     1      18.287 -21.443  -3.944  1.00  0.00     0.004 C 
ENDBRANCH   9  10
ENDBRANCH   8   9
ENDBRANCH   1   8
TORSDOF 6
ENDMDL
MODEL 3
REMARK VINA RESULT:    -3.470      0.508      1.444
REMARK INTER + INTRA:          -5.046
REMARK INTER:                  -4.657
REMARK INTRA:                  -0.390
REMARK UNBOUND:                -0.360
REMARK SMILES CCCCCCC=CC(=O)[O-]
REMARK SMILES IDX 5 1 6 2 7 3 8 4 9 5 10 6 11 7 4 8 3 9 2 10 1 11
REMARK H PARENT
REMARK Flexibility Score: inf
ROOT
ATOM      1  C   UNL     1      16.878 -11.282  -3.312  1.00  0.00     0.004 C 
ENDROOT
BRANCH   1   2
ATOM      2  C   UNL     1      16.058 -10.682  -2.156  1.00  0.00     0.027 C 
BRANCH   2   3
ATOM      3  C   UNL     1      15.533  -9.310  -2.472  1.00  0.00    -0.025 C 
ATOM      4  C   UNL     1      14.267  -8.968  -2.209  1.00  0.00     0.020 C 
BRANCH   4   5
ATOM      5  C   UNL     1      13.743  -7.628  -2.508  1.00  0.00     0.064 C 
ATOM      6  O   UNL     1      13.005  -7.459  -3.512  1.00  0.00    -0.545 OA
ATOM      7  O   UNL     1      14.051  -6.540  -1.698  1.00  0.00    -0.545 OA
ENDBRANCH   4   5
ENDBRANCH   2   3
ENDBRANCH   1   2
BRANCH   1   8
ATOM      8  C   UNL     1      16.318 -12.604  -3.875  1.00  0.00     0.000 C 
BRANCH   8   9
ATOM      9  C   UNL     1      16.534 -13.836  -2.979  1.00  0.00    -0.000 C 
BRANCH   9  10
ATOM     10  C   UNL     1      15.221 -14.534  -2.597  1.00  0.00    -0.003 C 
ATOM     11  C   UNL     1      14.013 -13.719  -3.051  1.00  0.00     0.004 C 
ENDBRANCH   9  10
ENDBRANCH   8   9
ENDBRANCH   1   8
TORSDOF 6
ENDMDL
MODEL 4
REMARK VINA RESULT:    -3.463      6.786      8.877
REMARK INTER + INTRA:          -5.038
REMARK INTER:                  -4.604
REMARK INTRA:                  -0.433
REMARK UNBOUND:                -0.360
REMARK SMILES CCCCCCC=CC(=O)[O-]
REMARK SMILES IDX 5 1 6 2 7 3 8 4 9 5 10 6 11 7 4 8 3 9 2 10 1 11
REMARK H PARENT
REMARK Flexibility Score: inf
ROOT
ATOM      1  C   UNL     1      17.609 -15.274   0.746  1.00  0.00     0.004 C 
ENDROOT
BRANCH   1   2
ATOM      2  C   UNL     1      16.972 -16.611   0.328  1.00  0.00     0.027 C 
BRANCH   2   3
ATOM      3  C   UNL     1      17.866 -17.423  -0.566  1.00  0.00    -0.025 C 
ATOM      4  C   UNL     1      18.686 -18.357  -0.073  1.00  0.00     0.020 C 
BRANCH   4   5
ATOM      5  C   UNL     1      19.562 -19.161  -0.938  1.00  0.00     0.064 C 
ATOM      6  O   UNL     1      20.809 -19.106  -0.782  1.00  0.00    -0.545 OA
ATOM      7  O   UNL     1      19.034 -19.983  -1.928  1.00  0.00    -0.545 OA
ENDBRANCH   4   5
ENDBRANCH   2   3
ENDBRANCH   1   2
BRANCH   1   8
ATOM      8  C   UNL     1      16.966 -14.029   0.101  1.00  0.00     0.000 C 
BRANCH   8   9
ATOM      9  C   UNL     1      17.918 -13.176  -0.755  1.00  0.00    -0.000 C 
BRANCH   9  10
ATOM     10  C   UNL     1      17.428 -13.001  -2.199  1.00  0.00    -0.003 C 
ATOM     11  C   UNL     1      16.976 -14.333  -2.791  1.00  0.00     0.004 C 
ENDBRANCH   9  10
ENDBRANCH   8   9
ENDBRANCH   1   8
TORSDOF 6
ENDMDL
MODEL 5
REMARK VINA RESULT:    -3.456      1.504      2.350
REMARK INTER + INTRA:          -5.028
REMARK INTER:                  -4.438
REMARK INTRA:                  -0.590
REMARK UNBOUND:                -0.360
REMARK SMILES CCCCCCC=CC(=O)[O-]
REMARK SMILES IDX 5 1 6 2 7 3 8 4 9 5 10 6 11 7 4 8 3 9 2 10 1 11
REMARK H PARENT
REMARK Flexibility Score: inf
ROOT
ATOM      1  C   UNL     1      15.866 -12.679  -3.956  1.00  0.00     0.004 C 
ENDROOT
BRANCH   1   2
ATOM      2  C   UNL     1      17.094 -11.794  -3.682  1.00  0.00     0.027 C 
BRANCH   2   3
ATOM      3  C   UNL     1      16.736 -10.505  -2.996  1.00  0.00    -0.025 C 
ATOM      4  C   UNL     1      15.550 -10.335  -2.404  1.00  0.00     0.020 C 
BRANCH   4   5
ATOM      5  C   UNL     1      15.190  -9.081  -1.726  1.00  0.00     0.064 C 
ATOM      6  O   UNL     1      14.468  -8.239  -2.319  1.00  0.00    -0.545 OA
ATOM      7  O   UNL     1      15.637  -8.809  -0.437  1.00  0.00    -0.545 OA
ENDBRANCH   4   5
ENDBRANCH   2   3
ENDBRANCH   1   2
BRANCH   1   8
ATOM      8  C   UNL     1      15.734 -13.898  -3.020  1.00  0.00     0.000 C 
BRANCH   8   9
ATOM      9  C   UNL     1      17.063 -14.437  -2.463  1.00  0.00    -0.000 C 
BRANCH   9  10
ATOM     10  C   UNL     1      17.124 -14.405  -0.929  1.00  0.00    -0.003 C 
ATOM     11  C   UNL     1      17.914 -13.196  -0.435  1.00  0.00     0.004 C 
ENDBRANCH   9  10
ENDBRANCH   8   9
ENDBRANCH   1   8
TORSDOF 6
ENDMDL
MODEL 6
REMARK VINA RESULT:    -3.423      3.261      5.170
REMARK INTER + INTRA:          -4.984
REMARK INTER:                  -4.353
REMARK INTRA:                  -0.631
REMARK UNBOUND:                -0.360
REMARK SMILES CCCCCCC=CC(=O)[O-]
REMARK SMILES IDX 5 1 6 2 7 3 8 4 9 5 10 6 11 7 4 8 3 9 2 10 1 11
REMARK H PARENT
REMARK Flexibility Score: inf
ROOT
ATOM      1  C   UNL     1      16.851 -14.253  -2.810  1.00  0.00     0.004 C 
ENDROOT
BRANCH   1   2
ATOM      2  C   UNL     1      15.687 -14.613  -1.871  1.00  0.00     0.027 C 
BRANCH   2   3
ATOM      3  C   UNL     1      14.408 -14.885  -2.613  1.00  0.00    -0.025 C 
ATOM      4  C   UNL     1      13.495 -13.928  -2.806  1.00  0.00     0.020 C 
BRANCH   4   5
ATOM      5  C   UNL     1      12.243 -14.180  -3.535  1.00  0.00     0.064 C 
ATOM      6  O   UNL     1      11.849 -15.363  -3.701  1.00  0.00    -0.545 OA
ATOM      7  O   UNL     1      11.486 -13.131  -4.044  1.00  0.00    -0.545 OA
ENDBRANCH   4   5
ENDBRANCH   2   3
ENDBRANCH   1   2
BRANCH   1   8
ATOM      8  C   UNL     1      17.401 -12.823  -2.628  1.00  0.00     0.000 C 
BRANCH   8   9
ATOM      9  C   UNL     1      16.809 -11.772  -3.583  1.00  0.00    -0.000 C 
BRANCH   9  10
ATOM     10  C   UNL     1      16.327 -10.509  -2.855  1.00  0.00    -0.003 C 
ATOM     11  C   UNL     1      15.390 -10.862  -1.704  1.00  0.00     0.004 C 
ENDBRANCH   9  10
ENDBRANCH   8   9
ENDBRANCH   1   8
TORSDOF 6
ENDMDL
MODEL 7
REMARK VINA RESULT:    -3.416      9.879     11.893
REMARK INTER + INTRA:          -4.974
REMARK INTER:                  -4.302
REMARK INTRA:                  -0.672
REMARK UNBOUND:                -0.360
REMARK SMILES CCCCCCC=CC(=O)[O-]
REMARK SMILES IDX 5 1 6 2 7 3 8 4 9 5 10 6 11 7 4 8 3 9 2 10 1 11
REMARK H PARENT
REMARK Flexibility Score: inf
ROOT
ATOM      1  C   UNL     1      16.570 -22.534  -2.540  1.00  0.00     0.004 C 
ENDROOT
BRANCH   1   2
ATOM      2  C   UNL     1      17.787 -22.070  -3.360  1.00  0.00     0.027 C 
BRANCH   2   3
ATOM      3  C   UNL     1      18.343 -20.760  -2.877  1.00  0.00    -0.025 C 
ATOM      4  C   UNL     1      18.676 -20.571  -1.596  1.00  0.00     0.020 C 
BRANCH   4   5
ATOM      5  C   UNL     1      19.226 -19.296  -1.112  1.00  0.00     0.064 C 
ATOM      6  O   UNL     1      18.444 -18.377  -0.757  1.00  0.00    -0.545 OA
ATOM      7  O   UNL     1      20.599 -19.089  -1.042  1.00  0.00    -0.545 OA
ENDBRANCH   4   5
ENDBRANCH   2   3
ENDBRANCH   1   2
BRANCH   1   8
ATOM      8  C   UNL     1      16.731 -23.921  -1.886  1.00  0.00     0.000 C 
BRANCH   8   9
ATOM      9  C   UNL     1      18.150 -24.510  -1.951  1.00  0.00    -0.000 C 
BRANCH   9  10
ATOM     10  C   UNL     1      18.841 -24.557  -0.581  1.00  0.00    -0.003 C 
ATOM     11  C   UNL     1      20.168 -23.804  -0.608  1.00  0.00     0.004 C 
ENDBRANCH   9  10
ENDBRANCH   8   9
ENDBRANCH   1   8
TORSDOF 6
ENDMDL
MODEL 8
REMARK VINA RESULT:    -3.293      4.251      5.751
REMARK INTER + INTRA:          -4.808
REMARK INTER:                  -4.061
REMARK INTRA:                  -0.747
REMARK UNBOUND:                -0.360
REMARK SMILES CCCCCCC=CC(=O)[O-]
REMARK SMILES IDX 5 1 6 2 7 3 8 4 9 5 10 6 11 7 4 8 3 9 2 10 1 11
REMARK H PARENT
REMARK Flexibility Score: inf
ROOT
ATOM      1  C   UNL     1      16.805 -11.310  -3.614  1.00  0.00     0.004 C 
ENDROOT
BRANCH   1   2
ATOM      2  C   UNL     1      16.126 -12.618  -4.058  1.00  0.00     0.027 C 
BRANCH   2   3
ATOM      3  C   UNL     1      15.871 -13.555  -2.912  1.00  0.00    -0.025 C 
ATOM      4  C   UNL     1      16.807 -14.411  -2.487  1.00  0.00     0.020 C 
BRANCH   4   5
ATOM      5  C   UNL     1      16.572 -15.329  -1.364  1.00  0.00     0.064 C 
ATOM      6  O   UNL     1      17.201 -16.418  -1.309  1.00  0.00    -0.545 OA
ATOM      7  O   UNL     1      15.664 -15.015  -0.359  1.00  0.00    -0.545 OA
ENDBRANCH   4   5
ENDBRANCH   2   3
ENDBRANCH   1   2
BRANCH   1   8
ATOM      8  C   UNL     1      16.132 -10.615  -2.413  1.00  0.00     0.000 C 
BRANCH   8   9
ATOM      9  C   UNL     1      17.057 -10.350  -1.213  1.00  0.00    -0.000 C 
BRANCH   9  10
ATOM     10  C   UNL     1      16.930 -11.415  -0.115  1.00  0.00    -0.003 C 
ATOM     11  C   UNL     1      18.255 -12.142   0.101  1.00  0.00     0.004 C 
ENDBRANCH   9  10
ENDBRANCH   8   9
ENDBRANCH   1   8
TORSDOF 6
ENDMDL
MODEL 9
REMARK VINA RESULT:    -3.166      3.262      4.814
REMARK INTER + INTRA:          -4.636
REMARK INTER:                  -3.995
REMARK INTRA:                  -0.641
REMARK UNBOUND:                -0.360
REMARK SMILES CCCCCCC=CC(=O)[O-]
REMARK SMILES IDX 5 1 6 2 7 3 8 4 9 5 10 6 11 7 4 8 3 9 2 10 1 11
REMARK H PARENT
REMARK Flexibility Score: inf
ROOT
ATOM      1  C   UNL     1      16.542 -14.838  -1.796  1.00  0.00     0.004 C 
ENDROOT
BRANCH   1   2
ATOM      2  C   UNL     1      17.200 -14.532  -0.439  1.00  0.00     0.027 C 
BRANCH   2   3
ATOM      3  C   UNL     1      17.887 -13.196  -0.417  1.00  0.00    -0.025 C 
ATOM      4  C   UNL     1      17.588 -12.271   0.501  1.00  0.00     0.020 C 
BRANCH   4   5
ATOM      5  C   UNL     1      18.257 -10.962   0.536  1.00  0.00     0.064 C 
ATOM      6  O   UNL     1      19.498 -10.903   0.728  1.00  0.00    -0.545 OA
ATOM      7  O   UNL     1      17.537  -9.785   0.362  1.00  0.00    -0.545 OA
ENDBRANCH   4   5
ENDBRANCH   2   3
ENDBRANCH   1   2
BRANCH   1   8
ATOM      8  C   UNL     1      17.154 -14.074  -2.989  1.00  0.00     0.000 C 
BRANCH   8   9
ATOM      9  C   UNL     1      16.212 -13.064  -3.666  1.00  0.00    -0.000 C 
BRANCH   9  10
ATOM     10  C   UNL     1      16.834 -11.668  -3.805  1.00  0.00    -0.003 C 
ATOM     11  C   UNL     1      16.260 -10.706  -2.768  1.00  0.00     0.004 C 
ENDBRANCH   9  10
ENDBRANCH   8   9
ENDBRANCH   1   8
TORSDOF 6
ENDMDL
