MODEL 1
REMARK VINA RESULT:    -2.189      0.000      0.000
REMARK INTER + INTRA:          -2.189
REMARK INTER:                  -2.189
REMARK INTRA:                   0.000
REMARK UNBOUND:                 0.000
REMARK SMILES CC(=O)[O-]
REMARK SMILES IDX 1 1 2 2 3 3 4 4
REMARK H PARENT
REMARK Flexibility Score: inf
ROOT
ATOM      1  C   UNL     1      -6.270  -3.011   2.736  1.00  0.00     0.063 C 
ATOM      2  C   UNL     1      -5.134  -3.856   2.266  1.00  0.00     0.038 C 
ATOM      3  O   UNL     1      -4.770  -3.811   1.061  1.00  0.00    -0.550 OA
ATOM      4  O   UNL     1      -4.440  -4.653   3.166  1.00  0.00    -0.550 OA
ENDROOT
TORSDOF 0
ENDMDL
MODEL 2
REMARK VINA RESULT:    -2.126      3.921      4.544
REMARK INTER + INTRA:          -2.126
REMARK INTER:                  -2.126
REMARK INTRA:                   0.000
REMARK UNBOUND:                 0.000
REMARK SMILES CC(=O)[O-]
REMARK SMILES IDX 1 1 2 2 3 3 4 4
REMARK H PARENT
REMARK Flexibility Score: inf
ROOT
ATOM      1  C   UNL     1      -0.903  -5.262   5.069  1.00  0.00     0.063 C 
ATOM      2  C   UNL     1      -1.605  -5.343   3.755  1.00  0.00     0.038 C 
ATOM      3  O   UNL     1      -2.859  -5.239   3.702  1.00  0.00    -0.550 OA
ATOM      4  O   UNL     1      -0.874  -5.478   2.583  1.00  0.00    -0.550 OA
ENDROOT
TORSDOF 0
ENDMDL
MODEL 3
REMARK VINA RESULT:    -2.114      8.276      8.711
REMARK INTER + INTRA:          -2.114
REMARK INTER:                  -2.114
REMARK INTRA:                   0.000
REMARK UNBOUND:                 0.000
REMARK SMILES CC(=O)[O-]
REMARK SMILES IDX 1 1 2 2 3 3 4 4
REMARK H PARENT
REMARK Flexibility Score: inf
ROOT
ATOM      1  C   UNL     1      -0.701   2.830  -3.021  1.00  0.00     0.063 C 
ATOM      2  C   UNL     1      -2.001   2.212  -2.627  1.00  0.00     0.038 C 
ATOM      3  O   UNL     1      -2.591   2.594  -1.583  1.00  0.00    -0.550 OA
ATOM      4  O   UNL     1      -2.589   1.252  -3.440  1.00  0.00    -0.550 OA
ENDROOT
TORSDOF 0
ENDMDL
MODEL 4
REMARK VINA RESULT:    -2.088      8.244      8.600
REMARK INTER + INTRA:          -2.088
REMARK INTER:                  -2.088
REMARK INTRA:                   0.000
REMARK UNBOUND:                 0.000
REMARK SMILES CC(=O)[O-]
REMARK SMILES IDX 1 1 2 2 3 3 4 4
REMARK H PARENT
REMARK Flexibility Score: inf
ROOT
ATOM      1  C   UNL     1      -0.731   2.822  -3.030  1.00  0.00     0.063 C 
ATOM      2  C   UNL     1      -2.028   2.211  -2.619  1.00  0.00     0.038 C 
ATOM      3  O   UNL     1      -2.528   1.274  -3.295  1.00  0.00    -0.550 OA
ATOM      4  O   UNL     1      -2.661   2.638  -1.459  1.00  0.00    -0.550 OA
ENDROOT
TORSDOF 0
ENDMDL
MODEL 5
REMARK VINA RESULT:    -2.082     11.769     12.216
REMARK INTER + INTRA:          -2.082
REMARK INTER:                  -2.082
REMARK INTRA:                   0.000
REMARK UNBOUND:                 0.000
REMARK SMILES CC(=O)[O-]
REMARK SMILES IDX 1 1 2 2 3 3 4 4
REMARK H PARENT
REMARK Flexibility Score: inf
ROOT
ATOM      1  C   UNL     1       3.863   2.249  -4.828  1.00  0.00     0.063 C 
ATOM      2  C   UNL     1       3.816   1.865  -3.387  1.00  0.00     0.038 C 
ATOM      3  O   UNL     1       2.725   1.528  -2.859  1.00  0.00    -0.550 OA
ATOM      4  O   UNL     1       4.985   1.827  -2.640  1.00  0.00    -0.550 OA
ENDROOT
TORSDOF 0
ENDMDL
MODEL 6
REMARK VINA RESULT:    -2.019     11.787     12.254
REMARK INTER + INTRA:          -2.019
REMARK INTER:                  -2.019
REMARK INTRA:                   0.000
REMARK UNBOUND:                 0.000
REMARK SMILES CC(=O)[O-]
REMARK SMILES IDX 1 1 2 2 3 3 4 4
REMARK H PARENT
REMARK Flexibility Score: inf
ROOT
ATOM      1  C   UNL     1       3.917   2.273  -4.860  1.00  0.00     0.063 C 
ATOM      2  C   UNL     1       3.874   1.851  -3.430  1.00  0.00     0.038 C 
ATOM      3  O   UNL     1       4.930   1.830  -2.746  1.00  0.00    -0.550 OA
ATOM      4  O   UNL     1       2.660   1.531  -2.836  1.00  0.00    -0.550 OA
ENDROOT
TORSDOF 0
ENDMDL
MODEL 7
REMARK VINA RESULT:    -1.948      8.052      8.412
REMARK INTER + INTRA:          -1.948
REMARK INTER:                  -1.948
REMARK INTRA:                   0.000
REMARK UNBOUND:                 0.000
REMARK SMILES CC(=O)[O-]
REMARK SMILES IDX 1 1 2 2 3 3 4 4
REMARK H PARENT
REMARK Flexibility Score: inf
ROOT
ATOM      1  C   UNL     1      -2.637   1.855   9.329  1.00  0.00     0.063 C 
ATOM      2  C   UNL     1      -3.783   1.370   8.505  1.00  0.00     0.038 C 
ATOM      3  O   UNL     1      -3.575   0.857   7.375  1.00  0.00    -0.550 OA
ATOM      4  O   UNL     1      -5.076   1.436   9.005  1.00  0.00    -0.550 OA
ENDROOT
TORSDOF 0
ENDMDL
MODEL 8
REMARK VINA RESULT:    -1.903      7.318      7.754
REMARK INTER + INTRA:          -1.903
REMARK INTER:                  -1.903
REMARK INTRA:                   0.000
REMARK UNBOUND:                 0.000
REMARK SMILES CC(=O)[O-]
REMARK SMILES IDX 1 1 2 2 3 3 4 4
REMARK H PARENT
REMARK Flexibility Score: inf
ROOT
ATOM      1  C   UNL     1      -5.087   0.031   8.157  1.00  0.00     0.063 C 
ATOM      2  C   UNL     1      -3.804   0.786   8.239  1.00  0.00     0.038 C 
ATOM      3  O   UNL     1      -3.781   1.940   8.742  1.00  0.00    -0.550 OA
ATOM      4  O   UNL     1      -2.622   0.198   7.810  1.00  0.00    -0.550 OA
ENDROOT
TORSDOF 0
ENDMDL
MODEL 9
REMARK VINA RESULT:    -1.851      5.553      6.144
REMARK INTER + INTRA:          -1.851
REMARK INTER:                  -1.851
REMARK INTRA:                   0.000
REMARK UNBOUND:                 0.000
REMARK SMILES CC(=O)[O-]
REMARK SMILES IDX 1 1 2 2 3 3 4 4
REMARK H PARENT
REMARK Flexibility Score: inf
ROOT
ATOM      1  C   UNL     1       1.352  -6.567   2.798  1.00  0.00     0.063 C 
ATOM      2  C   UNL     1      -0.011  -6.388   2.217  1.00  0.00     0.038 C 
ATOM      3  O   UNL     1      -0.739  -5.435   2.599  1.00  0.00    -0.550 OA
ATOM      4  O   UNL     1      -0.457  -7.239   1.215  1.00  0.00    -0.550 OA
ENDROOT
TORSDOF 0
ENDMDL
