MODEL 1
REMARK VINA RESULT:    -3.888      0.000      0.000
REMARK INTER + INTRA:          -4.247
REMARK INTER:                  -4.229
REMARK INTRA:                  -0.017
REMARK UNBOUND:                -0.017
REMARK SMILES OCc1ccccc1
REMARK SMILES IDX 2 1 3 2 6 3 5 4 7 5 4 6 8 7 1 8
REMARK H PARENT 1 9
REMARK Flexibility Score: inf
ROOT
ATOM      1  C   UNL     1     133.853 137.319 122.489  1.00  0.00     0.191 C 
ENDROOT
BRANCH   1   2
ATOM      2  C   UNL     1     132.604 138.056 122.089  1.00  0.00    -0.023 A 
ATOM      3  C   UNL     1     130.291 139.415 121.266  1.00  0.00     0.000 A 
ATOM      4  C   UNL     1     131.507 140.098 121.359  1.00  0.00     0.000 A 
ATOM      5  C   UNL     1     130.229 138.053 121.573  1.00  0.00     0.000 A 
ATOM      6  C   UNL     1     132.662 139.421 121.764  1.00  0.00     0.006 A 
ATOM      7  C   UNL     1     131.382 137.372 121.978  1.00  0.00     0.006 A 
ENDBRANCH   1   2
BRANCH   1   8
ATOM      8  O   UNL     1     134.776 138.209 123.055  1.00  0.00    -0.392 OA
ATOM      9  H   UNL     1     134.622 139.090 122.622  1.00  0.00     0.211 HD
ENDBRANCH   1   8
TORSDOF 2
ENDMDL
MODEL 2
REMARK VINA RESULT:    -3.877      0.086      1.716
REMARK INTER + INTRA:          -4.234
REMARK INTER:                  -4.217
REMARK INTRA:                  -0.017
REMARK UNBOUND:                -0.017
REMARK SMILES OCc1ccccc1
REMARK SMILES IDX 2 1 3 2 6 3 5 4 7 5 4 6 8 7 1 8
REMARK H PARENT 1 9
REMARK Flexibility Score: inf
ROOT
ATOM      1  C   UNL     1     133.854 137.380 122.421  1.00  0.00     0.191 C 
ENDROOT
BRANCH   1   2
ATOM      2  C   UNL     1     132.596 138.096 122.014  1.00  0.00    -0.023 A 
ATOM      3  C   UNL     1     130.233 139.448 121.333  1.00  0.00     0.000 A 
ATOM      4  C   UNL     1     130.200 138.077 121.610  1.00  0.00     0.000 A 
ATOM      5  C   UNL     1     131.441 140.146 121.406  1.00  0.00     0.000 A 
ATOM      6  C   UNL     1     131.375 137.403 121.955  1.00  0.00     0.006 A 
ATOM      7  C   UNL     1     132.619 139.476 121.751  1.00  0.00     0.006 A 
ENDBRANCH   1   2
BRANCH   1   8
ATOM      8  O   UNL     1     134.688 138.245 123.143  1.00  0.00    -0.392 OA
ATOM      9  H   UNL     1     134.132 138.636 123.868  1.00  0.00     0.211 HD
ENDBRANCH   1   8
TORSDOF 2
ENDMDL
MODEL 3
REMARK VINA RESULT:    -3.772     10.070     11.397
REMARK INTER + INTRA:          -4.120
REMARK INTER:                  -4.102
REMARK INTRA:                  -0.019
REMARK UNBOUND:                -0.017
REMARK SMILES OCc1ccccc1
REMARK SMILES IDX 2 1 3 2 6 3 5 4 7 5 4 6 8 7 1 8
REMARK H PARENT 1 9
REMARK Flexibility Score: inf
ROOT
ATOM      1  C   UNL     1     127.757 129.394 122.385  1.00  0.00     0.191 C 
ENDROOT
BRANCH   1   2
ATOM      2  C   UNL     1     129.003 128.552 122.375  1.00  0.00    -0.023 A 
ATOM      3  C   UNL     1     131.327 126.983 122.274  1.00  0.00     0.000 A 
ATOM      4  C   UNL     1     130.070 126.373 122.246  1.00  0.00     0.000 A 
ATOM      5  C   UNL     1     131.426 128.375 122.342  1.00  0.00     0.000 A 
ATOM      6  C   UNL     1     128.910 127.153 122.290  1.00  0.00     0.006 A 
ATOM      7  C   UNL     1     130.269 129.160 122.386  1.00  0.00     0.006 A 
ENDBRANCH   1   2
BRANCH   1   8
ATOM      8  O   UNL     1     126.645 128.604 122.706  1.00  0.00    -0.392 OA
ATOM      9  H   UNL     1     126.663 127.825 122.090  1.00  0.00     0.211 HD
ENDBRANCH   1   8
TORSDOF 2
ENDMDL
MODEL 4
REMARK VINA RESULT:    -3.666      2.462      3.461
REMARK INTER + INTRA:          -4.005
REMARK INTER:                  -3.988
REMARK INTRA:                  -0.016
REMARK UNBOUND:                -0.017
REMARK SMILES OCc1ccccc1
REMARK SMILES IDX 2 1 3 2 6 3 5 4 7 5 4 6 8 7 1 8
REMARK H PARENT 1 9
REMARK Flexibility Score: inf
ROOT
ATOM      1  C   UNL     1     128.893 138.269 121.240  1.00  0.00     0.191 C 
ENDROOT
BRANCH   1   2
ATOM      2  C   UNL     1     130.373 138.434 121.449  1.00  0.00    -0.023 A 
ATOM      3  C   UNL     1     133.120 138.765 121.916  1.00  0.00     0.000 A 
ATOM      4  C   UNL     1     132.351 139.846 121.474  1.00  0.00     0.000 A 
ATOM      5  C   UNL     1     132.519 137.523 122.135  1.00  0.00     0.000 A 
ATOM      6  C   UNL     1     130.980 139.684 121.246  1.00  0.00     0.006 A 
ATOM      7  C   UNL     1     131.148 137.357 121.908  1.00  0.00     0.006 A 
ENDBRANCH   1   2
BRANCH   1   8
ATOM      8  O   UNL     1     128.607 136.955 120.842  1.00  0.00    -0.392 OA
ATOM      9  H   UNL     1     128.069 137.022 120.009  1.00  0.00     0.211 HD
ENDBRANCH   1   8
TORSDOF 2
ENDMDL
MODEL 5
REMARK VINA RESULT:    -3.612     11.127     12.106
REMARK INTER + INTRA:          -3.946
REMARK INTER:                  -3.936
REMARK INTRA:                  -0.010
REMARK UNBOUND:                -0.017
REMARK SMILES OCc1ccccc1
REMARK SMILES IDX 2 1 3 2 6 3 5 4 7 5 4 6 8 7 1 8
REMARK H PARENT 1 9
REMARK Flexibility Score: inf
ROOT
ATOM      1  C   UNL     1     133.443 125.461 124.613  1.00  0.00     0.191 C 
ENDROOT
BRANCH   1   2
ATOM      2  C   UNL     1     132.691 126.261 123.586  1.00  0.00    -0.023 A 
ATOM      3  C   UNL     1     131.329 127.716 121.610  1.00  0.00     0.000 A 
ATOM      4  C   UNL     1     132.536 128.197 122.124  1.00  0.00     0.000 A 
ATOM      5  C   UNL     1     130.805 126.506 122.073  1.00  0.00     0.000 A 
ATOM      6  C   UNL     1     133.220 127.470 123.104  1.00  0.00     0.006 A 
ATOM      7  C   UNL     1     131.485 125.776 123.053  1.00  0.00     0.006 A 
ENDBRANCH   1   2
BRANCH   1   8
ATOM      8  O   UNL     1     134.211 124.471 123.984  1.00  0.00    -0.392 OA
ATOM      9  H   UNL     1     135.122 124.528 124.375  1.00  0.00     0.211 HD
ENDBRANCH   1   8
TORSDOF 2
ENDMDL
MODEL 6
REMARK VINA RESULT:    -3.580     14.311     14.974
REMARK INTER + INTRA:          -3.911
REMARK INTER:                  -3.897
REMARK INTRA:                  -0.014
REMARK UNBOUND:                -0.017
REMARK SMILES OCc1ccccc1
REMARK SMILES IDX 2 1 3 2 6 3 5 4 7 5 4 6 8 7 1 8
REMARK H PARENT 1 9
REMARK Flexibility Score: inf
ROOT
ATOM      1  C   UNL     1     135.291 124.536 125.702  1.00  0.00     0.191 C 
ENDROOT
BRANCH   1   2
ATOM      2  C   UNL     1     133.903 124.163 125.257  1.00  0.00    -0.023 A 
ATOM      3  C   UNL     1     131.287 123.537 124.459  1.00  0.00     0.000 A 
ATOM      4  C   UNL     1     131.742 123.155 125.725  1.00  0.00     0.000 A 
ATOM      5  C   UNL     1     132.132 124.238 123.595  1.00  0.00     0.000 A 
ATOM      6  C   UNL     1     133.043 123.472 126.127  1.00  0.00     0.006 A 
ATOM      7  C   UNL     1     133.434 124.557 123.993  1.00  0.00     0.006 A 
ENDBRANCH   1   2
BRANCH   1   8
ATOM      8  O   UNL     1     136.212 124.270 124.679  1.00  0.00    -0.392 OA
ATOM      9  H   UNL     1     136.946 123.741 125.089  1.00  0.00     0.211 HD
ENDBRANCH   1   8
TORSDOF 2
ENDMDL
MODEL 7
REMARK VINA RESULT:    -3.580     11.103     12.395
REMARK INTER + INTRA:          -3.911
REMARK INTER:                  -3.897
REMARK INTRA:                  -0.013
REMARK UNBOUND:                -0.017
REMARK SMILES OCc1ccccc1
REMARK SMILES IDX 2 1 3 2 6 3 5 4 7 5 4 6 8 7 1 8
REMARK H PARENT 1 9
REMARK Flexibility Score: inf
ROOT
ATOM      1  C   UNL     1     129.129 127.985 122.305  1.00  0.00     0.191 C 
ENDROOT
BRANCH   1   2
ATOM      2  C   UNL     1     130.360 127.240 122.744  1.00  0.00    -0.023 A 
ATOM      3  C   UNL     1     132.658 125.815 123.492  1.00  0.00     0.000 A 
ATOM      4  C   UNL     1     131.393 125.258 123.698  1.00  0.00     0.000 A 
ATOM      5  C   UNL     1     132.779 127.076 122.904  1.00  0.00     0.000 A 
ATOM      6  C   UNL     1     130.246 125.964 123.321  1.00  0.00     0.006 A 
ATOM      7  C   UNL     1     131.635 127.787 122.526  1.00  0.00     0.006 A 
ENDBRANCH   1   2
BRANCH   1   8
ATOM      8  O   UNL     1     128.354 127.178 121.461  1.00  0.00    -0.392 OA
ATOM      9  H   UNL     1     128.861 127.088 120.611  1.00  0.00     0.211 HD
ENDBRANCH   1   8
TORSDOF 2
ENDMDL
MODEL 8
REMARK VINA RESULT:    -3.521      1.702      2.345
REMARK INTER + INTRA:          -3.847
REMARK INTER:                  -3.833
REMARK INTRA:                  -0.014
REMARK UNBOUND:                -0.017
REMARK SMILES OCc1ccccc1
REMARK SMILES IDX 2 1 3 2 6 3 5 4 7 5 4 6 8 7 1 8
REMARK H PARENT 1 9
REMARK Flexibility Score: inf
ROOT
ATOM      1  C   UNL     1     132.603 136.251 122.447  1.00  0.00     0.191 C 
ENDROOT
BRANCH   1   2
ATOM      2  C   UNL     1     131.988 137.540 121.975  1.00  0.00    -0.023 A 
ATOM      3  C   UNL     1     130.820 139.961 121.170  1.00  0.00     0.000 A 
ATOM      4  C   UNL     1     130.046 138.799 121.233  1.00  0.00     0.000 A 
ATOM      5  C   UNL     1     132.173 139.920 121.517  1.00  0.00     0.000 A 
ATOM      6  C   UNL     1     130.624 137.592 121.640  1.00  0.00     0.006 A 
ATOM      7  C   UNL     1     132.756 138.715 121.924  1.00  0.00     0.006 A 
ENDBRANCH   1   2
BRANCH   1   8
ATOM      8  O   UNL     1     132.211 135.197 121.611  1.00  0.00    -0.392 OA
ATOM      9  H   UNL     1     131.984 134.433 122.205  1.00  0.00     0.211 HD
ENDBRANCH   1   8
TORSDOF 2
ENDMDL
MODEL 9
REMARK VINA RESULT:    -3.516      9.952     11.124
REMARK INTER + INTRA:          -3.841
REMARK INTER:                  -3.831
REMARK INTRA:                  -0.010
REMARK UNBOUND:                -0.017
REMARK SMILES OCc1ccccc1
REMARK SMILES IDX 2 1 3 2 6 3 5 4 7 5 4 6 8 7 1 8
REMARK H PARENT 1 9
REMARK Flexibility Score: inf
ROOT
ATOM      1  C   UNL     1     134.275 129.090 123.477  1.00  0.00     0.191 C 
ENDROOT
BRANCH   1   2
ATOM      2  C   UNL     1     133.215 128.119 123.034  1.00  0.00    -0.023 A 
ATOM      3  C   UNL     1     131.189 126.338 122.262  1.00  0.00     0.000 A 
ATOM      4  C   UNL     1     132.080 125.984 123.279  1.00  0.00     0.000 A 
ATOM      5  C   UNL     1     131.301 127.582 121.636  1.00  0.00     0.000 A 
ATOM      6  C   UNL     1     133.087 126.873 123.669  1.00  0.00     0.006 A 
ATOM      7  C   UNL     1     132.306 128.474 122.023  1.00  0.00     0.006 A 
ENDBRANCH   1   2
BRANCH   1   8
ATOM      8  O   UNL     1     135.545 128.604 123.137  1.00  0.00    -0.392 OA
ATOM      9  H   UNL     1     135.531 128.435 122.158  1.00  0.00     0.211 HD
ENDBRANCH   1   8
TORSDOF 2
ENDMDL
