MODEL 1
REMARK VINA RESULT:    -5.032      0.000      0.000
REMARK INTER + INTRA:          -7.518
REMARK INTER:                  -7.092
REMARK INTRA:                  -0.426
REMARK UNBOUND:                -0.426
REMARK SMILES CCCCCCCCC(=O)[O-]
REMARK SMILES IDX 6 1 7 2 8 3 9 4 10 5 11 6 5 7 4 8 3 9 2 10 1 11
REMARK H PARENT
REMARK Flexibility Score: inf
ROOT
ATOM      1  C   UNL     1      85.896 325.369 193.464  1.00  0.00     0.000 C 
ENDROOT
BRANCH   1   2
ATOM      2  C   UNL     1      86.808 326.440 194.085  1.00  0.00     0.006 C 
BRANCH   2   3
ATOM      3  C   UNL     1      86.649 326.540 195.608  1.00  0.00     0.053 C 
BRANCH   3   4
ATOM      4  C   UNL     1      87.894 326.072 196.294  1.00  0.00     0.041 C 
ATOM      5  O   UNL     1      88.498 325.048 195.882  1.00  0.00    -0.550 OA
ATOM      6  O   UNL     1      88.415 326.797 197.358  1.00  0.00    -0.550 OA
ENDBRANCH   3   4
ENDBRANCH   2   3
ENDBRANCH   1   2
BRANCH   1   7
ATOM      7  C   UNL     1      86.643 324.460 192.472  1.00  0.00     0.000 C 
BRANCH   7   8
ATOM      8  C   UNL     1      88.100 324.896 192.255  1.00  0.00    -0.000 C 
BRANCH   8   9
ATOM      9  C   UNL     1      88.688 324.354 190.940  1.00  0.00    -0.000 C 
BRANCH   9  10
ATOM     10  C   UNL     1      87.762 323.337 190.257  1.00  0.00    -0.003 C 
ATOM     11  C   UNL     1      88.165 323.051 188.810  1.00  0.00     0.004 C 
ENDBRANCH   9  10
ENDBRANCH   8   9
ENDBRANCH   7   8
ENDBRANCH   1   7
TORSDOF 7
ENDMDL
MODEL 2
REMARK VINA RESULT:    -4.963      3.470      6.179
REMARK INTER + INTRA:          -7.420
REMARK INTER:                  -7.185
REMARK INTRA:                  -0.236
REMARK UNBOUND:                -0.426
REMARK SMILES CCCCCCCCC(=O)[O-]
REMARK SMILES IDX 6 1 7 2 8 3 9 4 10 5 11 6 5 7 4 8 3 9 2 10 1 11
REMARK H PARENT
REMARK Flexibility Score: inf
ROOT
ATOM      1  C   UNL     1      87.620 324.913 192.781  1.00  0.00     0.000 C 
ENDROOT
BRANCH   1   2
ATOM      2  C   UNL     1      88.401 324.634 191.487  1.00  0.00     0.006 C 
BRANCH   2   3
ATOM      3  C   UNL     1      87.781 323.502 190.657  1.00  0.00     0.053 C 
BRANCH   3   4
ATOM      4  C   UNL     1      88.445 323.412 189.319  1.00  0.00     0.041 C 
ATOM      5  O   UNL     1      87.879 322.809 188.370  1.00  0.00    -0.550 OA
ATOM      6  O   UNL     1      89.667 324.037 189.106  1.00  0.00    -0.550 OA
ENDBRANCH   3   4
ENDBRANCH   2   3
ENDBRANCH   1   2
BRANCH   1   7
ATOM      7  C   UNL     1      88.122 326.169 193.515  1.00  0.00     0.000 C 
BRANCH   7   8
ATOM      8  C   UNL     1      86.978 326.984 194.139  1.00  0.00    -0.000 C 
BRANCH   8   9
ATOM      9  C   UNL     1      86.651 326.536 195.574  1.00  0.00    -0.000 C 
BRANCH   9  10
ATOM     10  C   UNL     1      87.836 325.840 196.259  1.00  0.00    -0.003 C 
ATOM     11  C   UNL     1      88.529 326.731 197.289  1.00  0.00     0.004 C 
ENDBRANCH   9  10
ENDBRANCH   8   9
ENDBRANCH   7   8
ENDBRANCH   1   7
TORSDOF 7
ENDMDL
MODEL 3
REMARK VINA RESULT:    -4.887      1.489      2.714
REMARK INTER + INTRA:          -7.312
REMARK INTER:                  -6.788
REMARK INTRA:                  -0.525
REMARK UNBOUND:                -0.426
REMARK SMILES CCCCCCCCC(=O)[O-]
REMARK SMILES IDX 6 1 7 2 8 3 9 4 10 5 11 6 5 7 4 8 3 9 2 10 1 11
REMARK H PARENT
REMARK Flexibility Score: inf
ROOT
ATOM      1  C   UNL     1      86.960 326.411 195.816  1.00  0.00     0.000 C 
ENDROOT
BRANCH   1   2
ATOM      2  C   UNL     1      88.449 326.312 196.186  1.00  0.00     0.006 C 
BRANCH   2   3
ATOM      3  C   UNL     1      88.846 324.910 196.666  1.00  0.00     0.053 C 
BRANCH   3   4
ATOM      4  C   UNL     1      88.916 324.870 198.160  1.00  0.00     0.041 C 
ATOM      5  O   UNL     1      88.824 323.773 198.770  1.00  0.00    -0.550 OA
ATOM      6  O   UNL     1      89.133 326.040 198.877  1.00  0.00    -0.550 OA
ENDBRANCH   3   4
ENDBRANCH   2   3
ENDBRANCH   1   2
BRANCH   1   7
ATOM      7  C   UNL     1      86.742 326.738 194.328  1.00  0.00     0.000 C 
BRANCH   7   8
ATOM      8  C   UNL     1      85.993 325.622 193.584  1.00  0.00    -0.000 C 
BRANCH   8   9
ATOM      9  C   UNL     1      86.935 324.516 193.077  1.00  0.00    -0.000 C 
BRANCH   9  10
ATOM     10  C   UNL     1      88.206 325.078 192.424  1.00  0.00    -0.003 C 
ATOM     11  C   UNL     1      88.517 324.423 191.079  1.00  0.00     0.004 C 
ENDBRANCH   9  10
ENDBRANCH   8   9
ENDBRANCH   7   8
ENDBRANCH   1   7
TORSDOF 7
ENDMDL
MODEL 4
REMARK VINA RESULT:    -4.884      2.995      5.595
REMARK INTER + INTRA:          -7.309
REMARK INTER:                  -6.804
REMARK INTRA:                  -0.505
REMARK UNBOUND:                -0.426
REMARK SMILES CCCCCCCCC(=O)[O-]
REMARK SMILES IDX 6 1 7 2 8 3 9 4 10 5 11 6 5 7 4 8 3 9 2 10 1 11
REMARK H PARENT
REMARK Flexibility Score: inf
ROOT
ATOM      1  C   UNL     1      88.118 326.289 193.545  1.00  0.00     0.000 C 
ENDROOT
BRANCH   1   2
ATOM      2  C   UNL     1      87.823 324.878 193.011  1.00  0.00     0.006 C 
BRANCH   2   3
ATOM      3  C   UNL     1      88.291 324.687 191.562  1.00  0.00     0.053 C 
BRANCH   3   4
ATOM      4  C   UNL     1      87.485 323.620 190.890  1.00  0.00     0.041 C 
ATOM      5  O   UNL     1      86.245 323.539 191.094  1.00  0.00    -0.550 OA
ATOM      6  O   UNL     1      88.094 322.746 189.999  1.00  0.00    -0.550 OA
ENDBRANCH   3   4
ENDBRANCH   2   3
ENDBRANCH   1   2
BRANCH   1   7
ATOM      7  C   UNL     1      86.949 326.869 194.360  1.00  0.00     0.000 C 
BRANCH   7   8
ATOM      8  C   UNL     1      86.988 326.438 195.834  1.00  0.00    -0.000 C 
BRANCH   8   9
ATOM      9  C   UNL     1      88.405 326.498 196.430  1.00  0.00    -0.000 C 
BRANCH   9  10
ATOM     10  C   UNL     1      88.738 325.266 197.284  1.00  0.00    -0.003 C 
ATOM     11  C   UNL     1      88.584 323.955 196.515  1.00  0.00     0.004 C 
ENDBRANCH   9  10
ENDBRANCH   8   9
ENDBRANCH   7   8
ENDBRANCH   1   7
TORSDOF 7
ENDMDL
MODEL 5
REMARK VINA RESULT:    -4.884     19.756     21.363
REMARK INTER + INTRA:          -7.308
REMARK INTER:                  -7.060
REMARK INTRA:                  -0.249
REMARK UNBOUND:                -0.426
REMARK SMILES CCCCCCCCC(=O)[O-]
REMARK SMILES IDX 6 1 7 2 8 3 9 4 10 5 11 6 5 7 4 8 3 9 2 10 1 11
REMARK H PARENT
REMARK Flexibility Score: inf
ROOT
ATOM      1  C   UNL     1     104.609 313.687 191.993  1.00  0.00     0.000 C 
ENDROOT
BRANCH   1   2
ATOM      2  C   UNL     1     103.901 313.698 190.629  1.00  0.00     0.006 C 
BRANCH   2   3
ATOM      3  C   UNL     1     104.477 314.751 189.674  1.00  0.00     0.053 C 
BRANCH   3   4
ATOM      4  C   UNL     1     103.575 314.935 188.494  1.00  0.00     0.041 C 
ATOM      5  O   UNL     1     103.871 315.761 187.592  1.00  0.00    -0.550 OA
ATOM      6  O   UNL     1     102.431 314.157 188.366  1.00  0.00    -0.550 OA
ENDBRANCH   3   4
ENDBRANCH   2   3
ENDBRANCH   1   2
BRANCH   1   7
ATOM      7  C   UNL     1     104.444 312.348 192.734  1.00  0.00     0.000 C 
BRANCH   7   8
ATOM      8  C   UNL     1     105.791 311.733 193.144  1.00  0.00    -0.000 C 
BRANCH   8   9
ATOM      9  C   UNL     1     106.029 311.793 194.663  1.00  0.00    -0.000 C 
BRANCH   9  10
ATOM     10  C   UNL     1     104.859 312.442 195.417  1.00  0.00    -0.003 C 
ATOM     11  C   UNL     1     104.328 311.565 196.550  1.00  0.00     0.004 C 
ENDBRANCH   9  10
ENDBRANCH   8   9
ENDBRANCH   7   8
ENDBRANCH   1   7
TORSDOF 7
ENDMDL
MODEL 6
REMARK VINA RESULT:    -4.858     19.624     20.962
REMARK INTER + INTRA:          -7.272
REMARK INTER:                  -6.973
REMARK INTRA:                  -0.299
REMARK UNBOUND:                -0.426
REMARK SMILES CCCCCCCCC(=O)[O-]
REMARK SMILES IDX 6 1 7 2 8 3 9 4 10 5 11 6 5 7 4 8 3 9 2 10 1 11
REMARK H PARENT
REMARK Flexibility Score: inf
ROOT
ATOM      1  C   UNL     1     104.563 312.742 192.487  1.00  0.00     0.000 C 
ENDROOT
BRANCH   1   2
ATOM      2  C   UNL     1     105.078 311.504 193.237  1.00  0.00     0.006 C 
BRANCH   2   3
ATOM      3  C   UNL     1     105.842 311.866 194.518  1.00  0.00     0.053 C 
BRANCH   3   4
ATOM      4  C   UNL     1     104.890 312.309 195.584  1.00  0.00     0.041 C 
ATOM      5  O   UNL     1     104.339 311.461 196.334  1.00  0.00    -0.550 OA
ATOM      6  O   UNL     1     104.651 313.663 195.784  1.00  0.00    -0.550 OA
ENDBRANCH   3   4
ENDBRANCH   2   3
ENDBRANCH   1   2
BRANCH   1   7
ATOM      7  C   UNL     1     105.704 313.621 191.942  1.00  0.00     0.000 C 
BRANCH   7   8
ATOM      8  C   UNL     1     105.335 314.312 190.621  1.00  0.00    -0.000 C 
BRANCH   8   9
ATOM      9  C   UNL     1     103.867 314.080 190.223  1.00  0.00    -0.000 C 
BRANCH   9  10
ATOM     10  C   UNL     1     103.468 314.861 188.962  1.00  0.00    -0.003 C 
ATOM     11  C   UNL     1     102.333 314.192 188.188  1.00  0.00     0.004 C 
ENDBRANCH   9  10
ENDBRANCH   8   9
ENDBRANCH   7   8
ENDBRANCH   1   7
TORSDOF 7
ENDMDL
MODEL 7
REMARK VINA RESULT:    -4.849      1.498      2.222
REMARK INTER + INTRA:          -7.260
REMARK INTER:                  -7.007
REMARK INTRA:                  -0.252
REMARK UNBOUND:                -0.426
REMARK SMILES CCCCCCCCC(=O)[O-]
REMARK SMILES IDX 6 1 7 2 8 3 9 4 10 5 11 6 5 7 4 8 3 9 2 10 1 11
REMARK H PARENT
REMARK Flexibility Score: inf
ROOT
ATOM      1  C   UNL     1      88.389 324.569 192.716  1.00  0.00     0.000 C 
ENDROOT
BRANCH   1   2
ATOM      2  C   UNL     1      87.825 325.867 193.316  1.00  0.00     0.006 C 
BRANCH   2   3
ATOM      3  C   UNL     1      86.547 325.632 194.132  1.00  0.00     0.053 C 
BRANCH   3   4
ATOM      4  C   UNL     1      86.679 326.239 195.494  1.00  0.00     0.041 C 
ATOM      5  O   UNL     1      87.524 325.787 196.310  1.00  0.00    -0.550 OA
ATOM      6  O   UNL     1      85.903 327.337 195.844  1.00  0.00    -0.550 OA
ENDBRANCH   3   4
ENDBRANCH   2   3
ENDBRANCH   1   2
BRANCH   1   7
ATOM      7  C   UNL     1      88.504 324.628 191.183  1.00  0.00     0.000 C 
BRANCH   7   8
ATOM      8  C   UNL     1      87.917 323.384 190.499  1.00  0.00    -0.000 C 
BRANCH   8   9
ATOM      9  C   UNL     1      88.399 323.226 189.046  1.00  0.00    -0.000 C 
BRANCH   9  10
ATOM     10  C   UNL     1      89.754 323.905 188.799  1.00  0.00    -0.003 C 
ATOM     11  C   UNL     1      90.796 322.949 188.220  1.00  0.00     0.004 C 
ENDBRANCH   9  10
ENDBRANCH   8   9
ENDBRANCH   7   8
ENDBRANCH   1   7
TORSDOF 7
ENDMDL
MODEL 8
REMARK VINA RESULT:    -4.702     19.545     20.663
REMARK INTER + INTRA:          -7.052
REMARK INTER:                  -6.462
REMARK INTRA:                  -0.590
REMARK UNBOUND:                -0.426
REMARK SMILES CCCCCCCCC(=O)[O-]
REMARK SMILES IDX 6 1 7 2 8 3 9 4 10 5 11 6 5 7 4 8 3 9 2 10 1 11
REMARK H PARENT
REMARK Flexibility Score: inf
ROOT
ATOM      1  C   UNL     1     103.980 311.565 194.487  1.00  0.00     0.000 C 
ENDROOT
BRANCH   1   2
ATOM      2  C   UNL     1     104.917 312.173 195.542  1.00  0.00     0.006 C 
BRANCH   2   3
ATOM      3  C   UNL     1     104.170 313.033 196.570  1.00  0.00     0.053 C 
BRANCH   3   4
ATOM      4  C   UNL     1     103.741 314.328 195.953  1.00  0.00     0.041 C 
ATOM      5  O   UNL     1     102.649 314.857 196.286  1.00  0.00    -0.550 OA
ATOM      6  O   UNL     1     104.572 314.975 195.047  1.00  0.00    -0.550 OA
ENDBRANCH   3   4
ENDBRANCH   2   3
ENDBRANCH   1   2
BRANCH   1   7
ATOM      7  C   UNL     1     104.631 311.482 193.095  1.00  0.00     0.000 C 
BRANCH   7   8
ATOM      8  C   UNL     1     105.820 312.444 192.943  1.00  0.00    -0.000 C 
BRANCH   8   9
ATOM      9  C   UNL     1     105.598 313.483 191.829  1.00  0.00    -0.000 C 
BRANCH   9  10
ATOM     10  C   UNL     1     104.110 313.769 191.579  1.00  0.00    -0.003 C 
ATOM     11  C   UNL     1     103.805 314.064 190.110  1.00  0.00     0.004 C 
ENDBRANCH   9  10
ENDBRANCH   8   9
ENDBRANCH   7   8
ENDBRANCH   1   7
TORSDOF 7
ENDMDL
MODEL 9
REMARK VINA RESULT:    -4.682      1.731      2.971
REMARK INTER + INTRA:          -7.024
REMARK INTER:                  -6.432
REMARK INTRA:                  -0.592
REMARK UNBOUND:                -0.426
REMARK SMILES CCCCCCCCC(=O)[O-]
REMARK SMILES IDX 6 1 7 2 8 3 9 4 10 5 11 6 5 7 4 8 3 9 2 10 1 11
REMARK H PARENT
REMARK Flexibility Score: inf
ROOT
ATOM      1  C   UNL     1      88.669 326.734 195.455  1.00  0.00     0.000 C 
ENDROOT
BRANCH   1   2
ATOM      2  C   UNL     1      87.914 325.743 196.355  1.00  0.00     0.006 C 
BRANCH   2   3
ATOM      3  C   UNL     1      88.853 324.764 197.073  1.00  0.00     0.053 C 
BRANCH   3   4
ATOM      4  C   UNL     1      88.906 323.461 196.341  1.00  0.00     0.041 C 
ATOM      5  O   UNL     1      87.920 323.074 195.661  1.00  0.00    -0.550 OA
ATOM      6  O   UNL     1      90.065 322.695 196.368  1.00  0.00    -0.550 OA
ENDBRANCH   3   4
ENDBRANCH   2   3
ENDBRANCH   1   2
BRANCH   1   7
ATOM      7  C   UNL     1      88.075 326.816 194.038  1.00  0.00     0.000 C 
BRANCH   7   8
ATOM      8  C   UNL     1      86.800 325.973 193.884  1.00  0.00    -0.000 C 
BRANCH   8   9
ATOM      9  C   UNL     1      86.942 324.878 192.812  1.00  0.00    -0.000 C 
BRANCH   9  10
ATOM     10  C   UNL     1      88.322 324.891 192.138  1.00  0.00    -0.003 C 
ATOM     11  C   UNL     1      88.375 324.016 190.886  1.00  0.00     0.004 C 
ENDBRANCH   9  10
ENDBRANCH   8   9
ENDBRANCH   7   8
ENDBRANCH   1   7
TORSDOF 7
ENDMDL
