MODEL 1
REMARK VINA RESULT:    -4.220      0.000      0.000
REMARK INTER + INTRA:          -9.593
REMARK INTER:                  -7.674
REMARK INTRA:                  -1.919
REMARK UNBOUND:                -1.919
REMARK SMILES CCCCCC=CCC=CCCCCCCCC(=O)[O-]
REMARK SMILES IDX 11 1 12 2 13 3 14 4 15 5 16 6 17 7 18 8 19 9 20 10 10 11
REMARK SMILES IDX 9 12 8 13 7 14 6 15 5 16 4 17 3 18 2 19 1 20
REMARK H PARENT
REMARK Flexibility Score: inf
ROOT
ATOM      1  C   UNL     1      -6.416  -8.199   4.560  1.00  0.00     0.027 C 
ENDROOT
BRANCH   1   2
ATOM      2  C   UNL     1      -7.893  -8.118   4.991  1.00  0.00     0.004 C 
BRANCH   2   3
ATOM      3  C   UNL     1      -8.637  -6.881   4.451  1.00  0.00     0.000 C 
BRANCH   3   4
ATOM      4  C   UNL     1      -9.940  -7.239   3.712  1.00  0.00     0.000 C 
BRANCH   4   5
ATOM      5  C   UNL     1      -9.758  -8.422   2.735  1.00  0.00     0.000 C 
BRANCH   5   6
ATOM      6  C   UNL     1      -9.170  -8.015   1.369  1.00  0.00     0.006 C 
BRANCH   6   7
ATOM      7  C   UNL     1      -7.827  -8.680   1.034  1.00  0.00     0.053 C 
BRANCH   7   8
ATOM      8  C   UNL     1      -7.118  -7.973  -0.084  1.00  0.00     0.041 C 
ATOM      9  O   UNL     1      -7.755  -7.226  -0.872  1.00  0.00    -0.550 OA
ATOM     10  O   UNL     1      -5.745  -8.123  -0.238  1.00  0.00    -0.550 OA
ENDBRANCH   7   8
ENDBRANCH   6   7
ENDBRANCH   5   6
ENDBRANCH   4   5
ENDBRANCH   3   4
ENDBRANCH   2   3
ENDBRANCH   1   2
BRANCH   1  11
ATOM     11  C   UNL     1      -5.963  -7.017   3.739  1.00  0.00    -0.031 C 
ATOM     12  C   UNL     1      -4.806  -6.943   3.051  1.00  0.00    -0.027 C 
BRANCH  12  13
ATOM     13  C   UNL     1      -3.754  -8.022   2.990  1.00  0.00     0.054 C 
BRANCH  13  14
ATOM     14  C   UNL     1      -2.529  -7.592   3.756  1.00  0.00    -0.027 C 
ATOM     15  C   UNL     1      -2.177  -8.064   4.967  1.00  0.00    -0.031 C 
BRANCH  15  16
ATOM     16  C   UNL     1      -3.002  -9.025   5.785  1.00  0.00     0.027 C 
BRANCH  16  17
ATOM     17  C   UNL     1      -2.548  -9.020   7.253  1.00  0.00     0.004 C 
BRANCH  17  18
ATOM     18  C   UNL     1      -1.279  -8.181   7.475  1.00  0.00     0.000 C 
BRANCH  18  19
ATOM     19  C   UNL     1      -1.444  -7.148   8.599  1.00  0.00    -0.003 C 
ATOM     20  C   UNL     1      -0.277  -6.163   8.615  1.00  0.00     0.004 C 
ENDBRANCH  18  19
ENDBRANCH  17  18
ENDBRANCH  16  17
ENDBRANCH  15  16
ENDBRANCH  13  14
ENDBRANCH  12  13
ENDBRANCH   1  11
TORSDOF 14
ENDMDL
MODEL 2
REMARK VINA RESULT:    -4.205      3.837      8.292
REMARK INTER + INTRA:          -9.566
REMARK INTER:                  -8.172
REMARK INTRA:                  -1.394
REMARK UNBOUND:                -1.919
REMARK SMILES CCCCCC=CCC=CCCCCCCCC(=O)[O-]
REMARK SMILES IDX 11 1 12 2 13 3 14 4 15 5 16 6 17 7 18 8 19 9 20 10 10 11
REMARK SMILES IDX 9 12 8 13 7 14 6 15 5 16 4 17 3 18 2 19 1 20
REMARK H PARENT
REMARK Flexibility Score: inf
ROOT
ATOM      1  C   UNL     1      -3.015  -7.758   3.297  1.00  0.00     0.027 C 
ENDROOT
BRANCH   1   2
ATOM      2  C   UNL     1      -3.110  -9.077   4.087  1.00  0.00     0.004 C 
BRANCH   2   3
ATOM      3  C   UNL     1      -3.871  -8.956   5.422  1.00  0.00     0.000 C 
BRANCH   3   4
ATOM      4  C   UNL     1      -2.960  -9.131   6.652  1.00  0.00     0.000 C 
BRANCH   4   5
ATOM      5  C   UNL     1      -1.589  -8.442   6.472  1.00  0.00     0.000 C 
BRANCH   5   6
ATOM      6  C   UNL     1      -0.843  -8.190   7.798  1.00  0.00     0.006 C 
BRANCH   6   7
ATOM      7  C   UNL     1      -1.436  -7.061   8.654  1.00  0.00     0.053 C 
BRANCH   7   8
ATOM      8  C   UNL     1      -0.452  -5.948   8.870  1.00  0.00     0.041 C 
ATOM      9  O   UNL     1       0.782  -6.190   8.928  1.00  0.00    -0.550 OA
ATOM     10  O   UNL     1      -0.902  -4.639   8.982  1.00  0.00    -0.550 OA
ENDBRANCH   7   8
ENDBRANCH   6   7
ENDBRANCH   5   6
ENDBRANCH   4   5
ENDBRANCH   3   4
ENDBRANCH   2   3
ENDBRANCH   1   2
BRANCH   1  11
ATOM     11  C   UNL     1      -4.277  -6.932   3.351  1.00  0.00    -0.031 C 
ATOM     12  C   UNL     1      -5.346  -7.089   2.546  1.00  0.00    -0.027 C 
BRANCH  12  13
ATOM     13  C   UNL     1      -5.468  -8.107   1.441  1.00  0.00     0.054 C 
BRANCH  13  14
ATOM     14  C   UNL     1      -5.609  -7.413   0.111  1.00  0.00    -0.027 C 
ATOM     15  C   UNL     1      -6.670  -7.536  -0.710  1.00  0.00    -0.031 C 
BRANCH  15  16
ATOM     16  C   UNL     1      -7.837  -8.459  -0.469  1.00  0.00     0.027 C 
BRANCH  16  17
ATOM     17  C   UNL     1      -8.967  -7.727   0.272  1.00  0.00     0.004 C 
BRANCH  17  18
ATOM     18  C   UNL     1      -9.276  -8.353   1.641  1.00  0.00     0.000 C 
BRANCH  18  19
ATOM     19  C   UNL     1      -9.717  -7.312   2.681  1.00  0.00    -0.003 C 
ATOM     20  C   UNL     1      -8.752  -7.275   3.864  1.00  0.00     0.004 C 
ENDBRANCH  18  19
ENDBRANCH  17  18
ENDBRANCH  16  17
ENDBRANCH  15  16
ENDBRANCH  13  14
ENDBRANCH  12  13
ENDBRANCH   1  11
TORSDOF 14
ENDMDL
MODEL 3
REMARK VINA RESULT:    -4.114      3.975      7.183
REMARK INTER + INTRA:          -9.401
REMARK INTER:                  -6.615
REMARK INTRA:                  -2.785
REMARK UNBOUND:                -1.919
REMARK SMILES CCCCCC=CCC=CCCCCCCCC(=O)[O-]
REMARK SMILES IDX 11 1 12 2 13 3 14 4 15 5 16 6 17 7 18 8 19 9 20 10 10 11
REMARK SMILES IDX 9 12 8 13 7 14 6 15 5 16 4 17 3 18 2 19 1 20
REMARK H PARENT
REMARK Flexibility Score: inf
ROOT
ATOM      1  C   UNL     1      -4.526  -7.030   3.128  1.00  0.00     0.027 C 
ENDROOT
BRANCH   1   2
ATOM      2  C   UNL     1      -5.687  -7.484   4.033  1.00  0.00     0.004 C 
BRANCH   2   3
ATOM      3  C   UNL     1      -5.685  -8.994   4.344  1.00  0.00     0.000 C 
BRANCH   3   4
ATOM      4  C   UNL     1      -5.088  -9.322   5.726  1.00  0.00     0.000 C 
BRANCH   4   5
ATOM      5  C   UNL     1      -3.960 -10.375   5.645  1.00  0.00     0.000 C 
BRANCH   5   6
ATOM      6  C   UNL     1      -2.924 -10.262   6.782  1.00  0.00     0.006 C 
BRANCH   6   7
ATOM      7  C   UNL     1      -2.259  -8.883   6.899  1.00  0.00     0.053 C 
BRANCH   7   8
ATOM      8  C   UNL     1      -0.929  -8.962   7.589  1.00  0.00     0.041 C 
ATOM      9  O   UNL     1      -0.387 -10.078   7.805  1.00  0.00    -0.550 OA
ATOM     10  O   UNL     1      -0.277  -7.796   7.972  1.00  0.00    -0.550 OA
ENDBRANCH   7   8
ENDBRANCH   6   7
ENDBRANCH   5   6
ENDBRANCH   4   5
ENDBRANCH   3   4
ENDBRANCH   2   3
ENDBRANCH   1   2
BRANCH   1  11
ATOM     11  C   UNL     1      -3.162  -7.330   3.699  1.00  0.00    -0.031 C 
ATOM     12  C   UNL     1      -2.234  -8.122   3.127  1.00  0.00    -0.027 C 
BRANCH  12  13
ATOM     13  C   UNL     1      -2.397  -8.859   1.822  1.00  0.00     0.054 C 
BRANCH  13  14
ATOM     14  C   UNL     1      -3.054 -10.195   2.061  1.00  0.00    -0.027 C 
ATOM     15  C   UNL     1      -4.069 -10.692   1.329  1.00  0.00    -0.031 C 
BRANCH  15  16
ATOM     16  C   UNL     1      -4.768  -9.951   0.218  1.00  0.00     0.027 C 
BRANCH  16  17
ATOM     17  C   UNL     1      -6.196  -9.565   0.634  1.00  0.00     0.004 C 
BRANCH  17  18
ATOM     18  C   UNL     1      -6.495  -8.075   0.402  1.00  0.00     0.000 C 
BRANCH  18  19
ATOM     19  C   UNL     1      -5.404  -7.376  -0.423  1.00  0.00    -0.003 C 
ATOM     20  C   UNL     1      -6.017  -6.484  -1.500  1.00  0.00     0.004 C 
ENDBRANCH  18  19
ENDBRANCH  17  18
ENDBRANCH  16  17
ENDBRANCH  15  16
ENDBRANCH  13  14
ENDBRANCH  12  13
ENDBRANCH   1  11
TORSDOF 14
ENDMDL
MODEL 4
REMARK VINA RESULT:    -4.106      3.976      8.700
REMARK INTER + INTRA:          -9.386
REMARK INTER:                  -7.836
REMARK INTRA:                  -1.550
REMARK UNBOUND:                -1.919
REMARK SMILES CCCCCC=CCC=CCCCCCCCC(=O)[O-]
REMARK SMILES IDX 11 1 12 2 13 3 14 4 15 5 16 6 17 7 18 8 19 9 20 10 10 11
REMARK SMILES IDX 9 12 8 13 7 14 6 15 5 16 4 17 3 18 2 19 1 20
REMARK H PARENT
REMARK Flexibility Score: inf
ROOT
ATOM      1  C   UNL     1      -4.880  -6.823   3.308  1.00  0.00     0.027 C 
ENDROOT
BRANCH   1   2
ATOM      2  C   UNL     1      -3.548  -7.585   3.180  1.00  0.00     0.004 C 
BRANCH   2   3
ATOM      3  C   UNL     1      -3.245  -8.521   4.368  1.00  0.00     0.000 C 
BRANCH   3   4
ATOM      4  C   UNL     1      -1.976  -8.118   5.143  1.00  0.00     0.000 C 
BRANCH   4   5
ATOM      5  C   UNL     1      -1.927  -8.738   6.557  1.00  0.00     0.000 C 
BRANCH   5   6
ATOM      6  C   UNL     1      -0.894  -8.075   7.490  1.00  0.00     0.006 C 
BRANCH   6   7
ATOM      7  C   UNL     1      -1.499  -7.111   8.521  1.00  0.00     0.053 C 
BRANCH   7   8
ATOM      8  C   UNL     1      -0.530  -6.034   8.915  1.00  0.00     0.041 C 
ATOM      9  O   UNL     1       0.709  -6.260   8.911  1.00  0.00    -0.550 OA
ATOM     10  O   UNL     1      -0.998  -4.774   9.264  1.00  0.00    -0.550 OA
ENDBRANCH   7   8
ENDBRANCH   6   7
ENDBRANCH   5   6
ENDBRANCH   4   5
ENDBRANCH   3   4
ENDBRANCH   2   3
ENDBRANCH   1   2
BRANCH   1  11
ATOM     11  C   UNL     1      -5.959  -7.608   4.010  1.00  0.00    -0.031 C 
ATOM     12  C   UNL     1      -7.048  -8.138   3.419  1.00  0.00    -0.027 C 
BRANCH  12  13
ATOM     13  C   UNL     1      -7.388  -8.030   1.954  1.00  0.00     0.054 C 
BRANCH  13  14
ATOM     14  C   UNL     1      -6.570  -9.017   1.161  1.00  0.00    -0.027 C 
ATOM     15  C   UNL     1      -5.719  -8.686   0.170  1.00  0.00    -0.031 C 
BRANCH  15  16
ATOM     16  C   UNL     1      -5.523  -7.289  -0.361  1.00  0.00     0.027 C 
BRANCH  16  17
ATOM     17  C   UNL     1      -5.292  -7.311  -1.880  1.00  0.00     0.004 C 
BRANCH  17  18
ATOM     18  C   UNL     1      -6.563  -6.969  -2.675  1.00  0.00     0.000 C 
BRANCH  18  19
ATOM     19  C   UNL     1      -7.584  -6.178  -1.844  1.00  0.00    -0.003 C 
ATOM     20  C   UNL     1      -8.920  -6.913  -1.770  1.00  0.00     0.004 C 
ENDBRANCH  18  19
ENDBRANCH  17  18
ENDBRANCH  16  17
ENDBRANCH  15  16
ENDBRANCH  13  14
ENDBRANCH  12  13
ENDBRANCH   1  11
TORSDOF 14
ENDMDL
MODEL 5
REMARK VINA RESULT:    -4.082      4.273      7.727
REMARK INTER + INTRA:          -9.342
REMARK INTER:                  -7.546
REMARK INTRA:                  -1.796
REMARK UNBOUND:                -1.919
REMARK SMILES CCCCCC=CCC=CCCCCCCCC(=O)[O-]
REMARK SMILES IDX 11 1 12 2 13 3 14 4 15 5 16 6 17 7 18 8 19 9 20 10 10 11
REMARK SMILES IDX 9 12 8 13 7 14 6 15 5 16 4 17 3 18 2 19 1 20
REMARK H PARENT
REMARK Flexibility Score: inf
ROOT
ATOM      1  C   UNL     1      -6.082  -8.485   4.560  1.00  0.00     0.027 C 
ENDROOT
BRANCH   1   2
ATOM      2  C   UNL     1      -5.649  -8.534   6.037  1.00  0.00     0.004 C 
BRANCH   2   3
ATOM      3  C   UNL     1      -4.534  -9.558   6.330  1.00  0.00     0.000 C 
BRANCH   3   4
ATOM      4  C   UNL     1      -3.457  -9.016   7.289  1.00  0.00     0.000 C 
BRANCH   4   5
ATOM      5  C   UNL     1      -2.170  -8.588   6.549  1.00  0.00     0.000 C 
BRANCH   5   6
ATOM      6  C   UNL     1      -1.085  -8.006   7.477  1.00  0.00     0.006 C 
BRANCH   6   7
ATOM      7  C   UNL     1      -1.619  -7.048   8.552  1.00  0.00     0.053 C 
BRANCH   7   8
ATOM      8  C   UNL     1      -0.588  -6.036   8.960  1.00  0.00     0.041 C 
ATOM      9  O   UNL     1       0.639  -6.307   8.877  1.00  0.00    -0.550 OA
ATOM     10  O   UNL     1      -0.986  -4.783   9.408  1.00  0.00    -0.550 OA
ENDBRANCH   7   8
ENDBRANCH   6   7
ENDBRANCH   5   6
ENDBRANCH   4   5
ENDBRANCH   3   4
ENDBRANCH   2   3
ENDBRANCH   1   2
BRANCH   1  11
ATOM     11  C   UNL     1      -5.392  -7.405   3.764  1.00  0.00    -0.031 C 
ATOM     12  C   UNL     1      -4.216  -7.541   3.120  1.00  0.00    -0.027 C 
BRANCH  12  13
ATOM     13  C   UNL     1      -3.376  -8.793   3.089  1.00  0.00     0.054 C 
BRANCH  13  14
ATOM     14  C   UNL     1      -2.021  -8.490   2.501  1.00  0.00    -0.027 C 
ATOM     15  C   UNL     1      -1.650  -8.781   1.239  1.00  0.00    -0.031 C 
BRANCH  15  16
ATOM     16  C   UNL     1      -2.499  -9.537   0.249  1.00  0.00     0.027 C 
BRANCH  16  17
ATOM     17  C   UNL     1      -3.398  -8.575  -0.544  1.00  0.00     0.004 C 
BRANCH  17  18
ATOM     18  C   UNL     1      -4.894  -8.832  -0.301  1.00  0.00     0.000 C 
BRANCH  18  19
ATOM     19  C   UNL     1      -5.709  -7.533  -0.213  1.00  0.00    -0.003 C 
ATOM     20  C   UNL     1      -5.377  -6.597  -1.374  1.00  0.00     0.004 C 
ENDBRANCH  18  19
ENDBRANCH  17  18
ENDBRANCH  16  17
ENDBRANCH  15  16
ENDBRANCH  13  14
ENDBRANCH  12  13
ENDBRANCH   1  11
TORSDOF 14
ENDMDL
MODEL 6
REMARK VINA RESULT:    -4.067      3.997      7.779
REMARK INTER + INTRA:          -9.314
REMARK INTER:                  -7.694
REMARK INTRA:                  -1.619
REMARK UNBOUND:                -1.919
REMARK SMILES CCCCCC=CCC=CCCCCCCCC(=O)[O-]
REMARK SMILES IDX 11 1 12 2 13 3 14 4 15 5 16 6 17 7 18 8 19 9 20 10 10 11
REMARK SMILES IDX 9 12 8 13 7 14 6 15 5 16 4 17 3 18 2 19 1 20
REMARK H PARENT
REMARK Flexibility Score: inf
ROOT
ATOM      1  C   UNL     1      -2.552  -8.302   3.832  1.00  0.00     0.027 C 
ENDROOT
BRANCH   1   2
ATOM      2  C   UNL     1      -1.908  -8.093   5.216  1.00  0.00     0.004 C 
BRANCH   2   3
ATOM      3  C   UNL     1      -2.589  -8.886   6.350  1.00  0.00     0.000 C 
BRANCH   3   4
ATOM      4  C   UNL     1      -1.773  -8.885   7.657  1.00  0.00     0.000 C 
BRANCH   4   5
ATOM      5  C   UNL     1      -0.503  -8.010   7.558  1.00  0.00     0.000 C 
BRANCH   5   6
ATOM      6  C   UNL     1      -0.552  -6.745   8.438  1.00  0.00     0.006 C 
BRANCH   6   7
ATOM      7  C   UNL     1      -1.816  -6.622   9.300  1.00  0.00     0.053 C 
BRANCH   7   8
ATOM      8  C   UNL     1      -2.103  -5.195   9.670  1.00  0.00     0.041 C 
ATOM      9  O   UNL     1      -1.160  -4.377   9.833  1.00  0.00    -0.550 OA
ATOM     10  O   UNL     1      -3.417  -4.767   9.811  1.00  0.00    -0.550 OA
ENDBRANCH   7   8
ENDBRANCH   6   7
ENDBRANCH   5   6
ENDBRANCH   4   5
ENDBRANCH   3   4
ENDBRANCH   2   3
ENDBRANCH   1   2
BRANCH   1  11
ATOM     11  C   UNL     1      -1.556  -8.318   2.700  1.00  0.00    -0.031 C 
ATOM     12  C   UNL     1      -1.776  -8.832   1.474  1.00  0.00    -0.027 C 
BRANCH  12  13
ATOM     13  C   UNL     1      -3.052  -9.494   1.020  1.00  0.00     0.054 C 
BRANCH  13  14
ATOM     14  C   UNL     1      -3.853  -8.543   0.168  1.00  0.00    -0.027 C 
ATOM     15  C   UNL     1      -5.018  -7.979   0.536  1.00  0.00    -0.031 C 
BRANCH  15  16
ATOM     16  C   UNL     1      -5.750  -8.283   1.819  1.00  0.00     0.027 C 
BRANCH  16  17
ATOM     17  C   UNL     1      -5.609  -7.121   2.815  1.00  0.00     0.004 C 
BRANCH  17  18
ATOM     18  C   UNL     1      -6.492  -7.302   4.060  1.00  0.00     0.000 C 
BRANCH  18  19
ATOM     19  C   UNL     1      -5.991  -8.423   4.982  1.00  0.00    -0.003 C 
ATOM     20  C   UNL     1      -6.905  -8.588   6.194  1.00  0.00     0.004 C 
ENDBRANCH  18  19
ENDBRANCH  17  18
ENDBRANCH  16  17
ENDBRANCH  15  16
ENDBRANCH  13  14
ENDBRANCH  12  13
ENDBRANCH   1  11
TORSDOF 14
ENDMDL
MODEL 7
REMARK VINA RESULT:    -4.028     14.459     16.667
REMARK INTER + INTRA:          -9.244
REMARK INTER:                  -6.671
REMARK INTRA:                  -2.573
REMARK UNBOUND:                -1.919
REMARK SMILES CCCCCC=CCC=CCCCCCCCC(=O)[O-]
REMARK SMILES IDX 11 1 12 2 13 3 14 4 15 5 16 6 17 7 18 8 19 9 20 10 10 11
REMARK SMILES IDX 9 12 8 13 7 14 6 15 5 16 4 17 3 18 2 19 1 20
REMARK H PARENT
REMARK Flexibility Score: inf
ROOT
ATOM      1  C   UNL     1       6.911  -5.422  -9.595  1.00  0.00     0.027 C 
ENDROOT
BRANCH   1   2
ATOM      2  C   UNL     1       6.270  -4.055  -9.903  1.00  0.00     0.004 C 
BRANCH   2   3
ATOM      3  C   UNL     1       4.771  -3.973  -9.552  1.00  0.00     0.000 C 
BRANCH   3   4
ATOM      4  C   UNL     1       4.068  -5.344  -9.595  1.00  0.00     0.000 C 
BRANCH   4   5
ATOM      5  C   UNL     1       3.448  -5.731  -8.234  1.00  0.00     0.000 C 
BRANCH   5   6
ATOM      6  C   UNL     1       2.022  -6.309  -8.343  1.00  0.00     0.006 C 
BRANCH   6   7
ATOM      7  C   UNL     1       0.924  -5.253  -8.538  1.00  0.00     0.053 C 
BRANCH   7   8
ATOM      8  C   UNL     1       0.682  -4.462  -7.285  1.00  0.00     0.041 C 
ATOM      9  O   UNL     1       0.012  -4.955  -6.340  1.00  0.00    -0.550 OA
ATOM     10  O   UNL     1       1.220  -3.188  -7.156  1.00  0.00    -0.550 OA
ENDBRANCH   7   8
ENDBRANCH   6   7
ENDBRANCH   5   6
ENDBRANCH   4   5
ENDBRANCH   3   4
ENDBRANCH   2   3
ENDBRANCH   1   2
BRANCH   1  11
ATOM     11  C   UNL     1       7.684  -5.448  -8.300  1.00  0.00    -0.031 C 
ATOM     12  C   UNL     1       8.685  -6.301  -8.006  1.00  0.00    -0.027 C 
BRANCH  12  13
ATOM     13  C   UNL     1       9.202  -7.388  -8.913  1.00  0.00     0.054 C 
BRANCH  13  14
ATOM     14  C   UNL     1       9.057  -8.731  -8.244  1.00  0.00    -0.027 C 
ATOM     15  C   UNL     1       8.038  -9.586  -8.455  1.00  0.00    -0.031 C 
BRANCH  15  16
ATOM     16  C   UNL     1       6.839  -9.294  -9.319  1.00  0.00     0.027 C 
BRANCH  16  17
ATOM     17  C   UNL     1       5.705  -8.673  -8.488  1.00  0.00     0.004 C 
BRANCH  17  18
ATOM     18  C   UNL     1       5.797  -9.041  -6.998  1.00  0.00     0.000 C 
BRANCH  18  19
ATOM     19  C   UNL     1       5.522  -7.844  -6.076  1.00  0.00    -0.003 C 
ATOM     20  C   UNL     1       6.767  -7.471  -5.275  1.00  0.00     0.004 C 
ENDBRANCH  18  19
ENDBRANCH  17  18
ENDBRANCH  16  17
ENDBRANCH  15  16
ENDBRANCH  13  14
ENDBRANCH  12  13
ENDBRANCH   1  11
TORSDOF 14
ENDMDL
MODEL 8
REMARK VINA RESULT:    -4.014      4.485      8.101
REMARK INTER + INTRA:          -9.218
REMARK INTER:                  -7.621
REMARK INTRA:                  -1.597
REMARK UNBOUND:                -1.919
REMARK SMILES CCCCCC=CCC=CCCCCCCCC(=O)[O-]
REMARK SMILES IDX 11 1 12 2 13 3 14 4 15 5 16 6 17 7 18 8 19 9 20 10 10 11
REMARK SMILES IDX 9 12 8 13 7 14 6 15 5 16 4 17 3 18 2 19 1 20
REMARK H PARENT
REMARK Flexibility Score: inf
ROOT
ATOM      1  C   UNL     1      -3.099  -7.791   3.191  1.00  0.00     0.027 C 
ENDROOT
BRANCH   1   2
ATOM      2  C   UNL     1      -3.065  -9.062   4.059  1.00  0.00     0.004 C 
BRANCH   2   3
ATOM      3  C   UNL     1      -3.816  -8.926   5.399  1.00  0.00     0.000 C 
BRANCH   3   4
ATOM      4  C   UNL     1      -2.900  -9.112   6.623  1.00  0.00     0.000 C 
BRANCH   4   5
ATOM      5  C   UNL     1      -1.489  -8.523   6.398  1.00  0.00     0.000 C 
BRANCH   5   6
ATOM      6  C   UNL     1      -0.787  -8.082   7.698  1.00  0.00     0.006 C 
BRANCH   6   7
ATOM      7  C   UNL     1      -1.505  -6.955   8.455  1.00  0.00     0.053 C 
BRANCH   7   8
ATOM      8  C   UNL     1      -0.538  -5.940   8.994  1.00  0.00     0.041 C 
ATOM      9  O   UNL     1       0.694  -6.194   9.037  1.00  0.00    -0.550 OA
ATOM     10  O   UNL     1      -1.002  -4.704   9.427  1.00  0.00    -0.550 OA
ENDBRANCH   7   8
ENDBRANCH   6   7
ENDBRANCH   5   6
ENDBRANCH   4   5
ENDBRANCH   3   4
ENDBRANCH   2   3
ENDBRANCH   1   2
BRANCH   1  11
ATOM     11  C   UNL     1      -4.350  -6.969   3.373  1.00  0.00    -0.031 C 
ATOM     12  C   UNL     1      -5.499  -7.134   2.689  1.00  0.00    -0.027 C 
BRANCH  12  13
ATOM     13  C   UNL     1      -5.735  -8.162   1.611  1.00  0.00     0.054 C 
BRANCH  13  14
ATOM     14  C   UNL     1      -5.333  -7.604   0.269  1.00  0.00    -0.027 C 
ATOM     15  C   UNL     1      -4.380  -8.127  -0.525  1.00  0.00    -0.031 C 
BRANCH  15  16
ATOM     16  C   UNL     1      -3.503  -9.296  -0.155  1.00  0.00     0.027 C 
BRANCH  16  17
ATOM     17  C   UNL     1      -2.028  -8.869  -0.083  1.00  0.00     0.004 C 
BRANCH  17  18
ATOM     18  C   UNL     1      -1.423  -8.605  -1.471  1.00  0.00     0.000 C 
BRANCH  18  19
ATOM     19  C   UNL     1      -0.761  -7.223  -1.573  1.00  0.00    -0.003 C 
ATOM     20  C   UNL     1      -1.436  -6.369  -2.643  1.00  0.00     0.004 C 
ENDBRANCH  18  19
ENDBRANCH  17  18
ENDBRANCH  16  17
ENDBRANCH  15  16
ENDBRANCH  13  14
ENDBRANCH  12  13
ENDBRANCH   1  11
TORSDOF 14
ENDMDL
MODEL 9
REMARK VINA RESULT:    -3.989      3.590      6.715
REMARK INTER + INTRA:          -9.173
REMARK INTER:                  -6.597
REMARK INTRA:                  -2.575
REMARK UNBOUND:                -1.919
REMARK SMILES CCCCCC=CCC=CCCCCCCCC(=O)[O-]
REMARK SMILES IDX 11 1 12 2 13 3 14 4 15 5 16 6 17 7 18 8 19 9 20 10 10 11
REMARK SMILES IDX 9 12 8 13 7 14 6 15 5 16 4 17 3 18 2 19 1 20
REMARK H PARENT
REMARK Flexibility Score: inf
ROOT
ATOM      1  C   UNL     1      -7.094  -7.391   4.045  1.00  0.00     0.027 C 
ENDROOT
BRANCH   1   2
ATOM      2  C   UNL     1      -6.645  -8.387   5.131  1.00  0.00     0.004 C 
BRANCH   2   3
ATOM      3  C   UNL     1      -6.065  -9.702   4.573  1.00  0.00     0.000 C 
BRANCH   3   4
ATOM      4  C   UNL     1      -5.003 -10.329   5.497  1.00  0.00     0.000 C 
BRANCH   4   5
ATOM      5  C   UNL     1      -4.280  -9.274   6.364  1.00  0.00     0.000 C 
BRANCH   5   6
ATOM      6  C   UNL     1      -2.765  -9.524   6.510  1.00  0.00     0.006 C 
BRANCH   6   7
ATOM      7  C   UNL     1      -1.921  -8.246   6.620  1.00  0.00     0.053 C 
BRANCH   7   8
ATOM      8  C   UNL     1      -0.701  -8.454   7.469  1.00  0.00     0.041 C 
ATOM      9  O   UNL     1      -0.179  -7.487   8.083  1.00  0.00    -0.550 OA
ATOM     10  O   UNL     1      -0.156  -9.725   7.599  1.00  0.00    -0.550 OA
ENDBRANCH   7   8
ENDBRANCH   6   7
ENDBRANCH   5   6
ENDBRANCH   4   5
ENDBRANCH   3   4
ENDBRANCH   2   3
ENDBRANCH   1   2
BRANCH   1  11
ATOM     11  C   UNL     1      -8.592  -7.251   3.937  1.00  0.00    -0.031 C 
ATOM     12  C   UNL     1      -9.372  -7.887   3.041  1.00  0.00    -0.027 C 
BRANCH  12  13
ATOM     13  C   UNL     1      -8.886  -8.841   1.980  1.00  0.00     0.054 C 
BRANCH  13  14
ATOM     14  C   UNL     1      -8.369  -8.072   0.791  1.00  0.00    -0.027 C 
ATOM     15  C   UNL     1      -7.123  -8.179   0.292  1.00  0.00    -0.031 C 
BRANCH  15  16
ATOM     16  C   UNL     1      -6.025  -9.014   0.899  1.00  0.00     0.027 C 
BRANCH  16  17
ATOM     17  C   UNL     1      -4.833  -8.134   1.309  1.00  0.00     0.004 C 
BRANCH  17  18
ATOM     18  C   UNL     1      -3.566  -8.955   1.596  1.00  0.00     0.000 C 
BRANCH  18  19
ATOM     19  C   UNL     1      -2.824  -8.476   2.853  1.00  0.00    -0.003 C 
ATOM     20  C   UNL     1      -3.502  -7.248   3.456  1.00  0.00     0.004 C 
ENDBRANCH  18  19
ENDBRANCH  17  18
ENDBRANCH  16  17
ENDBRANCH  15  16
ENDBRANCH  13  14
ENDBRANCH  12  13
ENDBRANCH   1  11
TORSDOF 14
ENDMDL
