MODEL 1
REMARK VINA RESULT:    -6.768      0.000      0.000
REMARK INTER + INTRA:          -7.935
REMARK INTER:                  -7.955
REMARK INTRA:                   0.020
REMARK UNBOUND:                 0.020
REMARK SMILES O=c1c(O)c(-c2ccc(O)c(O)c2)oc2cc(O)ccc12
REMARK SMILES IDX 5 1 3 2 2 3 1 4 21 5 15 6 14 7 16 8 17 9 19 10 20 11 6 12
REMARK SMILES IDX 7 13 8 14 9 15 13 16 11 17 10 18 12 20 4 22 18 24
REMARK H PARENT 10 19 12 21 4 23 18 25
REMARK Flexibility Score: inf
ROOT
ATOM      1  C   UNL     1      18.344  49.130  44.211  1.00  0.00     0.180 A 
ATOM      2  C   UNL     1      19.226  48.412  43.376  1.00  0.00     0.208 A 
ATOM      3  C   UNL     1      20.593  48.396  43.692  1.00  0.00     0.235 A 
ATOM      4  O   UNL     1      21.400  47.751  42.966  1.00  0.00    -0.285 OA
ATOM      5  C   UNL     1      21.051  49.105  44.813  1.00  0.00     0.069 A 
ATOM      6  C   UNL     1      20.109  49.818  45.585  1.00  0.00     0.142 A 
ATOM      7  O   UNL     1      18.822  49.802  45.256  1.00  0.00    -0.452 OA
ATOM      8  C   UNL     1      20.528  50.546  46.704  1.00  0.00     0.094 A 
ATOM      9  C   UNL     1      21.882  50.568  47.064  1.00  0.00     0.119 A 
ATOM     10  C   UNL     1      22.818  49.861  46.302  1.00  0.00     0.047 A 
ATOM     11  C   UNL     1      22.409  49.132  45.181  1.00  0.00     0.020 A 
ENDROOT
BRANCH   1  12
ATOM     12  C   UNL     1      16.886  49.181  43.956  1.00  0.00     0.025 A 
ATOM     13  C   UNL     1      15.994  48.846  44.987  1.00  0.00     0.016 A 
ATOM     14  C   UNL     1      14.615  48.867  44.763  1.00  0.00     0.051 A 
ATOM     15  C   UNL     1      14.108  49.207  43.503  1.00  0.00     0.157 A 
ATOM     16  C   UNL     1      16.375  49.502  42.687  1.00  0.00     0.062 A 
ATOM     17  C   UNL     1      14.994  49.521  42.459  1.00  0.00     0.158 A 
BRANCH  15  18
ATOM     18  O   UNL     1      12.731  49.229  43.284  1.00  0.00    -0.504 OA
ATOM     19  H   UNL     1      12.308  49.887  42.639  1.00  0.00     0.293 HD
ENDBRANCH  15  18
BRANCH  17  20
ATOM     20  O   UNL     1      14.522  49.851  41.188  1.00  0.00    -0.504 OA
ATOM     21  H   UNL     1      13.985  50.692  41.015  1.00  0.00     0.293 HD
ENDBRANCH  17  20
ENDBRANCH   1  12
BRANCH   2  22
ATOM     22  O   UNL     1      18.747  47.756  42.239  1.00  0.00    -0.502 OA
ATOM     23  H   UNL     1      19.345  47.191  41.647  1.00  0.00     0.293 HD
ENDBRANCH   2  22
BRANCH   9  24
ATOM     24  O   UNL     1      22.308  51.290  48.177  1.00  0.00    -0.508 OA
ATOM     25  H   UNL     1      21.849  52.148  48.460  1.00  0.00     0.293 HD
ENDBRANCH   9  24
TORSDOF 5
ENDMDL
MODEL 2
REMARK VINA RESULT:    -6.738      2.952      6.622
REMARK INTER + INTRA:          -7.899
REMARK INTER:                  -7.895
REMARK INTRA:                  -0.004
REMARK UNBOUND:                 0.020
REMARK SMILES O=c1c(O)c(-c2ccc(O)c(O)c2)oc2cc(O)ccc12
REMARK SMILES IDX 5 1 3 2 2 3 1 4 21 5 15 6 14 7 16 8 17 9 19 10 20 11 6 12
REMARK SMILES IDX 7 13 8 14 9 15 13 16 11 17 10 18 12 20 4 22 18 24
REMARK H PARENT 10 19 12 21 4 23 18 25
REMARK Flexibility Score: inf
ROOT
ATOM      1  C   UNL     1      20.707  49.595  45.821  1.00  0.00     0.180 A 
ATOM      2  C   UNL     1      19.753  50.052  44.887  1.00  0.00     0.208 A 
ATOM      3  C   UNL     1      19.323  49.176  43.878  1.00  0.00     0.235 A 
ATOM      4  O   UNL     1      18.462  49.558  43.037  1.00  0.00    -0.285 OA
ATOM      5  C   UNL     1      19.861  47.882  43.810  1.00  0.00     0.069 A 
ATOM      6  C   UNL     1      20.828  47.509  44.768  1.00  0.00     0.142 A 
ATOM      7  O   UNL     1      21.203  48.365  45.713  1.00  0.00    -0.452 OA
ATOM      8  C   UNL     1      21.396  46.231  44.728  1.00  0.00     0.094 A 
ATOM      9  C   UNL     1      21.007  45.316  43.740  1.00  0.00     0.119 A 
ATOM     10  C   UNL     1      20.047  45.684  42.790  1.00  0.00     0.047 A 
ATOM     11  C   UNL     1      19.475  46.959  42.822  1.00  0.00     0.020 A 
ENDROOT
BRANCH   1  12
ATOM     12  C   UNL     1      21.197  50.451  46.926  1.00  0.00     0.025 A 
ATOM     13  C   UNL     1      22.576  50.523  47.181  1.00  0.00     0.016 A 
ATOM     14  C   UNL     1      23.060  51.309  48.231  1.00  0.00     0.051 A 
ATOM     15  C   UNL     1      22.173  52.019  49.050  1.00  0.00     0.157 A 
ATOM     16  C   UNL     1      20.309  51.148  47.762  1.00  0.00     0.062 A 
ATOM     17  C   UNL     1      20.791  51.934  48.816  1.00  0.00     0.158 A 
BRANCH  15  18
ATOM     18  O   UNL     1      22.659  52.803  50.095  1.00  0.00    -0.504 OA
ATOM     19  H   UNL     1      23.486  53.379  49.986  1.00  0.00     0.293 HD
ENDBRANCH  15  18
BRANCH  17  20
ATOM     20  O   UNL     1      19.880  52.618  49.622  1.00  0.00    -0.504 OA
ATOM     21  H   UNL     1      18.995  52.211  49.899  1.00  0.00     0.293 HD
ENDBRANCH  17  20
ENDBRANCH   1  12
BRANCH   2  22
ATOM     22  O   UNL     1      19.272  51.362  44.950  1.00  0.00    -0.502 OA
ATOM     23  H   UNL     1      19.382  52.017  44.185  1.00  0.00     0.293 HD
ENDBRANCH   2  22
BRANCH   9  24
ATOM     24  O   UNL     1      21.567  44.042  43.693  1.00  0.00    -0.508 OA
ATOM     25  H   UNL     1      22.063  43.651  44.485  1.00  0.00     0.293 HD
ENDBRANCH   9  24
TORSDOF 5
ENDMDL
MODEL 3
REMARK VINA RESULT:    -6.736      1.659      6.731
REMARK INTER + INTRA:          -7.897
REMARK INTER:                  -7.718
REMARK INTRA:                  -0.179
REMARK UNBOUND:                 0.020
REMARK SMILES O=c1c(O)c(-c2ccc(O)c(O)c2)oc2cc(O)ccc12
REMARK SMILES IDX 5 1 3 2 2 3 1 4 21 5 15 6 14 7 16 8 17 9 19 10 20 11 6 12
REMARK SMILES IDX 7 13 8 14 9 15 13 16 11 17 10 18 12 20 4 22 18 24
REMARK H PARENT 10 19 12 21 4 23 18 25
REMARK Flexibility Score: inf
ROOT
ATOM      1  C   UNL     1      19.810  48.442  43.897  1.00  0.00     0.180 A 
ATOM      2  C   UNL     1      19.981  47.119  43.436  1.00  0.00     0.208 A 
ATOM      3  C   UNL     1      19.023  46.578  42.566  1.00  0.00     0.235 A 
ATOM      4  O   UNL     1      19.159  45.400  42.131  1.00  0.00    -0.285 OA
ATOM      5  C   UNL     1      17.914  47.352  42.191  1.00  0.00     0.069 A 
ATOM      6  C   UNL     1      17.804  48.659  42.713  1.00  0.00     0.142 A 
ATOM      7  O   UNL     1      18.737  49.137  43.529  1.00  0.00    -0.452 OA
ATOM      8  C   UNL     1      16.707  49.459  42.371  1.00  0.00     0.094 A 
ATOM      9  C   UNL     1      15.718  48.968  41.509  1.00  0.00     0.119 A 
ATOM     10  C   UNL     1      15.826  47.674  40.988  1.00  0.00     0.047 A 
ATOM     11  C   UNL     1      16.917  46.867  41.325  1.00  0.00     0.020 A 
ENDROOT
BRANCH   1  12
ATOM     12  C   UNL     1      20.786  49.091  44.802  1.00  0.00     0.025 A 
ATOM     13  C   UNL     1      22.081  49.366  44.336  1.00  0.00     0.016 A 
ATOM     14  C   UNL     1      23.024  49.961  45.178  1.00  0.00     0.051 A 
ATOM     15  C   UNL     1      22.692  50.273  46.502  1.00  0.00     0.157 A 
ATOM     16  C   UNL     1      20.462  49.387  46.137  1.00  0.00     0.062 A 
ATOM     17  C   UNL     1      21.406  49.980  46.984  1.00  0.00     0.158 A 
BRANCH  15  18
ATOM     18  O   UNL     1      23.635  50.868  47.340  1.00  0.00    -0.504 OA
ATOM     19  H   UNL     1      24.028  50.372  48.132  1.00  0.00     0.293 HD
ENDBRANCH  15  18
BRANCH  17  20
ATOM     20  O   UNL     1      21.048  50.266  48.302  1.00  0.00    -0.504 OA
ATOM     21  H   UNL     1      20.304  49.769  48.778  1.00  0.00     0.293 HD
ENDBRANCH  17  20
ENDBRANCH   1  12
BRANCH   2  22
ATOM     22  O   UNL     1      21.069  46.355  43.865  1.00  0.00    -0.502 OA
ATOM     23  H   UNL     1      22.022  46.573  43.601  1.00  0.00     0.293 HD
ENDBRANCH   2  22
BRANCH   9  24
ATOM     24  O   UNL     1      14.624  49.758  41.162  1.00  0.00    -0.508 OA
ATOM     25  H   UNL     1      13.879  49.949  41.821  1.00  0.00     0.293 HD
ENDBRANCH   9  24
TORSDOF 5
ENDMDL
MODEL 4
REMARK VINA RESULT:    -6.624      1.790      3.291
REMARK INTER + INTRA:          -7.766
REMARK INTER:                  -7.442
REMARK INTRA:                  -0.324
REMARK UNBOUND:                 0.020
REMARK SMILES O=c1c(O)c(-c2ccc(O)c(O)c2)oc2cc(O)ccc12
REMARK SMILES IDX 5 1 3 2 2 3 1 4 21 5 15 6 14 7 16 8 17 9 19 10 20 11 6 12
REMARK SMILES IDX 7 13 8 14 9 15 13 16 11 17 10 18 12 20 4 22 18 24
REMARK H PARENT 10 19 12 21 4 23 18 25
REMARK Flexibility Score: inf
ROOT
ATOM      1  C   UNL     1      17.196  48.697  44.708  1.00  0.00     0.180 A 
ATOM      2  C   UNL     1      17.944  49.746  45.283  1.00  0.00     0.208 A 
ATOM      3  C   UNL     1      19.339  49.616  45.361  1.00  0.00     0.235 A 
ATOM      4  O   UNL     1      20.032  50.546  45.861  1.00  0.00    -0.285 OA
ATOM      5  C   UNL     1      19.952  48.446  44.887  1.00  0.00     0.069 A 
ATOM      6  C   UNL     1      19.131  47.433  44.346  1.00  0.00     0.142 A 
ATOM      7  O   UNL     1      17.814  47.598  44.283  1.00  0.00    -0.452 OA
ATOM      8  C   UNL     1      19.703  46.247  43.872  1.00  0.00     0.094 A 
ATOM      9  C   UNL     1      21.091  46.061  43.929  1.00  0.00     0.119 A 
ATOM     10  C   UNL     1      21.907  47.065  44.463  1.00  0.00     0.047 A 
ATOM     11  C   UNL     1      21.344  48.253  44.940  1.00  0.00     0.020 A 
ENDROOT
BRANCH   1  12
ATOM     12  C   UNL     1      15.723  48.765  44.572  1.00  0.00     0.025 A 
ATOM     13  C   UNL     1      14.911  48.212  45.575  1.00  0.00     0.016 A 
ATOM     14  C   UNL     1      13.519  48.247  45.458  1.00  0.00     0.051 A 
ATOM     15  C   UNL     1      12.919  48.821  44.330  1.00  0.00     0.157 A 
ATOM     16  C   UNL     1      15.117  49.322  43.432  1.00  0.00     0.062 A 
ATOM     17  C   UNL     1      13.723  49.356  43.311  1.00  0.00     0.158 A 
BRANCH  15  18
ATOM     18  O   UNL     1      11.530  48.857  44.217  1.00  0.00    -0.504 OA
ATOM     19  H   UNL     1      11.075  49.046  43.332  1.00  0.00     0.293 HD
ENDBRANCH  15  18
BRANCH  17  20
ATOM     20  O   UNL     1      13.157  49.923  42.169  1.00  0.00    -0.504 OA
ATOM     21  H   UNL     1      12.528  49.405  41.566  1.00  0.00     0.293 HD
ENDBRANCH  17  20
ENDBRANCH   1  12
BRANCH   2  22
ATOM     22  O   UNL     1      17.302  50.877  45.792  1.00  0.00    -0.502 OA
ATOM     23  H   UNL     1      16.695  50.838  46.602  1.00  0.00     0.293 HD
ENDBRANCH   2  22
BRANCH   9  24
ATOM     24  O   UNL     1      21.669  44.885  43.459  1.00  0.00    -0.508 OA
ATOM     25  H   UNL     1      22.236  44.296  44.058  1.00  0.00     0.293 HD
ENDBRANCH   9  24
TORSDOF 5
ENDMDL
MODEL 5
REMARK VINA RESULT:    -6.598      3.446      5.017
REMARK INTER + INTRA:          -7.735
REMARK INTER:                  -7.520
REMARK INTRA:                  -0.215
REMARK UNBOUND:                 0.020
REMARK SMILES O=c1c(O)c(-c2ccc(O)c(O)c2)oc2cc(O)ccc12
REMARK SMILES IDX 5 1 3 2 2 3 1 4 21 5 15 6 14 7 16 8 17 9 19 10 20 11 6 12
REMARK SMILES IDX 7 13 8 14 9 15 13 16 11 17 10 18 12 20 4 22 18 24
REMARK H PARENT 10 19 12 21 4 23 18 25
REMARK Flexibility Score: inf
ROOT
ATOM      1  C   UNL     1      20.503  48.658  46.139  1.00  0.00     0.180 A 
ATOM      2  C   UNL     1      19.541  48.818  47.159  1.00  0.00     0.208 A 
ATOM      3  C   UNL     1      19.819  49.695  48.218  1.00  0.00     0.235 A 
ATOM      4  O   UNL     1      18.970  49.864  49.136  1.00  0.00    -0.285 OA
ATOM      5  C   UNL     1      21.046  50.375  48.248  1.00  0.00     0.069 A 
ATOM      6  C   UNL     1      21.965  50.143  47.201  1.00  0.00     0.142 A 
ATOM      7  O   UNL     1      21.661  49.310  46.213  1.00  0.00    -0.452 OA
ATOM      8  C   UNL     1      23.205  50.794  47.201  1.00  0.00     0.094 A 
ATOM      9  C   UNL     1      23.537  51.679  48.236  1.00  0.00     0.119 A 
ATOM     10  C   UNL     1      22.627  51.911  49.273  1.00  0.00     0.047 A 
ATOM     11  C   UNL     1      21.388  51.265  49.283  1.00  0.00     0.020 A 
ENDROOT
BRANCH   1  12
ATOM     12  C   UNL     1      20.278  47.765  44.979  1.00  0.00     0.025 A 
ATOM     13  C   UNL     1      19.320  48.117  44.014  1.00  0.00     0.016 A 
ATOM     14  C   UNL     1      19.077  47.280  42.922  1.00  0.00     0.051 A 
ATOM     15  C   UNL     1      19.774  46.074  42.786  1.00  0.00     0.157 A 
ATOM     16  C   UNL     1      20.962  46.544  44.850  1.00  0.00     0.062 A 
ATOM     17  C   UNL     1      20.717  45.702  43.758  1.00  0.00     0.158 A 
BRANCH  15  18
ATOM     18  O   UNL     1      19.530  45.242  41.694  1.00  0.00    -0.504 OA
ATOM     19  H   UNL     1      20.051  44.384  41.554  1.00  0.00     0.293 HD
ENDBRANCH  15  18
BRANCH  17  20
ATOM     20  O   UNL     1      21.419  44.501  43.659  1.00  0.00    -0.504 OA
ATOM     21  H   UNL     1      20.959  43.601  43.727  1.00  0.00     0.293 HD
ENDBRANCH  17  20
ENDBRANCH   1  12
BRANCH   2  22
ATOM     22  O   UNL     1      18.349  48.091  47.127  1.00  0.00    -0.502 OA
ATOM     23  H   UNL     1      17.512  48.442  46.678  1.00  0.00     0.293 HD
ENDBRANCH   2  22
BRANCH   9  24
ATOM     24  O   UNL     1      24.768  52.331  48.243  1.00  0.00    -0.508 OA
ATOM     25  H   UNL     1      25.048  52.925  49.014  1.00  0.00     0.293 HD
ENDBRANCH   9  24
TORSDOF 5
ENDMDL
MODEL 6
REMARK VINA RESULT:    -6.592      1.557      2.132
REMARK INTER + INTRA:          -7.728
REMARK INTER:                  -7.431
REMARK INTRA:                  -0.298
REMARK UNBOUND:                 0.020
REMARK SMILES O=c1c(O)c(-c2ccc(O)c(O)c2)oc2cc(O)ccc12
REMARK SMILES IDX 5 1 3 2 2 3 1 4 21 5 15 6 14 7 16 8 17 9 19 10 20 11 6 12
REMARK SMILES IDX 7 13 8 14 9 15 13 16 11 17 10 18 12 20 4 22 18 24
REMARK H PARENT 10 19 12 21 4 23 18 25
REMARK Flexibility Score: inf
ROOT
ATOM      1  C   UNL     1      19.003  49.294  45.257  1.00  0.00     0.180 A 
ATOM      2  C   UNL     1      19.844  48.933  44.184  1.00  0.00     0.208 A 
ATOM      3  C   UNL     1      21.227  49.132  44.313  1.00  0.00     0.235 A 
ATOM      4  O   UNL     1      22.002  48.807  43.370  1.00  0.00    -0.285 OA
ATOM      5  C   UNL     1      21.736  49.700  45.490  1.00  0.00     0.069 A 
ATOM      6  C   UNL     1      20.826  50.055  46.510  1.00  0.00     0.142 A 
ATOM      7  O   UNL     1      19.524  49.843  46.351  1.00  0.00    -0.452 OA
ATOM      8  C   UNL     1      21.294  50.634  47.695  1.00  0.00     0.094 A 
ATOM      9  C   UNL     1      22.665  50.859  47.877  1.00  0.00     0.119 A 
ATOM     10  C   UNL     1      23.569  50.506  46.869  1.00  0.00     0.047 A 
ATOM     11  C   UNL     1      23.111  49.929  45.681  1.00  0.00     0.020 A 
ENDROOT
BRANCH   1  12
ATOM     12  C   UNL     1      17.536  49.098  45.206  1.00  0.00     0.025 A 
ATOM     13  C   UNL     1      16.733  50.062  44.576  1.00  0.00     0.016 A 
ATOM     14  C   UNL     1      15.345  49.908  44.534  1.00  0.00     0.051 A 
ATOM     15  C   UNL     1      14.738  48.798  45.134  1.00  0.00     0.157 A 
ATOM     16  C   UNL     1      16.922  47.995  45.825  1.00  0.00     0.062 A 
ATOM     17  C   UNL     1      15.531  47.840  45.787  1.00  0.00     0.158 A 
BRANCH  15  18
ATOM     18  O   UNL     1      13.353  48.646  45.088  1.00  0.00    -0.504 OA
ATOM     19  H   UNL     1      12.765  48.897  45.874  1.00  0.00     0.293 HD
ENDBRANCH  15  18
BRANCH  17  20
ATOM     20  O   UNL     1      14.956  46.730  46.406  1.00  0.00    -0.504 OA
ATOM     21  H   UNL     1      15.414  45.826  46.424  1.00  0.00     0.293 HD
ENDBRANCH  17  20
ENDBRANCH   1  12
BRANCH   2  22
ATOM     22  O   UNL     1      19.304  48.415  43.004  1.00  0.00    -0.502 OA
ATOM     23  H   UNL     1      19.705  47.615  42.529  1.00  0.00     0.293 HD
ENDBRANCH   2  22
BRANCH   9  24
ATOM     24  O   UNL     1      23.139  51.434  49.054  1.00  0.00    -0.508 OA
ATOM     25  H   UNL     1      22.922  52.392  49.301  1.00  0.00     0.293 HD
ENDBRANCH   9  24
TORSDOF 5
ENDMDL
MODEL 7
REMARK VINA RESULT:    -6.495      3.214      4.193
REMARK INTER + INTRA:          -7.615
REMARK INTER:                  -7.695
REMARK INTRA:                   0.081
REMARK UNBOUND:                 0.020
REMARK SMILES O=c1c(O)c(-c2ccc(O)c(O)c2)oc2cc(O)ccc12
REMARK SMILES IDX 5 1 3 2 2 3 1 4 21 5 15 6 14 7 16 8 17 9 19 10 20 11 6 12
REMARK SMILES IDX 7 13 8 14 9 15 13 16 11 17 10 18 12 20 4 22 18 24
REMARK H PARENT 10 19 12 21 4 23 18 25
REMARK Flexibility Score: inf
ROOT
ATOM      1  C   UNL     1      18.674  46.793  42.363  1.00  0.00     0.180 A 
ATOM      2  C   UNL     1      19.538  45.956  43.100  1.00  0.00     0.208 A 
ATOM      3  C   UNL     1      20.156  46.469  44.251  1.00  0.00     0.235 A 
ATOM      4  O   UNL     1      20.924  45.736  44.934  1.00  0.00    -0.285 OA
ATOM      5  C   UNL     1      19.916  47.799  44.629  1.00  0.00     0.069 A 
ATOM      6  C   UNL     1      19.057  48.579  43.825  1.00  0.00     0.142 A 
ATOM      7  O   UNL     1      18.486  48.053  42.747  1.00  0.00    -0.452 OA
ATOM      8  C   UNL     1      18.801  49.913  44.163  1.00  0.00     0.094 A 
ATOM      9  C   UNL     1      19.394  50.479  45.300  1.00  0.00     0.119 A 
ATOM     10  C   UNL     1      20.245  49.707  46.099  1.00  0.00     0.047 A 
ATOM     11  C   UNL     1      20.507  48.374  45.769  1.00  0.00     0.020 A 
ENDROOT
BRANCH   1  12
ATOM     12  C   UNL     1      17.970  46.322  41.148  1.00  0.00     0.025 A 
ATOM     13  C   UNL     1      18.692  45.643  40.153  1.00  0.00     0.016 A 
ATOM     14  C   UNL     1      18.052  45.206  38.990  1.00  0.00     0.051 A 
ATOM     15  C   UNL     1      16.688  45.456  38.797  1.00  0.00     0.157 A 
ATOM     16  C   UNL     1      16.606  46.588  40.942  1.00  0.00     0.062 A 
ATOM     17  C   UNL     1      15.963  46.155  39.776  1.00  0.00     0.158 A 
BRANCH  15  18
ATOM     18  O   UNL     1      16.052  45.017  37.636  1.00  0.00    -0.504 OA
ATOM     19  H   UNL     1      16.203  45.474  36.744  1.00  0.00     0.293 HD
ENDBRANCH  15  18
BRANCH  17  20
ATOM     20  O   UNL     1      14.606  46.431  39.608  1.00  0.00    -0.504 OA
ATOM     21  H   UNL     1      13.883  45.826  39.978  1.00  0.00     0.293 HD
ENDBRANCH  17  20
ENDBRANCH   1  12
BRANCH   2  22
ATOM     22  O   UNL     1      19.795  44.652  42.672  1.00  0.00    -0.502 OA
ATOM     23  H   UNL     1      20.277  44.452  41.804  1.00  0.00     0.293 HD
ENDBRANCH   2  22
BRANCH   9  24
ATOM     24  O   UNL     1      19.145  51.805  45.643  1.00  0.00    -0.508 OA
ATOM     25  H   UNL     1      19.718  52.294  46.320  1.00  0.00     0.293 HD
ENDBRANCH   9  24
TORSDOF 5
ENDMDL
MODEL 8
REMARK VINA RESULT:    -6.481      2.135      6.944
REMARK INTER + INTRA:          -7.598
REMARK INTER:                  -7.431
REMARK INTRA:                  -0.168
REMARK UNBOUND:                 0.020
REMARK SMILES O=c1c(O)c(-c2ccc(O)c(O)c2)oc2cc(O)ccc12
REMARK SMILES IDX 5 1 3 2 2 3 1 4 21 5 15 6 14 7 16 8 17 9 19 10 20 11 6 12
REMARK SMILES IDX 7 13 8 14 9 15 13 16 11 17 10 18 12 20 4 22 18 24
REMARK H PARENT 10 19 12 21 4 23 18 25
REMARK Flexibility Score: inf
ROOT
ATOM      1  C   UNL     1      19.980  49.146  44.391  1.00  0.00     0.180 A 
ATOM      2  C   UNL     1      18.891  49.945  43.984  1.00  0.00     0.208 A 
ATOM      3  C   UNL     1      17.937  49.395  43.113  1.00  0.00     0.235 A 
ATOM      4  O   UNL     1      16.948  50.086  42.743  1.00  0.00    -0.285 OA
ATOM      5  C   UNL     1      18.098  48.078  42.657  1.00  0.00     0.069 A 
ATOM      6  C   UNL     1      19.227  47.351  43.093  1.00  0.00     0.142 A 
ATOM      7  O   UNL     1      20.103  47.906  43.923  1.00  0.00    -0.452 OA
ATOM      8  C   UNL     1      19.428  46.038  42.651  1.00  0.00     0.094 A 
ATOM      9  C   UNL     1      18.510  45.439  41.778  1.00  0.00     0.119 A 
ATOM     10  C   UNL     1      17.389  46.157  41.346  1.00  0.00     0.047 A 
ATOM     11  C   UNL     1      17.181  47.469  41.781  1.00  0.00     0.020 A 
ENDROOT
BRANCH   1  12
ATOM     12  C   UNL     1      21.017  49.646  45.322  1.00  0.00     0.025 A 
ATOM     13  C   UNL     1      22.354  49.704  44.898  1.00  0.00     0.016 A 
ATOM     14  C   UNL     1      23.352  50.154  45.766  1.00  0.00     0.051 A 
ATOM     15  C   UNL     1      23.032  50.537  47.074  1.00  0.00     0.157 A 
ATOM     16  C   UNL     1      20.702  50.012  46.643  1.00  0.00     0.062 A 
ATOM     17  C   UNL     1      21.701  50.460  47.515  1.00  0.00     0.158 A 
BRANCH  15  18
ATOM     18  O   UNL     1      24.030  50.988  47.937  1.00  0.00    -0.504 OA
ATOM     19  H   UNL     1      24.724  51.663  47.638  1.00  0.00     0.293 HD
ENDBRANCH  15  18
BRANCH  17  20
ATOM     20  O   UNL     1      21.351  50.821  48.816  1.00  0.00    -0.504 OA
ATOM     21  H   UNL     1      20.399  51.053  49.073  1.00  0.00     0.293 HD
ENDBRANCH  17  20
ENDBRANCH   1  12
BRANCH   2  22
ATOM     22  O   UNL     1      18.784  51.269  44.416  1.00  0.00    -0.502 OA
ATOM     23  H   UNL     1      17.896  51.756  44.455  1.00  0.00     0.293 HD
ENDBRANCH   2  22
BRANCH   9  24
ATOM     24  O   UNL     1      18.702  44.133  41.335  1.00  0.00    -0.508 OA
ATOM     25  H   UNL     1      19.516  43.872  40.791  1.00  0.00     0.293 HD
ENDBRANCH   9  24
TORSDOF 5
ENDMDL
MODEL 9
REMARK VINA RESULT:    -6.450      2.943      3.948
REMARK INTER + INTRA:          -7.562
REMARK INTER:                  -7.318
REMARK INTRA:                  -0.244
REMARK UNBOUND:                 0.020
REMARK SMILES O=c1c(O)c(-c2ccc(O)c(O)c2)oc2cc(O)ccc12
REMARK SMILES IDX 5 1 3 2 2 3 1 4 21 5 15 6 14 7 16 8 17 9 19 10 20 11 6 12
REMARK SMILES IDX 7 13 8 14 9 15 13 16 11 17 10 18 12 20 4 22 18 24
REMARK H PARENT 10 19 12 21 4 23 18 25
REMARK Flexibility Score: inf
ROOT
ATOM      1  C   UNL     1      18.763  47.134  43.193  1.00  0.00     0.180 A 
ATOM      2  C   UNL     1      18.273  47.121  44.515  1.00  0.00     0.208 A 
ATOM      3  C   UNL     1      18.992  47.802  45.510  1.00  0.00     0.235 A 
ATOM      4  O   UNL     1      18.568  47.813  46.699  1.00  0.00    -0.285 OA
ATOM      5  C   UNL     1      20.184  48.460  45.171  1.00  0.00     0.069 A 
ATOM      6  C   UNL     1      20.620  48.407  43.829  1.00  0.00     0.142 A 
ATOM      7  O   UNL     1      19.906  47.758  42.916  1.00  0.00    -0.452 OA
ATOM      8  C   UNL     1      21.809  49.042  43.454  1.00  0.00     0.094 A 
ATOM      9  C   UNL     1      22.570  49.734  44.406  1.00  0.00     0.119 A 
ATOM     10  C   UNL     1      22.140  49.789  45.736  1.00  0.00     0.047 A 
ATOM     11  C   UNL     1      20.954  49.156  46.121  1.00  0.00     0.020 A 
ENDROOT
BRANCH   1  12
ATOM     12  C   UNL     1      18.053  46.456  42.084  1.00  0.00     0.025 A 
ATOM     13  C   UNL     1      18.630  45.324  41.486  1.00  0.00     0.016 A 
ATOM     14  C   UNL     1      17.987  44.680  40.425  1.00  0.00     0.051 A 
ATOM     15  C   UNL     1      16.768  45.167  39.937  1.00  0.00     0.157 A 
ATOM     16  C   UNL     1      16.840  46.954  41.578  1.00  0.00     0.062 A 
ATOM     17  C   UNL     1      16.195  46.312  40.514  1.00  0.00     0.158 A 
BRANCH  15  18
ATOM     18  O   UNL     1      16.128  44.521  38.880  1.00  0.00    -0.504 OA
ATOM     19  H   UNL     1      15.695  43.613  38.998  1.00  0.00     0.293 HD
ENDBRANCH  15  18
BRANCH  17  20
ATOM     20  O   UNL     1      14.989  46.830  40.041  1.00  0.00    -0.504 OA
ATOM     21  H   UNL     1      14.109  46.344  40.164  1.00  0.00     0.293 HD
ENDBRANCH  17  20
ENDBRANCH   1  12
BRANCH   2  22
ATOM     22  O   UNL     1      17.109  46.415  44.832  1.00  0.00    -0.502 OA
ATOM     23  H   UNL     1      17.107  45.634  45.476  1.00  0.00     0.293 HD
ENDBRANCH   2  22
BRANCH   9  24
ATOM     24  O   UNL     1      23.755  50.369  44.041  1.00  0.00    -0.508 OA
ATOM     25  H   UNL     1      24.660  49.991  44.296  1.00  0.00     0.293 HD
ENDBRANCH   9  24
TORSDOF 5
ENDMDL
