MODEL 1
REMARK VINA RESULT:    -4.225      0.000      0.000
REMARK INTER + INTRA:          -4.893
REMARK INTER:                  -4.843
REMARK INTRA:                  -0.050
REMARK UNBOUND:                -0.050
REMARK SMILES O=C([O-])c1cc(O)c(O)c(O)c1
REMARK SMILES IDX 4 1 5 2 12 3 6 4 10 5 8 6 2 7 1 8 3 9 7 10 11 12 9 14
REMARK H PARENT 7 11 11 13 9 15
REMARK Flexibility Score: inf
ROOT
ATOM      1  C   UNL     1      22.923  -3.354  54.789  1.00  0.00     0.005 A 
ATOM      2  C   UNL     1      22.497  -4.099  55.902  1.00  0.00     0.060 A 
ATOM      3  C   UNL     1      22.764  -1.958  54.802  1.00  0.00     0.060 A 
ATOM      4  C   UNL     1      21.923  -3.465  57.009  1.00  0.00     0.162 A 
ATOM      5  C   UNL     1      22.189  -1.315  55.907  1.00  0.00     0.162 A 
ATOM      6  C   UNL     1      21.767  -2.069  57.016  1.00  0.00     0.200 A 
ENDROOT
BRANCH   1   7
ATOM      7  C   UNL     1      23.529  -4.034  53.624  1.00  0.00     0.072 C 
ATOM      8  O   UNL     1      24.209  -5.084  53.776  1.00  0.00    -0.545 OA
ATOM      9  O   UNL     1      23.359  -3.524  52.342  1.00  0.00    -0.545 OA
ENDBRANCH   1   7
BRANCH   4  10
ATOM     10  O   UNL     1      21.514  -4.241  58.093  1.00  0.00    -0.504 OA
ATOM     11  H   UNL     1      22.083  -4.992  58.464  1.00  0.00     0.293 HD
ENDBRANCH   4  10
BRANCH   5  12
ATOM     12  O   UNL     1      22.038   0.071  55.908  1.00  0.00    -0.504 OA
ATOM     13  H   UNL     1      22.533   0.659  56.568  1.00  0.00     0.293 HD
ENDBRANCH   5  12
BRANCH   6  14
ATOM     14  O   UNL     1      21.193  -1.445  58.124  1.00  0.00    -0.502 OA
ATOM     15  H   UNL     1      20.199  -1.483  58.311  1.00  0.00     0.293 HD
ENDBRANCH   6  14
TORSDOF 4
ENDMDL
MODEL 2
REMARK VINA RESULT:    -4.162      0.239      2.438
REMARK INTER + INTRA:          -4.821
REMARK INTER:                  -4.769
REMARK INTRA:                  -0.051
REMARK UNBOUND:                -0.050
REMARK SMILES O=C([O-])c1cc(O)c(O)c(O)c1
REMARK SMILES IDX 4 1 5 2 12 3 6 4 10 5 8 6 2 7 1 8 3 9 7 10 11 12 9 14
REMARK H PARENT 7 11 11 13 9 15
REMARK Flexibility Score: inf
ROOT
ATOM      1  C   UNL     1      22.706  -3.356  54.790  1.00  0.00     0.005 A 
ATOM      2  C   UNL     1      22.660  -1.952  54.809  1.00  0.00     0.060 A 
ATOM      3  C   UNL     1      22.227  -4.069  55.902  1.00  0.00     0.060 A 
ATOM      4  C   UNL     1      22.145  -1.269  55.916  1.00  0.00     0.162 A 
ATOM      5  C   UNL     1      21.710  -3.392  57.016  1.00  0.00     0.162 A 
ATOM      6  C   UNL     1      21.668  -1.987  57.026  1.00  0.00     0.200 A 
ENDROOT
BRANCH   1   7
ATOM      7  C   UNL     1      23.251  -4.069  53.614  1.00  0.00     0.072 C 
ATOM      8  O   UNL     1      23.722  -5.232  53.731  1.00  0.00    -0.545 OA
ATOM      9  O   UNL     1      23.253  -3.466  52.362  1.00  0.00    -0.545 OA
ENDBRANCH   1   7
BRANCH   4  10
ATOM     10  O   UNL     1      22.117   0.125  55.895  1.00  0.00    -0.504 OA
ATOM     11  H   UNL     1      22.963   0.681  55.867  1.00  0.00     0.293 HD
ENDBRANCH   4  10
BRANCH   5  12
ATOM     12  O   UNL     1      21.237  -4.111  58.113  1.00  0.00    -0.504 OA
ATOM     13  H   UNL     1      21.461  -3.840  59.063  1.00  0.00     0.293 HD
ENDBRANCH   5  12
BRANCH   6  14
ATOM     14  O   UNL     1      21.156  -1.298  58.125  1.00  0.00    -0.502 OA
ATOM     15  H   UNL     1      21.722  -0.663  58.675  1.00  0.00     0.293 HD
ENDBRANCH   6  14
TORSDOF 4
ENDMDL
MODEL 3
REMARK VINA RESULT:    -4.086     17.416     19.248
REMARK INTER + INTRA:          -4.734
REMARK INTER:                  -4.683
REMARK INTRA:                  -0.050
REMARK UNBOUND:                -0.050
REMARK SMILES O=C([O-])c1cc(O)c(O)c(O)c1
REMARK SMILES IDX 4 1 5 2 12 3 6 4 10 5 8 6 2 7 1 8 3 9 7 10 11 12 9 14
REMARK H PARENT 7 11 11 13 9 15
REMARK Flexibility Score: inf
ROOT
ATOM      1  C   UNL     1      31.064   5.244  40.208  1.00  0.00     0.005 A 
ATOM      2  C   UNL     1      30.565   5.001  41.499  1.00  0.00     0.060 A 
ATOM      3  C   UNL     1      32.387   5.694  40.061  1.00  0.00     0.060 A 
ATOM      4  C   UNL     1      31.370   5.202  42.625  1.00  0.00     0.162 A 
ATOM      5  C   UNL     1      33.200   5.898  41.185  1.00  0.00     0.162 A 
ATOM      6  C   UNL     1      32.693   5.652  42.473  1.00  0.00     0.200 A 
ENDROOT
BRANCH   1   7
ATOM      7  C   UNL     1      30.205   5.028  39.023  1.00  0.00     0.072 C 
ATOM      8  O   UNL     1      30.341   5.741  37.993  1.00  0.00    -0.545 OA
ATOM      9  O   UNL     1      29.233   4.034  39.029  1.00  0.00    -0.545 OA
ENDBRANCH   1   7
BRANCH   4  10
ATOM     10  O   UNL     1      30.838   4.949  43.889  1.00  0.00    -0.504 OA
ATOM     11  H   UNL     1      31.131   4.158  44.449  1.00  0.00     0.293 HD
ENDBRANCH   4  10
BRANCH   5  12
ATOM     12  O   UNL     1      34.511   6.344  41.026  1.00  0.00    -0.504 OA
ATOM     13  H   UNL     1      35.027   6.186  40.169  1.00  0.00     0.293 HD
ENDBRANCH   5  12
BRANCH   6  14
ATOM     14  O   UNL     1      33.488   5.850  43.601  1.00  0.00    -0.502 OA
ATOM     15  H   UNL     1      34.389   6.312  43.553  1.00  0.00     0.293 HD
ENDBRANCH   6  14
TORSDOF 4
ENDMDL
MODEL 4
REMARK VINA RESULT:    -4.032     17.414     19.327
REMARK INTER + INTRA:          -4.671
REMARK INTER:                  -4.621
REMARK INTRA:                  -0.050
REMARK UNBOUND:                -0.050
REMARK SMILES O=C([O-])c1cc(O)c(O)c(O)c1
REMARK SMILES IDX 4 1 5 2 12 3 6 4 10 5 8 6 2 7 1 8 3 9 7 10 11 12 9 14
REMARK H PARENT 7 11 11 13 9 15
REMARK Flexibility Score: inf
ROOT
ATOM      1  C   UNL     1      31.027   5.240  40.203  1.00  0.00     0.005 A 
ATOM      2  C   UNL     1      32.363   5.653  40.061  1.00  0.00     0.060 A 
ATOM      3  C   UNL     1      30.520   5.002  41.491  1.00  0.00     0.060 A 
ATOM      4  C   UNL     1      33.179   5.827  41.184  1.00  0.00     0.162 A 
ATOM      5  C   UNL     1      31.331   5.173  42.621  1.00  0.00     0.162 A 
ATOM      6  C   UNL     1      32.666   5.587  42.470  1.00  0.00     0.200 A 
ENDROOT
BRANCH   1   7
ATOM      7  C   UNL     1      30.172   5.060  39.009  1.00  0.00     0.072 C 
ATOM      8  O   UNL     1      29.253   4.198  39.004  1.00  0.00    -0.545 OA
ATOM      9  O   UNL     1      30.371   5.839  37.875  1.00  0.00    -0.545 OA
ENDBRANCH   1   7
BRANCH   4  10
ATOM     10  O   UNL     1      34.499   6.238  41.001  1.00  0.00    -0.504 OA
ATOM     11  H   UNL     1      34.897   6.381  40.081  1.00  0.00     0.293 HD
ENDBRANCH   4  10
BRANCH   5  12
ATOM     12  O   UNL     1      30.816   4.935  43.894  1.00  0.00    -0.504 OA
ATOM     13  H   UNL     1      31.159   5.430  44.709  1.00  0.00     0.293 HD
ENDBRANCH   5  12
BRANCH   6  14
ATOM     14  O   UNL     1      33.487   5.763  43.584  1.00  0.00    -0.502 OA
ATOM     15  H   UNL     1      33.203   6.319  44.382  1.00  0.00     0.293 HD
ENDBRANCH   6  14
TORSDOF 4
ENDMDL
MODEL 5
REMARK VINA RESULT:    -3.980     12.522     13.907
REMARK INTER + INTRA:          -4.612
REMARK INTER:                  -4.565
REMARK INTRA:                  -0.047
REMARK UNBOUND:                -0.050
REMARK SMILES O=C([O-])c1cc(O)c(O)c(O)c1
REMARK SMILES IDX 4 1 5 2 12 3 6 4 10 5 8 6 2 7 1 8 3 9 7 10 11 12 9 14
REMARK H PARENT 7 11 11 13 9 15
REMARK Flexibility Score: inf
ROOT
ATOM      1  C   UNL     1      30.908   4.859  48.936  1.00  0.00     0.005 A 
ATOM      2  C   UNL     1      29.516   4.927  49.116  1.00  0.00     0.060 A 
ATOM      3  C   UNL     1      31.520   5.725  48.014  1.00  0.00     0.060 A 
ATOM      4  C   UNL     1      28.746   5.843  48.390  1.00  0.00     0.162 A 
ATOM      5  C   UNL     1      30.756   6.646  47.283  1.00  0.00     0.162 A 
ATOM      6  C   UNL     1      29.364   6.707  47.470  1.00  0.00     0.200 A 
ENDROOT
BRANCH   1   7
ATOM      7  C   UNL     1      31.713   3.887  49.708  1.00  0.00     0.072 C 
ATOM      8  O   UNL     1      31.690   3.894  50.968  1.00  0.00    -0.545 OA
ATOM      9  O   UNL     1      32.507   2.952  49.055  1.00  0.00    -0.545 OA
ENDBRANCH   1   7
BRANCH   4  10
ATOM     10  O   UNL     1      27.368   5.879  48.598  1.00  0.00    -0.504 OA
ATOM     11  H   UNL     1      26.707   5.611  47.878  1.00  0.00     0.293 HD
ENDBRANCH   4  10
BRANCH   5  12
ATOM     12  O   UNL     1      31.375   7.501  46.373  1.00  0.00    -0.504 OA
ATOM     13  H   UNL     1      32.166   8.076  46.637  1.00  0.00     0.293 HD
ENDBRANCH   5  12
BRANCH   6  14
ATOM     14  O   UNL     1      28.589   7.617  46.751  1.00  0.00    -0.502 OA
ATOM     15  H   UNL     1      27.952   7.325  46.020  1.00  0.00     0.293 HD
ENDBRANCH   6  14
TORSDOF 4
ENDMDL
MODEL 6
REMARK VINA RESULT:    -3.965     12.421     13.923
REMARK INTER + INTRA:          -4.594
REMARK INTER:                  -4.548
REMARK INTRA:                  -0.046
REMARK UNBOUND:                -0.050
REMARK SMILES O=C([O-])c1cc(O)c(O)c(O)c1
REMARK SMILES IDX 4 1 5 2 12 3 6 4 10 5 8 6 2 7 1 8 3 9 7 10 11 12 9 14
REMARK H PARENT 7 11 11 13 9 15
REMARK Flexibility Score: inf
ROOT
ATOM      1  C   UNL     1      30.898   4.768  48.996  1.00  0.00     0.005 A 
ATOM      2  C   UNL     1      31.485   5.673  48.097  1.00  0.00     0.060 A 
ATOM      3  C   UNL     1      29.506   4.796  49.182  1.00  0.00     0.060 A 
ATOM      4  C   UNL     1      30.698   6.592  47.393  1.00  0.00     0.162 A 
ATOM      5  C   UNL     1      28.711   5.713  48.481  1.00  0.00     0.162 A 
ATOM      6  C   UNL     1      29.306   6.616  47.583  1.00  0.00     0.200 A 
ENDROOT
BRANCH   1   7
ATOM      7  C   UNL     1      31.739   3.800  49.735  1.00  0.00     0.072 C 
ATOM      8  O   UNL     1      31.756   3.797  50.995  1.00  0.00    -0.545 OA
ATOM      9  O   UNL     1      32.523   2.879  49.049  1.00  0.00    -0.545 OA
ENDBRANCH   1   7
BRANCH   4  10
ATOM     10  O   UNL     1      31.319   7.474  46.509  1.00  0.00    -0.504 OA
ATOM     11  H   UNL     1      31.868   8.262  46.830  1.00  0.00     0.293 HD
ENDBRANCH   4  10
BRANCH   5  12
ATOM     12  O   UNL     1      27.330   5.731  48.674  1.00  0.00    -0.504 OA
ATOM     13  H   UNL     1      26.710   6.218  48.037  1.00  0.00     0.293 HD
ENDBRANCH   5  12
BRANCH   6  14
ATOM     14  O   UNL     1      28.530   7.534  46.877  1.00  0.00    -0.502 OA
ATOM     15  H   UNL     1      28.919   8.384  46.487  1.00  0.00     0.293 HD
ENDBRANCH   6  14
TORSDOF 4
ENDMDL
MODEL 7
REMARK VINA RESULT:    -3.879     14.230     15.955
REMARK INTER + INTRA:          -4.497
REMARK INTER:                  -4.452
REMARK INTRA:                  -0.045
REMARK UNBOUND:                -0.050
REMARK SMILES O=C([O-])c1cc(O)c(O)c(O)c1
REMARK SMILES IDX 4 1 5 2 12 3 6 4 10 5 8 6 2 7 1 8 3 9 7 10 11 12 9 14
REMARK H PARENT 7 11 11 13 9 15
REMARK Flexibility Score: inf
ROOT
ATOM      1  C   UNL     1      23.815   2.318  40.202  1.00  0.00     0.005 A 
ATOM      2  C   UNL     1      23.156   2.338  41.443  1.00  0.00     0.060 A 
ATOM      3  C   UNL     1      24.945   3.132  40.017  1.00  0.00     0.060 A 
ATOM      4  C   UNL     1      23.616   3.154  42.483  1.00  0.00     0.162 A 
ATOM      5  C   UNL     1      25.411   3.953  41.053  1.00  0.00     0.162 A 
ATOM      6  C   UNL     1      24.746   3.966  42.292  1.00  0.00     0.200 A 
ENDROOT
BRANCH   1   7
ATOM      7  C   UNL     1      23.321   1.451  39.110  1.00  0.00     0.072 C 
ATOM      8  O   UNL     1      22.598   1.924  38.193  1.00  0.00    -0.545 OA
ATOM      9  O   UNL     1      23.649   0.100  39.079  1.00  0.00    -0.545 OA
ENDBRANCH   1   7
BRANCH   4  10
ATOM     10  O   UNL     1      22.934   3.145  43.699  1.00  0.00    -0.504 OA
ATOM     11  H   UNL     1      21.933   2.998  43.756  1.00  0.00     0.293 HD
ENDBRANCH   4  10
BRANCH   5  12
ATOM     12  O   UNL     1      26.534   4.756  40.857  1.00  0.00    -0.504 OA
ATOM     13  H   UNL     1      26.617   5.366  40.052  1.00  0.00     0.293 HD
ENDBRANCH   5  12
BRANCH   6  14
ATOM     14  O   UNL     1      25.197   4.777  43.333  1.00  0.00    -0.502 OA
ATOM     15  H   UNL     1      25.970   5.421  43.220  1.00  0.00     0.293 HD
ENDBRANCH   6  14
TORSDOF 4
ENDMDL
MODEL 8
REMARK VINA RESULT:    -3.872     15.600     17.383
REMARK INTER + INTRA:          -4.489
REMARK INTER:                  -4.438
REMARK INTRA:                  -0.051
REMARK UNBOUND:                -0.050
REMARK SMILES O=C([O-])c1cc(O)c(O)c(O)c1
REMARK SMILES IDX 4 1 5 2 12 3 6 4 10 5 8 6 2 7 1 8 3 9 7 10 11 12 9 14
REMARK H PARENT 7 11 11 13 9 15
REMARK Flexibility Score: inf
ROOT
ATOM      1  C   UNL     1      30.629   4.943  41.752  1.00  0.00     0.005 A 
ATOM      2  C   UNL     1      31.806   5.486  42.294  1.00  0.00     0.060 A 
ATOM      3  C   UNL     1      29.671   4.388  42.618  1.00  0.00     0.060 A 
ATOM      4  C   UNL     1      32.025   5.478  43.676  1.00  0.00     0.162 A 
ATOM      5  C   UNL     1      29.884   4.376  44.003  1.00  0.00     0.162 A 
ATOM      6  C   UNL     1      31.064   4.922  44.537  1.00  0.00     0.200 A 
ENDROOT
BRANCH   1   7
ATOM      7  C   UNL     1      30.406   4.957  40.289  1.00  0.00     0.072 C 
ATOM      8  O   UNL     1      29.237   4.948  39.819  1.00  0.00    -0.545 OA
ATOM      9  O   UNL     1      31.484   4.980  39.411  1.00  0.00    -0.545 OA
ENDBRANCH   1   7
BRANCH   4  10
ATOM     10  O   UNL     1      33.206   6.027  44.174  1.00  0.00    -0.504 OA
ATOM     11  H   UNL     1      33.864   5.485  44.721  1.00  0.00     0.293 HD
ENDBRANCH   4  10
BRANCH   5  12
ATOM     12  O   UNL     1      28.926   3.824  44.852  1.00  0.00    -0.504 OA
ATOM     13  H   UNL     1      28.646   4.285  45.710  1.00  0.00     0.293 HD
ENDBRANCH   5  12
BRANCH   6  14
ATOM     14  O   UNL     1      31.291   4.918  45.913  1.00  0.00    -0.502 OA
ATOM     15  H   UNL     1      32.161   5.243  46.318  1.00  0.00     0.293 HD
ENDBRANCH   6  14
TORSDOF 4
ENDMDL
MODEL 9
REMARK VINA RESULT:    -3.871     14.235     16.080
REMARK INTER + INTRA:          -4.487
REMARK INTER:                  -4.442
REMARK INTRA:                  -0.045
REMARK UNBOUND:                -0.050
REMARK SMILES O=C([O-])c1cc(O)c(O)c(O)c1
REMARK SMILES IDX 4 1 5 2 12 3 6 4 10 5 8 6 2 7 1 8 3 9 7 10 11 12 9 14
REMARK H PARENT 7 11 11 13 9 15
REMARK Flexibility Score: inf
ROOT
ATOM      1  C   UNL     1      23.805   2.322  40.206  1.00  0.00     0.005 A 
ATOM      2  C   UNL     1      24.943   3.124  40.016  1.00  0.00     0.060 A 
ATOM      3  C   UNL     1      23.149   2.352  41.449  1.00  0.00     0.060 A 
ATOM      4  C   UNL     1      25.420   3.943  41.047  1.00  0.00     0.162 A 
ATOM      5  C   UNL     1      23.621   3.169  42.486  1.00  0.00     0.162 A 
ATOM      6  C   UNL     1      24.760   3.968  42.287  1.00  0.00     0.200 A 
ENDROOT
BRANCH   1   7
ATOM      7  C   UNL     1      23.309   1.461  39.111  1.00  0.00     0.072 C 
ATOM      8  O   UNL     1      22.596   1.942  38.190  1.00  0.00    -0.545 OA
ATOM      9  O   UNL     1      23.621   0.107  39.082  1.00  0.00    -0.545 OA
ENDBRANCH   1   7
BRANCH   4  10
ATOM     10  O   UNL     1      26.552   4.724  40.818  1.00  0.00    -0.504 OA
ATOM     11  H   UNL     1      27.368   4.364  40.337  1.00  0.00     0.293 HD
ENDBRANCH   4  10
BRANCH   5  12
ATOM     12  O   UNL     1      22.961   3.189  43.714  1.00  0.00    -0.504 OA
ATOM     13  H   UNL     1      22.535   2.356  44.103  1.00  0.00     0.293 HD
ENDBRANCH   5  12
BRANCH   6  14
ATOM     14  O   UNL     1      25.242   4.787  43.308  1.00  0.00    -0.502 OA
ATOM     15  H   UNL     1      26.176   4.685  43.687  1.00  0.00     0.293 HD
ENDBRANCH   6  14
TORSDOF 4
ENDMDL
