MODEL 1
REMARK VINA RESULT:    -4.112      0.000      0.000
REMARK INTER + INTRA:          -6.687
REMARK INTER:                  -6.276
REMARK INTRA:                  -0.411
REMARK UNBOUND:                -0.411
REMARK SMILES CC1=CCC[C@@H](C)C(=O)C[C@H](C(C)C)C(=O)C1
REMARK SMILES IDX 8 1 9 2 6 3 7 4 5 5 4 6 3 7 2 8 1 9 10 11 11 12 15 13 16 14
REMARK SMILES IDX 17 15 12 17 13 18 14 19
REMARK H PARENT
REMARK Flexibility Score: 70.00
ROOT
ATOM      1  C   UNL     1       1.021 -24.659  22.678  1.00  0.00     0.136 C 
ATOM      2  O   UNL     1       1.361 -24.732  21.505  1.00  0.00    -0.299 OA
ENDROOT
BRANCH   1   3
ATOM      3  C   UNL     1      -0.102 -23.715  23.083  1.00  0.00     0.053 C 
ATOM      4  C   UNL     1       0.367 -22.251  23.170  1.00  0.00     0.016 C 
BRANCH   3   5
ATOM      5  C   UNL     1      -0.829 -24.145  24.382  1.00  0.00     0.015 C 
BRANCH   5   6
ATOM      6  C   UNL     1      -0.394 -23.386  25.656  1.00  0.00     0.028 C 
BRANCH   6   7
ATOM      7  C   UNL     1      -0.267 -24.312  26.846  1.00  0.00    -0.028 C 
ATOM      8  C   UNL     1       0.881 -24.764  27.405  1.00  0.00    -0.070 CG0
ATOM      9  C   UNL     1       0.765 -25.623  28.639  1.00  0.00     0.039 C 
ATOM     10  G   UNL     1       2.269 -24.368  26.936  1.00  0.00     0.000 G0
ENDBRANCH   6   7
ENDBRANCH   5   6
ENDBRANCH   3   5
ENDBRANCH   1   3
BRANCH   1  11
ATOM     11  C   UNL     1       1.606 -25.626  23.684  1.00  0.00     0.087 C 
BRANCH  11  12
ATOM     12  C   UNL     1       2.881 -25.115  24.413  1.00  0.00     0.066 C 
BRANCH  12  13
ATOM     13  C   UNL     1       2.881 -25.325  25.935  1.00  0.00     0.140 C 
ATOM     14  O   UNL     1       3.473 -26.295  26.384  1.00  0.00    -0.299 OA
BRANCH  13  15
ATOM     15  C   UNL     1       2.284 -24.359  26.940  1.00  0.00     0.106 CG0
ATOM     16  G   UNL     1       0.906 -24.776  27.420  1.00  0.00     0.000 G0
ENDBRANCH  13  15
ENDBRANCH  12  13
BRANCH  12  17
ATOM     17  C   UNL     1       4.160 -25.693  23.715  1.00  0.00    -0.006 C 
ATOM     18  C   UNL     1       3.910 -27.061  23.054  1.00  0.00     0.008 C 
ATOM     19  C   UNL     1       4.795 -24.725  22.706  1.00  0.00     0.008 C 
ENDBRANCH  12  17
ENDBRANCH  11  12
ENDBRANCH   1  11
TORSDOF 1
ENDMDL
MODEL 2
REMARK VINA RESULT:    -3.957     11.144     13.396
REMARK INTER + INTRA:          -6.450
REMARK INTER:                  -6.138
REMARK INTRA:                  -0.313
REMARK UNBOUND:                -0.411
REMARK SMILES CC1=CCC[C@@H](C)C(=O)C[C@H](C(C)C)C(=O)C1
REMARK SMILES IDX 8 1 9 2 6 3 7 4 5 5 4 6 3 7 2 8 1 9 10 11 11 12 15 13 16 14
REMARK SMILES IDX 17 15 12 17 13 18 14 19
REMARK H PARENT
REMARK Flexibility Score: 70.00
ROOT
ATOM      1  C   UNL     1      12.051 -18.132  21.972  1.00  0.00     0.136 C 
ATOM      2  O   UNL     1      12.961 -18.346  22.762  1.00  0.00    -0.299 OA
ENDROOT
BRANCH   1   3
ATOM      3  C   UNL     1      10.635 -18.574  22.312  1.00  0.00     0.053 C 
ATOM      4  C   UNL     1      10.352 -20.022  21.872  1.00  0.00     0.016 C 
BRANCH   3   5
ATOM      5  C   UNL     1       9.544 -17.609  21.784  1.00  0.00     0.015 C 
BRANCH   5   6
ATOM      6  C   UNL     1       8.507 -18.251  20.834  1.00  0.00     0.028 C 
BRANCH   6   7
ATOM      7  C   UNL     1       8.253 -17.393  19.615  1.00  0.00    -0.028 C 
ATOM      8  C   UNL     1       8.943 -17.413  18.449  1.00  0.00    -0.070 CG0
ATOM      9  C   UNL     1       8.459 -16.515  17.338  1.00  0.00     0.039 C 
ATOM     10  G   UNL     1      10.092 -18.359  18.157  1.00  0.00     0.000 G0
ENDBRANCH   6   7
ENDBRANCH   5   6
ENDBRANCH   3   5
ENDBRANCH   1   3
BRANCH   1  11
ATOM     11  C   UNL     1      12.313 -17.286  20.745  1.00  0.00     0.087 C 
BRANCH  11  12
ATOM     12  C   UNL     1      12.470 -18.089  19.423  1.00  0.00     0.066 C 
BRANCH  12  13
ATOM     13  C   UNL     1      11.470 -17.713  18.318  1.00  0.00     0.140 C 
ATOM     14  O   UNL     1      11.823 -16.907  17.470  1.00  0.00    -0.299 OA
BRANCH  13  15
ATOM     15  C   UNL     1      10.103 -18.345  18.139  1.00  0.00     0.106 CG0
ATOM     16  G   UNL     1       8.963 -17.393  18.447  1.00  0.00     0.000 G0
ENDBRANCH  13  15
ENDBRANCH  12  13
BRANCH  12  17
ATOM     17  C   UNL     1      13.961 -18.036  18.943  1.00  0.00    -0.006 C 
ATOM     18  C   UNL     1      14.632 -16.682  19.235  1.00  0.00     0.008 C 
ATOM     19  C   UNL     1      14.821 -19.183  19.493  1.00  0.00     0.008 C 
ENDBRANCH  12  17
ENDBRANCH  11  12
ENDBRANCH   1  11
TORSDOF 1
ENDMDL
MODEL 3
REMARK VINA RESULT:    -3.919      1.817      4.136
REMARK INTER + INTRA:          -6.391
REMARK INTER:                  -6.072
REMARK INTRA:                  -0.319
REMARK UNBOUND:                -0.411
REMARK SMILES CC1=CCC[C@@H](C)C(=O)C[C@H](C(C)C)C(=O)C1
REMARK SMILES IDX 8 1 9 2 6 3 7 4 5 5 4 6 3 7 2 8 1 9 10 11 11 12 15 13 16 14
REMARK SMILES IDX 17 15 12 17 13 18 14 19
REMARK H PARENT
REMARK Flexibility Score: 70.00
ROOT
ATOM      1  C   UNL     1       2.273 -24.676  22.927  1.00  0.00     0.136 C 
ATOM      2  O   UNL     1       1.716 -24.409  21.871  1.00  0.00    -0.299 OA
ENDROOT
BRANCH   1   3
ATOM      3  C   UNL     1       3.470 -25.615  22.935  1.00  0.00     0.053 C 
ATOM      4  C   UNL     1       3.184 -26.922  23.696  1.00  0.00     0.016 C 
BRANCH   3   5
ATOM      5  C   UNL     1       4.773 -24.948  23.446  1.00  0.00     0.015 C 
BRANCH   5   6
ATOM      6  C   UNL     1       5.319 -25.514  24.776  1.00  0.00     0.028 C 
BRANCH   6   7
ATOM      7  C   UNL     1       5.451 -24.440  25.833  1.00  0.00    -0.028 C 
ATOM      8  C   UNL     1       4.623 -24.225  26.883  1.00  0.00    -0.070 CG0
ATOM      9  C   UNL     1       4.998 -23.136  27.856  1.00  0.00     0.039 C 
ATOM     10  G   UNL     1       3.413 -25.084  27.200  1.00  0.00     0.000 G0
ENDBRANCH   6   7
ENDBRANCH   5   6
ENDBRANCH   3   5
ENDBRANCH   1   3
BRANCH   1  11
ATOM     11  C   UNL     1       1.870 -23.942  24.187  1.00  0.00     0.087 C 
BRANCH  11  12
ATOM     12  C   UNL     1       1.450 -24.861  25.370  1.00  0.00     0.066 C 
BRANCH  12  13
ATOM     13  C   UNL     1       2.100 -24.513  26.718  1.00  0.00     0.140 C 
ATOM     14  O   UNL     1       1.489 -23.779  27.481  1.00  0.00    -0.299 OA
BRANCH  13  15
ATOM     15  C   UNL     1       3.407 -25.094  27.223  1.00  0.00     0.106 CG0
ATOM     16  G   UNL     1       4.610 -24.234  26.883  1.00  0.00     0.000 G0
ENDBRANCH  13  15
ENDBRANCH  12  13
BRANCH  12  17
ATOM     17  C   UNL     1      -0.112 -24.948  25.447  1.00  0.00    -0.006 C 
ATOM     18  C   UNL     1      -0.810 -23.772  24.741  1.00  0.00     0.008 C 
ATOM     19  C   UNL     1      -0.676 -26.283  24.937  1.00  0.00     0.008 C 
ENDBRANCH  12  17
ENDBRANCH  11  12
ENDBRANCH   1  11
TORSDOF 1
ENDMDL
MODEL 4
REMARK VINA RESULT:    -3.870      2.017      4.210
REMARK INTER + INTRA:          -6.317
REMARK INTER:                  -6.202
REMARK INTRA:                  -0.115
REMARK UNBOUND:                -0.411
REMARK SMILES CC1=CCC[C@@H](C)C(=O)C[C@H](C(C)C)C(=O)C1
REMARK SMILES IDX 8 1 9 2 6 3 7 4 5 5 4 6 3 7 2 8 1 9 10 11 11 12 15 13 16 14
REMARK SMILES IDX 17 15 12 17 13 18 14 19
REMARK H PARENT
REMARK Flexibility Score: 70.00
ROOT
ATOM      1  C   UNL     1       0.281 -23.507  25.375  1.00  0.00     0.136 C 
ATOM      2  O   UNL     1      -0.518 -23.660  26.289  1.00  0.00    -0.299 OA
ENDROOT
BRANCH   1   3
ATOM      3  C   UNL     1      -0.194 -23.589  23.933  1.00  0.00     0.053 C 
ATOM      4  C   UNL     1      -1.132 -24.786  23.693  1.00  0.00     0.016 C 
BRANCH   3   5
ATOM      5  C   UNL     1       0.962 -23.574  22.901  1.00  0.00     0.015 C 
BRANCH   5   6
ATOM      6  C   UNL     1       1.628 -24.945  22.644  1.00  0.00     0.028 C 
BRANCH   6   7
ATOM      7  C   UNL     1       3.117 -24.905  22.904  1.00  0.00    -0.028 C 
ATOM      8  C   UNL     1       3.755 -25.279  24.040  1.00  0.00    -0.070 CG0
ATOM      9  C   UNL     1       5.262 -25.222  24.045  1.00  0.00     0.039 C 
ATOM     10  G   UNL     1       3.055 -25.854  25.257  1.00  0.00     0.000 G0
ENDBRANCH   6   7
ENDBRANCH   5   6
ENDBRANCH   3   5
ENDBRANCH   1   3
BRANCH   1  11
ATOM     11  C   UNL     1       1.697 -23.074  25.689  1.00  0.00     0.087 C 
BRANCH  11  12
ATOM     12  C   UNL     1       2.350 -23.807  26.895  1.00  0.00     0.066 C 
BRANCH  12  13
ATOM     13  C   UNL     1       3.239 -25.003  26.517  1.00  0.00     0.140 C 
ATOM     14  O   UNL     1       4.112 -25.344  27.301  1.00  0.00    -0.299 OA
BRANCH  13  15
ATOM     15  C   UNL     1       3.052 -25.862  25.281  1.00  0.00     0.106 CG0
ATOM     16  G   UNL     1       3.749 -25.301  24.056  1.00  0.00     0.000 G0
ENDBRANCH  13  15
ENDBRANCH  12  13
BRANCH  12  17
ATOM     17  C   UNL     1       3.078 -22.771  27.818  1.00  0.00    -0.006 C 
ATOM     18  C   UNL     1       3.258 -21.399  27.145  1.00  0.00     0.008 C 
ATOM     19  C   UNL     1       2.413 -22.605  29.192  1.00  0.00     0.008 C 
ENDBRANCH  12  17
ENDBRANCH  11  12
ENDBRANCH   1  11
TORSDOF 1
ENDMDL
MODEL 5
REMARK VINA RESULT:    -3.761      9.837     11.959
REMARK INTER + INTRA:          -6.150
REMARK INTER:                  -5.898
REMARK INTRA:                  -0.253
REMARK UNBOUND:                -0.411
REMARK SMILES CC1=CCC[C@@H](C)C(=O)C[C@H](C(C)C)C(=O)C1
REMARK SMILES IDX 8 1 9 2 6 3 7 4 5 5 4 6 3 7 2 8 1 9 10 11 11 12 15 13 16 14
REMARK SMILES IDX 17 15 12 17 13 18 14 19
REMARK H PARENT
REMARK Flexibility Score: 70.00
ROOT
ATOM      1  C   UNL     1       9.891 -19.571  20.115  1.00  0.00     0.136 C 
ATOM      2  O   UNL     1       9.458 -20.374  19.299  1.00  0.00    -0.299 OA
ENDROOT
BRANCH   1   3
ATOM      3  C   UNL     1      10.375 -20.059  21.472  1.00  0.00     0.053 C 
ATOM      4  C   UNL     1       9.313 -20.899  22.205  1.00  0.00     0.016 C 
BRANCH   3   5
ATOM      5  C   UNL     1      10.909 -18.923  22.381  1.00  0.00     0.015 C 
BRANCH   5   6
ATOM      6  C   UNL     1       9.882 -18.349  23.383  1.00  0.00     0.028 C 
BRANCH   6   7
ATOM      7  C   UNL     1      10.159 -16.898  23.704  1.00  0.00    -0.028 C 
ATOM      8  C   UNL     1       9.565 -15.814  23.146  1.00  0.00    -0.070 CG0
ATOM      9  C   UNL     1       9.950 -14.457  23.679  1.00  0.00     0.039 C 
ATOM     10  G   UNL     1       8.463 -15.891  22.106  1.00  0.00     0.000 G0
ENDBRANCH   6   7
ENDBRANCH   5   6
ENDBRANCH   3   5
ENDBRANCH   1   3
BRANCH   1  11
ATOM     11  C   UNL     1      10.094 -18.129  19.705  1.00  0.00     0.087 C 
BRANCH  11  12
ATOM     12  C   UNL     1       8.821 -17.240  19.799  1.00  0.00     0.066 C 
BRANCH  12  13
ATOM     13  C   UNL     1       8.966 -15.999  20.693  1.00  0.00     0.140 C 
ATOM     14  O   UNL     1       9.465 -14.994  20.209  1.00  0.00    -0.299 OA
BRANCH  13  15
ATOM     15  C   UNL     1       8.443 -15.891  22.113  1.00  0.00     0.106 CG0
ATOM     16  G   UNL     1       9.549 -15.803  23.148  1.00  0.00     0.000 G0
ENDBRANCH  13  15
ENDBRANCH  12  13
BRANCH  12  17
ATOM     17  C   UNL     1       8.302 -16.901  18.360  1.00  0.00    -0.006 C 
ATOM     18  C   UNL     1       9.424 -16.905  17.306  1.00  0.00     0.008 C 
ATOM     19  C   UNL     1       7.141 -17.797  17.902  1.00  0.00     0.008 C 
ENDBRANCH  12  17
ENDBRANCH  11  12
ENDBRANCH   1  11
TORSDOF 1
ENDMDL
MODEL 6
REMARK VINA RESULT:    -3.717     11.116     12.627
REMARK INTER + INTRA:          -6.083
REMARK INTER:                  -5.836
REMARK INTRA:                  -0.247
REMARK UNBOUND:                -0.411
REMARK SMILES CC1=CCC[C@@H](C)C(=O)C[C@H](C(C)C)C(=O)C1
REMARK SMILES IDX 8 1 9 2 6 3 7 4 5 5 4 6 3 7 2 8 1 9 10 11 11 12 15 13 16 14
REMARK SMILES IDX 17 15 12 17 13 18 14 19
REMARK H PARENT
REMARK Flexibility Score: 70.00
ROOT
ATOM      1  C   UNL     1       9.876 -14.246  24.018  1.00  0.00     0.136 C 
ATOM      2  O   UNL     1      10.925 -13.780  23.594  1.00  0.00    -0.299 OA
ENDROOT
BRANCH   1   3
ATOM      3  C   UNL     1       9.504 -15.686  23.699  1.00  0.00     0.053 C 
ATOM      4  C   UNL     1      10.741 -16.590  23.542  1.00  0.00     0.016 C 
BRANCH   3   5
ATOM      5  C   UNL     1       8.558 -15.823  22.479  1.00  0.00     0.015 C 
BRANCH   5   6
ATOM      6  C   UNL     1       7.186 -16.467  22.784  1.00  0.00     0.028 C 
BRANCH   6   7
ATOM      7  C   UNL     1       7.058 -16.853  24.241  1.00  0.00    -0.028 C 
ATOM      8  C   UNL     1       6.411 -16.162  25.211  1.00  0.00    -0.070 CG0
ATOM      9  C   UNL     1       6.350 -16.780  26.585  1.00  0.00     0.039 C 
ATOM     10  G   UNL     1       5.654 -14.869  24.973  1.00  0.00     0.000 G0
ENDBRANCH   6   7
ENDBRANCH   5   6
ENDBRANCH   3   5
ENDBRANCH   1   3
BRANCH   1  11
ATOM     11  C   UNL     1       9.041 -13.439  24.989  1.00  0.00     0.087 C 
BRANCH  11  12
ATOM     12  C   UNL     1       7.619 -13.075  24.479  1.00  0.00     0.066 C 
BRANCH  12  13
ATOM     13  C   UNL     1       6.466 -13.636  25.327  1.00  0.00     0.140 C 
ATOM     14  O   UNL     1       6.118 -13.007  26.315  1.00  0.00    -0.299 OA
BRANCH  13  15
ATOM     15  C   UNL     1       5.655 -14.868  24.975  1.00  0.00     0.106 CG0
ATOM     16  G   UNL     1       6.410 -16.163  25.203  1.00  0.00     0.000 G0
ENDBRANCH  13  15
ENDBRANCH  12  13
BRANCH  12  17
ATOM     17  C   UNL     1       7.515 -11.528  24.251  1.00  0.00    -0.006 C 
ATOM     18  C   UNL     1       8.886 -10.868  24.021  1.00  0.00     0.008 C 
ATOM     19  C   UNL     1       6.543 -11.140  23.127  1.00  0.00     0.008 C 
ENDBRANCH  12  17
ENDBRANCH  11  12
ENDBRANCH   1  11
TORSDOF 1
ENDMDL
MODEL 7
REMARK VINA RESULT:    -3.705      9.792     12.288
REMARK INTER + INTRA:          -6.066
REMARK INTER:                  -5.741
REMARK INTRA:                  -0.325
REMARK UNBOUND:                -0.411
REMARK SMILES CC1=CCC[C@@H](C)C(=O)C[C@H](C(C)C)C(=O)C1
REMARK SMILES IDX 8 1 9 2 6 3 7 4 5 5 4 6 3 7 2 8 1 9 10 11 11 12 15 13 16 14
REMARK SMILES IDX 17 15 12 17 13 18 14 19
REMARK H PARENT
REMARK Flexibility Score: 70.00
ROOT
ATOM      1  C   UNL     1       9.859 -15.693  20.250  1.00  0.00     0.136 C 
ATOM      2  O   UNL     1       9.376 -14.613  19.936  1.00  0.00    -0.299 OA
ENDROOT
BRANCH   1   3
ATOM      3  C   UNL     1      11.216 -15.744  20.937  1.00  0.00     0.053 C 
ATOM      4  C   UNL     1      12.329 -16.245  19.998  1.00  0.00     0.016 C 
BRANCH   3   5
ATOM      5  C   UNL     1      11.205 -16.546  22.263  1.00  0.00     0.015 C 
BRANCH   5   6
ATOM      6  C   UNL     1      11.880 -17.935  22.193  1.00  0.00     0.028 C 
BRANCH   6   7
ATOM      7  C   UNL     1      10.924 -19.044  22.573  1.00  0.00    -0.028 C 
ATOM      8  C   UNL     1      10.361 -19.953  21.741  1.00  0.00    -0.070 CG0
ATOM      9  C   UNL     1       9.493 -21.020  22.358  1.00  0.00     0.039 C 
ATOM     10  G   UNL     1      10.642 -20.030  20.252  1.00  0.00     0.000 G0
ENDBRANCH   6   7
ENDBRANCH   5   6
ENDBRANCH   3   5
ENDBRANCH   1   3
BRANCH   1  11
ATOM     11  C   UNL     1       9.030 -16.951  20.102  1.00  0.00     0.087 C 
BRANCH  11  12
ATOM     12  C   UNL     1       9.513 -17.921  18.987  1.00  0.00     0.066 C 
BRANCH  12  13
ATOM     13  C   UNL     1       9.548 -19.403  19.393  1.00  0.00     0.140 C 
ATOM     14  O   UNL     1       8.690 -20.146  18.939  1.00  0.00    -0.299 OA
BRANCH  13  15
ATOM     15  C   UNL     1      10.631 -20.041  20.242  1.00  0.00     0.106 CG0
ATOM     16  G   UNL     1      10.354 -19.945  21.730  1.00  0.00     0.000 G0
ENDBRANCH  13  15
ENDBRANCH  12  13
BRANCH  12  17
ATOM     17  C   UNL     1       8.703 -17.665  17.671  1.00  0.00    -0.006 C 
ATOM     18  C   UNL     1       7.212 -17.386  17.935  1.00  0.00     0.008 C 
ATOM     19  C   UNL     1       9.302 -16.559  16.789  1.00  0.00     0.008 C 
ENDBRANCH  12  17
ENDBRANCH  11  12
ENDBRANCH   1  11
TORSDOF 1
ENDMDL
MODEL 8
REMARK VINA RESULT:    -3.683     10.126     12.705
REMARK INTER + INTRA:          -6.031
REMARK INTER:                  -5.766
REMARK INTRA:                  -0.265
REMARK UNBOUND:                -0.411
REMARK SMILES CC1=CCC[C@@H](C)C(=O)C[C@H](C(C)C)C(=O)C1
REMARK SMILES IDX 8 1 9 2 6 3 7 4 5 5 4 6 3 7 2 8 1 9 10 11 11 12 15 13 16 14
REMARK SMILES IDX 17 15 12 17 13 18 14 19
REMARK H PARENT
REMARK Flexibility Score: 70.00
ROOT
ATOM      1  C   UNL     1       9.202 -18.151  22.577  1.00  0.00     0.136 C 
ATOM      2  O   UNL     1       9.242 -18.178  23.800  1.00  0.00    -0.299 OA
ENDROOT
BRANCH   1   3
ATOM      3  C   UNL     1       9.611 -19.380  21.779  1.00  0.00     0.053 C 
ATOM      4  C   UNL     1       9.552 -20.670  22.618  1.00  0.00     0.016 C 
BRANCH   3   5
ATOM      5  C   UNL     1      10.988 -19.232  21.083  1.00  0.00     0.015 C 
BRANCH   5   6
ATOM      6  C   UNL     1      10.963 -19.383  19.545  1.00  0.00     0.028 C 
BRANCH   6   7
ATOM      7  C   UNL     1       9.581 -19.145  18.979  1.00  0.00    -0.028 C 
ATOM      8  C   UNL     1       9.059 -17.960  18.580  1.00  0.00    -0.070 CG0
ATOM      9  C   UNL     1       7.678 -17.975  17.974  1.00  0.00     0.039 C 
ATOM     10  G   UNL     1       9.818 -16.647  18.600  1.00  0.00     0.000 G0
ENDBRANCH   6   7
ENDBRANCH   5   6
ENDBRANCH   3   5
ENDBRANCH   1   3
BRANCH   1  11
ATOM     11  C   UNL     1       8.590 -16.956  21.879  1.00  0.00     0.087 C 
BRANCH  11  12
ATOM     12  C   UNL     1       9.616 -15.987  21.227  1.00  0.00     0.066 C 
BRANCH  12  13
ATOM     13  C   UNL     1       9.384 -15.713  19.733  1.00  0.00     0.140 C 
ATOM     14  O   UNL     1       8.885 -14.644  19.413  1.00  0.00    -0.299 OA
BRANCH  13  15
ATOM     15  C   UNL     1       9.822 -16.631  18.608  1.00  0.00     0.106 CG0
ATOM     16  G   UNL     1       9.071 -17.949  18.589  1.00  0.00     0.000 G0
ENDBRANCH  13  15
ENDBRANCH  12  13
BRANCH  12  17
ATOM     17  C   UNL     1       9.726 -14.677  22.080  1.00  0.00    -0.006 C 
ATOM     18  C   UNL     1       8.406 -14.312  22.783  1.00  0.00     0.008 C 
ATOM     19  C   UNL     1      10.878 -14.704  23.096  1.00  0.00     0.008 C 
ENDBRANCH  12  17
ENDBRANCH  11  12
ENDBRANCH   1  11
TORSDOF 1
ENDMDL
MODEL 9
REMARK VINA RESULT:    -3.542     11.075     13.975
REMARK INTER + INTRA:          -5.816
REMARK INTER:                  -5.451
REMARK INTRA:                  -0.365
REMARK UNBOUND:                -0.411
REMARK SMILES CC1=CCC[C@@H](C)C(=O)C[C@H](C(C)C)C(=O)C1
REMARK SMILES IDX 8 1 9 2 6 3 7 4 5 5 4 6 3 7 2 8 1 9 10 11 11 12 15 13 16 14
REMARK SMILES IDX 17 15 12 17 13 18 14 19
REMARK H PARENT
REMARK Flexibility Score: 70.00
ROOT
ATOM      1  C   UNL     1      10.812 -19.274  19.748  1.00  0.00     0.136 C 
ATOM      2  O   UNL     1      10.556 -20.254  20.435  1.00  0.00    -0.299 OA
ENDROOT
BRANCH   1   3
ATOM      3  C   UNL     1      12.233 -18.732  19.703  1.00  0.00     0.053 C 
ATOM      4  C   UNL     1      13.289 -19.850  19.775  1.00  0.00     0.016 C 
BRANCH   3   5
ATOM      5  C   UNL     1      12.509 -17.637  20.765  1.00  0.00     0.015 C 
BRANCH   5   6
ATOM      6  C   UNL     1      12.455 -16.186  20.237  1.00  0.00     0.028 C 
BRANCH   6   7
ATOM      7  C   UNL     1      12.630 -16.126  18.736  1.00  0.00    -0.028 C 
ATOM      8  C   UNL     1      11.722 -15.696  17.827  1.00  0.00    -0.070 CG0
ATOM      9  C   UNL     1      12.147 -15.655  16.381  1.00  0.00     0.039 C 
ATOM     10  G   UNL     1      10.353 -15.150  18.187  1.00  0.00     0.000 G0
ENDBRANCH   6   7
ENDBRANCH   5   6
ENDBRANCH   3   5
ENDBRANCH   1   3
BRANCH   1  11
ATOM     11  C   UNL     1       9.751 -18.713  18.826  1.00  0.00     0.087 C 
BRANCH  11  12
ATOM     12  C   UNL     1       9.167 -17.340  19.264  1.00  0.00     0.066 C 
BRANCH  12  13
ATOM     13  C   UNL     1       9.272 -16.229  18.208  1.00  0.00     0.140 C 
ATOM     14  O   UNL     1       8.388 -16.146  17.368  1.00  0.00    -0.299 OA
BRANCH  13  15
ATOM     15  C   UNL     1      10.343 -15.156  18.187  1.00  0.00     0.106 CG0
ATOM     16  G   UNL     1      11.714 -15.692  17.819  1.00  0.00     0.000 G0
ENDBRANCH  13  15
ENDBRANCH  12  13
BRANCH  12  17
ATOM     17  C   UNL     1       7.711 -17.532  19.810  1.00  0.00    -0.006 C 
ATOM     18  C   UNL     1       7.011 -18.767  19.216  1.00  0.00     0.008 C 
ATOM     19  C   UNL     1       7.632 -17.563  21.344  1.00  0.00     0.008 C 
ENDBRANCH  12  17
ENDBRANCH  11  12
ENDBRANCH   1  11
TORSDOF 1
ENDMDL
