MODEL 1
REMARK VINA RESULT:    -3.416      0.000      0.000
REMARK INTER + INTRA:          -4.126
REMARK INTER:                  -4.016
REMARK INTRA:                  -0.111
REMARK UNBOUND:                -0.111
REMARK SMILES CCCCC(=O)[O-]
REMARK SMILES IDX 4 1 5 2 6 3 7 4 3 5 2 6 1 7
REMARK H PARENT
REMARK Flexibility Score: inf
ROOT
ATOM      1  C   UNL     1      -3.686  11.839  -8.447  1.00  0.00     0.053 C 
ENDROOT
BRANCH   1   2
ATOM      2  C   UNL     1      -3.501  11.833  -6.963  1.00  0.00     0.041 C 
ATOM      3  O   UNL     1      -2.365  11.615  -6.467  1.00  0.00    -0.550 OA
ATOM      4  O   UNL     1      -4.574  12.117  -6.127  1.00  0.00    -0.550 OA
ENDBRANCH   1   2
BRANCH   1   5
ATOM      5  C   UNL     1      -4.111  10.453  -8.940  1.00  0.00     0.006 C 
BRANCH   5   6
ATOM      6  C   UNL     1      -5.637  10.354  -9.054  1.00  0.00    -0.003 C 
ATOM      7  C   UNL     1      -6.215   9.472  -7.951  1.00  0.00     0.004 C 
ENDBRANCH   5   6
ENDBRANCH   1   5
TORSDOF 3
ENDMDL
MODEL 2
REMARK VINA RESULT:    -3.373      2.026      3.436
REMARK INTER + INTRA:          -4.075
REMARK INTER:                  -3.967
REMARK INTRA:                  -0.108
REMARK UNBOUND:                -0.111
REMARK SMILES CCCCC(=O)[O-]
REMARK SMILES IDX 4 1 5 2 6 3 7 4 3 5 2 6 1 7
REMARK H PARENT
REMARK Flexibility Score: inf
ROOT
ATOM      1  C   UNL     1      -5.958   9.399  -7.783  1.00  0.00     0.053 C 
ENDROOT
BRANCH   1   2
ATOM      2  C   UNL     1      -6.948  10.003  -6.839  1.00  0.00     0.041 C 
ATOM      3  O   UNL     1      -6.809  11.192  -6.450  1.00  0.00    -0.550 OA
ATOM      4  O   UNL     1      -8.052   9.268  -6.425  1.00  0.00    -0.550 OA
ENDBRANCH   1   2
BRANCH   1   5
ATOM      5  C   UNL     1      -5.676  10.354  -8.947  1.00  0.00     0.006 C 
BRANCH   5   6
ATOM      6  C   UNL     1      -4.169  10.574  -9.125  1.00  0.00    -0.003 C 
ATOM      7  C   UNL     1      -3.621  11.519  -8.060  1.00  0.00     0.004 C 
ENDBRANCH   5   6
ENDBRANCH   1   5
TORSDOF 3
ENDMDL
MODEL 3
REMARK VINA RESULT:    -3.349      1.986      3.492
REMARK INTER + INTRA:          -4.047
REMARK INTER:                  -3.940
REMARK INTRA:                  -0.106
REMARK UNBOUND:                -0.111
REMARK SMILES CCCCC(=O)[O-]
REMARK SMILES IDX 4 1 5 2 6 3 7 4 3 5 2 6 1 7
REMARK H PARENT
REMARK Flexibility Score: inf
ROOT
ATOM      1  C   UNL     1      -6.027   9.346  -7.848  1.00  0.00     0.053 C 
ENDROOT
BRANCH   1   2
ATOM      2  C   UNL     1      -6.969   9.933  -6.845  1.00  0.00     0.041 C 
ATOM      3  O   UNL     1      -7.901   9.234  -6.367  1.00  0.00    -0.550 OA
ATOM      4  O   UNL     1      -6.789  11.237  -6.401  1.00  0.00    -0.550 OA
ENDBRANCH   1   2
BRANCH   1   5
ATOM      5  C   UNL     1      -5.683  10.377  -8.927  1.00  0.00     0.006 C 
BRANCH   5   6
ATOM      6  C   UNL     1      -4.165  10.521  -9.084  1.00  0.00    -0.003 C 
ATOM      7  C   UNL     1      -3.591  11.472  -8.038  1.00  0.00     0.004 C 
ENDBRANCH   5   6
ENDBRANCH   1   5
TORSDOF 3
ENDMDL
MODEL 4
REMARK VINA RESULT:    -3.297     17.574     18.339
REMARK INTER + INTRA:          -3.986
REMARK INTER:                  -3.951
REMARK INTRA:                  -0.035
REMARK UNBOUND:                -0.111
REMARK SMILES CCCCC(=O)[O-]
REMARK SMILES IDX 4 1 5 2 6 3 7 4 3 5 2 6 1 7
REMARK H PARENT
REMARK Flexibility Score: inf
ROOT
ATOM      1  C   UNL     1       3.235  10.459   7.971  1.00  0.00     0.053 C 
ENDROOT
BRANCH   1   2
ATOM      2  C   UNL     1       4.557   9.761   7.991  1.00  0.00     0.041 C 
ATOM      3  O   UNL     1       4.846   8.976   8.932  1.00  0.00    -0.550 OA
ATOM      4  O   UNL     1       5.454   9.940   6.944  1.00  0.00    -0.550 OA
ENDBRANCH   1   2
BRANCH   1   5
ATOM      5  C   UNL     1       3.137  11.454   9.132  1.00  0.00     0.006 C 
BRANCH   5   6
ATOM      6  C   UNL     1       1.788  11.329   9.850  1.00  0.00    -0.003 C 
ATOM      7  C   UNL     1       1.001  12.634   9.772  1.00  0.00     0.004 C 
ENDBRANCH   5   6
ENDBRANCH   1   5
TORSDOF 3
ENDMDL
MODEL 5
REMARK VINA RESULT:    -3.284     16.307     17.279
REMARK INTER + INTRA:          -3.970
REMARK INTER:                  -3.946
REMARK INTRA:                  -0.024
REMARK UNBOUND:                -0.111
REMARK SMILES CCCCC(=O)[O-]
REMARK SMILES IDX 4 1 5 2 6 3 7 4 3 5 2 6 1 7
REMARK H PARENT
REMARK Flexibility Score: inf
ROOT
ATOM      1  C   UNL     1       5.533  10.445   6.741  1.00  0.00     0.053 C 
ENDROOT
BRANCH   1   2
ATOM      2  C   UNL     1       4.501   9.867   7.656  1.00  0.00     0.041 C 
ATOM      3  O   UNL     1       3.276  10.036   7.416  1.00  0.00    -0.550 OA
ATOM      4  O   UNL     1       4.889   9.101   8.748  1.00  0.00    -0.550 OA
ENDBRANCH   1   2
BRANCH   1   5
ATOM      5  C   UNL     1       4.878  10.980   5.464  1.00  0.00     0.006 C 
BRANCH   5   6
ATOM      6  C   UNL     1       5.935  11.482   4.474  1.00  0.00    -0.003 C 
ATOM      7  C   UNL     1       6.467  12.852   4.883  1.00  0.00     0.004 C 
ENDBRANCH   5   6
ENDBRANCH   1   5
TORSDOF 3
ENDMDL
MODEL 6
REMARK VINA RESULT:    -3.159     16.998     18.069
REMARK INTER + INTRA:          -3.824
REMARK INTER:                  -3.790
REMARK INTRA:                  -0.034
REMARK UNBOUND:                -0.111
REMARK SMILES CCCCC(=O)[O-]
REMARK SMILES IDX 4 1 5 2 6 3 7 4 3 5 2 6 1 7
REMARK H PARENT
REMARK Flexibility Score: inf
ROOT
ATOM      1  C   UNL     1       4.869  11.265   7.923  1.00  0.00     0.053 C 
ENDROOT
BRANCH   1   2
ATOM      2  C   UNL     1       4.612  10.263   9.003  1.00  0.00     0.041 C 
ATOM      3  O   UNL     1       4.810   9.038   8.791  1.00  0.00    -0.550 OA
ATOM      4  O   UNL     1       4.198  10.685  10.261  1.00  0.00    -0.550 OA
ENDBRANCH   1   2
BRANCH   1   5
ATOM      5  C   UNL     1       5.681  10.633   6.789  1.00  0.00     0.006 C 
BRANCH   5   6
ATOM      6  C   UNL     1       5.194  11.128   5.422  1.00  0.00    -0.003 C 
ATOM      7  C   UNL     1       6.305  11.051   4.380  1.00  0.00     0.004 C 
ENDBRANCH   5   6
ENDBRANCH   1   5
TORSDOF 3
ENDMDL
MODEL 7
REMARK VINA RESULT:    -3.044      2.321      3.177
REMARK INTER + INTRA:          -3.688
REMARK INTER:                  -3.662
REMARK INTRA:                  -0.026
REMARK UNBOUND:                -0.111
REMARK SMILES CCCCC(=O)[O-]
REMARK SMILES IDX 4 1 5 2 6 3 7 4 3 5 2 6 1 7
REMARK H PARENT
REMARK Flexibility Score: inf
ROOT
ATOM      1  C   UNL     1      -6.105   9.674  -7.925  1.00  0.00     0.053 C 
ENDROOT
BRANCH   1   2
ATOM      2  C   UNL     1      -4.818  10.417  -8.090  1.00  0.00     0.041 C 
ATOM      3  O   UNL     1      -4.119  10.253  -9.125  1.00  0.00    -0.550 OA
ATOM      4  O   UNL     1      -4.411  11.328  -7.122  1.00  0.00    -0.550 OA
ENDBRANCH   1   2
BRANCH   1   5
ATOM      5  C   UNL     1      -6.996  10.368  -6.891  1.00  0.00     0.006 C 
BRANCH   5   6
ATOM      6  C   UNL     1      -7.892   9.354  -6.169  1.00  0.00    -0.003 C 
ATOM      7  C   UNL     1      -9.174  10.012  -5.667  1.00  0.00     0.004 C 
ENDBRANCH   5   6
ENDBRANCH   1   5
TORSDOF 3
ENDMDL
MODEL 8
REMARK VINA RESULT:    -3.026      2.894      4.056
REMARK INTER + INTRA:          -3.667
REMARK INTER:                  -3.649
REMARK INTRA:                  -0.018
REMARK UNBOUND:                -0.111
REMARK SMILES CCCCC(=O)[O-]
REMARK SMILES IDX 4 1 5 2 6 3 7 4 3 5 2 6 1 7
REMARK H PARENT
REMARK Flexibility Score: inf
ROOT
ATOM      1  C   UNL     1      -7.378  10.463  -6.521  1.00  0.00     0.053 C 
ENDROOT
BRANCH   1   2
ATOM      2  C   UNL     1      -5.931  10.501  -6.897  1.00  0.00     0.041 C 
ATOM      3  O   UNL     1      -5.147  11.300  -6.321  1.00  0.00    -0.550 OA
ATOM      4  O   UNL     1      -5.437   9.620  -7.852  1.00  0.00    -0.550 OA
ENDBRANCH   1   2
BRANCH   1   5
ATOM      5  C   UNL     1      -7.888   9.019  -6.497  1.00  0.00     0.006 C 
BRANCH   5   6
ATOM      6  C   UNL     1      -8.926   8.822  -5.386  1.00  0.00    -0.003 C 
ATOM      7  C   UNL     1      -9.652   7.489  -5.541  1.00  0.00     0.004 C 
ENDBRANCH   5   6
ENDBRANCH   1   5
TORSDOF 3
ENDMDL
MODEL 9
REMARK VINA RESULT:    -2.964     16.493     17.337
REMARK INTER + INTRA:          -3.594
REMARK INTER:                  -3.556
REMARK INTRA:                  -0.039
REMARK UNBOUND:                -0.111
REMARK SMILES CCCCC(=O)[O-]
REMARK SMILES IDX 4 1 5 2 6 3 7 4 3 5 2 6 1 7
REMARK H PARENT
REMARK Flexibility Score: inf
ROOT
ATOM      1  C   UNL     1       5.911  10.355   6.605  1.00  0.00     0.053 C 
ENDROOT
BRANCH   1   2
ATOM      2  C   UNL     1       6.649  10.698   5.351  1.00  0.00     0.041 C 
ATOM      3  O   UNL     1       7.906  10.777   5.356  1.00  0.00    -0.550 OA
ATOM      4  O   UNL     1       5.953  10.884   4.162  1.00  0.00    -0.550 OA
ENDBRANCH   1   2
BRANCH   1   5
ATOM      5  C   UNL     1       4.411  10.618   6.434  1.00  0.00     0.006 C 
BRANCH   5   6
ATOM      6  C   UNL     1       3.631  10.180   7.679  1.00  0.00    -0.003 C 
ATOM      7  C   UNL     1       4.488   9.301   8.584  1.00  0.00     0.004 C 
ENDBRANCH   5   6
ENDBRANCH   1   5
TORSDOF 3
ENDMDL
