MODEL 1
REMARK VINA RESULT:    -3.520      0.000      0.000
REMARK INTER + INTRA:          -4.901
REMARK INTER:                  -4.652
REMARK INTRA:                  -0.249
REMARK UNBOUND:                -0.249
REMARK SMILES CCCCCCCO
REMARK SMILES IDX 5 1 4 2 3 3 2 4 1 5 6 6 7 7 8 8
REMARK H PARENT 8 9
REMARK Flexibility Score: inf
ROOT
ATOM      1  C   UNL     1      28.984   2.736  23.579  1.00  0.00     0.002 C 
ENDROOT
BRANCH   1   2
ATOM      2  C   UNL     1      29.422   1.436  22.894  1.00  0.00     0.000 C 
BRANCH   2   3
ATOM      3  C   UNL     1      29.902   0.406  23.923  1.00  0.00    -0.000 C 
BRANCH   3   4
ATOM      4  C   UNL     1      31.141  -0.342  23.416  1.00  0.00    -0.003 C 
ATOM      5  C   UNL     1      32.416   0.442  23.711  1.00  0.00     0.004 C 
ENDBRANCH   3   4
ENDBRANCH   2   3
ENDBRANCH   1   2
BRANCH   1   6
ATOM      6  C   UNL     1      29.440   2.767  25.044  1.00  0.00     0.028 C 
BRANCH   6   7
ATOM      7  C   UNL     1      29.596   4.199  25.560  1.00  0.00     0.156 C 
BRANCH   7   8
ATOM      8  O   UNL     1      28.978   5.098  24.681  1.00  0.00    -0.396 OA
ATOM      9  H   UNL     1      29.666   5.776  24.454  1.00  0.00     0.210 HD
ENDBRANCH   7   8
ENDBRANCH   6   7
ENDBRANCH   1   6
TORSDOF 6
ENDMDL
MODEL 2
REMARK VINA RESULT:    -3.389      1.201      1.901
REMARK INTER + INTRA:          -4.728
REMARK INTER:                  -4.526
REMARK INTRA:                  -0.202
REMARK UNBOUND:                -0.249
REMARK SMILES CCCCCCCO
REMARK SMILES IDX 5 1 4 2 3 3 2 4 1 5 6 6 7 7 8 8
REMARK H PARENT 8 9
REMARK Flexibility Score: inf
ROOT
ATOM      1  C   UNL     1      28.652   2.605  23.828  1.00  0.00     0.002 C 
ENDROOT
BRANCH   1   2
ATOM      2  C   UNL     1      29.422   1.934  22.684  1.00  0.00     0.000 C 
BRANCH   2   3
ATOM      3  C   UNL     1      29.906   0.537  23.091  1.00  0.00    -0.000 C 
BRANCH   3   4
ATOM      4  C   UNL     1      29.082  -0.554  22.397  1.00  0.00    -0.003 C 
ATOM      5  C   UNL     1      28.533  -0.064  21.061  1.00  0.00     0.004 C 
ENDBRANCH   3   4
ENDBRANCH   2   3
ENDBRANCH   1   2
BRANCH   1   6
ATOM      6  C   UNL     1      29.522   2.711  25.088  1.00  0.00     0.028 C 
BRANCH   6   7
ATOM      7  C   UNL     1      29.662   4.158  25.561  1.00  0.00     0.156 C 
BRANCH   7   8
ATOM      8  O   UNL     1      29.029   5.024  24.660  1.00  0.00    -0.396 OA
ATOM      9  H   UNL     1      28.140   4.624  24.474  1.00  0.00     0.210 HD
ENDBRANCH   7   8
ENDBRANCH   6   7
ENDBRANCH   1   6
TORSDOF 6
ENDMDL
MODEL 3
REMARK VINA RESULT:    -3.305      8.119      9.347
REMARK INTER + INTRA:          -4.616
REMARK INTER:                  -4.376
REMARK INTRA:                  -0.241
REMARK UNBOUND:                -0.249
REMARK SMILES CCCCCCCO
REMARK SMILES IDX 5 1 4 2 3 3 2 4 1 5 6 6 7 7 8 8
REMARK H PARENT 8 9
REMARK Flexibility Score: inf
ROOT
ATOM      1  C   UNL     1      26.575  -2.307  18.081  1.00  0.00     0.002 C 
ENDROOT
BRANCH   1   2
ATOM      2  C   UNL     1      26.701  -2.917  16.680  1.00  0.00     0.000 C 
BRANCH   2   3
ATOM      3  C   UNL     1      25.416  -2.710  15.871  1.00  0.00    -0.000 C 
BRANCH   3   4
ATOM      4  C   UNL     1      24.517  -3.950  15.939  1.00  0.00    -0.003 C 
ATOM      5  C   UNL     1      23.111  -3.585  16.407  1.00  0.00     0.004 C 
ENDBRANCH   3   4
ENDBRANCH   2   3
ENDBRANCH   1   2
BRANCH   1   6
ATOM      6  C   UNL     1      25.973  -0.896  18.015  1.00  0.00     0.028 C 
BRANCH   6   7
ATOM      7  C   UNL     1      27.056   0.177  17.890  1.00  0.00     0.156 C 
BRANCH   7   8
ATOM      8  O   UNL     1      27.024   1.027  19.004  1.00  0.00    -0.396 OA
ATOM      9  H   UNL     1      27.616   1.791  18.782  1.00  0.00     0.210 HD
ENDBRANCH   7   8
ENDBRANCH   6   7
ENDBRANCH   1   6
TORSDOF 6
ENDMDL
MODEL 4
REMARK VINA RESULT:    -3.294      8.277      9.285
REMARK INTER + INTRA:          -4.602
REMARK INTER:                  -4.460
REMARK INTRA:                  -0.141
REMARK UNBOUND:                -0.249
REMARK SMILES CCCCCCCO
REMARK SMILES IDX 5 1 4 2 3 3 2 4 1 5 6 6 7 7 8 8
REMARK H PARENT 8 9
REMARK Flexibility Score: inf
ROOT
ATOM      1  C   UNL     1      25.868  -1.846  17.500  1.00  0.00     0.002 C 
ENDROOT
BRANCH   1   2
ATOM      2  C   UNL     1      25.600  -2.271  16.051  1.00  0.00     0.000 C 
BRANCH   2   3
ATOM      3  C   UNL     1      24.521  -3.359  15.988  1.00  0.00    -0.000 C 
BRANCH   3   4
ATOM      4  C   UNL     1      25.152  -4.755  15.910  1.00  0.00    -0.003 C 
ATOM      5  C   UNL     1      26.471  -4.721  15.144  1.00  0.00     0.004 C 
ENDBRANCH   3   4
ENDBRANCH   2   3
ENDBRANCH   1   2
BRANCH   1   6
ATOM      6  C   UNL     1      26.780  -0.611  17.550  1.00  0.00     0.028 C 
BRANCH   6   7
ATOM      7  C   UNL     1      26.995  -0.124  18.984  1.00  0.00     0.156 C 
BRANCH   7   8
ATOM      8  O   UNL     1      27.128   1.270  19.005  1.00  0.00    -0.396 OA
ATOM      9  H   UNL     1      27.855   1.466  19.652  1.00  0.00     0.210 HD
ENDBRANCH   7   8
ENDBRANCH   6   7
ENDBRANCH   1   6
TORSDOF 6
ENDMDL
MODEL 5
REMARK VINA RESULT:    -3.249      2.519      3.650
REMARK INTER + INTRA:          -4.543
REMARK INTER:                  -4.353
REMARK INTRA:                  -0.190
REMARK UNBOUND:                -0.249
REMARK SMILES CCCCCCCO
REMARK SMILES IDX 5 1 4 2 3 3 2 4 1 5 6 6 7 7 8 8
REMARK H PARENT 8 9
REMARK Flexibility Score: inf
ROOT
ATOM      1  C   UNL     1      29.273   1.516  25.717  1.00  0.00     0.002 C 
ENDROOT
BRANCH   1   2
ATOM      2  C   UNL     1      28.022   0.687  25.401  1.00  0.00     0.000 C 
BRANCH   2   3
ATOM      3  C   UNL     1      27.263   1.271  24.203  1.00  0.00    -0.000 C 
BRANCH   3   4
ATOM      4  C   UNL     1      25.921   0.557  24.001  1.00  0.00    -0.003 C 
ATOM      5  C   UNL     1      25.160   0.434  25.318  1.00  0.00     0.004 C 
ENDBRANCH   3   4
ENDBRANCH   2   3
ENDBRANCH   1   2
BRANCH   1   6
ATOM      6  C   UNL     1      29.444   2.661  24.710  1.00  0.00     0.028 C 
BRANCH   6   7
ATOM      7  C   UNL     1      29.530   4.020  25.406  1.00  0.00     0.156 C 
BRANCH   7   8
ATOM      8  O   UNL     1      28.985   5.017  24.587  1.00  0.00    -0.396 OA
ATOM      9  H   UNL     1      28.501   4.542  23.862  1.00  0.00     0.210 HD
ENDBRANCH   7   8
ENDBRANCH   6   7
ENDBRANCH   1   6
TORSDOF 6
ENDMDL
MODEL 6
REMARK VINA RESULT:    -3.084      8.760     10.197
REMARK INTER + INTRA:          -4.324
REMARK INTER:                  -4.205
REMARK INTRA:                  -0.119
REMARK UNBOUND:                -0.249
REMARK SMILES CCCCCCCO
REMARK SMILES IDX 5 1 4 2 3 3 2 4 1 5 6 6 7 7 8 8
REMARK H PARENT 8 9
REMARK Flexibility Score: inf
ROOT
ATOM      1  C   UNL     1      25.740  -3.265  15.849  1.00  0.00     0.002 C 
ENDROOT
BRANCH   1   2
ATOM      2  C   UNL     1      26.385  -2.688  17.114  1.00  0.00     0.000 C 
BRANCH   2   3
ATOM      3  C   UNL     1      25.792  -1.317  17.459  1.00  0.00    -0.000 C 
BRANCH   3   4
ATOM      4  C   UNL     1      26.897  -0.270  17.643  1.00  0.00    -0.003 C 
ATOM      5  C   UNL     1      27.077   0.088  19.115  1.00  0.00     0.004 C 
ENDBRANCH   3   4
ENDBRANCH   2   3
ENDBRANCH   1   2
BRANCH   1   6
ATOM      6  C   UNL     1      26.617  -4.367  15.237  1.00  0.00     0.028 C 
BRANCH   6   7
ATOM      7  C   UNL     1      27.819  -4.692  16.124  1.00  0.00     0.156 C 
BRANCH   7   8
ATOM      8  O   UNL     1      29.012  -4.455  15.428  1.00  0.00    -0.396 OA
ATOM      9  H   UNL     1      29.745  -4.640  16.070  1.00  0.00     0.210 HD
ENDBRANCH   7   8
ENDBRANCH   6   7
ENDBRANCH   1   6
TORSDOF 6
ENDMDL
MODEL 7
REMARK VINA RESULT:    -3.068      3.522      4.978
REMARK INTER + INTRA:          -4.303
REMARK INTER:                  -4.141
REMARK INTRA:                  -0.162
REMARK UNBOUND:                -0.249
REMARK SMILES CCCCCCCO
REMARK SMILES IDX 5 1 4 2 3 3 2 4 1 5 6 6 7 7 8 8
REMARK H PARENT 8 9
REMARK Flexibility Score: inf
ROOT
ATOM      1  C   UNL     1      28.642  -0.056  20.995  1.00  0.00     0.002 C 
ENDROOT
BRANCH   1   2
ATOM      2  C   UNL     1      29.050  -0.596  22.372  1.00  0.00     0.000 C 
BRANCH   2   3
ATOM      3  C   UNL     1      29.728   0.492  23.212  1.00  0.00    -0.000 C 
BRANCH   3   4
ATOM      4  C   UNL     1      29.278   1.890  22.768  1.00  0.00    -0.003 C 
ATOM      5  C   UNL     1      29.188   2.842  23.957  1.00  0.00     0.004 C 
ENDBRANCH   3   4
ENDBRANCH   2   3
ENDBRANCH   1   2
BRANCH   1   6
ATOM      6  C   UNL     1      27.242  -0.548  20.603  1.00  0.00     0.028 C 
BRANCH   6   7
ATOM      7  C   UNL     1      26.878  -0.143  19.174  1.00  0.00     0.156 C 
BRANCH   7   8
ATOM      8  O   UNL     1      27.111   1.225  18.986  1.00  0.00    -0.396 OA
ATOM      9  H   UNL     1      26.225   1.630  18.799  1.00  0.00     0.210 HD
ENDBRANCH   7   8
ENDBRANCH   6   7
ENDBRANCH   1   6
TORSDOF 6
ENDMDL
MODEL 8
REMARK VINA RESULT:    -3.068      9.229     10.488
REMARK INTER + INTRA:          -4.303
REMARK INTER:                  -4.122
REMARK INTRA:                  -0.181
REMARK UNBOUND:                -0.249
REMARK SMILES CCCCCCCO
REMARK SMILES IDX 5 1 4 2 3 3 2 4 1 5 6 6 7 7 8 8
REMARK H PARENT 8 9
REMARK Flexibility Score: inf
ROOT
ATOM      1  C   UNL     1      24.872  -2.645  16.006  1.00  0.00     0.002 C 
ENDROOT
BRANCH   1   2
ATOM      2  C   UNL     1      26.340  -2.915  16.357  1.00  0.00     0.000 C 
BRANCH   2   3
ATOM      3  C   UNL     1      26.684  -2.370  17.748  1.00  0.00    -0.000 C 
BRANCH   3   4
ATOM      4  C   UNL     1      26.056  -0.988  17.967  1.00  0.00    -0.003 C 
ATOM      5  C   UNL     1      27.091   0.119  17.795  1.00  0.00     0.004 C 
ENDBRANCH   3   4
ENDBRANCH   2   3
ENDBRANCH   1   2
BRANCH   1   6
ATOM      6  C   UNL     1      24.042  -3.934  16.076  1.00  0.00     0.028 C 
BRANCH   6   7
ATOM      7  C   UNL     1      22.786  -3.755  16.929  1.00  0.00     0.156 C 
BRANCH   7   8
ATOM      8  O   UNL     1      21.785  -3.117  16.186  1.00  0.00    -0.396 OA
ATOM      9  H   UNL     1      22.151  -2.229  15.938  1.00  0.00     0.210 HD
ENDBRANCH   7   8
ENDBRANCH   6   7
ENDBRANCH   1   6
TORSDOF 6
ENDMDL
MODEL 9
REMARK VINA RESULT:    -3.027      4.467      5.720
REMARK INTER + INTRA:          -4.250
REMARK INTER:                  -4.030
REMARK INTRA:                  -0.220
REMARK UNBOUND:                -0.249
REMARK SMILES CCCCCCCO
REMARK SMILES IDX 5 1 4 2 3 3 2 4 1 5 6 6 7 7 8 8
REMARK H PARENT 8 9
REMARK Flexibility Score: inf
ROOT
ATOM      1  C   UNL     1      27.417  -0.819  21.239  1.00  0.00     0.002 C 
ENDROOT
BRANCH   1   2
ATOM      2  C   UNL     1      26.517  -0.681  20.005  1.00  0.00     0.000 C 
BRANCH   2   3
ATOM      3  C   UNL     1      27.086   0.347  19.020  1.00  0.00    -0.000 C 
BRANCH   3   4
ATOM      4  C   UNL     1      27.074  -0.199  17.587  1.00  0.00    -0.003 C 
ATOM      5  C   UNL     1      26.372  -1.553  17.520  1.00  0.00     0.004 C 
ENDBRANCH   3   4
ENDBRANCH   2   3
ENDBRANCH   1   2
BRANCH   1   6
ATOM      6  C   UNL     1      28.568   0.197  21.197  1.00  0.00     0.028 C 
BRANCH   6   7
ATOM      7  C   UNL     1      28.823   0.822  22.569  1.00  0.00     0.156 C 
BRANCH   7   8
ATOM      8  O   UNL     1      29.651   1.944  22.442  1.00  0.00    -0.396 OA
ATOM      9  H   UNL     1      29.652   2.176  21.477  1.00  0.00     0.210 HD
ENDBRANCH   7   8
ENDBRANCH   6   7
ENDBRANCH   1   6
TORSDOF 6
ENDMDL
