MODEL 1
REMARK VINA RESULT:    -5.219      0.000      0.000
REMARK INTER + INTRA:          -5.705
REMARK INTER:                  -5.677
REMARK INTRA:                  -0.028
REMARK UNBOUND:                -0.028
REMARK SMILES O=C([O-])c1ccc(O)cc1
REMARK SMILES IDX 4 1 5 2 10 3 6 4 9 5 7 6 2 7 1 8 3 9 8 10
REMARK H PARENT 8 11
REMARK Flexibility Score: inf
ROOT
ATOM      1  C   UNL     1      37.324  42.502  49.430  1.00  0.00    -0.003 A 
ATOM      2  C   UNL     1      37.652  42.265  48.082  1.00  0.00     0.014 A 
ATOM      3  C   UNL     1      36.017  42.911  49.750  1.00  0.00     0.014 A 
ATOM      4  C   UNL     1      36.693  42.434  47.079  1.00  0.00     0.047 A 
ATOM      5  C   UNL     1      35.060  43.079  48.744  1.00  0.00     0.047 A 
ATOM      6  C   UNL     1      35.393  42.840  47.408  1.00  0.00     0.115 A 
ENDROOT
BRANCH   1   7
ATOM      7  C   UNL     1      38.334  42.325  50.496  1.00  0.00     0.071 C 
ATOM      8  O   UNL     1      38.771  43.319  51.134  1.00  0.00    -0.545 OA
ATOM      9  O   UNL     1      38.815  41.059  50.808  1.00  0.00    -0.545 OA
ENDBRANCH   1   7
BRANCH   6  10
ATOM     10  O   UNL     1      34.430  43.012  46.417  1.00  0.00    -0.508 OA
ATOM     11  H   UNL     1      34.687  43.123  45.442  1.00  0.00     0.293 HD
ENDBRANCH   6  10
TORSDOF 2
ENDMDL
MODEL 2
REMARK VINA RESULT:    -5.215      0.053      1.532
REMARK INTER + INTRA:          -5.701
REMARK INTER:                  -5.673
REMARK INTRA:                  -0.028
REMARK UNBOUND:                -0.028
REMARK SMILES O=C([O-])c1ccc(O)cc1
REMARK SMILES IDX 4 1 5 2 10 3 6 4 9 5 7 6 2 7 1 8 3 9 8 10
REMARK H PARENT 8 11
REMARK Flexibility Score: inf
ROOT
ATOM      1  C   UNL     1      37.300  42.502  49.437  1.00  0.00    -0.003 A 
ATOM      2  C   UNL     1      36.002  42.930  49.771  1.00  0.00     0.014 A 
ATOM      3  C   UNL     1      37.615  42.274  48.085  1.00  0.00     0.014 A 
ATOM      4  C   UNL     1      35.041  43.125  48.773  1.00  0.00     0.047 A 
ATOM      5  C   UNL     1      36.652  42.470  47.090  1.00  0.00     0.047 A 
ATOM      6  C   UNL     1      35.365  42.896  47.430  1.00  0.00     0.115 A 
ENDROOT
BRANCH   1   7
ATOM      7  C   UNL     1      38.320  42.294  50.487  1.00  0.00     0.071 C 
ATOM      8  O   UNL     1      38.790  43.272  51.126  1.00  0.00    -0.545 OA
ATOM      9  O   UNL     1      38.775  41.014  50.783  1.00  0.00    -0.545 OA
ENDBRANCH   1   7
BRANCH   6  10
ATOM     10  O   UNL     1      34.416  43.087  46.427  1.00  0.00    -0.508 OA
ATOM     11  H   UNL     1      33.570  42.529  46.386  1.00  0.00     0.293 HD
ENDBRANCH   6  10
TORSDOF 2
ENDMDL
MODEL 3
REMARK VINA RESULT:    -5.037      3.470      5.086
REMARK INTER + INTRA:          -5.506
REMARK INTER:                  -5.479
REMARK INTRA:                  -0.027
REMARK UNBOUND:                -0.028
REMARK SMILES O=C([O-])c1ccc(O)cc1
REMARK SMILES IDX 4 1 5 2 10 3 6 4 9 5 7 6 2 7 1 8 3 9 8 10
REMARK H PARENT 8 11
REMARK Flexibility Score: inf
ROOT
ATOM      1  C   UNL     1      34.060  44.207  46.242  1.00  0.00    -0.003 A 
ATOM      2  C   UNL     1      32.686  43.936  46.112  1.00  0.00     0.014 A 
ATOM      3  C   UNL     1      34.773  44.666  45.119  1.00  0.00     0.014 A 
ATOM      4  C   UNL     1      32.040  44.121  44.885  1.00  0.00     0.047 A 
ATOM      5  C   UNL     1      34.124  44.850  43.895  1.00  0.00     0.047 A 
ATOM      6  C   UNL     1      32.759  44.580  43.774  1.00  0.00     0.115 A 
ENDROOT
BRANCH   1   7
ATOM      7  C   UNL     1      34.750  44.013  47.536  1.00  0.00     0.071 C 
ATOM      8  O   UNL     1      34.920  44.983  48.322  1.00  0.00    -0.545 OA
ATOM      9  O   UNL     1      35.219  42.758  47.904  1.00  0.00    -0.545 OA
ENDBRANCH   1   7
BRANCH   6  10
ATOM     10  O   UNL     1      32.125  44.768  42.546  1.00  0.00    -0.508 OA
ATOM     11  H   UNL     1      32.406  44.250  41.721  1.00  0.00     0.293 HD
ENDBRANCH   6  10
TORSDOF 2
ENDMDL
MODEL 4
REMARK VINA RESULT:    -5.035      3.616      6.875
REMARK INTER + INTRA:          -5.505
REMARK INTER:                  -5.475
REMARK INTRA:                  -0.029
REMARK UNBOUND:                -0.028
REMARK SMILES O=C([O-])c1ccc(O)cc1
REMARK SMILES IDX 4 1 5 2 10 3 6 4 9 5 7 6 2 7 1 8 3 9 8 10
REMARK H PARENT 8 11
REMARK Flexibility Score: inf
ROOT
ATOM      1  C   UNL     1      33.365  44.507  44.590  1.00  0.00    -0.003 A 
ATOM      2  C   UNL     1      32.751  44.101  45.789  1.00  0.00     0.014 A 
ATOM      3  C   UNL     1      34.750  44.750  44.582  1.00  0.00     0.014 A 
ATOM      4  C   UNL     1      33.508  43.942  46.954  1.00  0.00     0.047 A 
ATOM      5  C   UNL     1      35.503  44.591  45.749  1.00  0.00     0.047 A 
ATOM      6  C   UNL     1      34.887  44.187  46.936  1.00  0.00     0.115 A 
ENDROOT
BRANCH   1   7
ATOM      7  C   UNL     1      32.569  44.676  43.354  1.00  0.00     0.071 C 
ATOM      8  O   UNL     1      31.880  43.725  42.901  1.00  0.00    -0.545 OA
ATOM      9  O   UNL     1      32.573  45.889  42.675  1.00  0.00    -0.545 OA
ENDBRANCH   1   7
BRANCH   6  10
ATOM     10  O   UNL     1      35.651  44.032  48.091  1.00  0.00    -0.508 OA
ATOM     11  H   UNL     1      36.077  43.143  48.329  1.00  0.00     0.293 HD
ENDBRANCH   6  10
TORSDOF 2
ENDMDL
MODEL 5
REMARK VINA RESULT:    -5.030      0.968      4.490
REMARK INTER + INTRA:          -5.499
REMARK INTER:                  -5.472
REMARK INTRA:                  -0.027
REMARK UNBOUND:                -0.028
REMARK SMILES O=C([O-])c1ccc(O)cc1
REMARK SMILES IDX 4 1 5 2 10 3 6 4 9 5 7 6 2 7 1 8 3 9 8 10
REMARK H PARENT 8 11
REMARK Flexibility Score: inf
ROOT
ATOM      1  C   UNL     1      36.158  42.849  48.407  1.00  0.00    -0.003 A 
ATOM      2  C   UNL     1      35.983  43.086  49.782  1.00  0.00     0.014 A 
ATOM      3  C   UNL     1      37.352  42.252  47.965  1.00  0.00     0.014 A 
ATOM      4  C   UNL     1      36.982  42.733  50.695  1.00  0.00     0.047 A 
ATOM      5  C   UNL     1      38.348  41.900  48.880  1.00  0.00     0.047 A 
ATOM      6  C   UNL     1      38.167  42.138  50.245  1.00  0.00     0.115 A 
ENDROOT
BRANCH   1   7
ATOM      7  C   UNL     1      35.105  43.221  47.436  1.00  0.00     0.071 C 
ATOM      8  O   UNL     1      34.140  42.444  47.210  1.00  0.00    -0.545 OA
ATOM      9  O   UNL     1      35.167  44.434  46.760  1.00  0.00    -0.545 OA
ENDBRANCH   1   7
BRANCH   6  10
ATOM     10  O   UNL     1      39.170  41.782  51.146  1.00  0.00    -0.508 OA
ATOM     11  H   UNL     1      40.145  41.991  50.962  1.00  0.00     0.293 HD
ENDBRANCH   6  10
TORSDOF 2
ENDMDL
MODEL 6
REMARK VINA RESULT:    -4.966      1.020      4.243
REMARK INTER + INTRA:          -5.429
REMARK INTER:                  -5.401
REMARK INTRA:                  -0.028
REMARK UNBOUND:                -0.028
REMARK SMILES O=C([O-])c1ccc(O)cc1
REMARK SMILES IDX 4 1 5 2 10 3 6 4 9 5 7 6 2 7 1 8 3 9 8 10
REMARK H PARENT 8 11
REMARK Flexibility Score: inf
ROOT
ATOM      1  C   UNL     1      35.944  42.880  48.502  1.00  0.00    -0.003 A 
ATOM      2  C   UNL     1      37.121  42.335  47.958  1.00  0.00     0.014 A 
ATOM      3  C   UNL     1      35.920  43.228  49.864  1.00  0.00     0.014 A 
ATOM      4  C   UNL     1      38.250  42.144  48.762  1.00  0.00     0.047 A 
ATOM      5  C   UNL     1      37.050  43.036  50.664  1.00  0.00     0.047 A 
ATOM      6  C   UNL     1      38.217  42.495  50.118  1.00  0.00     0.115 A 
ENDROOT
BRANCH   1   7
ATOM      7  C   UNL     1      34.746  43.085  47.657  1.00  0.00     0.071 C 
ATOM      8  O   UNL     1      34.072  42.101  47.254  1.00  0.00    -0.545 OA
ATOM      9  O   UNL     1      34.349  44.367  47.298  1.00  0.00    -0.545 OA
ENDBRANCH   1   7
BRANCH   6  10
ATOM     10  O   UNL     1      39.335  42.309  50.928  1.00  0.00    -0.508 OA
ATOM     11  H   UNL     1      39.967  43.072  51.141  1.00  0.00     0.293 HD
ENDBRANCH   6  10
TORSDOF 2
ENDMDL
MODEL 7
REMARK VINA RESULT:    -4.893      1.491      1.705
REMARK INTER + INTRA:          -5.350
REMARK INTER:                  -5.316
REMARK INTRA:                  -0.035
REMARK UNBOUND:                -0.028
REMARK SMILES O=C([O-])c1ccc(O)cc1
REMARK SMILES IDX 4 1 5 2 10 3 6 4 9 5 7 6 2 7 1 8 3 9 8 10
REMARK H PARENT 8 11
REMARK Flexibility Score: inf
ROOT
ATOM      1  C   UNL     1      36.166  43.024  49.002  1.00  0.00    -0.003 A 
ATOM      2  C   UNL     1      36.867  42.458  47.922  1.00  0.00     0.014 A 
ATOM      3  C   UNL     1      35.104  43.907  48.738  1.00  0.00     0.014 A 
ATOM      4  C   UNL     1      36.511  42.770  46.605  1.00  0.00     0.047 A 
ATOM      5  C   UNL     1      34.751  44.216  47.421  1.00  0.00     0.047 A 
ATOM      6  C   UNL     1      35.451  43.650  46.352  1.00  0.00     0.115 A 
ENDROOT
BRANCH   1   7
ATOM      7  C   UNL     1      36.537  42.698  50.397  1.00  0.00     0.071 C 
ATOM      8  O   UNL     1      35.721  42.888  51.337  1.00  0.00    -0.545 OA
ATOM      9  O   UNL     1      37.793  42.179  50.689  1.00  0.00    -0.545 OA
ENDBRANCH   1   7
BRANCH   6  10
ATOM     10  O   UNL     1      35.088  43.967  45.045  1.00  0.00    -0.508 OA
ATOM     11  H   UNL     1      34.405  44.690  44.846  1.00  0.00     0.293 HD
ENDBRANCH   6  10
TORSDOF 2
ENDMDL
MODEL 8
REMARK VINA RESULT:    -4.882      2.864      5.877
REMARK INTER + INTRA:          -5.338
REMARK INTER:                  -5.302
REMARK INTRA:                  -0.035
REMARK UNBOUND:                -0.028
REMARK SMILES O=C([O-])c1ccc(O)cc1
REMARK SMILES IDX 4 1 5 2 10 3 6 4 9 5 7 6 2 7 1 8 3 9 8 10
REMARK H PARENT 8 11
REMARK Flexibility Score: inf
ROOT
ATOM      1  C   UNL     1      33.451  43.968  45.859  1.00  0.00    -0.003 A 
ATOM      2  C   UNL     1      34.651  44.497  45.349  1.00  0.00     0.014 A 
ATOM      3  C   UNL     1      33.503  43.125  46.984  1.00  0.00     0.014 A 
ATOM      4  C   UNL     1      35.874  44.189  45.952  1.00  0.00     0.047 A 
ATOM      5  C   UNL     1      34.727  42.819  47.584  1.00  0.00     0.047 A 
ATOM      6  C   UNL     1      35.915  43.349  47.073  1.00  0.00     0.115 A 
ENDROOT
BRANCH   1   7
ATOM      7  C   UNL     1      32.153  44.290  45.225  1.00  0.00     0.071 C 
ATOM      8  O   UNL     1      31.074  44.091  45.842  1.00  0.00    -0.545 OA
ATOM      9  O   UNL     1      32.109  44.815  43.940  1.00  0.00    -0.545 OA
ENDBRANCH   1   7
BRANCH   6  10
ATOM     10  O   UNL     1      37.128  43.035  47.682  1.00  0.00    -0.508 OA
ATOM     11  H   UNL     1      37.241  42.193  48.235  1.00  0.00     0.293 HD
ENDBRANCH   6  10
TORSDOF 2
ENDMDL
MODEL 9
REMARK VINA RESULT:    -4.704      1.470      4.526
REMARK INTER + INTRA:          -5.144
REMARK INTER:                  -5.118
REMARK INTRA:                  -0.027
REMARK UNBOUND:                -0.028
REMARK SMILES O=C([O-])c1ccc(O)cc1
REMARK SMILES IDX 4 1 5 2 10 3 6 4 9 5 7 6 2 7 1 8 3 9 8 10
REMARK H PARENT 8 11
REMARK Flexibility Score: inf
ROOT
ATOM      1  C   UNL     1      34.469  42.712  47.623  1.00  0.00    -0.003 A 
ATOM      2  C   UNL     1      35.626  42.482  46.856  1.00  0.00     0.014 A 
ATOM      3  C   UNL     1      34.604  42.961  49.000  1.00  0.00     0.014 A 
ATOM      4  C   UNL     1      36.889  42.502  47.455  1.00  0.00     0.047 A 
ATOM      5  C   UNL     1      35.869  42.981  49.596  1.00  0.00     0.047 A 
ATOM      6  C   UNL     1      37.013  42.752  48.828  1.00  0.00     0.115 A 
ENDROOT
BRANCH   1   7
ATOM      7  C   UNL     1      33.130  42.692  46.995  1.00  0.00     0.071 C 
ATOM      8  O   UNL     1      32.638  43.742  46.504  1.00  0.00    -0.545 OA
ATOM      9  O   UNL     1      32.396  41.513  46.939  1.00  0.00    -0.545 OA
ENDBRANCH   1   7
BRANCH   6  10
ATOM     10  O   UNL     1      38.267  42.774  49.436  1.00  0.00    -0.508 OA
ATOM     11  H   UNL     1      39.077  43.164  48.965  1.00  0.00     0.293 HD
ENDBRANCH   6  10
TORSDOF 2
ENDMDL
