MODEL 1
REMARK VINA RESULT:    -7.872      0.000      0.000
REMARK INTER + INTRA:          -8.562
REMARK INTER:                  -8.562
REMARK INTRA:                   0.000
REMARK UNBOUND:                 0.000
REMARK SMILES Cc1cc(O)c2c(c1)C(=O)c1cc(O)cc(O)c1C2=O
REMARK SMILES IDX 1 1 2 2 8 3 7 4 6 5 4 6 3 7 19 8 20 9 18 10 11 11 9 12 10 13
REMARK SMILES IDX 12 14 13 15 15 16 16 17 5 18 17 20 14 22
REMARK H PARENT 5 19 17 21 14 23
REMARK Flexibility Score: inf
ROOT
ATOM      1  C   UNL     1       5.290  50.538  27.050  1.00  0.00     0.044 C 
ATOM      2  C   UNL     1       6.079  49.686  26.099  1.00  0.00    -0.047 A 
ATOM      3  C   UNL     1       6.803  50.278  25.059  1.00  0.00     0.016 A 
ATOM      4  C   UNL     1       7.574  49.492  24.184  1.00  0.00     0.038 A 
ATOM      5  C   UNL     1       7.635  48.095  24.366  1.00  0.00     0.076 A 
ATOM      6  C   UNL     1       6.912  47.501  25.426  1.00  0.00     0.127 A 
ATOM      7  C   UNL     1       6.148  48.302  26.287  1.00  0.00     0.050 A 
ATOM      8  C   UNL     1       8.486  47.283  23.456  1.00  0.00     0.201 C 
ATOM      9  O   UNL     1       8.839  46.125  23.805  1.00  0.00    -0.288 OA
ATOM     10  C   UNL     1       9.010  47.876  22.194  1.00  0.00     0.076 A 
ATOM     11  C   UNL     1       8.998  49.284  22.057  1.00  0.00     0.041 A 
ATOM     12  C   UNL     1       8.324  50.125  23.076  1.00  0.00     0.194 C 
ATOM     13  O   UNL     1       8.375  51.383  22.988  1.00  0.00    -0.289 OA
ATOM     14  C   UNL     1       9.617  49.886  20.947  1.00  0.00     0.059 A 
ATOM     15  C   UNL     1      10.232  49.104  19.967  1.00  0.00     0.120 A 
ATOM     16  C   UNL     1      10.205  47.715  20.073  1.00  0.00     0.093 A 
ATOM     17  C   UNL     1       9.574  47.089  21.152  1.00  0.00     0.131 A 
ENDROOT
BRANCH   6  18
ATOM     18  O   UNL     1       6.943  46.121  25.625  1.00  0.00    -0.507 OA
ATOM     19  H   UNL     1       6.100  45.590  25.812  1.00  0.00     0.293 HD
ENDBRANCH   6  18
BRANCH  17  20
ATOM     20  O   UNL     1       9.500  45.695  21.125  1.00  0.00    -0.507 OA
ATOM     21  H   UNL     1       8.986  45.148  21.802  1.00  0.00     0.293 HD
ENDBRANCH  17  20
BRANCH  15  22
ATOM     22  O   UNL     1      10.861  49.698  18.875  1.00  0.00    -0.508 OA
ATOM     23  H   UNL     1      11.054  49.178  18.026  1.00  0.00     0.293 HD
ENDBRANCH  15  22
TORSDOF 3
ENDMDL
MODEL 2
REMARK VINA RESULT:    -7.864      2.504      5.523
REMARK INTER + INTRA:          -8.554
REMARK INTER:                  -8.554
REMARK INTRA:                   0.000
REMARK UNBOUND:                 0.000
REMARK SMILES Cc1cc(O)c2c(c1)C(=O)c1cc(O)cc(O)c1C2=O
REMARK SMILES IDX 1 1 2 2 8 3 7 4 6 5 4 6 3 7 19 8 20 9 18 10 11 11 9 12 10 13
REMARK SMILES IDX 12 14 13 15 15 16 16 17 5 18 17 20 14 22
REMARK H PARENT 5 19 17 21 14 23
REMARK Flexibility Score: inf
ROOT
ATOM      1  C   UNL     1       6.347  50.625  18.118  1.00  0.00     0.044 C 
ATOM      2  C   UNL     1       7.452  50.112  18.995  1.00  0.00    -0.047 A 
ATOM      3  C   UNL     1       7.188  49.749  20.320  1.00  0.00     0.016 A 
ATOM      4  C   UNL     1       8.208  49.234  21.139  1.00  0.00     0.038 A 
ATOM      5  C   UNL     1       9.507  49.062  20.617  1.00  0.00     0.076 A 
ATOM      6  C   UNL     1       9.767  49.418  19.274  1.00  0.00     0.127 A 
ATOM      7  C   UNL     1       8.737  49.932  18.473  1.00  0.00     0.050 A 
ATOM      8  C   UNL     1      10.564  48.480  21.485  1.00  0.00     0.201 C 
ATOM      9  O   UNL     1      11.599  47.991  20.959  1.00  0.00    -0.288 OA
ATOM     10  C   UNL     1      10.351  48.372  22.956  1.00  0.00     0.076 A 
ATOM     11  C   UNL     1       9.032  48.485  23.454  1.00  0.00     0.041 A 
ATOM     12  C   UNL     1       7.924  48.868  22.545  1.00  0.00     0.194 C 
ATOM     13  O   UNL     1       6.738  48.899  22.976  1.00  0.00    -0.289 OA
ATOM     14  C   UNL     1       8.773  48.243  24.814  1.00  0.00     0.059 A 
ATOM     15  C   UNL     1       9.812  47.908  25.685  1.00  0.00     0.120 A 
ATOM     16  C   UNL     1      11.119  47.843  25.210  1.00  0.00     0.093 A 
ATOM     17  C   UNL     1      11.409  48.104  23.868  1.00  0.00     0.131 A 
ENDROOT
BRANCH   6  18
ATOM     18  O   UNL     1      11.044  49.271  18.732  1.00  0.00    -0.507 OA
ATOM     19  H   UNL     1      11.827  49.828  19.053  1.00  0.00     0.293 HD
ENDBRANCH   6  18
BRANCH  17  20
ATOM     20  O   UNL     1      12.756  48.122  23.498  1.00  0.00    -0.507 OA
ATOM     21  H   UNL     1      13.322  47.290  23.400  1.00  0.00     0.293 HD
ENDBRANCH  17  20
BRANCH  15  22
ATOM     22  O   UNL     1       9.556  47.651  27.031  1.00  0.00    -0.508 OA
ATOM     23  H   UNL     1       9.796  48.321  27.753  1.00  0.00     0.293 HD
ENDBRANCH  15  22
TORSDOF 3
ENDMDL
MODEL 3
REMARK VINA RESULT:    -7.829      2.858      4.389
REMARK INTER + INTRA:          -8.516
REMARK INTER:                  -8.516
REMARK INTRA:                   0.000
REMARK UNBOUND:                 0.000
REMARK SMILES Cc1cc(O)c2c(c1)C(=O)c1cc(O)cc(O)c1C2=O
REMARK SMILES IDX 1 1 2 2 8 3 7 4 6 5 4 6 3 7 19 8 20 9 18 10 11 11 9 12 10 13
REMARK SMILES IDX 12 14 13 15 15 16 16 17 5 18 17 20 14 22
REMARK H PARENT 5 19 17 21 14 23
REMARK Flexibility Score: inf
ROOT
ATOM      1  C   UNL     1       8.745  45.751  25.038  1.00  0.00     0.044 C 
ATOM      2  C   UNL     1       8.500  46.267  23.649  1.00  0.00    -0.047 A 
ATOM      3  C   UNL     1       8.258  47.629  23.437  1.00  0.00     0.016 A 
ATOM      4  C   UNL     1       8.062  48.128  22.137  1.00  0.00     0.038 A 
ATOM      5  C   UNL     1       8.130  47.254  21.033  1.00  0.00     0.076 A 
ATOM      6  C   UNL     1       8.389  45.881  21.250  1.00  0.00     0.127 A 
ATOM      7  C   UNL     1       8.579  45.402  22.554  1.00  0.00     0.050 A 
ATOM      8  C   UNL     1       7.960  47.805  19.662  1.00  0.00     0.201 C 
ATOM      9  O   UNL     1       8.365  47.140  18.672  1.00  0.00    -0.288 OA
ATOM     10  C   UNL     1       7.420  49.180  19.470  1.00  0.00     0.076 A 
ATOM     11  C   UNL     1       7.418  50.062  20.576  1.00  0.00     0.041 A 
ATOM     12  C   UNL     1       7.790  49.567  21.923  1.00  0.00     0.194 C 
ATOM     13  O   UNL     1       7.856  50.371  22.895  1.00  0.00    -0.289 OA
ATOM     14  C   UNL     1       7.055  51.409  20.398  1.00  0.00     0.059 A 
ATOM     15  C   UNL     1       6.677  51.881  19.139  1.00  0.00     0.120 A 
ATOM     16  C   UNL     1       6.631  51.006  18.057  1.00  0.00     0.093 A 
ATOM     17  C   UNL     1       6.962  49.656  18.210  1.00  0.00     0.131 A 
ENDROOT
BRANCH   6  18
ATOM     18  O   UNL     1       8.450  44.989  20.179  1.00  0.00    -0.507 OA
ATOM     19  H   UNL     1       9.139  45.087  19.442  1.00  0.00     0.293 HD
ENDBRANCH   6  18
BRANCH  17  20
ATOM     20  O   UNL     1       6.786  48.826  17.101  1.00  0.00    -0.507 OA
ATOM     21  H   UNL     1       7.392  48.835  16.292  1.00  0.00     0.293 HD
ENDBRANCH  17  20
BRANCH  15  22
ATOM     22  O   UNL     1       6.333  53.219  18.956  1.00  0.00    -0.508 OA
ATOM     23  H   UNL     1       5.610  53.661  19.513  1.00  0.00     0.293 HD
ENDBRANCH  15  22
TORSDOF 3
ENDMDL
MODEL 4
REMARK VINA RESULT:    -7.749      2.158      6.048
REMARK INTER + INTRA:          -8.428
REMARK INTER:                  -8.428
REMARK INTRA:                   0.000
REMARK UNBOUND:                 0.000
REMARK SMILES Cc1cc(O)c2c(c1)C(=O)c1cc(O)cc(O)c1C2=O
REMARK SMILES IDX 1 1 2 2 8 3 7 4 6 5 4 6 3 7 19 8 20 9 18 10 11 11 9 12 10 13
REMARK SMILES IDX 12 14 13 15 15 16 16 17 5 18 17 20 14 22
REMARK H PARENT 5 19 17 21 14 23
REMARK Flexibility Score: inf
ROOT
ATOM      1  C   UNL     1       7.638  49.038  16.572  1.00  0.00     0.044 C 
ATOM      2  C   UNL     1       7.646  49.325  18.046  1.00  0.00    -0.047 A 
ATOM      3  C   UNL     1       8.088  48.352  18.950  1.00  0.00     0.016 A 
ATOM      4  C   UNL     1       8.133  48.622  20.329  1.00  0.00     0.038 A 
ATOM      5  C   UNL     1       7.748  49.892  20.807  1.00  0.00     0.076 A 
ATOM      6  C   UNL     1       7.315  50.877  19.890  1.00  0.00     0.127 A 
ATOM      7  C   UNL     1       7.275  50.587  18.519  1.00  0.00     0.050 A 
ATOM      8  C   UNL     1       7.839  50.174  22.264  1.00  0.00     0.201 C 
ATOM      9  O   UNL     1       7.853  51.368  22.665  1.00  0.00    -0.288 OA
ATOM     10  C   UNL     1       8.028  49.058  23.233  1.00  0.00     0.076 A 
ATOM     11  C   UNL     1       8.475  47.809  22.740  1.00  0.00     0.041 A 
ATOM     12  C   UNL     1       8.586  47.582  21.279  1.00  0.00     0.194 C 
ATOM     13  O   UNL     1       9.052  46.492  20.844  1.00  0.00    -0.289 OA
ATOM     14  C   UNL     1       8.804  46.779  23.638  1.00  0.00     0.059 A 
ATOM     15  C   UNL     1       8.678  46.971  25.016  1.00  0.00     0.120 A 
ATOM     16  C   UNL     1       8.193  48.182  25.504  1.00  0.00     0.093 A 
ATOM     17  C   UNL     1       7.833  49.214  24.633  1.00  0.00     0.131 A 
ENDROOT
BRANCH   6  18
ATOM     18  O   UNL     1       6.916  52.138  20.333  1.00  0.00    -0.507 OA
ATOM     19  H   UNL     1       6.055  52.567  20.016  1.00  0.00     0.293 HD
ENDBRANCH   6  18
BRANCH  17  20
ATOM     20  O   UNL     1       7.256  50.353  25.199  1.00  0.00    -0.507 OA
ATOM     21  H   UNL     1       6.816  51.086  24.659  1.00  0.00     0.293 HD
ENDBRANCH  17  20
BRANCH  15  22
ATOM     22  O   UNL     1       9.020  45.958  25.909  1.00  0.00    -0.508 OA
ATOM     23  H   UNL     1       8.863  46.054  26.906  1.00  0.00     0.293 HD
ENDBRANCH  15  22
TORSDOF 3
ENDMDL
MODEL 5
REMARK VINA RESULT:    -7.705      3.074      4.687
REMARK INTER + INTRA:          -8.380
REMARK INTER:                  -8.380
REMARK INTRA:                   0.000
REMARK UNBOUND:                 0.000
REMARK SMILES Cc1cc(O)c2c(c1)C(=O)c1cc(O)cc(O)c1C2=O
REMARK SMILES IDX 1 1 2 2 8 3 7 4 6 5 4 6 3 7 19 8 20 9 18 10 11 11 9 12 10 13
REMARK SMILES IDX 12 14 13 15 15 16 16 17 5 18 17 20 14 22
REMARK H PARENT 5 19 17 21 14 23
REMARK Flexibility Score: inf
ROOT
ATOM      1  C   UNL     1      11.014  48.046  25.501  1.00  0.00     0.044 C 
ATOM      2  C   UNL     1      10.732  48.293  24.046  1.00  0.00    -0.047 A 
ATOM      3  C   UNL     1       9.688  49.143  23.667  1.00  0.00     0.016 A 
ATOM      4  C   UNL     1       9.438  49.409  22.309  1.00  0.00     0.038 A 
ATOM      5  C   UNL     1      10.258  48.830  21.319  1.00  0.00     0.076 A 
ATOM      6  C   UNL     1      11.320  47.982  21.707  1.00  0.00     0.127 A 
ATOM      7  C   UNL     1      11.553  47.727  23.065  1.00  0.00     0.050 A 
ATOM      8  C   UNL     1      10.004  49.153  19.889  1.00  0.00     0.201 C 
ATOM      9  O   UNL     1      10.911  48.952  19.037  1.00  0.00    -0.288 OA
ATOM     10  C   UNL     1       8.732  49.813  19.485  1.00  0.00     0.076 A 
ATOM     11  C   UNL     1       7.954  50.443  20.486  1.00  0.00     0.041 A 
ATOM     12  C   UNL     1       8.321  50.297  21.915  1.00  0.00     0.194 C 
ATOM     13  O   UNL     1       7.668  50.918  22.800  1.00  0.00    -0.289 OA
ATOM     14  C   UNL     1       6.827  51.201  20.124  1.00  0.00     0.059 A 
ATOM     15  C   UNL     1       6.455  51.324  18.783  1.00  0.00     0.120 A 
ATOM     16  C   UNL     1       7.189  50.666  17.799  1.00  0.00     0.093 A 
ATOM     17  C   UNL     1       8.299  49.885  18.132  1.00  0.00     0.131 A 
ENDROOT
BRANCH   6  18
ATOM     18  O   UNL     1      12.141  47.384  20.750  1.00  0.00    -0.507 OA
ATOM     19  H   UNL     1      13.152  47.420  20.817  1.00  0.00     0.293 HD
ENDBRANCH   6  18
BRANCH  17  20
ATOM     20  O   UNL     1       8.913  49.175  17.098  1.00  0.00    -0.507 OA
ATOM     21  H   UNL     1       9.892  49.258  16.864  1.00  0.00     0.293 HD
ENDBRANCH  17  20
BRANCH  15  22
ATOM     22  O   UNL     1       5.348  52.088  18.420  1.00  0.00    -0.508 OA
ATOM     23  H   UNL     1       5.294  52.547  17.518  1.00  0.00     0.293 HD
ENDBRANCH  15  22
TORSDOF 3
ENDMDL
MODEL 6
REMARK VINA RESULT:    -7.653      3.016      5.203
REMARK INTER + INTRA:          -8.324
REMARK INTER:                  -8.324
REMARK INTRA:                   0.000
REMARK UNBOUND:                 0.000
REMARK SMILES Cc1cc(O)c2c(c1)C(=O)c1cc(O)cc(O)c1C2=O
REMARK SMILES IDX 1 1 2 2 8 3 7 4 6 5 4 6 3 7 19 8 20 9 18 10 11 11 9 12 10 13
REMARK SMILES IDX 12 14 13 15 15 16 16 17 5 18 17 20 14 22
REMARK H PARENT 5 19 17 21 14 23
REMARK Flexibility Score: inf
ROOT
ATOM      1  C   UNL     1       5.377  52.441  18.808  1.00  0.00     0.044 C 
ATOM      2  C   UNL     1       6.501  51.494  19.110  1.00  0.00    -0.047 A 
ATOM      3  C   UNL     1       6.877  51.247  20.435  1.00  0.00     0.016 A 
ATOM      4  C   UNL     1       7.905  50.334  20.731  1.00  0.00     0.038 A 
ATOM      5  C   UNL     1       8.552  49.645  19.685  1.00  0.00     0.076 A 
ATOM      6  C   UNL     1       8.161  49.887  18.348  1.00  0.00     0.127 A 
ATOM      7  C   UNL     1       7.135  50.802  18.073  1.00  0.00     0.050 A 
ATOM      8  C   UNL     1       9.611  48.654  20.018  1.00  0.00     0.201 C 
ATOM      9  O   UNL     1       9.939  47.787  19.164  1.00  0.00    -0.288 OA
ATOM     10  C   UNL     1      10.196  48.615  21.387  1.00  0.00     0.076 A 
ATOM     11  C   UNL     1       9.498  49.260  22.435  1.00  0.00     0.041 A 
ATOM     12  C   UNL     1       8.307  50.091  22.135  1.00  0.00     0.194 C 
ATOM     13  O   UNL     1       7.645  50.608  23.078  1.00  0.00    -0.289 OA
ATOM     14  C   UNL     1       9.940  49.120  23.762  1.00  0.00     0.059 A 
ATOM     15  C   UNL     1      11.076  48.362  24.055  1.00  0.00     0.120 A 
ATOM     16  C   UNL     1      11.794  47.764  23.022  1.00  0.00     0.093 A 
ATOM     17  C   UNL     1      11.392  47.908  21.691  1.00  0.00     0.131 A 
ENDROOT
BRANCH   6  18
ATOM     18  O   UNL     1       8.791  49.230  17.291  1.00  0.00    -0.507 OA
ATOM     19  H   UNL     1       9.532  48.557  17.447  1.00  0.00     0.293 HD
ENDBRANCH   6  18
BRANCH  17  20
ATOM     20  O   UNL     1      12.228  47.368  20.711  1.00  0.00    -0.507 OA
ATOM     21  H   UNL     1      13.013  47.861  20.310  1.00  0.00     0.293 HD
ENDBRANCH  17  20
BRANCH  15  22
ATOM     22  O   UNL     1      11.507  48.208  25.371  1.00  0.00    -0.508 OA
ATOM     23  H   UNL     1      10.903  47.815  26.084  1.00  0.00     0.293 HD
ENDBRANCH  15  22
TORSDOF 3
ENDMDL
MODEL 7
REMARK VINA RESULT:    -7.608      1.729      2.064
REMARK INTER + INTRA:          -8.275
REMARK INTER:                  -8.275
REMARK INTRA:                   0.000
REMARK UNBOUND:                 0.000
REMARK SMILES Cc1cc(O)c2c(c1)C(=O)c1cc(O)cc(O)c1C2=O
REMARK SMILES IDX 1 1 2 2 8 3 7 4 6 5 4 6 3 7 19 8 20 9 18 10 11 11 9 12 10 13
REMARK SMILES IDX 12 14 13 15 15 16 16 17 5 18 17 20 14 22
REMARK H PARENT 5 19 17 21 14 23
REMARK Flexibility Score: inf
ROOT
ATOM      1  C   UNL     1       4.630  47.748  26.390  1.00  0.00     0.044 C 
ATOM      2  C   UNL     1       5.394  47.362  25.156  1.00  0.00    -0.047 A 
ATOM      3  C   UNL     1       6.256  48.280  24.547  1.00  0.00     0.016 A 
ATOM      4  C   UNL     1       7.002  47.917  23.412  1.00  0.00     0.038 A 
ATOM      5  C   UNL     1       6.898  46.611  22.892  1.00  0.00     0.076 A 
ATOM      6  C   UNL     1       6.035  45.682  23.518  1.00  0.00     0.127 A 
ATOM      7  C   UNL     1       5.297  46.063  24.648  1.00  0.00     0.050 A 
ATOM      8  C   UNL     1       7.724  46.232  21.715  1.00  0.00     0.201 C 
ATOM      9  O   UNL     1       7.921  45.013  21.462  1.00  0.00    -0.288 OA
ATOM     10  C   UNL     1       8.406  47.283  20.909  1.00  0.00     0.076 A 
ATOM     11  C   UNL     1       8.556  48.571  21.475  1.00  0.00     0.041 A 
ATOM     12  C   UNL     1       7.901  48.899  22.764  1.00  0.00     0.194 C 
ATOM     13  O   UNL     1       8.095  50.025  23.301  1.00  0.00    -0.289 OA
ATOM     14  C   UNL     1       9.321  49.544  20.808  1.00  0.00     0.059 A 
ATOM     15  C   UNL     1       9.922  49.256  19.580  1.00  0.00     0.120 A 
ATOM     16  C   UNL     1       9.737  48.005  18.997  1.00  0.00     0.093 A 
ATOM     17  C   UNL     1       8.960  47.028  19.625  1.00  0.00     0.131 A 
ENDROOT
BRANCH   6  18
ATOM     18  O   UNL     1       5.900  44.386  23.020  1.00  0.00    -0.507 OA
ATOM     19  H   UNL     1       5.770  43.590  23.634  1.00  0.00     0.293 HD
ENDBRANCH   6  18
BRANCH  17  20
ATOM     20  O   UNL     1       8.738  45.841  18.921  1.00  0.00    -0.507 OA
ATOM     21  H   UNL     1       9.271  45.562  18.109  1.00  0.00     0.293 HD
ENDBRANCH  17  20
BRANCH  15  22
ATOM     22  O   UNL     1      10.695  50.213  18.926  1.00  0.00    -0.508 OA
ATOM     23  H   UNL     1      10.315  50.777  18.174  1.00  0.00     0.293 HD
ENDBRANCH  15  22
TORSDOF 3
ENDMDL
MODEL 8
REMARK VINA RESULT:    -7.476      2.192      6.040
REMARK INTER + INTRA:          -8.132
REMARK INTER:                  -8.132
REMARK INTRA:                   0.000
REMARK UNBOUND:                 0.000
REMARK SMILES Cc1cc(O)c2c(c1)C(=O)c1cc(O)cc(O)c1C2=O
REMARK SMILES IDX 1 1 2 2 8 3 7 4 6 5 4 6 3 7 19 8 20 9 18 10 11 11 9 12 10 13
REMARK SMILES IDX 12 14 13 15 15 16 16 17 5 18 17 20 14 22
REMARK H PARENT 5 19 17 21 14 23
REMARK Flexibility Score: inf
ROOT
ATOM      1  C   UNL     1      10.250  49.876  19.392  1.00  0.00     0.044 C 
ATOM      2  C   UNL     1       9.326  49.716  20.565  1.00  0.00    -0.047 A 
ATOM      3  C   UNL     1       8.760  48.469  20.849  1.00  0.00     0.016 A 
ATOM      4  C   UNL     1       7.922  48.300  21.965  1.00  0.00     0.038 A 
ATOM      5  C   UNL     1       7.663  49.392  22.819  1.00  0.00     0.076 A 
ATOM      6  C   UNL     1       8.247  50.648  22.536  1.00  0.00     0.127 A 
ATOM      7  C   UNL     1       9.079  50.797  21.417  1.00  0.00     0.050 A 
ATOM      8  C   UNL     1       6.806  49.187  24.017  1.00  0.00     0.201 C 
ATOM      9  O   UNL     1       6.853  50.018  24.963  1.00  0.00    -0.288 OA
ATOM     10  C   UNL     1       5.985  47.951  24.147  1.00  0.00     0.076 A 
ATOM     11  C   UNL     1       6.301  46.844  23.324  1.00  0.00     0.041 A 
ATOM     12  C   UNL     1       7.314  46.981  22.250  1.00  0.00     0.194 C 
ATOM     13  O   UNL     1       7.645  45.974  21.564  1.00  0.00    -0.289 OA
ATOM     14  C   UNL     1       5.647  45.615  23.520  1.00  0.00     0.059 A 
ATOM     15  C   UNL     1       4.672  45.480  24.512  1.00  0.00     0.120 A 
ATOM     16  C   UNL     1       4.323  46.580  25.292  1.00  0.00     0.093 A 
ATOM     17  C   UNL     1       4.938  47.820  25.102  1.00  0.00     0.131 A 
ENDROOT
BRANCH   6  18
ATOM     18  O   UNL     1       8.001  51.750  23.355  1.00  0.00    -0.507 OA
ATOM     19  H   UNL     1       8.649  52.526  23.414  1.00  0.00     0.293 HD
ENDBRANCH   6  18
BRANCH  17  20
ATOM     20  O   UNL     1       4.454  48.894  25.852  1.00  0.00    -0.507 OA
ATOM     21  H   UNL     1       4.636  49.016  26.839  1.00  0.00     0.293 HD
ENDBRANCH  17  20
BRANCH  15  22
ATOM     22  O   UNL     1       4.034  44.259  24.720  1.00  0.00    -0.508 OA
ATOM     23  H   UNL     1       4.094  43.508  24.042  1.00  0.00     0.293 HD
ENDBRANCH  15  22
TORSDOF 3
ENDMDL
