MODEL 1
REMARK VINA RESULT:    -6.511      0.000      0.000
REMARK INTER + INTRA:          -9.986
REMARK INTER:                  -8.985
REMARK INTRA:                  -1.001
REMARK UNBOUND:                -1.001
REMARK SMILES CC[C@H](CC[C@H](C)[C@H]1CC[C@H]2[C@@H]3CC=C4C[C@@H](O)CC[C@]4(C)[C@@H]3CC[C@@]12C)C(C)C
REMARK SMILES IDX 5 1 4 2 3 3 2 4 1 5 28 6 29 7 30 8 6 9 7 10 8 11 9 12 26 13
REMARK SMILES IDX 10 14 11 15 25 16 27 17 12 18 24 19 23 20 13 21 21 22 14 23
REMARK SMILES IDX 15 24 20 25 22 26 16 27 19 28 17 29 18 30
REMARK H PARENT 18 31
REMARK Flexibility Score: inf
ROOT
ATOM      1  C   UNL     1      23.066  28.675  19.083  1.00  0.00     0.004 C 
ENDROOT
BRANCH   1   2
ATOM      2  C   UNL     1      23.545  29.725  18.061  1.00  0.00     0.004 C 
BRANCH   2   3
ATOM      3  C   UNL     1      23.620  29.167  16.613  1.00  0.00    -0.009 C 
BRANCH   3   4
ATOM      4  C   UNL     1      23.034  27.724  16.517  1.00  0.00     0.000 C 
ATOM      5  C   UNL     1      24.124  26.651  16.540  1.00  0.00     0.004 C 
ENDBRANCH   3   4
BRANCH   3   6
ATOM      6  C   UNL     1      22.965  30.166  15.604  1.00  0.00    -0.014 C 
ATOM      7  C   UNL     1      21.624  30.710  16.123  1.00  0.00     0.007 C 
ATOM      8  C   UNL     1      23.892  31.319  15.184  1.00  0.00     0.007 C 
ENDBRANCH   3   6
ENDBRANCH   2   3
ENDBRANCH   1   2
BRANCH   1   9
ATOM      9  C   UNL     1      22.215  29.294  20.231  1.00  0.00    -0.011 C 
ATOM     10  C   UNL     1      21.302  30.406  19.658  1.00  0.00     0.008 C 
BRANCH   9  11
ATOM     11  C   UNL     1      23.153  29.720  21.422  1.00  0.00    -0.002 C 
ATOM     12  C   UNL     1      23.433  31.222  21.528  1.00  0.00     0.005 C 
ATOM     13  C   UNL     1      22.876  29.224  22.878  1.00  0.00    -0.026 C 
ATOM     14  C   UNL     1      23.950  31.456  22.944  1.00  0.00     0.005 C 
ATOM     15  C   UNL     1      23.869  30.111  23.692  1.00  0.00    -0.001 C 
ATOM     16  C   UNL     1      21.411  29.466  23.332  1.00  0.00     0.007 C 
ATOM     17  C   UNL     1      23.214  27.713  22.982  1.00  0.00     0.012 C 
ATOM     18  C   UNL     1      23.576  30.314  25.210  1.00  0.00     0.000 C 
ATOM     19  C   UNL     1      21.215  29.487  24.854  1.00  0.00     0.005 C 
ATOM     20  C   UNL     1      22.080  30.584  25.513  1.00  0.00     0.003 C 
ATOM     21  C   UNL     1      24.123  29.150  26.054  1.00  0.00     0.031 C 
ATOM     22  C   UNL     1      21.837  30.834  27.063  1.00  0.00    -0.008 C 
ATOM     23  C   UNL     1      23.759  29.256  27.504  1.00  0.00    -0.027 C 
ATOM     24  C   UNL     1      22.666  29.902  27.955  1.00  0.00    -0.065 C 
ATOM     25  C   UNL     1      20.330  30.662  27.441  1.00  0.00     0.014 C 
ATOM     26  C   UNL     1      22.262  32.298  27.376  1.00  0.00     0.016 C 
ATOM     27  C   UNL     1      22.382  29.884  29.448  1.00  0.00     0.063 C 
ATOM     28  C   UNL     1      20.050  30.772  28.949  1.00  0.00     0.033 C 
ATOM     29  C   UNL     1      20.878  29.736  29.727  1.00  0.00     0.118 C 
BRANCH  29  30
ATOM     30  O   UNL     1      20.620  29.828  31.106  1.00  0.00    -0.393 OA
ATOM     31  H   UNL     1      20.984  30.696  31.423  1.00  0.00     0.210 HD
ENDBRANCH  29  30
ENDBRANCH   9  11
ENDBRANCH   1   9
TORSDOF 7
ENDMDL
MODEL 2
REMARK VINA RESULT:    -6.233      1.583      3.074
REMARK INTER + INTRA:          -9.602
REMARK INTER:                  -9.429
REMARK INTRA:                  -0.172
REMARK UNBOUND:                -1.001
REMARK SMILES CC[C@H](CC[C@H](C)[C@H]1CC[C@H]2[C@@H]3CC=C4C[C@@H](O)CC[C@]4(C)[C@@H]3CC[C@@]12C)C(C)C
REMARK SMILES IDX 5 1 4 2 3 3 2 4 1 5 28 6 29 7 30 8 6 9 7 10 8 11 9 12 26 13
REMARK SMILES IDX 10 14 11 15 25 16 27 17 12 18 24 19 23 20 13 21 21 22 14 23
REMARK SMILES IDX 15 24 20 25 22 26 16 27 19 28 17 29 18 30
REMARK H PARENT 18 31
REMARK Flexibility Score: inf
ROOT
ATOM      1  C   UNL     1      22.786  29.035  20.734  1.00  0.00     0.004 C 
ENDROOT
BRANCH   1   2
ATOM      2  C   UNL     1      23.581  29.560  19.522  1.00  0.00     0.004 C 
BRANCH   2   3
ATOM      3  C   UNL     1      22.734  29.608  18.220  1.00  0.00    -0.009 C 
BRANCH   3   4
ATOM      4  C   UNL     1      22.149  28.207  17.857  1.00  0.00     0.000 C 
ATOM      5  C   UNL     1      22.565  27.748  16.458  1.00  0.00     0.004 C 
ENDBRANCH   3   4
BRANCH   3   6
ATOM      6  C   UNL     1      21.644  30.724  18.312  1.00  0.00    -0.014 C 
ATOM      7  C   UNL     1      21.126  31.138  16.925  1.00  0.00     0.007 C 
ATOM      8  C   UNL     1      20.472  30.370  19.245  1.00  0.00     0.007 C 
ENDBRANCH   3   6
ENDBRANCH   2   3
ENDBRANCH   1   2
BRANCH   1   9
ATOM      9  C   UNL     1      23.599  28.027  21.598  1.00  0.00    -0.011 C 
ATOM     10  C   UNL     1      24.125  26.880  20.700  1.00  0.00     0.008 C 
BRANCH   9  11
ATOM     11  C   UNL     1      22.749  27.585  22.848  1.00  0.00    -0.002 C 
ATOM     12  C   UNL     1      23.448  26.615  23.804  1.00  0.00     0.005 C 
ATOM     13  C   UNL     1      22.035  28.645  23.748  1.00  0.00    -0.026 C 
ATOM     14  C   UNL     1      22.670  26.679  25.114  1.00  0.00     0.005 C 
ATOM     15  C   UNL     1      21.587  27.763  24.954  1.00  0.00    -0.001 C 
ATOM     16  C   UNL     1      22.983  29.784  24.211  1.00  0.00     0.007 C 
ATOM     17  C   UNL     1      20.829  29.249  22.979  1.00  0.00     0.012 C 
ATOM     18  C   UNL     1      21.292  28.485  26.305  1.00  0.00     0.000 C 
ATOM     19  C   UNL     1      22.510  30.533  25.464  1.00  0.00     0.005 C 
ATOM     20  C   UNL     1      22.340  29.570  26.660  1.00  0.00     0.003 C 
ATOM     21  C   UNL     1      19.860  29.046  26.347  1.00  0.00     0.031 C 
ATOM     22  C   UNL     1      22.028  30.242  28.065  1.00  0.00    -0.008 C 
ATOM     23  C   UNL     1      19.580  29.845  27.584  1.00  0.00    -0.027 C 
ATOM     24  C   UNL     1      20.531  30.489  28.288  1.00  0.00    -0.065 C 
ATOM     25  C   UNL     1      22.779  31.603  28.228  1.00  0.00     0.014 C 
ATOM     26  C   UNL     1      22.522  29.268  29.173  1.00  0.00     0.016 C 
ATOM     27  C   UNL     1      20.103  31.313  29.493  1.00  0.00     0.063 C 
ATOM     28  C   UNL     1      22.422  32.361  29.517  1.00  0.00     0.033 C 
ATOM     29  C   UNL     1      20.908  32.619  29.588  1.00  0.00     0.118 C 
BRANCH  29  30
ATOM     30  O   UNL     1      20.577  33.318  30.762  1.00  0.00    -0.393 OA
ATOM     31  H   UNL     1      21.426  33.593  31.197  1.00  0.00     0.210 HD
ENDBRANCH  29  30
ENDBRANCH   9  11
ENDBRANCH   1   9
TORSDOF 7
ENDMDL
MODEL 3
REMARK VINA RESULT:    -5.420      3.209      9.340
REMARK INTER + INTRA:          -8.480
REMARK INTER:                  -6.859
REMARK INTRA:                  -1.621
REMARK UNBOUND:                -1.001
REMARK SMILES CC[C@H](CC[C@H](C)[C@H]1CC[C@H]2[C@@H]3CC=C4C[C@@H](O)CC[C@]4(C)[C@@H]3CC[C@@]12C)C(C)C
REMARK SMILES IDX 5 1 4 2 3 3 2 4 1 5 28 6 29 7 30 8 6 9 7 10 8 11 9 12 26 13
REMARK SMILES IDX 10 14 11 15 25 16 27 17 12 18 24 19 23 20 13 21 21 22 14 23
REMARK SMILES IDX 15 24 20 25 22 26 16 27 19 28 17 29 18 30
REMARK H PARENT 18 31
REMARK Flexibility Score: inf
ROOT
ATOM      1  C   UNL     1      21.488  28.401  27.329  1.00  0.00     0.004 C 
ENDROOT
BRANCH   1   2
ATOM      2  C   UNL     1      20.528  29.598  27.172  1.00  0.00     0.004 C 
BRANCH   2   3
ATOM      3  C   UNL     1      20.385  30.432  28.475  1.00  0.00    -0.009 C 
BRANCH   3   4
ATOM      4  C   UNL     1      21.582  30.196  29.449  1.00  0.00     0.000 C 
ATOM      5  C   UNL     1      21.126  29.696  30.820  1.00  0.00     0.004 C 
ENDBRANCH   3   4
BRANCH   3   6
ATOM      6  C   UNL     1      20.151  31.941  28.141  1.00  0.00    -0.014 C 
ATOM      7  C   UNL     1      19.590  32.715  29.345  1.00  0.00     0.007 C 
ATOM      8  C   UNL     1      21.393  32.648  27.572  1.00  0.00     0.007 C 
ENDBRANCH   3   6
ENDBRANCH   2   3
ENDBRANCH   1   2
BRANCH   1   9
ATOM      9  C   UNL     1      22.617  28.387  26.258  1.00  0.00    -0.011 C 
ATOM     10  C   UNL     1      23.996  28.472  26.957  1.00  0.00     0.008 C 
BRANCH   9  11
ATOM     11  C   UNL     1      22.332  29.484  25.165  1.00  0.00    -0.002 C 
ATOM     12  C   UNL     1      23.450  30.511  24.964  1.00  0.00     0.005 C 
ATOM     13  C   UNL     1      21.844  29.085  23.735  1.00  0.00    -0.026 C 
ATOM     14  C   UNL     1      23.183  31.165  23.611  1.00  0.00     0.005 C 
ATOM     15  C   UNL     1      21.976  30.444  22.981  1.00  0.00    -0.001 C 
ATOM     16  C   UNL     1      22.730  27.993  23.076  1.00  0.00     0.007 C 
ATOM     17  C   UNL     1      20.374  28.592  23.809  1.00  0.00     0.012 C 
ATOM     18  C   UNL     1      22.081  30.399  21.425  1.00  0.00     0.000 C 
ATOM     19  C   UNL     1      22.631  27.936  21.545  1.00  0.00     0.005 C 
ATOM     20  C   UNL     1      23.028  29.286  20.910  1.00  0.00     0.003 C 
ATOM     21  C   UNL     1      20.694  30.312  20.766  1.00  0.00     0.031 C 
ATOM     22  C   UNL     1      23.143  29.309  19.325  1.00  0.00    -0.008 C 
ATOM     23  C   UNL     1      20.762  30.152  19.277  1.00  0.00    -0.027 C 
ATOM     24  C   UNL     1      21.802  29.588  18.633  1.00  0.00    -0.065 C 
ATOM     25  C   UNL     1      23.710  27.962  18.772  1.00  0.00     0.014 C 
ATOM     26  C   UNL     1      24.125  30.454  18.942  1.00  0.00     0.016 C 
ATOM     27  C   UNL     1      21.719  29.434  17.123  1.00  0.00     0.063 C 
ATOM     28  C   UNL     1      23.730  27.879  17.237  1.00  0.00     0.033 C 
ATOM     29  C   UNL     1      22.319  28.094  16.667  1.00  0.00     0.118 C 
BRANCH  29  30
ATOM     30  O   UNL     1      22.332  28.012  15.263  1.00  0.00    -0.393 OA
ATOM     31  H   UNL     1      22.412  27.053  15.019  1.00  0.00     0.210 HD
ENDBRANCH  29  30
ENDBRANCH   9  11
ENDBRANCH   1   9
TORSDOF 7
ENDMDL
MODEL 4
REMARK VINA RESULT:    -5.077      1.213      2.312
REMARK INTER + INTRA:          -8.007
REMARK INTER:                  -7.303
REMARK INTRA:                  -0.705
REMARK UNBOUND:                -1.001
REMARK SMILES CC[C@H](CC[C@H](C)[C@H]1CC[C@H]2[C@@H]3CC=C4C[C@@H](O)CC[C@]4(C)[C@@H]3CC[C@@]12C)C(C)C
REMARK SMILES IDX 5 1 4 2 3 3 2 4 1 5 28 6 29 7 30 8 6 9 7 10 8 11 9 12 26 13
REMARK SMILES IDX 10 14 11 15 25 16 27 17 12 18 24 19 23 20 13 21 21 22 14 23
REMARK SMILES IDX 15 24 20 25 22 26 16 27 19 28 17 29 18 30
REMARK H PARENT 18 31
REMARK Flexibility Score: inf
ROOT
ATOM      1  C   UNL     1      22.731  29.283  18.710  1.00  0.00     0.004 C 
ENDROOT
BRANCH   1   2
ATOM      2  C   UNL     1      23.976  29.591  17.856  1.00  0.00     0.004 C 
BRANCH   2   3
ATOM      3  C   UNL     1      23.801  29.188  16.366  1.00  0.00    -0.009 C 
BRANCH   3   4
ATOM      4  C   UNL     1      23.002  27.856  16.216  1.00  0.00     0.000 C 
ATOM      5  C   UNL     1      23.912  26.663  15.915  1.00  0.00     0.004 C 
ENDBRANCH   3   4
BRANCH   3   6
ATOM      6  C   UNL     1      23.189  30.368  15.544  1.00  0.00    -0.014 C 
ATOM      7  C   UNL     1      23.424  30.200  14.034  1.00  0.00     0.007 C 
ATOM      8  C   UNL     1      21.699  30.618  15.835  1.00  0.00     0.007 C 
ENDBRANCH   3   6
ENDBRANCH   2   3
ENDBRANCH   1   2
BRANCH   1   9
ATOM      9  C   UNL     1      22.780  29.954  20.114  1.00  0.00    -0.011 C 
ATOM     10  C   UNL     1      24.063  30.812  20.234  1.00  0.00     0.008 C 
BRANCH   9  11
ATOM     11  C   UNL     1      22.572  28.868  21.234  1.00  0.00    -0.002 C 
ATOM     12  C   UNL     1      23.795  27.996  21.533  1.00  0.00     0.005 C 
ATOM     13  C   UNL     1      21.961  29.251  22.620  1.00  0.00    -0.026 C 
ATOM     14  C   UNL     1      23.537  27.360  22.895  1.00  0.00     0.005 C 
ATOM     15  C   UNL     1      22.218  27.944  23.434  1.00  0.00    -0.001 C 
ATOM     16  C   UNL     1      22.667  30.466  23.279  1.00  0.00     0.007 C 
ATOM     17  C   UNL     1      20.447  29.553  22.452  1.00  0.00     0.012 C 
ATOM     18  C   UNL     1      22.230  28.055  24.990  1.00  0.00     0.000 C 
ATOM     19  C   UNL     1      22.478  30.562  24.799  1.00  0.00     0.005 C 
ATOM     20  C   UNL     1      23.003  29.294  25.508  1.00  0.00     0.003 C 
ATOM     21  C   UNL     1      20.809  27.989  25.575  1.00  0.00     0.031 C 
ATOM     22  C   UNL     1      23.032  29.339  27.096  1.00  0.00    -0.008 C 
ATOM     23  C   UNL     1      20.774  28.207  27.057  1.00  0.00    -0.027 C 
ATOM     24  C   UNL     1      21.700  28.918  27.730  1.00  0.00    -0.065 C 
ATOM     25  C   UNL     1      23.397  30.764  27.622  1.00  0.00     0.014 C 
ATOM     26  C   UNL     1      24.125  28.339  27.574  1.00  0.00     0.016 C 
ATOM     27  C   UNL     1      21.515  29.112  29.226  1.00  0.00     0.063 C 
ATOM     28  C   UNL     1      23.323  30.901  29.152  1.00  0.00     0.033 C 
ATOM     29  C   UNL     1      21.919  30.530  29.658  1.00  0.00     0.118 C 
BRANCH  29  30
ATOM     30  O   UNL     1      21.845  30.661  31.056  1.00  0.00    -0.393 OA
ATOM     31  H   UNL     1      21.260  31.438  31.255  1.00  0.00     0.210 HD
ENDBRANCH  29  30
ENDBRANCH   9  11
ENDBRANCH   1   9
TORSDOF 7
ENDMDL
MODEL 5
REMARK VINA RESULT:    -4.999      3.857      9.952
REMARK INTER + INTRA:          -7.899
REMARK INTER:                  -6.643
REMARK INTRA:                  -1.256
REMARK UNBOUND:                -1.001
REMARK SMILES CC[C@H](CC[C@H](C)[C@H]1CC[C@H]2[C@@H]3CC=C4C[C@@H](O)CC[C@]4(C)[C@@H]3CC[C@@]12C)C(C)C
REMARK SMILES IDX 5 1 4 2 3 3 2 4 1 5 28 6 29 7 30 8 6 9 7 10 8 11 9 12 26 13
REMARK SMILES IDX 10 14 11 15 25 16 27 17 12 18 24 19 23 20 13 21 21 22 14 23
REMARK SMILES IDX 15 24 20 25 22 26 16 27 19 28 17 29 18 30
REMARK H PARENT 18 31
REMARK Flexibility Score: inf
ROOT
ATOM      1  C   UNL     1      23.338  28.837  24.658  1.00  0.00     0.004 C 
ENDROOT
BRANCH   1   2
ATOM      2  C   UNL     1      22.545  29.642  25.707  1.00  0.00     0.004 C 
BRANCH   2   3
ATOM      3  C   UNL     1      21.513  28.774  26.479  1.00  0.00    -0.009 C 
BRANCH   3   4
ATOM      4  C   UNL     1      20.513  28.065  25.513  1.00  0.00     0.000 C 
ATOM      5  C   UNL     1      19.055  28.314  25.901  1.00  0.00     0.004 C 
ENDBRANCH   3   4
BRANCH   3   6
ATOM      6  C   UNL     1      22.240  27.785  27.447  1.00  0.00    -0.014 C 
ATOM      7  C   UNL     1      21.821  28.001  28.910  1.00  0.00     0.007 C 
ATOM      8  C   UNL     1      22.086  26.306  27.051  1.00  0.00     0.007 C 
ENDBRANCH   3   6
ENDBRANCH   2   3
ENDBRANCH   1   2
BRANCH   1   9
ATOM      9  C   UNL     1      23.640  29.656  23.369  1.00  0.00    -0.011 C 
ATOM     10  C   UNL     1      23.753  31.160  23.725  1.00  0.00     0.008 C 
BRANCH   9  11
ATOM     11  C   UNL     1      22.596  29.293  22.247  1.00  0.00    -0.002 C 
ATOM     12  C   UNL     1      21.432  30.276  22.095  1.00  0.00     0.005 C 
ATOM     13  C   UNL     1      23.065  28.944  20.798  1.00  0.00    -0.026 C 
ATOM     14  C   UNL     1      20.827  30.004  20.721  1.00  0.00     0.005 C 
ATOM     15  C   UNL     1      21.705  28.940  20.034  1.00  0.00    -0.001 C 
ATOM     16  C   UNL     1      24.035  30.002  20.204  1.00  0.00     0.007 C 
ATOM     17  C   UNL     1      23.747  27.550  20.796  1.00  0.00     0.012 C 
ATOM     18  C   UNL     1      21.745  29.139  18.487  1.00  0.00     0.000 C 
ATOM     19  C   UNL     1      24.114  29.999  18.671  1.00  0.00     0.005 C 
ATOM     20  C   UNL     1      22.727  30.251  18.040  1.00  0.00     0.003 C 
ATOM     21  C   UNL     1      22.018  27.815  17.753  1.00  0.00     0.031 C 
ATOM     22  C   UNL     1      22.698  30.453  16.464  1.00  0.00    -0.008 C 
ATOM     23  C   UNL     1      22.176  27.988  16.273  1.00  0.00    -0.027 C 
ATOM     24  C   UNL     1      22.603  29.129  15.696  1.00  0.00    -0.065 C 
ATOM     25  C   UNL     1      23.963  31.222  15.963  1.00  0.00     0.014 C 
ATOM     26  C   UNL     1      21.437  31.296  16.121  1.00  0.00     0.016 C 
ATOM     27  C   UNL     1      22.776  29.153  14.185  1.00  0.00     0.063 C 
ATOM     28  C   UNL     1      24.052  31.341  14.432  1.00  0.00     0.033 C 
ATOM     29  C   UNL     1      24.028  29.948  13.781  1.00  0.00     0.118 C 
BRANCH  29  30
ATOM     30  O   UNL     1      24.116  30.052  12.382  1.00  0.00    -0.393 OA
ATOM     31  H   UNL     1      24.088  29.132  12.010  1.00  0.00     0.210 HD
ENDBRANCH  29  30
ENDBRANCH   9  11
ENDBRANCH   1   9
TORSDOF 7
ENDMDL
MODEL 6
REMARK VINA RESULT:    -4.775      1.888      3.394
REMARK INTER + INTRA:          -7.591
REMARK INTER:                  -7.275
REMARK INTRA:                  -0.316
REMARK UNBOUND:                -1.001
REMARK SMILES CC[C@H](CC[C@H](C)[C@H]1CC[C@H]2[C@@H]3CC=C4C[C@@H](O)CC[C@]4(C)[C@@H]3CC[C@@]12C)C(C)C
REMARK SMILES IDX 5 1 4 2 3 3 2 4 1 5 28 6 29 7 30 8 6 9 7 10 8 11 9 12 26 13
REMARK SMILES IDX 10 14 11 15 25 16 27 17 12 18 24 19 23 20 13 21 21 22 14 23
REMARK SMILES IDX 15 24 20 25 22 26 16 27 19 28 17 29 18 30
REMARK H PARENT 18 31
REMARK Flexibility Score: inf
ROOT
ATOM      1  C   UNL     1      22.232  30.196  19.469  1.00  0.00     0.004 C 
ENDROOT
BRANCH   1   2
ATOM      2  C   UNL     1      23.097  29.923  18.223  1.00  0.00     0.004 C 
BRANCH   2   3
ATOM      3  C   UNL     1      22.253  29.557  16.971  1.00  0.00    -0.009 C 
BRANCH   3   4
ATOM      4  C   UNL     1      21.952  30.809  16.089  1.00  0.00     0.000 C 
ATOM      5  C   UNL     1      20.874  31.706  16.701  1.00  0.00     0.004 C 
ENDBRANCH   3   4
BRANCH   3   6
ATOM      6  C   UNL     1      22.923  28.391  16.175  1.00  0.00    -0.014 C 
ATOM      7  C   UNL     1      23.731  28.906  14.972  1.00  0.00     0.007 C 
ATOM      8  C   UNL     1      23.784  27.461  17.048  1.00  0.00     0.007 C 
ENDBRANCH   3   6
ENDBRANCH   2   3
ENDBRANCH   1   2
BRANCH   1   9
ATOM      9  C   UNL     1      23.057  30.196  20.789  1.00  0.00    -0.011 C 
ATOM     10  C   UNL     1      24.085  29.039  20.759  1.00  0.00     0.008 C 
BRANCH   9  11
ATOM     11  C   UNL     1      22.086  30.220  22.028  1.00  0.00    -0.002 C 
ATOM     12  C   UNL     1      20.908  29.243  21.953  1.00  0.00     0.005 C 
ATOM     13  C   UNL     1      22.641  30.121  23.485  1.00  0.00    -0.026 C 
ATOM     14  C   UNL     1      20.386  29.102  23.380  1.00  0.00     0.005 C 
ATOM     15  C   UNL     1      21.325  29.910  24.296  1.00  0.00    -0.001 C 
ATOM     16  C   UNL     1      23.616  28.929  23.683  1.00  0.00     0.007 C 
ATOM     17  C   UNL     1      23.356  31.449  23.857  1.00  0.00     0.012 C 
ATOM     18  C   UNL     1      21.445  29.263  25.710  1.00  0.00     0.000 C 
ATOM     19  C   UNL     1      23.779  28.479  25.142  1.00  0.00     0.005 C 
ATOM     20  C   UNL     1      22.422  28.061  25.751  1.00  0.00     0.003 C 
ATOM     21  C   UNL     1      21.789  30.309  26.784  1.00  0.00     0.031 C 
ATOM     22  C   UNL     1      22.475  27.404  27.197  1.00  0.00    -0.008 C 
ATOM     23  C   UNL     1      22.024  29.705  28.136  1.00  0.00    -0.027 C 
ATOM     24  C   UNL     1      22.454  28.442  28.326  1.00  0.00    -0.065 C 
ATOM     25  C   UNL     1      23.746  26.512  27.374  1.00  0.00     0.014 C 
ATOM     26  C   UNL     1      21.214  26.506  27.351  1.00  0.00     0.016 C 
ATOM     27  C   UNL     1      22.708  27.972  29.749  1.00  0.00     0.063 C 
ATOM     28  C   UNL     1      23.916  25.946  28.794  1.00  0.00     0.033 C 
ATOM     29  C   UNL     1      23.961  27.084  29.826  1.00  0.00     0.118 C 
BRANCH  29  30
ATOM     30  O   UNL     1      24.123  26.571  31.125  1.00  0.00    -0.393 OA
ATOM     31  H   UNL     1      24.902  27.031  31.535  1.00  0.00     0.210 HD
ENDBRANCH  29  30
ENDBRANCH   9  11
ENDBRANCH   1   9
TORSDOF 7
ENDMDL
MODEL 7
REMARK VINA RESULT:    -4.318      2.226      4.499
REMARK INTER + INTRA:          -6.960
REMARK INTER:                  -6.514
REMARK INTRA:                  -0.446
REMARK UNBOUND:                -1.001
REMARK SMILES CC[C@H](CC[C@H](C)[C@H]1CC[C@H]2[C@@H]3CC=C4C[C@@H](O)CC[C@]4(C)[C@@H]3CC[C@@]12C)C(C)C
REMARK SMILES IDX 5 1 4 2 3 3 2 4 1 5 28 6 29 7 30 8 6 9 7 10 8 11 9 12 26 13
REMARK SMILES IDX 10 14 11 15 25 16 27 17 12 18 24 19 23 20 13 21 21 22 14 23
REMARK SMILES IDX 15 24 20 25 22 26 16 27 19 28 17 29 18 30
REMARK H PARENT 18 31
REMARK Flexibility Score: inf
ROOT
ATOM      1  C   UNL     1      21.651  28.233  23.436  1.00  0.00     0.004 C 
ENDROOT
BRANCH   1   2
ATOM      2  C   UNL     1      21.890  28.624  21.964  1.00  0.00     0.004 C 
BRANCH   2   3
ATOM      3  C   UNL     1      22.147  30.145  21.779  1.00  0.00    -0.009 C 
BRANCH   3   4
ATOM      4  C   UNL     1      23.391  30.627  22.589  1.00  0.00     0.000 C 
ATOM      5  C   UNL     1      23.412  32.145  22.774  1.00  0.00     0.004 C 
ENDBRANCH   3   4
BRANCH   3   6
ATOM      6  C   UNL     1      22.223  30.510  20.261  1.00  0.00    -0.014 C 
ATOM      7  C   UNL     1      23.260  29.654  19.515  1.00  0.00     0.007 C 
ATOM      8  C   UNL     1      20.863  30.462  19.543  1.00  0.00     0.007 C 
ENDBRANCH   3   6
ENDBRANCH   2   3
ENDBRANCH   1   2
BRANCH   1   9
ATOM      9  C   UNL     1      22.853  27.465  24.059  1.00  0.00    -0.011 C 
ATOM     10  C   UNL     1      22.610  25.939  23.944  1.00  0.00     0.008 C 
BRANCH   9  11
ATOM     11  C   UNL     1      23.142  28.007  25.508  1.00  0.00    -0.002 C 
ATOM     12  C   UNL     1      24.125  29.179  25.584  1.00  0.00     0.005 C 
ATOM     13  C   UNL     1      21.972  28.356  26.483  1.00  0.00    -0.026 C 
ATOM     14  C   UNL     1      23.916  29.818  26.953  1.00  0.00     0.005 C 
ATOM     15  C   UNL     1      22.740  29.085  27.628  1.00  0.00    -0.001 C 
ATOM     16  C   UNL     1      20.909  29.289  25.843  1.00  0.00     0.007 C 
ATOM     17  C   UNL     1      21.294  27.046  26.968  1.00  0.00     0.012 C 
ATOM     18  C   UNL     1      21.923  30.039  28.553  1.00  0.00     0.000 C 
ATOM     19  C   UNL     1      20.051  30.062  26.855  1.00  0.00     0.005 C 
ATOM     20  C   UNL     1      20.928  30.939  27.775  1.00  0.00     0.003 C 
ATOM     21  C   UNL     1      21.222  29.269  29.684  1.00  0.00     0.031 C 
ATOM     22  C   UNL     1      20.155  31.927  28.749  1.00  0.00    -0.008 C 
ATOM     23  C   UNL     1      20.336  30.138  30.524  1.00  0.00    -0.027 C 
ATOM     24  C   UNL     1      19.751  31.265  30.073  1.00  0.00    -0.065 C 
ATOM     25  C   UNL     1      18.868  32.503  28.076  1.00  0.00     0.014 C 
ATOM     26  C   UNL     1      21.113  33.108  29.079  1.00  0.00     0.016 C 
ATOM     27  C   UNL     1      18.827  32.024  31.011  1.00  0.00     0.063 C 
ATOM     28  C   UNL     1      18.011  33.371  29.012  1.00  0.00     0.033 C 
ATOM     29  C   UNL     1      17.602  32.575  30.262  1.00  0.00     0.118 C 
BRANCH  29  30
ATOM     30  O   UNL     1      16.813  33.363  31.118  1.00  0.00    -0.393 OA
ATOM     31  H   UNL     1      16.238  32.750  31.646  1.00  0.00     0.210 HD
ENDBRANCH  29  30
ENDBRANCH   9  11
ENDBRANCH   1   9
TORSDOF 7
ENDMDL
MODEL 8
REMARK VINA RESULT:    -4.111      3.422      9.312
REMARK INTER + INTRA:          -6.674
REMARK INTER:                  -5.771
REMARK INTRA:                  -0.903
REMARK UNBOUND:                -1.001
REMARK SMILES CC[C@H](CC[C@H](C)[C@H]1CC[C@H]2[C@@H]3CC=C4C[C@@H](O)CC[C@]4(C)[C@@H]3CC[C@@]12C)C(C)C
REMARK SMILES IDX 5 1 4 2 3 3 2 4 1 5 28 6 29 7 30 8 6 9 7 10 8 11 9 12 26 13
REMARK SMILES IDX 10 14 11 15 25 16 27 17 12 18 24 19 23 20 13 21 21 22 14 23
REMARK SMILES IDX 15 24 20 25 22 26 16 27 19 28 17 29 18 30
REMARK H PARENT 18 31
REMARK Flexibility Score: inf
ROOT
ATOM      1  C   UNL     1      21.617  29.253  26.876  1.00  0.00     0.004 C 
ENDROOT
BRANCH   1   2
ATOM      2  C   UNL     1      21.150  27.814  27.173  1.00  0.00     0.004 C 
BRANCH   2   3
ATOM      3  C   UNL     1      22.163  27.017  28.041  1.00  0.00    -0.009 C 
BRANCH   3   4
ATOM      4  C   UNL     1      23.382  26.523  27.201  1.00  0.00     0.000 C 
ATOM      5  C   UNL     1      22.958  25.652  26.017  1.00  0.00     0.004 C 
ENDBRANCH   3   4
BRANCH   3   6
ATOM      6  C   UNL     1      22.579  27.843  29.301  1.00  0.00    -0.014 C 
ATOM      7  C   UNL     1      21.548  27.721  30.434  1.00  0.00     0.007 C 
ATOM      8  C   UNL     1      23.992  27.518  29.816  1.00  0.00     0.007 C 
ENDBRANCH   3   6
ENDBRANCH   2   3
ENDBRANCH   1   2
BRANCH   1   9
ATOM      9  C   UNL     1      22.817  29.305  25.886  1.00  0.00    -0.011 C 
ATOM     10  C   UNL     1      24.108  29.686  26.654  1.00  0.00     0.008 C 
BRANCH   9  11
ATOM     11  C   UNL     1      22.456  30.218  24.655  1.00  0.00    -0.002 C 
ATOM     12  C   UNL     1      23.509  31.269  24.291  1.00  0.00     0.005 C 
ATOM     13  C   UNL     1      21.979  29.593  23.305  1.00  0.00    -0.026 C 
ATOM     14  C   UNL     1      23.190  31.708  22.865  1.00  0.00     0.005 C 
ATOM     15  C   UNL     1      22.022  30.837  22.365  1.00  0.00    -0.001 C 
ATOM     16  C   UNL     1      22.921  28.472  22.789  1.00  0.00     0.007 C 
ATOM     17  C   UNL     1      20.542  29.031  23.475  1.00  0.00     0.012 C 
ATOM     18  C   UNL     1      22.114  30.578  20.829  1.00  0.00     0.000 C 
ATOM     19  C   UNL     1      22.811  28.193  21.284  1.00  0.00     0.005 C 
ATOM     20  C   UNL     1      23.120  29.460  20.458  1.00  0.00     0.003 C 
ATOM     21  C   UNL     1      20.728  30.319  20.214  1.00  0.00     0.031 C 
ATOM     22  C   UNL     1      23.218  29.266  18.884  1.00  0.00    -0.008 C 
ATOM     23  C   UNL     1      20.790  29.954  18.762  1.00  0.00    -0.027 C 
ATOM     24  C   UNL     1      21.856  29.365  18.185  1.00  0.00    -0.065 C 
ATOM     25  C   UNL     1      23.858  27.889  18.516  1.00  0.00     0.014 C 
ATOM     26  C   UNL     1      24.125  30.399  18.325  1.00  0.00     0.016 C 
ATOM     27  C   UNL     1      21.766  28.994  16.713  1.00  0.00     0.063 C 
ATOM     28  C   UNL     1      23.868  27.590  17.008  1.00  0.00     0.033 C 
ATOM     29  C   UNL     1      22.440  27.640  16.439  1.00  0.00     0.118 C 
BRANCH  29  30
ATOM     30  O   UNL     1      22.444  27.361  15.061  1.00  0.00    -0.393 OA
ATOM     31  H   UNL     1      21.703  26.726  14.881  1.00  0.00     0.210 HD
ENDBRANCH  29  30
ENDBRANCH   9  11
ENDBRANCH   1   9
TORSDOF 7
ENDMDL
MODEL 9
REMARK VINA RESULT:    -3.848      3.216      9.390
REMARK INTER + INTRA:          -6.310
REMARK INTER:                  -5.522
REMARK INTRA:                  -0.788
REMARK UNBOUND:                -1.001
REMARK SMILES CC[C@H](CC[C@H](C)[C@H]1CC[C@H]2[C@@H]3CC=C4C[C@@H](O)CC[C@]4(C)[C@@H]3CC[C@@]12C)C(C)C
REMARK SMILES IDX 5 1 4 2 3 3 2 4 1 5 28 6 29 7 30 8 6 9 7 10 8 11 9 12 26 13
REMARK SMILES IDX 10 14 11 15 25 16 27 17 12 18 24 19 23 20 13 21 21 22 14 23
REMARK SMILES IDX 15 24 20 25 22 26 16 27 19 28 17 29 18 30
REMARK H PARENT 18 31
REMARK Flexibility Score: inf
ROOT
ATOM      1  C   UNL     1      20.514  29.451  27.026  1.00  0.00     0.004 C 
ENDROOT
BRANCH   1   2
ATOM      2  C   UNL     1      20.711  29.828  28.508  1.00  0.00     0.004 C 
BRANCH   2   3
ATOM      3  C   UNL     1      21.336  31.239  28.693  1.00  0.00    -0.009 C 
BRANCH   3   4
ATOM      4  C   UNL     1      20.323  32.372  28.342  1.00  0.00     0.000 C 
ATOM      5  C   UNL     1      19.148  32.425  29.321  1.00  0.00     0.004 C 
ENDBRANCH   3   4
BRANCH   3   6
ATOM      6  C   UNL     1      21.953  31.385  30.122  1.00  0.00    -0.014 C 
ATOM      7  C   UNL     1      22.018  30.038  30.860  1.00  0.00     0.007 C 
ATOM      8  C   UNL     1      23.327  32.077  30.135  1.00  0.00     0.007 C 
ENDBRANCH   3   6
ENDBRANCH   2   3
ENDBRANCH   1   2
BRANCH   1   9
ATOM      9  C   UNL     1      21.204  28.107  26.648  1.00  0.00    -0.011 C 
ATOM     10  C   UNL     1      21.468  27.280  27.931  1.00  0.00     0.008 C 
BRANCH   9  11
ATOM     11  C   UNL     1      22.459  28.386  25.740  1.00  0.00    -0.002 C 
ATOM     12  C   UNL     1      23.273  27.148  25.352  1.00  0.00     0.005 C 
ATOM     13  C   UNL     1      22.337  29.251  24.445  1.00  0.00    -0.026 C 
ATOM     14  C   UNL     1      24.125  27.561  24.156  1.00  0.00     0.005 C 
ATOM     15  C   UNL     1      23.728  29.003  23.784  1.00  0.00    -0.001 C 
ATOM     16  C   UNL     1      21.186  28.786  23.512  1.00  0.00     0.007 C 
ATOM     17  C   UNL     1      22.126  30.739  24.834  1.00  0.00     0.012 C 
ATOM     18  C   UNL     1      23.853  29.256  22.250  1.00  0.00     0.000 C 
ATOM     19  C   UNL     1      21.334  29.230  22.051  1.00  0.00     0.005 C 
ATOM     20  C   UNL     1      22.652  28.705  21.440  1.00  0.00     0.003 C 
ATOM     21  C   UNL     1      24.112  30.740  21.940  1.00  0.00     0.031 C 
ATOM     22  C   UNL     1      22.846  28.941  19.880  1.00  0.00    -0.008 C 
ATOM     23  C   UNL     1      24.124  31.038  20.471  1.00  0.00    -0.027 C 
ATOM     24  C   UNL     1      23.455  30.311  19.555  1.00  0.00    -0.065 C 
ATOM     25  C   UNL     1      21.493  28.810  19.109  1.00  0.00     0.014 C 
ATOM     26  C   UNL     1      23.822  27.848  19.358  1.00  0.00     0.016 C 
ATOM     27  C   UNL     1      23.505  30.756  18.102  1.00  0.00     0.063 C 
ATOM     28  C   UNL     1      21.595  29.148  17.613  1.00  0.00     0.033 C 
ATOM     29  C   UNL     1      22.142  30.571  17.417  1.00  0.00     0.118 C 
BRANCH  29  30
ATOM     30  O   UNL     1      22.230  30.886  16.050  1.00  0.00    -0.393 OA
ATOM     31  H   UNL     1      22.662  30.119  15.592  1.00  0.00     0.210 HD
ENDBRANCH  29  30
ENDBRANCH   9  11
ENDBRANCH   1   9
TORSDOF 7
ENDMDL
