MODEL 1
REMARK VINA RESULT:    -5.426      0.000      0.000
REMARK INTER + INTRA:          -7.138
REMARK INTER:                  -6.695
REMARK INTRA:                  -0.443
REMARK UNBOUND:                -0.443
REMARK SMILES CC(C)=CCC[C@@H](C)c1ccc(C)cc1
REMARK SMILES IDX 6 1 7 2 8 3 9 4 13 5 12 6 11 7 14 8 10 9 15 10 5 11 4 12
REMARK SMILES IDX 2 13 1 14 3 15
REMARK H PARENT
REMARK Flexibility Score: inf
ROOT
ATOM      1  C   UNL     1     126.095 126.178 103.131  1.00  0.00     0.012 C 
ENDROOT
BRANCH   1   2
ATOM      2  C   UNL     1     126.525 124.716 102.877  1.00  0.00     0.016 C 
ATOM      3  C   UNL     1     128.026 124.492 103.124  1.00  0.00     0.013 C 
BRANCH   2   4
ATOM      4  C   UNL     1     125.624 123.730 103.608  1.00  0.00    -0.045 A 
ATOM      5  C   UNL     1     123.006 121.116 105.844  1.00  0.00     0.044 C 
ATOM      6  C   UNL     1     123.907 122.007 105.042  1.00  0.00    -0.051 A 
ATOM      7  C   UNL     1     123.417 123.203 104.499  1.00  0.00     0.004 A 
ATOM      8  C   UNL     1     125.264 121.690 104.895  1.00  0.00     0.004 A 
ATOM      9  C   UNL     1     124.266 124.053 103.787  1.00  0.00     0.004 A 
ATOM     10  C   UNL     1     126.115 122.540 104.184  1.00  0.00     0.004 A 
ENDBRANCH   2   4
ENDBRANCH   1   2
BRANCH   1  11
ATOM     11  C   UNL     1     127.201 127.217 102.877  1.00  0.00     0.028 C 
BRANCH  11  12
ATOM     12  C   UNL     1     126.697 128.611 103.155  1.00  0.00    -0.028 C 
ATOM     13  C   UNL     1     127.498 129.686 103.326  1.00  0.00    -0.080 C 
ATOM     14  C   UNL     1     129.002 129.593 103.200  1.00  0.00     0.039 C 
ATOM     15  C   UNL     1     126.860 131.017 103.631  1.00  0.00     0.039 C 
ENDBRANCH  11  12
ENDBRANCH   1  11
TORSDOF 4
ENDMDL
MODEL 2
REMARK VINA RESULT:    -5.318     17.375     19.466
REMARK INTER + INTRA:          -7.005
REMARK INTER:                  -6.413
REMARK INTRA:                  -0.592
REMARK UNBOUND:                -0.443
REMARK SMILES CC(C)=CCC[C@@H](C)c1ccc(C)cc1
REMARK SMILES IDX 6 1 7 2 8 3 9 4 13 5 12 6 11 7 14 8 10 9 15 10 5 11 4 12
REMARK SMILES IDX 2 13 1 14 3 15
REMARK H PARENT
REMARK Flexibility Score: inf
ROOT
ATOM      1  C   UNL     1     123.990 124.806 122.385  1.00  0.00     0.012 C 
ENDROOT
BRANCH   1   2
ATOM      2  C   UNL     1     122.522 124.692 121.920  1.00  0.00     0.016 C 
ATOM      3  C   UNL     1     121.842 123.405 122.418  1.00  0.00     0.013 C 
BRANCH   2   4
ATOM      4  C   UNL     1     121.737 125.962 122.220  1.00  0.00    -0.045 A 
ATOM      5  C   UNL     1     119.426 129.563 122.833  1.00  0.00     0.044 C 
ATOM      6  C   UNL     1     120.223 128.306 122.651  1.00  0.00    -0.051 A 
ATOM      7  C   UNL     1     119.599 127.133 122.205  1.00  0.00     0.004 A 
ATOM      8  C   UNL     1     121.610 128.315 122.849  1.00  0.00     0.004 A 
ATOM      9  C   UNL     1     120.348 125.973 121.995  1.00  0.00     0.004 A 
ATOM     10  C   UNL     1     122.361 127.156 122.639  1.00  0.00     0.004 A 
ENDBRANCH   2   4
ENDBRANCH   1   2
BRANCH   1  11
ATOM     11  C   UNL     1     124.577 123.502 122.955  1.00  0.00     0.028 C 
BRANCH  11  12
ATOM     12  C   UNL     1     126.050 123.404 122.652  1.00  0.00    -0.028 C 
ATOM     13  C   UNL     1     126.561 122.784 121.565  1.00  0.00    -0.080 C 
ATOM     14  C   UNL     1     125.677 122.166 120.506  1.00  0.00     0.039 C 
ATOM     15  C   UNL     1     128.059 122.732 121.403  1.00  0.00     0.039 C 
ENDBRANCH  11  12
ENDBRANCH   1  11
TORSDOF 4
ENDMDL
MODEL 3
REMARK VINA RESULT:    -5.207     17.275     19.104
REMARK INTER + INTRA:          -6.868
REMARK INTER:                  -6.057
REMARK INTRA:                  -0.811
REMARK UNBOUND:                -0.443
REMARK SMILES CC(C)=CCC[C@@H](C)c1ccc(C)cc1
REMARK SMILES IDX 6 1 7 2 8 3 9 4 13 5 12 6 11 7 14 8 10 9 15 10 5 11 4 12
REMARK SMILES IDX 2 13 1 14 3 15
REMARK H PARENT
REMARK Flexibility Score: inf
ROOT
ATOM      1  C   UNL     1     121.569 124.828 121.660  1.00  0.00     0.012 C 
ENDROOT
BRANCH   1   2
ATOM      2  C   UNL     1     122.027 123.384 121.359  1.00  0.00     0.016 C 
ATOM      3  C   UNL     1     121.387 122.816 120.081  1.00  0.00     0.013 C 
BRANCH   2   4
ATOM      4  C   UNL     1     123.544 123.256 121.401  1.00  0.00    -0.045 A 
ATOM      5  C   UNL     1     127.820 122.641 121.545  1.00  0.00     0.044 C 
ATOM      6  C   UNL     1     126.341 122.879 121.476  1.00  0.00    -0.051 A 
ATOM      7  C   UNL     1     125.566 122.230 120.506  1.00  0.00     0.004 A 
ATOM      8  C   UNL     1     125.712 123.692 122.429  1.00  0.00     0.004 A 
ATOM      9  C   UNL     1     124.182 122.419 120.468  1.00  0.00     0.004 A 
ATOM     10  C   UNL     1     124.328 123.881 122.393  1.00  0.00     0.004 A 
ENDBRANCH   2   4
ENDBRANCH   1   2
BRANCH   1  11
ATOM     11  C   UNL     1     120.451 124.931 122.713  1.00  0.00     0.028 C 
BRANCH  11  12
ATOM     12  C   UNL     1     119.095 124.922 122.055  1.00  0.00    -0.028 C 
ATOM     13  C   UNL     1     118.246 123.872 122.084  1.00  0.00    -0.080 C 
ATOM     14  C   UNL     1     118.567 122.602 122.839  1.00  0.00     0.039 C 
ATOM     15  C   UNL     1     116.932 123.988 121.353  1.00  0.00     0.039 C 
ENDBRANCH  11  12
ENDBRANCH   1  11
TORSDOF 4
ENDMDL
MODEL 4
REMARK VINA RESULT:    -5.187     14.823     18.154
REMARK INTER + INTRA:          -6.843
REMARK INTER:                  -6.063
REMARK INTRA:                  -0.780
REMARK UNBOUND:                -0.443
REMARK SMILES CC(C)=CCC[C@@H](C)c1ccc(C)cc1
REMARK SMILES IDX 6 1 7 2 8 3 9 4 13 5 12 6 11 7 14 8 10 9 15 10 5 11 4 12
REMARK SMILES IDX 2 13 1 14 3 15
REMARK H PARENT
REMARK Flexibility Score: inf
ROOT
ATOM      1  C   UNL     1     117.432 122.422 120.898  1.00  0.00     0.012 C 
ENDROOT
BRANCH   1   2
ATOM      2  C   UNL     1     117.676 120.945 120.518  1.00  0.00     0.016 C 
ATOM      3  C   UNL     1     116.384 120.111 120.530  1.00  0.00     0.013 C 
BRANCH   2   4
ATOM      4  C   UNL     1     118.481 120.822 119.231  1.00  0.00    -0.045 A 
ATOM      5  C   UNL     1     120.750 120.724 115.553  1.00  0.00     0.044 C 
ATOM      6  C   UNL     1     119.979 120.733 116.839  1.00  0.00    -0.051 A 
ATOM      7  C   UNL     1     120.420 121.505 117.922  1.00  0.00     0.004 A 
ATOM      8  C   UNL     1     118.770 120.031 116.942  1.00  0.00     0.004 A 
ATOM      9  C   UNL     1     119.680 121.547 119.106  1.00  0.00     0.004 A 
ATOM     10  C   UNL     1     118.028 120.072 118.126  1.00  0.00     0.004 A 
ENDBRANCH   2   4
ENDBRANCH   1   2
BRANCH   1  11
ATOM     11  C   UNL     1     118.121 122.863 122.202  1.00  0.00     0.028 C 
BRANCH  11  12
ATOM     12  C   UNL     1     118.422 124.340 122.174  1.00  0.00    -0.028 C 
ATOM     13  C   UNL     1     119.658 124.858 121.996  1.00  0.00    -0.080 C 
ATOM     14  C   UNL     1     120.867 123.983 121.754  1.00  0.00     0.039 C 
ATOM     15  C   UNL     1     119.820 126.356 122.023  1.00  0.00     0.039 C 
ENDBRANCH  11  12
ENDBRANCH   1  11
TORSDOF 4
ENDMDL
MODEL 5
REMARK VINA RESULT:    -5.181     16.766     18.370
REMARK INTER + INTRA:          -6.835
REMARK INTER:                  -6.206
REMARK INTRA:                  -0.629
REMARK UNBOUND:                -0.443
REMARK SMILES CC(C)=CCC[C@@H](C)c1ccc(C)cc1
REMARK SMILES IDX 6 1 7 2 8 3 9 4 13 5 12 6 11 7 14 8 10 9 15 10 5 11 4 12
REMARK SMILES IDX 2 13 1 14 3 15
REMARK H PARENT
REMARK Flexibility Score: inf
ROOT
ATOM      1  C   UNL     1     122.502 123.309 121.708  1.00  0.00     0.012 C 
ENDROOT
BRANCH   1   2
ATOM      2  C   UNL     1     123.920 123.921 121.710  1.00  0.00     0.016 C 
ATOM      3  C   UNL     1     124.282 124.570 123.056  1.00  0.00     0.013 C 
BRANCH   2   4
ATOM      4  C   UNL     1     124.960 122.931 121.201  1.00  0.00    -0.045 A 
ATOM      5  C   UNL     1     128.062 120.318 119.706  1.00  0.00     0.044 C 
ATOM      6  C   UNL     1     126.977 121.202 120.245  1.00  0.00    -0.051 A 
ATOM      7  C   UNL     1     127.246 122.091 121.294  1.00  0.00     0.004 A 
ATOM      8  C   UNL     1     125.707 121.202 119.652  1.00  0.00     0.004 A 
ATOM      9  C   UNL     1     126.247 122.944 121.769  1.00  0.00     0.004 A 
ATOM     10  C   UNL     1     124.707 122.055 120.124  1.00  0.00     0.004 A 
ENDBRANCH   2   4
ENDBRANCH   1   2
BRANCH   1  11
ATOM     11  C   UNL     1     121.512 124.007 120.759  1.00  0.00     0.028 C 
BRANCH  11  12
ATOM     12  C   UNL     1     121.157 125.379 121.274  1.00  0.00    -0.028 C 
ATOM     13  C   UNL     1     119.997 125.677 121.899  1.00  0.00    -0.080 C 
ATOM     14  C   UNL     1     118.951 124.626 122.191  1.00  0.00     0.039 C 
ATOM     15  C   UNL     1     119.759 127.101 122.333  1.00  0.00     0.039 C 
ENDBRANCH  11  12
ENDBRANCH   1  11
TORSDOF 4
ENDMDL
MODEL 6
REMARK VINA RESULT:    -5.156     13.943     17.081
REMARK INTER + INTRA:          -6.805
REMARK INTER:                  -5.744
REMARK INTRA:                  -1.061
REMARK UNBOUND:                -0.443
REMARK SMILES CC(C)=CCC[C@@H](C)c1ccc(C)cc1
REMARK SMILES IDX 6 1 7 2 8 3 9 4 13 5 12 6 11 7 14 8 10 9 15 10 5 11 4 12
REMARK SMILES IDX 2 13 1 14 3 15
REMARK H PARENT
REMARK Flexibility Score: inf
ROOT
ATOM      1  C   UNL     1     122.081 123.036 118.551  1.00  0.00     0.012 C 
ENDROOT
BRANCH   1   2
ATOM      2  C   UNL     1     122.230 122.865 120.079  1.00  0.00     0.016 C 
ATOM      3  C   UNL     1     121.348 121.734 120.635  1.00  0.00     0.013 C 
BRANCH   2   4
ATOM      4  C   UNL     1     123.692 122.771 120.494  1.00  0.00    -0.045 A 
ATOM      5  C   UNL     1     127.863 122.753 121.629  1.00  0.00     0.044 C 
ATOM      6  C   UNL     1     126.411 122.736 121.256  1.00  0.00    -0.051 A 
ATOM      7  C   UNL     1     125.503 123.577 121.912  1.00  0.00     0.004 A 
ATOM      8  C   UNL     1     125.964 121.936 120.195  1.00  0.00     0.004 A 
ATOM      9  C   UNL     1     124.157 123.592 121.537  1.00  0.00     0.004 A 
ATOM     10  C   UNL     1     124.618 121.950 119.817  1.00  0.00     0.004 A 
ENDBRANCH   2   4
ENDBRANCH   1   2
BRANCH   1  11
ATOM     11  C   UNL     1     121.207 121.964 117.876  1.00  0.00     0.028 C 
BRANCH  11  12
ATOM     12  C   UNL     1     121.939 121.329 116.721  1.00  0.00    -0.028 C 
ATOM     13  C   UNL     1     122.591 120.147 116.796  1.00  0.00    -0.080 C 
ATOM     14  C   UNL     1     122.601 119.316 118.059  1.00  0.00     0.039 C 
ATOM     15  C   UNL     1     123.311 119.644 115.570  1.00  0.00     0.039 C 
ENDBRANCH  11  12
ENDBRANCH   1  11
TORSDOF 4
ENDMDL
MODEL 7
REMARK VINA RESULT:    -5.137     14.104     16.409
REMARK INTER + INTRA:          -6.781
REMARK INTER:                  -5.608
REMARK INTRA:                  -1.173
REMARK UNBOUND:                -0.443
REMARK SMILES CC(C)=CCC[C@@H](C)c1ccc(C)cc1
REMARK SMILES IDX 6 1 7 2 8 3 9 4 13 5 12 6 11 7 14 8 10 9 15 10 5 11 4 12
REMARK SMILES IDX 2 13 1 14 3 15
REMARK H PARENT
REMARK Flexibility Score: inf
ROOT
ATOM      1  C   UNL     1     122.747 122.669 117.598  1.00  0.00     0.012 C 
ENDROOT
BRANCH   1   2
ATOM      2  C   UNL     1     123.056 122.602 119.110  1.00  0.00     0.016 C 
ATOM      3  C   UNL     1     121.921 121.949 119.916  1.00  0.00     0.013 C 
BRANCH   2   4
ATOM      4  C   UNL     1     124.430 122.001 119.377  1.00  0.00    -0.045 A 
ATOM      5  C   UNL     1     128.219 120.066 120.140  1.00  0.00     0.044 C 
ATOM      6  C   UNL     1     126.919 120.759 119.859  1.00  0.00    -0.051 A 
ATOM      7  C   UNL     1     126.146 120.388 118.750  1.00  0.00     0.004 A 
ATOM      8  C   UNL     1     126.431 121.729 120.745  1.00  0.00     0.004 A 
ATOM      9  C   UNL     1     124.916 121.005 118.511  1.00  0.00     0.004 A 
ATOM     10  C   UNL     1     125.200 122.346 120.507  1.00  0.00     0.004 A 
ENDBRANCH   2   4
ENDBRANCH   1   2
BRANCH   1  11
ATOM     11  C   UNL     1     121.580 121.773 117.150  1.00  0.00     0.028 C 
BRANCH  11  12
ATOM     12  C   UNL     1     122.056 120.721 116.180  1.00  0.00    -0.028 C 
ATOM     13  C   UNL     1     122.218 119.417 116.496  1.00  0.00    -0.080 C 
ATOM     14  C   UNL     1     121.879 118.876 117.866  1.00  0.00     0.039 C 
ATOM     15  C   UNL     1     122.735 118.479 115.435  1.00  0.00     0.039 C 
ENDBRANCH  11  12
ENDBRANCH   1  11
TORSDOF 4
ENDMDL
MODEL 8
REMARK VINA RESULT:    -5.120     14.346     16.678
REMARK INTER + INTRA:          -6.760
REMARK INTER:                  -5.915
REMARK INTRA:                  -0.845
REMARK UNBOUND:                -0.443
REMARK SMILES CC(C)=CCC[C@@H](C)c1ccc(C)cc1
REMARK SMILES IDX 6 1 7 2 8 3 9 4 13 5 12 6 11 7 14 8 10 9 15 10 5 11 4 12
REMARK SMILES IDX 2 13 1 14 3 15
REMARK H PARENT
REMARK Flexibility Score: inf
ROOT
ATOM      1  C   UNL     1     125.331 119.914 120.584  1.00  0.00     0.012 C 
ENDROOT
BRANCH   1   2
ATOM      2  C   UNL     1     125.616 120.806 119.356  1.00  0.00     0.016 C 
ATOM      3  C   UNL     1     126.922 120.426 118.639  1.00  0.00     0.013 C 
BRANCH   2   4
ATOM      4  C   UNL     1     124.408 120.895 118.434  1.00  0.00    -0.045 A 
ATOM      5  C   UNL     1     120.832 121.176 116.021  1.00  0.00     0.044 C 
ATOM      6  C   UNL     1     122.089 121.092 116.835  1.00  0.00    -0.051 A 
ATOM      7  C   UNL     1     122.429 122.125 117.718  1.00  0.00     0.004 A 
ATOM      8  C   UNL     1     122.892 119.945 116.776  1.00  0.00     0.004 A 
ATOM      9  C   UNL     1     123.578 122.028 118.507  1.00  0.00     0.004 A 
ATOM     10  C   UNL     1     124.041 119.846 117.565  1.00  0.00     0.004 A 
ENDBRANCH   2   4
ENDBRANCH   1   2
BRANCH   1  11
ATOM     11  C   UNL     1     126.077 120.338 121.862  1.00  0.00     0.028 C 
BRANCH  11  12
ATOM     12  C   UNL     1     125.475 121.595 122.437  1.00  0.00    -0.028 C 
ATOM     13  C   UNL     1     126.073 122.807 122.402  1.00  0.00    -0.080 C 
ATOM     14  C   UNL     1     127.406 123.023 121.721  1.00  0.00     0.039 C 
ATOM     15  C   UNL     1     125.372 123.974 123.047  1.00  0.00     0.039 C 
ENDBRANCH  11  12
ENDBRANCH   1  11
TORSDOF 4
ENDMDL
MODEL 9
REMARK VINA RESULT:    -5.090     15.120     17.712
REMARK INTER + INTRA:          -6.723
REMARK INTER:                  -5.645
REMARK INTRA:                  -1.078
REMARK UNBOUND:                -0.443
REMARK SMILES CC(C)=CCC[C@@H](C)c1ccc(C)cc1
REMARK SMILES IDX 6 1 7 2 8 3 9 4 13 5 12 6 11 7 14 8 10 9 15 10 5 11 4 12
REMARK SMILES IDX 2 13 1 14 3 15
REMARK H PARENT
REMARK Flexibility Score: inf
ROOT
ATOM      1  C   UNL     1     124.226 124.343 122.025  1.00  0.00     0.012 C 
ENDROOT
BRANCH   1   2
ATOM      2  C   UNL     1     122.984 123.428 121.945  1.00  0.00     0.016 C 
ATOM      3  C   UNL     1     121.756 124.035 122.644  1.00  0.00     0.013 C 
BRANCH   2   4
ATOM      4  C   UNL     1     122.718 122.966 120.519  1.00  0.00    -0.045 A 
ATOM      5  C   UNL     1     121.836 121.457 116.565  1.00  0.00     0.044 C 
ATOM      6  C   UNL     1     122.141 122.009 117.925  1.00  0.00    -0.051 A 
ATOM      7  C   UNL     1     121.103 122.292 118.822  1.00  0.00     0.004 A 
ATOM      8  C   UNL     1     123.471 122.174 118.338  1.00  0.00     0.004 A 
ATOM      9  C   UNL     1     121.389 122.768 120.104  1.00  0.00     0.004 A 
ATOM     10  C   UNL     1     123.759 122.648 119.620  1.00  0.00     0.004 A 
ENDBRANCH   2   4
ENDBRANCH   1   2
BRANCH   1  11
ATOM     11  C   UNL     1     125.363 123.792 122.903  1.00  0.00     0.028 C 
BRANCH  11  12
ATOM     12  C   UNL     1     126.483 123.253 122.049  1.00  0.00    -0.028 C 
ATOM     13  C   UNL     1     126.684 121.940 121.802  1.00  0.00    -0.080 C 
ATOM     14  C   UNL     1     125.751 120.873 122.332  1.00  0.00     0.039 C 
ATOM     15  C   UNL     1     127.865 121.539 120.956  1.00  0.00     0.039 C 
ENDBRANCH  11  12
ENDBRANCH   1  11
TORSDOF 4
ENDMDL
