MODEL 1
REMARK VINA RESULT:    -4.129      0.000      0.000
REMARK INTER + INTRA:          -5.495
REMARK INTER:                  -5.336
REMARK INTRA:                  -0.159
REMARK UNBOUND:                -0.159
REMARK SMILES CCCCCCC(=O)[O-]
REMARK SMILES IDX 5 1 6 2 7 3 8 4 9 5 4 6 3 7 2 8 1 9
REMARK H PARENT
REMARK Flexibility Score: inf
ROOT
ATOM      1  C   UNL     1     -10.920 -19.806  31.592  1.00  0.00     0.006 C 
ENDROOT
BRANCH   1   2
ATOM      2  C   UNL     1     -12.368 -20.221  31.911  1.00  0.00     0.053 C 
BRANCH   2   3
ATOM      3  C   UNL     1     -12.747 -19.932  33.332  1.00  0.00     0.041 C 
ATOM      4  O   UNL     1     -13.774 -19.249  33.588  1.00  0.00    -0.550 OA
ATOM      5  O   UNL     1     -11.944 -20.379  34.374  1.00  0.00    -0.550 OA
ENDBRANCH   2   3
ENDBRANCH   1   2
BRANCH   1   6
ATOM      6  C   UNL     1     -10.786 -18.379  31.026  1.00  0.00     0.000 C 
BRANCH   6   7
ATOM      7  C   UNL     1     -10.720 -18.285  29.493  1.00  0.00    -0.000 C 
BRANCH   7   8
ATOM      8  C   UNL     1      -9.509 -19.019  28.899  1.00  0.00    -0.003 C 
ATOM      9  C   UNL     1      -9.616 -19.115  27.380  1.00  0.00     0.004 C 
ENDBRANCH   7   8
ENDBRANCH   6   7
ENDBRANCH   1   6
TORSDOF 5
ENDMDL
MODEL 2
REMARK VINA RESULT:    -4.128      0.246      1.055
REMARK INTER + INTRA:          -5.493
REMARK INTER:                  -5.329
REMARK INTRA:                  -0.163
REMARK UNBOUND:                -0.159
REMARK SMILES CCCCCCC(=O)[O-]
REMARK SMILES IDX 5 1 6 2 7 3 8 4 9 5 4 6 3 7 2 8 1 9
REMARK H PARENT
REMARK Flexibility Score: inf
ROOT
ATOM      1  C   UNL     1     -10.875 -19.832  31.587  1.00  0.00     0.006 C 
ENDROOT
BRANCH   1   2
ATOM      2  C   UNL     1     -12.321 -20.252  31.906  1.00  0.00     0.053 C 
BRANCH   2   3
ATOM      3  C   UNL     1     -12.697 -19.978  33.331  1.00  0.00     0.041 C 
ATOM      4  O   UNL     1     -12.324 -20.758  34.246  1.00  0.00    -0.550 OA
ATOM      5  O   UNL     1     -13.494 -18.884  33.644  1.00  0.00    -0.550 OA
ENDBRANCH   2   3
ENDBRANCH   1   2
BRANCH   1   6
ATOM      6  C   UNL     1     -10.742 -18.394  31.049  1.00  0.00     0.000 C 
BRANCH   6   7
ATOM      7  C   UNL     1     -10.720 -18.266  29.517  1.00  0.00    -0.000 C 
BRANCH   7   8
ATOM      8  C   UNL     1      -9.534 -18.998  28.872  1.00  0.00    -0.003 C 
ATOM      9  C   UNL     1      -9.681 -19.049  27.354  1.00  0.00     0.004 C 
ENDBRANCH   7   8
ENDBRANCH   6   7
ENDBRANCH   1   6
TORSDOF 5
ENDMDL
MODEL 3
REMARK VINA RESULT:    -4.007      2.438      3.049
REMARK INTER + INTRA:          -5.337
REMARK INTER:                  -4.977
REMARK INTRA:                  -0.360
REMARK UNBOUND:                -0.159
REMARK SMILES CCCCCCC(=O)[O-]
REMARK SMILES IDX 5 1 6 2 7 3 8 4 9 5 4 6 3 7 2 8 1 9
REMARK H PARENT
REMARK Flexibility Score: inf
ROOT
ATOM      1  C   UNL     1     -10.151 -20.455  31.209  1.00  0.00     0.006 C 
ENDROOT
BRANCH   1   2
ATOM      2  C   UNL     1      -9.464 -20.452  32.587  1.00  0.00     0.053 C 
BRANCH   2   3
ATOM      3  C   UNL     1      -8.590 -19.251  32.788  1.00  0.00     0.041 C 
ATOM      4  O   UNL     1      -7.580 -19.072  32.057  1.00  0.00    -0.550 OA
ATOM      5  O   UNL     1      -8.865 -18.351  33.811  1.00  0.00    -0.550 OA
ENDBRANCH   2   3
ENDBRANCH   1   2
BRANCH   1   6
ATOM      6  C   UNL     1     -11.027 -19.216  30.941  1.00  0.00     0.000 C 
BRANCH   6   7
ATOM      7  C   UNL     1     -10.602 -18.362  29.735  1.00  0.00    -0.000 C 
BRANCH   7   8
ATOM      8  C   UNL     1      -9.399 -18.947  28.980  1.00  0.00    -0.003 C 
ATOM      9  C   UNL     1      -9.694 -19.069  27.489  1.00  0.00     0.004 C 
ENDBRANCH   7   8
ENDBRANCH   6   7
ENDBRANCH   1   6
TORSDOF 5
ENDMDL
MODEL 4
REMARK VINA RESULT:    -3.994      3.560      4.380
REMARK INTER + INTRA:          -5.320
REMARK INTER:                  -5.144
REMARK INTRA:                  -0.176
REMARK UNBOUND:                -0.159
REMARK SMILES CCCCCCC(=O)[O-]
REMARK SMILES IDX 5 1 6 2 7 3 8 4 9 5 4 6 3 7 2 8 1 9
REMARK H PARENT
REMARK Flexibility Score: inf
ROOT
ATOM      1  C   UNL     1      -8.198 -18.626  30.922  1.00  0.00     0.006 C 
ENDROOT
BRANCH   1   2
ATOM      2  C   UNL     1      -7.320 -18.073  32.060  1.00  0.00     0.053 C 
BRANCH   2   3
ATOM      3  C   UNL     1      -6.597 -19.156  32.804  1.00  0.00     0.041 C 
ATOM      4  O   UNL     1      -7.194 -19.828  33.685  1.00  0.00    -0.550 OA
ATOM      5  O   UNL     1      -5.251 -19.395  32.554  1.00  0.00    -0.550 OA
ENDBRANCH   2   3
ENDBRANCH   1   2
BRANCH   1   6
ATOM      6  C   UNL     1      -9.689 -18.257  31.043  1.00  0.00     0.000 C 
BRANCH   6   7
ATOM      7  C   UNL     1     -10.510 -18.416  29.753  1.00  0.00    -0.000 C 
BRANCH   7   8
ATOM      8  C   UNL     1     -10.005 -19.557  28.858  1.00  0.00    -0.003 C 
ATOM      9  C   UNL     1      -9.651 -19.046  27.465  1.00  0.00     0.004 C 
ENDBRANCH   7   8
ENDBRANCH   6   7
ENDBRANCH   1   6
TORSDOF 5
ENDMDL
MODEL 5
REMARK VINA RESULT:    -3.916      1.684      2.163
REMARK INTER + INTRA:          -5.219
REMARK INTER:                  -5.004
REMARK INTRA:                  -0.215
REMARK UNBOUND:                -0.159
REMARK SMILES CCCCCCC(=O)[O-]
REMARK SMILES IDX 5 1 6 2 7 3 8 4 9 5 4 6 3 7 2 8 1 9
REMARK H PARENT
REMARK Flexibility Score: inf
ROOT
ATOM      1  C   UNL     1      -9.992 -20.304  31.375  1.00  0.00     0.006 C 
ENDROOT
BRANCH   1   2
ATOM      2  C   UNL     1      -9.355 -20.048  32.753  1.00  0.00     0.053 C 
BRANCH   2   3
ATOM      3  C   UNL     1      -9.904 -20.952  33.815  1.00  0.00     0.041 C 
ATOM      4  O   UNL     1     -11.031 -20.719  34.326  1.00  0.00    -0.550 OA
ATOM      5  O   UNL     1      -9.154 -22.030  34.271  1.00  0.00    -0.550 OA
ENDBRANCH   2   3
ENDBRANCH   1   2
BRANCH   1   6
ATOM      6  C   UNL     1     -11.042 -19.253  30.963  1.00  0.00     0.000 C 
BRANCH   6   7
ATOM      7  C   UNL     1     -10.633 -18.339  29.798  1.00  0.00    -0.000 C 
BRANCH   7   8
ATOM      8  C   UNL     1      -9.391 -18.843  29.048  1.00  0.00    -0.003 C 
ATOM      9  C   UNL     1      -9.707 -19.110  27.580  1.00  0.00     0.004 C 
ENDBRANCH   7   8
ENDBRANCH   6   7
ENDBRANCH   1   6
TORSDOF 5
ENDMDL
MODEL 6
REMARK VINA RESULT:    -3.914     18.725     20.156
REMARK INTER + INTRA:          -5.217
REMARK INTER:                  -5.091
REMARK INTRA:                  -0.126
REMARK UNBOUND:                -0.159
REMARK SMILES CCCCCCC(=O)[O-]
REMARK SMILES IDX 5 1 6 2 7 3 8 4 9 5 4 6 3 7 2 8 1 9
REMARK H PARENT
REMARK Flexibility Score: inf
ROOT
ATOM      1  C   UNL     1      -1.536 -34.525  22.210  1.00  0.00     0.006 C 
ENDROOT
BRANCH   1   2
ATOM      2  C   UNL     1      -2.583 -34.139  23.271  1.00  0.00     0.053 C 
BRANCH   2   3
ATOM      3  C   UNL     1      -2.357 -32.765  23.826  1.00  0.00     0.041 C 
ATOM      4  O   UNL     1      -1.262 -32.475  24.375  1.00  0.00    -0.550 OA
ATOM      5  O   UNL     1      -3.372 -31.816  23.776  1.00  0.00    -0.550 OA
ENDBRANCH   2   3
ENDBRANCH   1   2
BRANCH   1   6
ATOM      6  C   UNL     1      -1.869 -35.817  21.440  1.00  0.00     0.000 C 
BRANCH   6   7
ATOM      7  C   UNL     1      -3.298 -36.347  21.635  1.00  0.00    -0.000 C 
BRANCH   7   8
ATOM      8  C   UNL     1      -3.512 -37.737  21.018  1.00  0.00    -0.003 C 
ATOM      9  C   UNL     1      -3.910 -37.630  19.549  1.00  0.00     0.004 C 
ENDBRANCH   7   8
ENDBRANCH   6   7
ENDBRANCH   1   6
TORSDOF 5
ENDMDL
MODEL 7
REMARK VINA RESULT:    -3.891      3.473      4.918
REMARK INTER + INTRA:          -5.187
REMARK INTER:                  -4.845
REMARK INTRA:                  -0.341
REMARK UNBOUND:                -0.159
REMARK SMILES CCCCCCC(=O)[O-]
REMARK SMILES IDX 5 1 6 2 7 3 8 4 9 5 4 6 3 7 2 8 1 9
REMARK H PARENT
REMARK Flexibility Score: inf
ROOT
ATOM      1  C   UNL     1      -8.705 -18.674  30.413  1.00  0.00     0.006 C 
ENDROOT
BRANCH   1   2
ATOM      2  C   UNL     1      -9.962 -18.617  29.526  1.00  0.00     0.053 C 
BRANCH   2   3
ATOM      3  C   UNL     1      -9.918 -19.610  28.404  1.00  0.00     0.041 C 
ATOM      4  O   UNL     1     -10.192 -20.820  28.617  1.00  0.00    -0.550 OA
ATOM      5  O   UNL     1      -9.532 -19.207  27.131  1.00  0.00    -0.550 OA
ENDBRANCH   2   3
ENDBRANCH   1   2
BRANCH   1   6
ATOM      6  C   UNL     1      -8.989 -19.039  31.883  1.00  0.00     0.000 C 
BRANCH   6   7
ATOM      7  C   UNL     1      -9.766 -20.349  32.094  1.00  0.00    -0.000 C 
BRANCH   7   8
ATOM      8  C   UNL     1     -11.099 -20.142  32.828  1.00  0.00    -0.003 C 
ATOM      9  C   UNL     1     -12.278 -20.242  31.865  1.00  0.00     0.004 C 
ENDBRANCH   7   8
ENDBRANCH   6   7
ENDBRANCH   1   6
TORSDOF 5
ENDMDL
MODEL 8
REMARK VINA RESULT:    -3.866     21.666     22.577
REMARK INTER + INTRA:          -5.154
REMARK INTER:                  -4.929
REMARK INTRA:                  -0.225
REMARK UNBOUND:                -0.159
REMARK SMILES CCCCCCC(=O)[O-]
REMARK SMILES IDX 5 1 6 2 7 3 8 4 9 5 4 6 3 7 2 8 1 9
REMARK H PARENT
REMARK Flexibility Score: inf
ROOT
ATOM      1  C   UNL     1      -3.129 -37.360  21.602  1.00  0.00     0.006 C 
ENDROOT
BRANCH   1   2
ATOM      2  C   UNL     1      -1.672 -37.217  21.124  1.00  0.00     0.053 C 
BRANCH   2   3
ATOM      3  C   UNL     1      -1.151 -35.821  21.287  1.00  0.00     0.041 C 
ATOM      4  O   UNL     1      -1.805 -34.973  21.948  1.00  0.00    -0.550 OA
ATOM      5  O   UNL     1       0.038 -35.444  20.674  1.00  0.00    -0.550 OA
ENDBRANCH   2   3
ENDBRANCH   1   2
BRANCH   1   6
ATOM      6  C   UNL     1      -4.085 -37.935  20.538  1.00  0.00     0.000 C 
BRANCH   6   7
ATOM      7  C   UNL     1      -3.501 -38.041  19.120  1.00  0.00    -0.000 C 
BRANCH   7   8
ATOM      8  C   UNL     1      -4.517 -37.685  18.025  1.00  0.00    -0.003 C 
ATOM      9  C   UNL     1      -4.738 -36.178  17.950  1.00  0.00     0.004 C 
ENDBRANCH   7   8
ENDBRANCH   6   7
ENDBRANCH   1   6
TORSDOF 5
ENDMDL
MODEL 9
REMARK VINA RESULT:    -3.801      2.737      4.252
REMARK INTER + INTRA:          -5.071
REMARK INTER:                  -4.768
REMARK INTRA:                  -0.304
REMARK UNBOUND:                -0.159
REMARK SMILES CCCCCCC(=O)[O-]
REMARK SMILES IDX 5 1 6 2 7 3 8 4 9 5 4 6 3 7 2 8 1 9
REMARK H PARENT
REMARK Flexibility Score: inf
ROOT
ATOM      1  C   UNL     1      -8.197 -18.740  30.286  1.00  0.00     0.006 C 
ENDROOT
BRANCH   1   2
ATOM      2  C   UNL     1      -8.257 -18.205  31.728  1.00  0.00     0.053 C 
BRANCH   2   3
ATOM      3  C   UNL     1      -7.791 -19.215  32.734  1.00  0.00     0.041 C 
ATOM      4  O   UNL     1      -6.563 -19.344  32.981  1.00  0.00    -0.550 OA
ATOM      5  O   UNL     1      -8.709 -20.044  33.367  1.00  0.00    -0.550 OA
ENDBRANCH   2   3
ENDBRANCH   1   2
BRANCH   1   6
ATOM      6  C   UNL     1      -9.554 -18.733  29.556  1.00  0.00     0.000 C 
BRANCH   6   7
ATOM      7  C   UNL     1     -10.790 -18.759  30.471  1.00  0.00    -0.000 C 
BRANCH   7   8
ATOM      8  C   UNL     1     -11.223 -20.182  30.852  1.00  0.00    -0.003 C 
ATOM      9  C   UNL     1     -12.308 -20.157  31.924  1.00  0.00     0.004 C 
ENDBRANCH   7   8
ENDBRANCH   6   7
ENDBRANCH   1   6
TORSDOF 5
ENDMDL
