MODEL 1
REMARK VINA RESULT:    -4.310      0.000      0.000
REMARK INTER + INTRA:          -9.424
REMARK INTER:                  -7.838
REMARK INTRA:                  -1.587
REMARK UNBOUND:                -1.587
REMARK SMILES CCCCCCCCCCCCCC[C@H](C)C(=O)[O-]
REMARK SMILES IDX 9 1 10 2 11 3 12 4 13 5 14 6 15 7 16 8 17 9 18 10 19 11 8 12
REMARK SMILES IDX 7 13 6 14 5 15 4 16 3 17 2 18 1 19
REMARK H PARENT
REMARK Flexibility Score: inf
ROOT
ATOM      1  C   UNL     1       3.234 -20.426  29.494  1.00  0.00     0.000 C 
ENDROOT
BRANCH   1   2
ATOM      2  C   UNL     1       3.965 -19.298  28.751  1.00  0.00     0.000 C 
BRANCH   2   3
ATOM      3  C   UNL     1       3.155 -17.993  28.712  1.00  0.00     0.000 C 
BRANCH   3   4
ATOM      4  C   UNL     1       1.649 -18.225  28.902  1.00  0.00     0.000 C 
BRANCH   4   5
ATOM      5  C   UNL     1       0.830 -17.297  27.995  1.00  0.00     0.001 C 
BRANCH   5   6
ATOM      6  C   UNL     1      -0.676 -17.554  28.157  1.00  0.00     0.009 C 
BRANCH   6   7
ATOM      7  C   UNL     1      -1.501 -16.253  28.069  1.00  0.00     0.032 C 
ATOM      8  C   UNL     1      -2.173 -15.951  29.411  1.00  0.00     0.014 C 
BRANCH   7   9
ATOM      9  C   UNL     1      -2.544 -16.339  26.987  1.00  0.00     0.044 C 
ATOM     10  O   UNL     1      -3.733 -16.633  27.278  1.00  0.00    -0.550 OA
ATOM     11  O   UNL     1      -2.203 -16.097  25.661  1.00  0.00    -0.550 OA
ENDBRANCH   7   9
ENDBRANCH   6   7
ENDBRANCH   5   6
ENDBRANCH   4   5
ENDBRANCH   3   4
ENDBRANCH   2   3
ENDBRANCH   1   2
BRANCH   1  12
ATOM     12  C   UNL     1       4.123 -21.671  29.613  1.00  0.00     0.000 C 
BRANCH  12  13
ATOM     13  C   UNL     1       3.338 -22.852  30.203  1.00  0.00    -0.000 C 
BRANCH  13  14
ATOM     14  C   UNL     1       1.838 -22.790  29.875  1.00  0.00    -0.000 C 
BRANCH  14  15
ATOM     15  C   UNL     1       0.954 -22.878  31.128  1.00  0.00    -0.000 C 
BRANCH  15  16
ATOM     16  C   UNL     1      -0.089 -21.754  31.144  1.00  0.00    -0.000 C 
BRANCH  16  17
ATOM     17  C   UNL     1      -0.344 -21.220  29.726  1.00  0.00    -0.000 C 
BRANCH  17  18
ATOM     18  C   UNL     1      -1.766 -20.663  29.553  1.00  0.00    -0.003 C 
ATOM     19  C   UNL     1      -2.264 -19.917  30.790  1.00  0.00     0.004 C 
ENDBRANCH  17  18
ENDBRANCH  16  17
ENDBRANCH  15  16
ENDBRANCH  14  15
ENDBRANCH  13  14
ENDBRANCH  12  13
ENDBRANCH   1  12
TORSDOF 14
ENDMDL
MODEL 2
REMARK VINA RESULT:    -4.278     14.846     17.717
REMARK INTER + INTRA:          -9.365
REMARK INTER:                  -6.671
REMARK INTRA:                  -2.694
REMARK UNBOUND:                -1.587
REMARK SMILES CCCCCCCCCCCCCC[C@H](C)C(=O)[O-]
REMARK SMILES IDX 9 1 10 2 11 3 12 4 13 5 14 6 15 7 16 8 17 9 18 10 19 11 8 12
REMARK SMILES IDX 7 13 6 14 5 15 4 16 3 17 2 18 1 19
REMARK H PARENT
REMARK Flexibility Score: inf
ROOT
ATOM      1  C   UNL     1     -13.818 -11.383  24.782  1.00  0.00     0.000 C 
ENDROOT
BRANCH   1   2
ATOM      2  C   UNL     1     -12.554 -11.835  25.530  1.00  0.00     0.000 C 
BRANCH   2   3
ATOM      3  C   UNL     1     -11.360 -10.898  25.294  1.00  0.00     0.000 C 
BRANCH   3   4
ATOM      4  C   UNL     1     -10.725 -10.406  26.602  1.00  0.00     0.000 C 
BRANCH   4   5
ATOM      5  C   UNL     1     -11.183  -8.980  26.934  1.00  0.00     0.001 C 
BRANCH   5   6
ATOM      6  C   UNL     1     -12.146  -8.973  28.131  1.00  0.00     0.009 C 
BRANCH   6   7
ATOM      7  C   UNL     1     -12.063 -10.276  28.953  1.00  0.00     0.032 C 
ATOM      8  C   UNL     1     -13.465 -10.821  29.240  1.00  0.00     0.014 C 
BRANCH   7   9
ATOM      9  C   UNL     1     -11.327 -10.061  30.248  1.00  0.00     0.044 C 
ATOM     10  O   UNL     1     -10.506 -10.923  30.659  1.00  0.00    -0.550 OA
ATOM     11  O   UNL     1     -11.549  -8.912  31.000  1.00  0.00    -0.550 OA
ENDBRANCH   7   9
ENDBRANCH   6   7
ENDBRANCH   5   6
ENDBRANCH   4   5
ENDBRANCH   3   4
ENDBRANCH   2   3
ENDBRANCH   1   2
BRANCH   1  12
ATOM     12  C   UNL     1     -14.987 -11.180  25.754  1.00  0.00     0.000 C 
BRANCH  12  13
ATOM     13  C   UNL     1     -15.152  -9.695  26.113  1.00  0.00    -0.000 C 
BRANCH  13  14
ATOM     14  C   UNL     1     -14.827  -8.762  24.936  1.00  0.00    -0.000 C 
BRANCH  14  15
ATOM     15  C   UNL     1     -14.152  -7.457  25.384  1.00  0.00    -0.000 C 
BRANCH  15  16
ATOM     16  C   UNL     1     -12.997  -7.085  24.447  1.00  0.00    -0.000 C 
BRANCH  16  17
ATOM     17  C   UNL     1     -13.116  -7.828  23.107  1.00  0.00    -0.000 C 
BRANCH  17  18
ATOM     18  C   UNL     1     -13.260  -6.871  21.913  1.00  0.00    -0.003 C 
ATOM     19  C   UNL     1     -14.226  -5.720  22.190  1.00  0.00     0.004 C 
ENDBRANCH  17  18
ENDBRANCH  16  17
ENDBRANCH  15  16
ENDBRANCH  14  15
ENDBRANCH  13  14
ENDBRANCH  12  13
ENDBRANCH   1  12
TORSDOF 14
ENDMDL
MODEL 3
REMARK VINA RESULT:    -4.237     14.256     16.694
REMARK INTER + INTRA:          -9.291
REMARK INTER:                  -6.833
REMARK INTRA:                  -2.458
REMARK UNBOUND:                -1.587
REMARK SMILES CCCCCCCCCCCCCC[C@H](C)C(=O)[O-]
REMARK SMILES IDX 9 1 10 2 11 3 12 4 13 5 14 6 15 7 16 8 17 9 18 10 19 11 8 12
REMARK SMILES IDX 7 13 6 14 5 15 4 16 3 17 2 18 1 19
REMARK H PARENT
REMARK Flexibility Score: inf
ROOT
ATOM      1  C   UNL     1     -14.715 -10.227  26.491  1.00  0.00     0.000 C 
ENDROOT
BRANCH   1   2
ATOM      2  C   UNL     1     -14.149 -11.592  26.068  1.00  0.00     0.000 C 
BRANCH   2   3
ATOM      3  C   UNL     1     -13.952 -11.707  24.549  1.00  0.00     0.000 C 
BRANCH   3   4
ATOM      4  C   UNL     1     -12.543 -12.185  24.169  1.00  0.00     0.000 C 
BRANCH   4   5
ATOM      5  C   UNL     1     -12.111 -13.372  25.040  1.00  0.00     0.001 C 
BRANCH   5   6
ATOM      6  C   UNL     1     -12.786 -14.672  24.577  1.00  0.00     0.009 C 
BRANCH   6   7
ATOM      7  C   UNL     1     -13.471 -15.418  25.740  1.00  0.00     0.032 C 
ATOM      8  C   UNL     1     -12.743 -16.732  26.040  1.00  0.00     0.014 C 
BRANCH   7   9
ATOM      9  C   UNL     1     -14.918 -15.699  25.433  1.00  0.00     0.044 C 
ATOM     10  O   UNL     1     -15.352 -16.880  25.460  1.00  0.00    -0.550 OA
ATOM     11  O   UNL     1     -15.784 -14.658  25.115  1.00  0.00    -0.550 OA
ENDBRANCH   7   9
ENDBRANCH   6   7
ENDBRANCH   5   6
ENDBRANCH   4   5
ENDBRANCH   3   4
ENDBRANCH   2   3
ENDBRANCH   1   2
BRANCH   1  12
ATOM     12  C   UNL     1     -14.424  -9.160  25.428  1.00  0.00     0.000 C 
BRANCH  12  13
ATOM     13  C   UNL     1     -13.557  -8.031  26.007  1.00  0.00    -0.000 C 
BRANCH  13  14
ATOM     14  C   UNL     1     -12.058  -8.238  25.737  1.00  0.00    -0.000 C 
BRANCH  14  15
ATOM     15  C   UNL     1     -11.283  -8.669  26.991  1.00  0.00    -0.000 C 
BRANCH  15  16
ATOM     16  C   UNL     1     -10.835 -10.131  26.883  1.00  0.00    -0.000 C 
BRANCH  16  17
ATOM     17  C   UNL     1     -11.087 -10.883  28.200  1.00  0.00    -0.000 C 
BRANCH  17  18
ATOM     18  C   UNL     1     -11.922 -10.063  29.196  1.00  0.00    -0.003 C 
ATOM     19  C   UNL     1     -13.126 -10.835  29.735  1.00  0.00     0.004 C 
ENDBRANCH  17  18
ENDBRANCH  16  17
ENDBRANCH  15  16
ENDBRANCH  14  15
ENDBRANCH  13  14
ENDBRANCH  12  13
ENDBRANCH   1  12
TORSDOF 14
ENDMDL
MODEL 4
REMARK VINA RESULT:    -4.185     12.779     15.777
REMARK INTER + INTRA:          -9.197
REMARK INTER:                  -6.287
REMARK INTRA:                  -2.910
REMARK UNBOUND:                -1.587
REMARK SMILES CCCCCCCCCCCCCC[C@H](C)C(=O)[O-]
REMARK SMILES IDX 9 1 10 2 11 3 12 4 13 5 14 6 15 7 16 8 17 9 18 10 19 11 8 12
REMARK SMILES IDX 7 13 6 14 5 15 4 16 3 17 2 18 1 19
REMARK H PARENT
REMARK Flexibility Score: inf
ROOT
ATOM      1  C   UNL     1     -13.704  -8.257  26.465  1.00  0.00     0.000 C 
ENDROOT
BRANCH   1   2
ATOM      2  C   UNL     1     -14.540  -9.514  26.178  1.00  0.00     0.000 C 
BRANCH   2   3
ATOM      3  C   UNL     1     -14.245 -10.657  27.161  1.00  0.00     0.000 C 
BRANCH   3   4
ATOM      4  C   UNL     1     -13.725 -11.922  26.461  1.00  0.00     0.000 C 
BRANCH   4   5
ATOM      5  C   UNL     1     -13.729 -11.748  24.937  1.00  0.00     0.001 C 
BRANCH   5   6
ATOM      6  C   UNL     1     -12.379 -12.161  24.330  1.00  0.00     0.009 C 
BRANCH   6   7
ATOM      7  C   UNL     1     -11.360 -12.580  25.409  1.00  0.00     0.032 C 
ATOM      8  C   UNL     1     -10.097 -11.717  25.320  1.00  0.00     0.014 C 
BRANCH   7   9
ATOM      9  C   UNL     1     -10.991 -14.033  25.280  1.00  0.00     0.044 C 
ATOM     10  O   UNL     1      -9.943 -14.470  25.823  1.00  0.00    -0.550 OA
ATOM     11  O   UNL     1     -11.802 -14.903  24.558  1.00  0.00    -0.550 OA
ENDBRANCH   7   9
ENDBRANCH   6   7
ENDBRANCH   5   6
ENDBRANCH   4   5
ENDBRANCH   3   4
ENDBRANCH   2   3
ENDBRANCH   1   2
BRANCH   1  12
ATOM     12  C   UNL     1     -12.316  -8.362  25.822  1.00  0.00     0.000 C 
BRANCH  12  13
ATOM     13  C   UNL     1     -11.238  -8.631  26.883  1.00  0.00    -0.000 C 
BRANCH  13  14
ATOM     14  C   UNL     1     -11.681  -8.218  28.295  1.00  0.00    -0.000 C 
BRANCH  14  15
ATOM     15  C   UNL     1     -11.537  -9.355  29.318  1.00  0.00    -0.000 C 
BRANCH  15  16
ATOM     16  C   UNL     1     -10.923 -10.601  28.670  1.00  0.00    -0.000 C 
BRANCH  16  17
ATOM     17  C   UNL     1     -10.468 -11.609  29.738  1.00  0.00    -0.000 C 
BRANCH  17  18
ATOM     18  C   UNL     1     -10.321 -13.033  29.180  1.00  0.00    -0.003 C 
ATOM     19  C   UNL     1     -11.666 -13.734  28.985  1.00  0.00     0.004 C 
ENDBRANCH  17  18
ENDBRANCH  16  17
ENDBRANCH  15  16
ENDBRANCH  14  15
ENDBRANCH  13  14
ENDBRANCH  12  13
ENDBRANCH   1  12
TORSDOF 14
ENDMDL
MODEL 5
REMARK VINA RESULT:    -4.172     14.949     17.639
REMARK INTER + INTRA:          -9.173
REMARK INTER:                  -6.808
REMARK INTRA:                  -2.365
REMARK UNBOUND:                -1.587
REMARK SMILES CCCCCCCCCCCCCC[C@H](C)C(=O)[O-]
REMARK SMILES IDX 9 1 10 2 11 3 12 4 13 5 14 6 15 7 16 8 17 9 18 10 19 11 8 12
REMARK SMILES IDX 7 13 6 14 5 15 4 16 3 17 2 18 1 19
REMARK H PARENT
REMARK Flexibility Score: inf
ROOT
ATOM      1  C   UNL     1     -11.675  -8.633  28.393  1.00  0.00     0.000 C 
ENDROOT
BRANCH   1   2
ATOM      2  C   UNL     1     -11.392  -9.981  29.075  1.00  0.00     0.000 C 
BRANCH   2   3
ATOM      3  C   UNL     1     -12.516 -10.408  30.030  1.00  0.00     0.000 C 
BRANCH   3   4
ATOM      4  C   UNL     1     -13.694 -11.072  29.301  1.00  0.00     0.000 C 
BRANCH   4   5
ATOM      5  C   UNL     1     -13.224 -12.283  28.485  1.00  0.00     0.001 C 
BRANCH   5   6
ATOM      6  C   UNL     1     -13.717 -12.196  27.033  1.00  0.00     0.009 C 
BRANCH   6   7
ATOM      7  C   UNL     1     -12.640 -12.646  26.024  1.00  0.00     0.032 C 
ATOM      8  C   UNL     1     -12.609 -11.705  24.816  1.00  0.00     0.014 C 
BRANCH   7   9
ATOM      9  C   UNL     1     -12.878 -14.058  25.562  1.00  0.00     0.044 C 
ATOM     10  O   UNL     1     -13.910 -14.678  25.932  1.00  0.00    -0.550 OA
ATOM     11  O   UNL     1     -11.962 -14.689  24.727  1.00  0.00    -0.550 OA
ENDBRANCH   7   9
ENDBRANCH   6   7
ENDBRANCH   5   6
ENDBRANCH   4   5
ENDBRANCH   3   4
ENDBRANCH   2   3
ENDBRANCH   1   2
BRANCH   1  12
ATOM     12  C   UNL     1     -11.293  -8.678  26.908  1.00  0.00     0.000 C 
BRANCH  12  13
ATOM     13  C   UNL     1     -12.489  -8.303  26.021  1.00  0.00    -0.000 C 
BRANCH  13  14
ATOM     14  C   UNL     1     -13.809  -8.228  26.807  1.00  0.00    -0.000 C 
BRANCH  14  15
ATOM     15  C   UNL     1     -14.954  -8.982  26.114  1.00  0.00    -0.000 C 
BRANCH  15  16
ATOM     16  C   UNL     1     -15.653  -8.092  25.081  1.00  0.00    -0.000 C 
BRANCH  16  17
ATOM     17  C   UNL     1     -16.043  -6.738  25.696  1.00  0.00    -0.000 C 
BRANCH  17  18
ATOM     18  C   UNL     1     -15.481  -5.547  24.904  1.00  0.00    -0.003 C 
ATOM     19  C   UNL     1     -14.516  -5.973  23.798  1.00  0.00     0.004 C 
ENDBRANCH  17  18
ENDBRANCH  16  17
ENDBRANCH  15  16
ENDBRANCH  14  15
ENDBRANCH  13  14
ENDBRANCH  12  13
ENDBRANCH   1  12
TORSDOF 14
ENDMDL
MODEL 6
REMARK VINA RESULT:    -4.124     11.602     15.660
REMARK INTER + INTRA:          -9.085
REMARK INTER:                  -6.093
REMARK INTRA:                  -2.992
REMARK UNBOUND:                -1.587
REMARK SMILES CCCCCCCCCCCCCC[C@H](C)C(=O)[O-]
REMARK SMILES IDX 9 1 10 2 11 3 12 4 13 5 14 6 15 7 16 8 17 9 18 10 19 11 8 12
REMARK SMILES IDX 7 13 6 14 5 15 4 16 3 17 2 18 1 19
REMARK H PARENT
REMARK Flexibility Score: inf
ROOT
ATOM      1  C   UNL     1     -14.170 -11.710  27.123  1.00  0.00     0.000 C 
ENDROOT
BRANCH   1   2
ATOM      2  C   UNL     1     -13.726 -12.490  25.875  1.00  0.00     0.000 C 
BRANCH   2   3
ATOM      3  C   UNL     1     -12.686 -11.728  25.039  1.00  0.00     0.000 C 
BRANCH   3   4
ATOM      4  C   UNL     1     -11.399 -12.535  24.815  1.00  0.00     0.000 C 
BRANCH   4   5
ATOM      5  C   UNL     1     -10.334 -12.173  25.858  1.00  0.00     0.001 C 
BRANCH   5   6
ATOM      6  C   UNL     1     -10.093 -13.339  26.829  1.00  0.00     0.009 C 
BRANCH   6   7
ATOM      7  C   UNL     1     -10.724 -14.654  26.328  1.00  0.00     0.032 C 
ATOM      8  C   UNL     1     -11.612 -15.272  27.413  1.00  0.00     0.014 C 
BRANCH   7   9
ATOM      9  C   UNL     1      -9.670 -15.643  25.911  1.00  0.00     0.044 C 
ATOM     10  O   UNL     1      -8.668 -15.847  26.646  1.00  0.00    -0.550 OA
ATOM     11  O   UNL     1      -9.791 -16.336  24.711  1.00  0.00    -0.550 OA
ENDBRANCH   7   9
ENDBRANCH   6   7
ENDBRANCH   5   6
ENDBRANCH   4   5
ENDBRANCH   3   4
ENDBRANCH   2   3
ENDBRANCH   1   2
BRANCH   1  12
ATOM     12  C   UNL     1     -13.203 -11.947  28.290  1.00  0.00     0.000 C 
BRANCH  12  13
ATOM     13  C   UNL     1     -12.992 -10.657  29.098  1.00  0.00    -0.000 C 
BRANCH  13  14
ATOM     14  C   UNL     1     -11.623 -10.009  28.832  1.00  0.00    -0.000 C 
BRANCH  14  15
ATOM     15  C   UNL     1     -11.738  -8.648  28.130  1.00  0.00    -0.000 C 
BRANCH  15  16
ATOM     16  C   UNL     1     -11.233  -8.731  26.685  1.00  0.00    -0.000 C 
BRANCH  16  17
ATOM     17  C   UNL     1     -12.253  -8.124  25.710  1.00  0.00    -0.000 C 
BRANCH  17  18
ATOM     18  C   UNL     1     -13.684  -8.133  26.271  1.00  0.00    -0.003 C 
ATOM     19  C   UNL     1     -14.726  -8.532  25.227  1.00  0.00     0.004 C 
ENDBRANCH  17  18
ENDBRANCH  16  17
ENDBRANCH  15  16
ENDBRANCH  14  15
ENDBRANCH  13  14
ENDBRANCH  12  13
ENDBRANCH   1  12
TORSDOF 14
ENDMDL
MODEL 7
REMARK VINA RESULT:    -4.123     13.316     16.559
REMARK INTER + INTRA:          -9.083
REMARK INTER:                  -6.237
REMARK INTRA:                  -2.846
REMARK UNBOUND:                -1.587
REMARK SMILES CCCCCCCCCCCCCC[C@H](C)C(=O)[O-]
REMARK SMILES IDX 9 1 10 2 11 3 12 4 13 5 14 6 15 7 16 8 17 9 18 10 19 11 8 12
REMARK SMILES IDX 7 13 6 14 5 15 4 16 3 17 2 18 1 19
REMARK H PARENT
REMARK Flexibility Score: inf
ROOT
ATOM      1  C   UNL     1     -14.248  -8.285  26.764  1.00  0.00     0.000 C 
ENDROOT
BRANCH   1   2
ATOM      2  C   UNL     1     -15.250  -9.402  26.435  1.00  0.00     0.000 C 
BRANCH   2   3
ATOM      3  C   UNL     1     -14.620 -10.801  26.500  1.00  0.00     0.000 C 
BRANCH   3   4
ATOM      4  C   UNL     1     -14.488 -11.456  25.118  1.00  0.00     0.000 C 
BRANCH   4   5
ATOM      5  C   UNL     1     -13.016 -11.694  24.759  1.00  0.00     0.001 C 
BRANCH   5   6
ATOM      6  C   UNL     1     -12.702 -13.196  24.677  1.00  0.00     0.009 C 
BRANCH   6   7
ATOM      7  C   UNL     1     -12.376 -13.799  26.059  1.00  0.00     0.032 C 
ATOM      8  C   UNL     1     -10.863 -13.955  26.234  1.00  0.00     0.014 C 
BRANCH   7   9
ATOM      9  C   UNL     1     -13.049 -15.132  26.247  1.00  0.00     0.044 C 
ATOM     10  O   UNL     1     -13.896 -15.537  25.407  1.00  0.00    -0.550 OA
ATOM     11  O   UNL     1     -12.743 -15.925  27.347  1.00  0.00    -0.550 OA
ENDBRANCH   7   9
ENDBRANCH   6   7
ENDBRANCH   5   6
ENDBRANCH   4   5
ENDBRANCH   3   4
ENDBRANCH   2   3
ENDBRANCH   1   2
BRANCH   1  12
ATOM     12  C   UNL     1     -13.477  -7.852  25.510  1.00  0.00     0.000 C 
BRANCH  12  13
ATOM     13  C   UNL     1     -11.981  -8.169  25.648  1.00  0.00    -0.000 C 
BRANCH  13  14
ATOM     14  C   UNL     1     -11.601  -8.631  27.064  1.00  0.00    -0.000 C 
BRANCH  14  15
ATOM     15  C   UNL     1     -10.844  -9.968  27.067  1.00  0.00    -0.000 C 
BRANCH  15  16
ATOM     16  C   UNL     1     -11.279 -10.842  28.249  1.00  0.00    -0.000 C 
BRANCH  16  17
ATOM     17  C   UNL     1     -12.177 -10.055  29.215  1.00  0.00    -0.000 C 
BRANCH  17  18
ATOM     18  C   UNL     1     -13.146 -10.960  29.992  1.00  0.00    -0.003 C 
ATOM     19  C   UNL     1     -13.280 -12.351  29.373  1.00  0.00     0.004 C 
ENDBRANCH  17  18
ENDBRANCH  16  17
ENDBRANCH  15  16
ENDBRANCH  14  15
ENDBRANCH  13  14
ENDBRANCH  12  13
ENDBRANCH   1  12
TORSDOF 14
ENDMDL
MODEL 8
REMARK VINA RESULT:    -4.092     12.372     16.022
REMARK INTER + INTRA:          -9.027
REMARK INTER:                  -6.471
REMARK INTRA:                  -2.556
REMARK UNBOUND:                -1.587
REMARK SMILES CCCCCCCCCCCCCC[C@H](C)C(=O)[O-]
REMARK SMILES IDX 9 1 10 2 11 3 12 4 13 5 14 6 15 7 16 8 17 9 18 10 19 11 8 12
REMARK SMILES IDX 7 13 6 14 5 15 4 16 3 17 2 18 1 19
REMARK H PARENT
REMARK Flexibility Score: inf
ROOT
ATOM      1  C   UNL     1     -12.044 -11.885  28.935  1.00  0.00     0.000 C 
ENDROOT
BRANCH   1   2
ATOM      2  C   UNL     1     -13.422 -11.491  28.380  1.00  0.00     0.000 C 
BRANCH   2   3
ATOM      3  C   UNL     1     -13.808 -12.295  27.129  1.00  0.00     0.000 C 
BRANCH   3   4
ATOM      4  C   UNL     1     -12.949 -11.939  25.907  1.00  0.00     0.000 C 
BRANCH   4   5
ATOM      5  C   UNL     1     -12.164 -13.160  25.412  1.00  0.00     0.001 C 
BRANCH   5   6
ATOM      6  C   UNL     1     -12.603 -14.435  26.148  1.00  0.00     0.009 C 
BRANCH   6   7
ATOM      7  C   UNL     1     -11.401 -15.247  26.673  1.00  0.00     0.032 C 
ATOM      8  C   UNL     1     -10.139 -14.379  26.709  1.00  0.00     0.014 C 
BRANCH   7   9
ATOM      9  C   UNL     1     -11.152 -16.467  25.826  1.00  0.00     0.044 C 
ATOM     10  O   UNL     1     -10.949 -16.347  24.590  1.00  0.00    -0.550 OA
ATOM     11  O   UNL     1     -11.149 -17.733  26.402  1.00  0.00    -0.550 OA
ENDBRANCH   7   9
ENDBRANCH   6   7
ENDBRANCH   5   6
ENDBRANCH   4   5
ENDBRANCH   3   4
ENDBRANCH   2   3
ENDBRANCH   1   2
BRANCH   1  12
ATOM     12  C   UNL     1     -11.059 -10.713  28.842  1.00  0.00     0.000 C 
BRANCH  12  13
ATOM     13  C   UNL     1     -11.715  -9.406  29.314  1.00  0.00    -0.000 C 
BRANCH  13  14
ATOM     14  C   UNL     1     -11.569  -8.267  28.292  1.00  0.00    -0.000 C 
BRANCH  14  15
ATOM     15  C   UNL     1     -11.229  -8.775  26.884  1.00  0.00    -0.000 C 
BRANCH  15  16
ATOM     16  C   UNL     1     -12.225  -8.237  25.850  1.00  0.00    -0.000 C 
BRANCH  16  17
ATOM     17  C   UNL     1     -13.649  -8.197  26.427  1.00  0.00    -0.000 C 
BRANCH  17  18
ATOM     18  C   UNL     1     -14.703  -8.707  25.433  1.00  0.00    -0.003 C 
ATOM     19  C   UNL     1     -15.933  -9.294  26.124  1.00  0.00     0.004 C 
ENDBRANCH  17  18
ENDBRANCH  16  17
ENDBRANCH  15  16
ENDBRANCH  14  15
ENDBRANCH  13  14
ENDBRANCH  12  13
ENDBRANCH   1  12
TORSDOF 14
ENDMDL
MODEL 9
REMARK VINA RESULT:    -4.078     12.626     15.359
REMARK INTER + INTRA:          -9.002
REMARK INTER:                  -6.122
REMARK INTRA:                  -2.880
REMARK UNBOUND:                -1.587
REMARK SMILES CCCCCCCCCCCCCC[C@H](C)C(=O)[O-]
REMARK SMILES IDX 9 1 10 2 11 3 12 4 13 5 14 6 15 7 16 8 17 9 18 10 19 11 8 12
REMARK SMILES IDX 7 13 6 14 5 15 4 16 3 17 2 18 1 19
REMARK H PARENT
REMARK Flexibility Score: inf
ROOT
ATOM      1  C   UNL     1     -11.968  -9.456  25.835  1.00  0.00     0.000 C 
ENDROOT
BRANCH   1   2
ATOM      2  C   UNL     1     -10.763 -10.167  26.472  1.00  0.00     0.000 C 
BRANCH   2   3
ATOM      3  C   UNL     1     -10.478 -11.535  25.836  1.00  0.00     0.000 C 
BRANCH   3   4
ATOM      4  C   UNL     1     -11.160 -11.708  24.471  1.00  0.00     0.000 C 
BRANCH   4   5
ATOM      5  C   UNL     1     -11.463 -13.185  24.190  1.00  0.00     0.001 C 
BRANCH   5   6
ATOM      6  C   UNL     1     -11.264 -14.040  25.450  1.00  0.00     0.009 C 
BRANCH   6   7
ATOM      7  C   UNL     1     -11.934 -15.424  25.328  1.00  0.00     0.032 C 
ATOM      8  C   UNL     1     -12.929 -15.643  26.472  1.00  0.00     0.014 C 
BRANCH   7   9
ATOM      9  C   UNL     1     -10.913 -16.529  25.324  1.00  0.00     0.044 C 
ATOM     10  O   UNL     1      -9.933 -16.481  24.535  1.00  0.00    -0.550 OA
ATOM     11  O   UNL     1     -11.043 -17.610  26.189  1.00  0.00    -0.550 OA
ENDBRANCH   7   9
ENDBRANCH   6   7
ENDBRANCH   5   6
ENDBRANCH   4   5
ENDBRANCH   3   4
ENDBRANCH   2   3
ENDBRANCH   1   2
BRANCH   1  12
ATOM     12  C   UNL     1     -12.800  -8.727  26.897  1.00  0.00     0.000 C 
BRANCH  12  13
ATOM     13  C   UNL     1     -14.033  -9.554  27.292  1.00  0.00    -0.000 C 
BRANCH  13  14
ATOM     14  C   UNL     1     -14.339 -10.678  26.289  1.00  0.00    -0.000 C 
BRANCH  14  15
ATOM     15  C   UNL     1     -14.110 -12.077  26.881  1.00  0.00    -0.000 C 
BRANCH  15  16
ATOM     16  C   UNL     1     -13.804 -11.996  28.381  1.00  0.00    -0.000 C 
BRANCH  16  17
ATOM     17  C   UNL     1     -12.487 -12.715  28.713  1.00  0.00    -0.000 C 
BRANCH  17  18
ATOM     18  C   UNL     1     -11.816 -12.161  29.980  1.00  0.00    -0.003 C 
ATOM     19  C   UNL     1     -11.795 -10.633  30.018  1.00  0.00     0.004 C 
ENDBRANCH  17  18
ENDBRANCH  16  17
ENDBRANCH  15  16
ENDBRANCH  14  15
ENDBRANCH  13  14
ENDBRANCH  12  13
ENDBRANCH   1  12
TORSDOF 14
ENDMDL
