MODEL 1
REMARK VINA RESULT:    -4.680      0.000      0.000
REMARK INTER + INTRA:          -5.816
REMARK INTER:                  -5.637
REMARK INTRA:                  -0.179
REMARK UNBOUND:                -0.179
REMARK SMILES [NH3+][C@@H](Cc1cnc[nH]1)C(=O)[O-]
REMARK SMILES IDX 3 1 2 2 1 3 9 7 10 8 11 9 4 10 5 11 8 12 6 13 7 14
REMARK H PARENT 1 4 1 5 1 6 8 15
REMARK Flexibility Score: inf
ROOT
ATOM      1  C   UNL     1     -16.154  -9.653  42.262  1.00  0.00     0.127 C 
ENDROOT
BRANCH   1   2
ATOM      2  C   UNL     1     -16.769  -8.330  41.758  1.00  0.00     0.233 C 
BRANCH   2   3
ATOM      3  N   UNL     1     -16.283  -7.977  40.418  1.00  0.00    -0.350 N 
ATOM      4  H   UNL     1     -16.998  -8.246  39.704  1.00  0.00     0.345 HD
ATOM      5  H   UNL     1     -16.098  -6.951  40.339  1.00  0.00     0.345 HD
ATOM      6  H   UNL     1     -15.401  -8.500  40.211  1.00  0.00     0.345 HD
ENDBRANCH   2   3
BRANCH   2   7
ATOM      7  C   UNL     1     -16.544  -7.207  42.740  1.00  0.00     0.099 C 
ATOM      8  O   UNL     1     -16.404  -6.020  42.341  1.00  0.00    -0.544 OA
ATOM      9  O   UNL     1     -16.434  -7.488  44.095  1.00  0.00    -0.544 OA
ENDBRANCH   2   7
ENDBRANCH   1   2
BRANCH   1  10
ATOM     10  C   UNL     1     -17.183 -10.676  42.656  1.00  0.00     0.041 A 
ATOM     11  C   UNL     1     -18.464 -10.424  43.094  1.00  0.00     0.134 A 
ATOM     12  N   UNL     1     -17.004 -12.004  42.592  1.00  0.00    -0.348 N 
ATOM     13  N   UNL     1     -19.093 -11.596  43.312  1.00  0.00    -0.245 NA
ATOM     14  C   UNL     1     -18.173 -12.533  42.996  1.00  0.00     0.196 A 
ATOM     15  H   UNL     1     -16.147 -12.519  42.289  1.00  0.00     0.167 HD
ENDBRANCH   1  10
TORSDOF 4
ENDMDL
MODEL 2
REMARK VINA RESULT:    -4.653      2.932      3.841
REMARK INTER + INTRA:          -5.785
REMARK INTER:                  -5.604
REMARK INTRA:                  -0.181
REMARK UNBOUND:                -0.179
REMARK SMILES [NH3+][C@@H](Cc1cnc[nH]1)C(=O)[O-]
REMARK SMILES IDX 3 1 2 2 1 3 9 7 10 8 11 9 4 10 5 11 8 12 6 13 7 14
REMARK H PARENT 1 4 1 5 1 6 8 15
REMARK Flexibility Score: inf
ROOT
ATOM      1  C   UNL     1     -16.574  -8.366  44.017  1.00  0.00     0.127 C 
ENDROOT
BRANCH   1   2
ATOM      2  C   UNL     1     -15.879  -9.665  44.479  1.00  0.00     0.233 C 
BRANCH   2   3
ATOM      3  N   UNL     1     -15.207  -9.494  45.775  1.00  0.00    -0.350 N 
ATOM      4  H   UNL     1     -14.307  -8.978  45.637  1.00  0.00     0.345 HD
ATOM      5  H   UNL     1     -15.804  -8.957  46.444  1.00  0.00     0.345 HD
ATOM      6  H   UNL     1     -14.987 -10.430  46.188  1.00  0.00     0.345 HD
ENDBRANCH   2   3
BRANCH   2   7
ATOM      7  C   UNL     1     -14.928 -10.187  43.431  1.00  0.00     0.099 C 
ATOM      8  O   UNL     1     -13.852 -10.752  43.759  1.00  0.00    -0.544 OA
ATOM      9  O   UNL     1     -15.214  -9.994  42.086  1.00  0.00    -0.544 OA
ENDBRANCH   2   7
ENDBRANCH   1   2
BRANCH   1  10
ATOM     10  C   UNL     1     -18.039  -8.544  43.735  1.00  0.00     0.041 A 
ATOM     11  C   UNL     1     -18.670  -9.715  43.377  1.00  0.00     0.134 A 
ATOM     12  N   UNL     1     -18.961  -7.573  43.836  1.00  0.00    -0.348 N 
ATOM     13  N   UNL     1     -19.991  -9.481  43.248  1.00  0.00    -0.245 NA
ATOM     14  C   UNL     1     -20.128  -8.168  43.534  1.00  0.00     0.196 A 
ATOM     15  H   UNL     1     -18.808  -6.574  44.097  1.00  0.00     0.167 HD
ENDBRANCH   1  10
TORSDOF 4
ENDMDL
MODEL 3
REMARK VINA RESULT:    -4.545      3.527      4.852
REMARK INTER + INTRA:          -5.654
REMARK INTER:                  -5.513
REMARK INTRA:                  -0.140
REMARK UNBOUND:                -0.179
REMARK SMILES [NH3+][C@@H](Cc1cnc[nH]1)C(=O)[O-]
REMARK SMILES IDX 3 1 2 2 1 3 9 7 10 8 11 9 4 10 5 11 8 12 6 13 7 14
REMARK H PARENT 1 4 1 5 1 6 8 15
REMARK Flexibility Score: inf
ROOT
ATOM      1  C   UNL     1     -18.524  -8.356  43.744  1.00  0.00     0.127 C 
ENDROOT
BRANCH   1   2
ATOM      2  C   UNL     1     -19.893  -7.724  43.413  1.00  0.00     0.233 C 
BRANCH   2   3
ATOM      3  N   UNL     1     -20.397  -6.902  44.522  1.00  0.00    -0.350 N 
ATOM      4  H   UNL     1     -20.712  -7.523  45.303  1.00  0.00     0.345 HD
ATOM      5  H   UNL     1     -19.658  -6.256  44.882  1.00  0.00     0.345 HD
ATOM      6  H   UNL     1     -21.218  -6.337  44.201  1.00  0.00     0.345 HD
ENDBRANCH   2   3
BRANCH   2   7
ATOM      7  C   UNL     1     -20.899  -8.769  43.001  1.00  0.00     0.099 C 
ATOM      8  O   UNL     1     -20.730  -9.981  43.301  1.00  0.00    -0.544 OA
ATOM      9  O   UNL     1     -21.998  -8.403  42.235  1.00  0.00    -0.544 OA
ENDBRANCH   2   7
ENDBRANCH   1   2
BRANCH   1  10
ATOM     10  C   UNL     1     -17.433  -7.941  42.798  1.00  0.00     0.041 A 
ATOM     11  C   UNL     1     -16.927  -8.681  41.752  1.00  0.00     0.134 A 
ATOM     12  N   UNL     1     -16.818  -6.748  42.816  1.00  0.00    -0.348 N 
ATOM     13  N   UNL     1     -15.988  -7.955  41.113  1.00  0.00    -0.245 NA
ATOM     14  C   UNL     1     -15.949  -6.787  41.790  1.00  0.00     0.196 A 
ATOM     15  H   UNL     1     -16.980  -5.957  43.479  1.00  0.00     0.167 HD
ENDBRANCH   1  10
TORSDOF 4
ENDMDL
MODEL 4
REMARK VINA RESULT:    -4.527      3.995      5.602
REMARK INTER + INTRA:          -5.633
REMARK INTER:                  -5.478
REMARK INTRA:                  -0.155
REMARK UNBOUND:                -0.179
REMARK SMILES [NH3+][C@@H](Cc1cnc[nH]1)C(=O)[O-]
REMARK SMILES IDX 3 1 2 2 1 3 9 7 10 8 11 9 4 10 5 11 8 12 6 13 7 14
REMARK H PARENT 1 4 1 5 1 6 8 15
REMARK Flexibility Score: inf
ROOT
ATOM      1  C   UNL     1     -18.728 -14.237  44.298  1.00  0.00     0.127 C 
ENDROOT
BRANCH   1   2
ATOM      2  C   UNL     1     -18.441 -13.644  42.902  1.00  0.00     0.233 C 
BRANCH   2   3
ATOM      3  N   UNL     1     -17.265 -14.263  42.277  1.00  0.00    -0.350 N 
ATOM      4  H   UNL     1     -17.364 -14.230  41.235  1.00  0.00     0.345 HD
ATOM      5  H   UNL     1     -16.385 -13.768  42.548  1.00  0.00     0.345 HD
ATOM      6  H   UNL     1     -17.195 -15.266  42.566  1.00  0.00     0.345 HD
ENDBRANCH   2   3
BRANCH   2   7
ATOM      7  C   UNL     1     -18.309 -12.142  42.956  1.00  0.00     0.099 C 
ATOM      8  O   UNL     1     -17.211 -11.581  42.700  1.00  0.00    -0.544 OA
ATOM      9  O   UNL     1     -19.395 -11.369  43.346  1.00  0.00    -0.544 OA
ENDBRANCH   2   7
ENDBRANCH   1   2
BRANCH   1  10
ATOM     10  C   UNL     1     -19.921 -15.150  44.323  1.00  0.00     0.041 A 
ATOM     11  C   UNL     1     -20.805 -15.374  43.290  1.00  0.00     0.134 A 
ATOM     12  N   UNL     1     -20.272 -15.922  45.363  1.00  0.00    -0.348 N 
ATOM     13  N   UNL     1     -21.717 -16.285  43.682  1.00  0.00    -0.245 NA
ATOM     14  C   UNL     1     -21.361 -16.593  44.947  1.00  0.00     0.196 A 
ATOM     15  H   UNL     1     -19.801 -15.992  46.292  1.00  0.00     0.167 HD
ENDBRANCH   1  10
TORSDOF 4
ENDMDL
MODEL 5
REMARK VINA RESULT:    -4.446      2.601      3.475
REMARK INTER + INTRA:          -5.535
REMARK INTER:                  -5.389
REMARK INTRA:                  -0.146
REMARK UNBOUND:                -0.179
REMARK SMILES [NH3+][C@@H](Cc1cnc[nH]1)C(=O)[O-]
REMARK SMILES IDX 3 1 2 2 1 3 9 7 10 8 11 9 4 10 5 11 8 12 6 13 7 14
REMARK H PARENT 1 4 1 5 1 6 8 15
REMARK Flexibility Score: inf
ROOT
ATOM      1  C   UNL     1     -17.566  -9.267  43.669  1.00  0.00     0.127 C 
ENDROOT
BRANCH   1   2
ATOM      2  C   UNL     1     -17.027  -9.970  42.404  1.00  0.00     0.233 C 
BRANCH   2   3
ATOM      3  N   UNL     1     -16.641 -11.361  42.676  1.00  0.00    -0.350 N 
ATOM      4  H   UNL     1     -16.496 -11.490  43.704  1.00  0.00     0.345 HD
ATOM      5  H   UNL     1     -17.378 -12.029  42.354  1.00  0.00     0.345 HD
ATOM      6  H   UNL     1     -15.742 -11.582  42.189  1.00  0.00     0.345 HD
ENDBRANCH   2   3
BRANCH   2   7
ATOM      7  C   UNL     1     -15.892  -9.195  41.783  1.00  0.00     0.099 C 
ATOM      8  O   UNL     1     -16.116  -8.168  41.089  1.00  0.00    -0.544 OA
ATOM      9  O   UNL     1     -14.587  -9.646  41.931  1.00  0.00    -0.544 OA
ENDBRANCH   2   7
ENDBRANCH   1   2
BRANCH   1  10
ATOM     10  C   UNL     1     -18.956  -8.720  43.498  1.00  0.00     0.041 A 
ATOM     11  C   UNL     1     -20.024  -9.361  42.911  1.00  0.00     0.134 A 
ATOM     12  N   UNL     1     -19.366  -7.521  43.942  1.00  0.00    -0.348 N 
ATOM     13  N   UNL     1     -21.108  -8.564  42.981  1.00  0.00    -0.245 NA
ATOM     14  C   UNL     1     -20.668  -7.454  43.613  1.00  0.00     0.196 A 
ATOM     15  H   UNL     1     -18.800  -6.798  44.439  1.00  0.00     0.167 HD
ENDBRANCH   1  10
TORSDOF 4
ENDMDL
MODEL 6
REMARK VINA RESULT:    -4.446      4.461      5.355
REMARK INTER + INTRA:          -5.535
REMARK INTER:                  -5.357
REMARK INTRA:                  -0.177
REMARK UNBOUND:                -0.179
REMARK SMILES [NH3+][C@@H](Cc1cnc[nH]1)C(=O)[O-]
REMARK SMILES IDX 3 1 2 2 1 3 9 7 10 8 11 9 4 10 5 11 8 12 6 13 7 14
REMARK H PARENT 1 4 1 5 1 6 8 15
REMARK Flexibility Score: inf
ROOT
ATOM      1  C   UNL     1     -20.452  -7.815  44.145  1.00  0.00     0.127 C 
ENDROOT
BRANCH   1   2
ATOM      2  C   UNL     1     -21.653  -7.563  43.208  1.00  0.00     0.233 C 
BRANCH   2   3
ATOM      3  N   UNL     1     -22.187  -6.203  43.357  1.00  0.00    -0.350 N 
ATOM      4  H   UNL     1     -23.010  -6.079  42.723  1.00  0.00     0.345 HD
ATOM      5  H   UNL     1     -22.489  -6.020  44.341  1.00  0.00     0.345 HD
ATOM      6  H   UNL     1     -21.458  -5.503  43.087  1.00  0.00     0.345 HD
ENDBRANCH   2   3
BRANCH   2   7
ATOM      7  C   UNL     1     -22.729  -8.602  43.399  1.00  0.00     0.099 C 
ATOM      8  O   UNL     1     -22.448  -9.831  43.397  1.00  0.00    -0.544 OA
ATOM      9  O   UNL     1     -24.054  -8.206  43.523  1.00  0.00    -0.544 OA
ENDBRANCH   2   7
ENDBRANCH   1   2
BRANCH   1  10
ATOM     10  C   UNL     1     -19.190  -8.174  43.411  1.00  0.00     0.041 A 
ATOM     11  C   UNL     1     -18.982  -9.292  42.635  1.00  0.00     0.134 A 
ATOM     12  N   UNL     1     -18.083  -7.416  43.378  1.00  0.00    -0.348 N 
ATOM     13  N   UNL     1     -17.739  -9.241  42.114  1.00  0.00    -0.245 NA
ATOM     14  C   UNL     1     -17.224  -8.087  42.590  1.00  0.00     0.196 A 
ATOM     15  H   UNL     1     -17.922  -6.501  43.855  1.00  0.00     0.167 HD
ENDBRANCH   1  10
TORSDOF 4
ENDMDL
MODEL 7
REMARK VINA RESULT:    -4.362      1.621      1.999
REMARK INTER + INTRA:          -5.434
REMARK INTER:                  -5.284
REMARK INTRA:                  -0.150
REMARK UNBOUND:                -0.179
REMARK SMILES [NH3+][C@@H](Cc1cnc[nH]1)C(=O)[O-]
REMARK SMILES IDX 3 1 2 2 1 3 9 7 10 8 11 9 4 10 5 11 8 12 6 13 7 14
REMARK H PARENT 1 4 1 5 1 6 8 15
REMARK Flexibility Score: inf
ROOT
ATOM      1  C   UNL     1     -16.994  -9.585  42.580  1.00  0.00     0.127 C 
ENDROOT
BRANCH   1   2
ATOM      2  C   UNL     1     -17.196  -8.591  43.744  1.00  0.00     0.233 C 
BRANCH   2   3
ATOM      3  N   UNL     1     -17.822  -7.341  43.292  1.00  0.00    -0.350 N 
ATOM      4  H   UNL     1     -18.695  -7.559  42.758  1.00  0.00     0.345 HD
ATOM      5  H   UNL     1     -18.066  -6.725  44.100  1.00  0.00     0.345 HD
ATOM      6  H   UNL     1     -17.170  -6.827  42.655  1.00  0.00     0.345 HD
ENDBRANCH   2   3
BRANCH   2   7
ATOM      7  C   UNL     1     -15.904  -8.327  44.475  1.00  0.00     0.099 C 
ATOM      8  O   UNL     1     -15.411  -9.192  45.247  1.00  0.00    -0.544 OA
ATOM      9  O   UNL     1     -15.275  -7.096  44.341  1.00  0.00    -0.544 OA
ENDBRANCH   2   7
ENDBRANCH   1   2
BRANCH   1  10
ATOM     10  C   UNL     1     -17.622 -10.928  42.829  1.00  0.00     0.041 A 
ATOM     11  C   UNL     1     -18.864 -11.164  43.376  1.00  0.00     0.134 A 
ATOM     12  N   UNL     1     -17.065 -12.105  42.505  1.00  0.00    -0.348 N 
ATOM     13  N   UNL     1     -19.087 -12.493  43.403  1.00  0.00    -0.245 NA
ATOM     14  C   UNL     1     -17.971 -13.031  42.866  1.00  0.00     0.196 A 
ATOM     15  H   UNL     1     -16.132 -12.269  42.065  1.00  0.00     0.167 HD
ENDBRANCH   1  10
TORSDOF 4
ENDMDL
MODEL 8
REMARK VINA RESULT:    -4.308      4.866      5.774
REMARK INTER + INTRA:          -5.369
REMARK INTER:                  -5.236
REMARK INTRA:                  -0.133
REMARK UNBOUND:                -0.179
REMARK SMILES [NH3+][C@@H](Cc1cnc[nH]1)C(=O)[O-]
REMARK SMILES IDX 3 1 2 2 1 3 9 7 10 8 11 9 4 10 5 11 8 12 6 13 7 14
REMARK H PARENT 1 4 1 5 1 6 8 15
REMARK Flexibility Score: inf
ROOT
ATOM      1  C   UNL     1     -21.799  -8.204  42.663  1.00  0.00     0.127 C 
ENDROOT
BRANCH   1   2
ATOM      2  C   UNL     1     -20.733  -7.982  43.758  1.00  0.00     0.233 C 
BRANCH   2   3
ATOM      3  N   UNL     1     -20.665  -6.575  44.177  1.00  0.00    -0.350 N 
ATOM      4  H   UNL     1     -20.143  -6.021  43.459  1.00  0.00     0.345 HD
ATOM      5  H   UNL     1     -21.621  -6.166  44.289  1.00  0.00     0.345 HD
ATOM      6  H   UNL     1     -20.152  -6.499  45.085  1.00  0.00     0.345 HD
ENDBRANCH   2   3
BRANCH   2   7
ATOM      7  C   UNL     1     -19.382  -8.493  43.325  1.00  0.00     0.099 C 
ATOM      8  O   UNL     1     -18.325  -8.045  43.844  1.00  0.00    -0.544 OA
ATOM      9  O   UNL     1     -19.295  -9.429  42.303  1.00  0.00    -0.544 OA
ENDBRANCH   2   7
ENDBRANCH   1   2
BRANCH   1  10
ATOM     10  C   UNL     1     -23.155  -8.544  43.215  1.00  0.00     0.041 A 
ATOM     11  C   UNL     1     -23.599  -9.792  43.593  1.00  0.00     0.134 A 
ATOM     12  N   UNL     1     -24.127  -7.650  43.459  1.00  0.00    -0.348 N 
ATOM     13  N   UNL     1     -24.854  -9.686  44.073  1.00  0.00    -0.245 NA
ATOM     14  C   UNL     1     -25.141  -8.370  43.974  1.00  0.00     0.196 A 
ATOM     15  H   UNL     1     -24.103  -6.620  43.292  1.00  0.00     0.167 HD
ENDBRANCH   1  10
TORSDOF 4
ENDMDL
MODEL 9
REMARK VINA RESULT:    -4.241      3.442      4.223
REMARK INTER + INTRA:          -5.288
REMARK INTER:                  -5.163
REMARK INTRA:                  -0.125
REMARK UNBOUND:                -0.179
REMARK SMILES [NH3+][C@@H](Cc1cnc[nH]1)C(=O)[O-]
REMARK SMILES IDX 3 1 2 2 1 3 9 7 10 8 11 9 4 10 5 11 8 12 6 13 7 14
REMARK H PARENT 1 4 1 5 1 6 8 15
REMARK Flexibility Score: inf
ROOT
ATOM      1  C   UNL     1     -15.960  -9.310  44.801  1.00  0.00     0.127 C 
ENDROOT
BRANCH   1   2
ATOM      2  C   UNL     1     -16.299  -8.184  43.800  1.00  0.00     0.233 C 
BRANCH   2   3
ATOM      3  N   UNL     1     -16.215  -6.857  44.423  1.00  0.00    -0.350 N 
ATOM      4  H   UNL     1     -15.853  -6.951  45.401  1.00  0.00     0.345 HD
ATOM      5  H   UNL     1     -15.576  -6.226  43.887  1.00  0.00     0.345 HD
ATOM      6  H   UNL     1     -17.166  -6.423  44.467  1.00  0.00     0.345 HD
ENDBRANCH   2   3
BRANCH   2   7
ATOM      7  C   UNL     1     -17.645  -8.406  43.155  1.00  0.00     0.099 C 
ATOM      8  O   UNL     1     -18.706  -8.065  43.743  1.00  0.00    -0.544 OA
ATOM      9  O   UNL     1     -17.721  -9.042  41.924  1.00  0.00    -0.544 OA
ENDBRANCH   2   7
ENDBRANCH   1   2
BRANCH   1  10
ATOM     10  C   UNL     1     -14.534  -9.778  44.708  1.00  0.00     0.041 A 
ATOM     11  C   UNL     1     -13.875 -10.181  43.568  1.00  0.00     0.134 A 
ATOM     12  N   UNL     1     -13.678  -9.828  45.740  1.00  0.00    -0.348 N 
ATOM     13  N   UNL     1     -12.601 -10.490  43.883  1.00  0.00    -0.245 NA
ATOM     14  C   UNL     1     -12.520 -10.264  45.212  1.00  0.00     0.196 A 
ATOM     15  H   UNL     1     -13.865  -9.578  46.737  1.00  0.00     0.167 HD
ENDBRANCH   1  10
TORSDOF 4
ENDMDL
