MODEL 1
REMARK VINA RESULT:    -0.277      0.000      0.000
REMARK INTER + INTRA:          -0.623
REMARK INTER:                  -0.423
REMARK INTRA:                  -0.200
REMARK UNBOUND:                -0.200
REMARK SMILES CCCCCCCCCCC(=O)[O-]
REMARK SMILES IDX 7 1 8 2 9 3 10 4 11 5 12 6 13 7 6 8 5 9 4 10 3 11 2 12 1 13
REMARK H PARENT
REMARK Flexibility Score: inf
ROOT
ATOM      1  C   UNL     1     -31.220  18.471 -10.358  1.00  0.00     0.000 C 
ENDROOT
BRANCH   1   2
ATOM      2  C   UNL     1     -31.502  16.961 -10.321  1.00  0.00     0.000 C 
BRANCH   2   3
ATOM      3  C   UNL     1     -30.431  16.142 -11.060  1.00  0.00     0.006 C 
BRANCH   3   4
ATOM      4  C   UNL     1     -29.091  16.883 -11.166  1.00  0.00     0.053 C 
BRANCH   4   5
ATOM      5  C   UNL     1     -28.844  17.313 -12.577  1.00  0.00     0.041 C 
ATOM      6  O   UNL     1     -28.977  16.492 -13.522  1.00  0.00    -0.550 OA
ATOM      7  O   UNL     1     -28.417  18.607 -12.845  1.00  0.00    -0.550 OA
ENDBRANCH   4   5
ENDBRANCH   3   4
ENDBRANCH   2   3
ENDBRANCH   1   2
BRANCH   1   8
ATOM      8  C   UNL     1     -32.471  19.304 -10.687  1.00  0.00     0.000 C 
BRANCH   8   9
ATOM      9  C   UNL     1     -32.533  20.654  -9.940  1.00  0.00    -0.000 C 
BRANCH   9  10
ATOM     10  C   UNL     1     -31.939  21.806 -10.771  1.00  0.00    -0.000 C 
BRANCH  10  11
ATOM     11  C   UNL     1     -31.215  22.856  -9.909  1.00  0.00    -0.000 C 
BRANCH  11  12
ATOM     12  C   UNL     1     -32.037  24.121  -9.605  1.00  0.00    -0.003 C 
ATOM     13  C   UNL     1     -33.519  23.967  -9.945  1.00  0.00     0.004 C 
ENDBRANCH  11  12
ENDBRANCH  10  11
ENDBRANCH   9  10
ENDBRANCH   8   9
ENDBRANCH   1   8
TORSDOF 9
ENDMDL
MODEL 2
REMARK VINA RESULT:     0.518      3.352      6.491
REMARK INTER + INTRA:           0.590
REMARK INTER:                   1.030
REMARK INTRA:                  -0.440
REMARK UNBOUND:                -0.200
REMARK SMILES CCCCCCCCCCC(=O)[O-]
REMARK SMILES IDX 7 1 8 2 9 3 10 4 11 5 12 6 13 7 6 8 5 9 4 10 3 11 2 12 1 13
REMARK H PARENT
REMARK Flexibility Score: inf
ROOT
ATOM      1  C   UNL     1     -32.622  19.146 -10.534  1.00  0.00     0.000 C 
ENDROOT
BRANCH   1   2
ATOM      2  C   UNL     1     -32.589  20.564  -9.943  1.00  0.00     0.000 C 
BRANCH   2   3
ATOM      3  C   UNL     1     -31.319  21.336 -10.333  1.00  0.00     0.006 C 
BRANCH   3   4
ATOM      4  C   UNL     1     -31.626  22.702 -10.961  1.00  0.00     0.053 C 
BRANCH   4   5
ATOM      5  C   UNL     1     -32.337  23.579  -9.979  1.00  0.00     0.041 C 
ATOM      6  O   UNL     1     -31.700  24.125  -9.041  1.00  0.00    -0.550 OA
ATOM      7  O   UNL     1     -33.712  23.753 -10.071  1.00  0.00    -0.550 OA
ENDBRANCH   4   5
ENDBRANCH   3   4
ENDBRANCH   2   3
ENDBRANCH   1   2
BRANCH   1   8
ATOM      8  C   UNL     1     -31.268  18.423 -10.426  1.00  0.00     0.000 C 
BRANCH   8   9
ATOM      9  C   UNL     1     -31.386  16.885 -10.371  1.00  0.00    -0.000 C 
BRANCH   9  10
ATOM     10  C   UNL     1     -30.233  16.186 -11.112  1.00  0.00    -0.000 C 
BRANCH  10  11
ATOM     11  C   UNL     1     -29.068  17.136 -11.441  1.00  0.00    -0.000 C 
BRANCH  11  12
ATOM     12  C   UNL     1     -28.848  17.396 -12.942  1.00  0.00    -0.003 C 
ATOM     13  C   UNL     1     -28.939  16.126 -13.788  1.00  0.00     0.004 C 
ENDBRANCH  11  12
ENDBRANCH  10  11
ENDBRANCH   9  10
ENDBRANCH   8   9
ENDBRANCH   1   8
TORSDOF 9
ENDMDL
MODEL 3
REMARK VINA RESULT:     1.033      3.435      6.645
REMARK INTER + INTRA:           1.377
REMARK INTER:                   1.614
REMARK INTRA:                  -0.237
REMARK UNBOUND:                -0.200
REMARK SMILES CCCCCCCCCCC(=O)[O-]
REMARK SMILES IDX 7 1 8 2 9 3 10 4 11 5 12 6 13 7 6 8 5 9 4 10 3 11 2 12 1 13
REMARK H PARENT
REMARK Flexibility Score: inf
ROOT
ATOM      1  C   UNL     1     -31.403  19.681 -10.359  1.00  0.00     0.000 C 
ENDROOT
BRANCH   1   2
ATOM      2  C   UNL     1     -32.222  20.961 -10.128  1.00  0.00     0.000 C 
BRANCH   2   3
ATOM      3  C   UNL     1     -31.509  22.219 -10.648  1.00  0.00     0.006 C 
BRANCH   3   4
ATOM      4  C   UNL     1     -31.690  23.427  -9.719  1.00  0.00     0.053 C 
BRANCH   4   5
ATOM      5  C   UNL     1     -33.102  23.917  -9.770  1.00  0.00     0.041 C 
ATOM      6  O   UNL     1     -33.740  24.124  -8.705  1.00  0.00    -0.550 OA
ATOM      7  O   UNL     1     -33.731  24.099 -10.995  1.00  0.00    -0.550 OA
ENDBRANCH   4   5
ENDBRANCH   3   4
ENDBRANCH   2   3
ENDBRANCH   1   2
BRANCH   1   8
ATOM      8  C   UNL     1     -32.285  18.437 -10.563  1.00  0.00     0.000 C 
BRANCH   8   9
ATOM      9  C   UNL     1     -31.651  17.131 -10.039  1.00  0.00    -0.000 C 
BRANCH   9  10
ATOM     10  C   UNL     1     -30.687  16.501 -11.060  1.00  0.00    -0.000 C 
BRANCH  10  11
ATOM     11  C   UNL     1     -29.343  17.246 -11.155  1.00  0.00    -0.000 C 
BRANCH  11  12
ATOM     12  C   UNL     1     -28.953  17.698 -12.573  1.00  0.00    -0.003 C 
ATOM     13  C   UNL     1     -28.802  16.534 -13.552  1.00  0.00     0.004 C 
ENDBRANCH  11  12
ENDBRANCH  10  11
ENDBRANCH   9  10
ENDBRANCH   8   9
ENDBRANCH   1   8
TORSDOF 9
ENDMDL
MODEL 4
REMARK VINA RESULT:     2.134      3.328      6.345
REMARK INTER + INTRA:           3.057
REMARK INTER:                   2.985
REMARK INTRA:                   0.073
REMARK UNBOUND:                -0.200
REMARK SMILES CCCCCCCCCCC(=O)[O-]
REMARK SMILES IDX 7 1 8 2 9 3 10 4 11 5 12 6 13 7 6 8 5 9 4 10 3 11 2 12 1 13
REMARK H PARENT
REMARK Flexibility Score: inf
ROOT
ATOM      1  C   UNL     1     -30.046  20.305 -10.750  1.00  0.00     0.000 C 
ENDROOT
BRANCH   1   2
ATOM      2  C   UNL     1     -31.470  19.869 -10.370  1.00  0.00     0.000 C 
BRANCH   2   3
ATOM      3  C   UNL     1     -32.423  21.062 -10.191  1.00  0.00     0.006 C 
BRANCH   3   4
ATOM      4  C   UNL     1     -31.867  22.358 -10.794  1.00  0.00     0.053 C 
BRANCH   4   5
ATOM      5  C   UNL     1     -32.292  23.538  -9.979  1.00  0.00     0.041 C 
ATOM      6  O   UNL     1     -31.499  24.051  -9.146  1.00  0.00    -0.550 OA
ATOM      7  O   UNL     1     -33.582  24.039 -10.101  1.00  0.00    -0.550 OA
ENDBRANCH   4   5
ENDBRANCH   3   4
ENDBRANCH   2   3
ENDBRANCH   1   2
BRANCH   1   8
ATOM      8  C   UNL     1     -29.035  19.145 -10.701  1.00  0.00     0.000 C 
BRANCH   8   9
ATOM      9  C   UNL     1     -28.621  18.622 -12.093  1.00  0.00    -0.000 C 
BRANCH   9  10
ATOM     10  C   UNL     1     -29.249  17.253 -12.410  1.00  0.00    -0.000 C 
BRANCH  10  11
ATOM     11  C   UNL     1     -29.258  16.302 -11.199  1.00  0.00    -0.000 C 
BRANCH  11  12
ATOM     12  C   UNL     1     -30.655  15.834 -10.754  1.00  0.00    -0.003 C 
ATOM     13  C   UNL     1     -31.580  16.990 -10.375  1.00  0.00     0.004 C 
ENDBRANCH  11  12
ENDBRANCH  10  11
ENDBRANCH   9  10
ENDBRANCH   8   9
ENDBRANCH   1   8
TORSDOF 9
ENDMDL
