MODEL 1
REMARK VINA RESULT:     3.712      0.000      0.000
REMARK INTER + INTRA:           6.104
REMARK INTER:                   4.038
REMARK INTRA:                   2.066
REMARK UNBOUND:                 2.066
REMARK SMILES C[C@H]1[C@H](C)CC[C@@]2(C(=O)[O-])CC[C@@]3(C)C(=CC[C@@H]4[C@@]5(C)CC[C@H](O)C(C)(C)[C@H]5CC[C@]43C)[C@H]12
REMARK SMILES IDX 7 1 6 2 11 3 33 4 5 5 12 6 15 7 2 8 3 9 13 10 16 11 1 12
REMARK SMILES IDX 4 13 14 14 31 15 17 16 18 17 30 18 32 19 19 20 29 21 28 22
REMARK SMILES IDX 21 23 20 24 25 25 22 26 23 27 26 28 27 29 8 30 9 31 10 32
REMARK SMILES IDX 24 33
REMARK H PARENT 24 34
REMARK Flexibility Score: inf
ROOT
ATOM      1  C   UNL     1      -7.489   5.541  -7.443  1.00  0.00     0.017 C 
ATOM      2  C   UNL     1      -8.554   4.399  -7.773  1.00  0.00     0.014 C 
ATOM      3  C   UNL     1      -6.285   5.260  -8.401  1.00  0.00     0.014 C 
ATOM      4  C   UNL     1      -8.210   7.068  -7.523  1.00  0.00     0.030 C 
ATOM      5  C   UNL     1     -10.003   4.774  -7.517  1.00  0.00     0.004 C 
ATOM      6  C   UNL     1      -5.229   6.361  -8.302  1.00  0.00     0.013 C 
ATOM      7  C   UNL     1      -7.118   8.041  -7.595  1.00  0.00    -0.063 C 
ATOM      8  C   UNL     1      -9.081   6.990  -6.205  1.00  0.00    -0.003 C 
ATOM      9  C   UNL     1     -10.125   5.774  -6.261  1.00  0.00    -0.011 C 
ATOM     10  C   UNL     1      -5.865   7.734  -8.596  1.00  0.00    -0.006 C 
ATOM     11  C   UNL     1      -7.225   9.227  -6.948  1.00  0.00    -0.027 C 
ATOM     12  C   UNL     1      -9.710   8.202  -5.426  1.00  0.00     0.008 C 
ATOM     13  C   UNL     1     -10.124   5.074  -4.845  1.00  0.00     0.008 C 
ATOM     14  C   UNL     1      -6.352   7.617 -10.123  1.00  0.00     0.017 C 
ATOM     15  C   UNL     1      -4.865   8.895  -8.367  1.00  0.00    -0.020 C 
ATOM     16  C   UNL     1      -6.057  10.096  -6.560  1.00  0.00     0.032 C 
ATOM     17  C   UNL     1      -4.810   9.196  -6.785  1.00  0.00     0.006 C 
ATOM     18  C   UNL     1      -3.440   8.622  -8.774  1.00  0.00     0.008 C 
ATOM     19  C   UNL     1      -5.327  10.125  -9.311  1.00  0.00     0.012 C 
ATOM     20  C   UNL     1      -3.520   9.178  -5.879  1.00  0.00    -0.025 C 
ATOM     21  C   UNL     1      -2.552   9.799  -8.325  1.00  0.00     0.005 C 
ATOM     22  C   UNL     1      -2.310   9.745  -6.745  1.00  0.00     0.003 C 
ATOM     23  C   UNL     1      -3.195   7.829  -5.074  1.00  0.00     0.010 C 
ATOM     24  C   UNL     1      -3.956  10.125  -4.702  1.00  0.00     0.012 C 
ATOM     25  C   UNL     1      -0.939   9.080  -6.441  1.00  0.00    -0.006 C 
ATOM     26  C   UNL     1      -1.789   7.785  -4.402  1.00  0.00     0.033 C 
ATOM     27  C   UNL     1      -0.779   8.833  -4.909  1.00  0.00     0.120 C 
ATOM     28  C   UNL     1       0.160  10.120  -6.932  1.00  0.00     0.014 C 
ATOM     29  C   UNL     1      -0.661   7.753  -7.221  1.00  0.00     0.014 C 
ENDROOT
BRANCH   1  30
ATOM     30  C   UNL     1      -6.730   5.407  -6.064  1.00  0.00     0.048 C 
ATOM     31  O   UNL     1      -5.636   6.008  -5.741  1.00  0.00    -0.550 OA
ATOM     32  O   UNL     1      -7.445   4.885  -4.932  1.00  0.00    -0.550 OA
ENDBRANCH   1  30
BRANCH  27  33
ATOM     33  O   UNL     1      -0.897   9.991  -4.116  1.00  0.00    -0.393 OA
ATOM     34  H   UNL     1      -1.776  10.404  -4.303  1.00  0.00     0.210 HD
ENDBRANCH  27  33
TORSDOF 2
ENDMDL
MODEL 2
REMARK VINA RESULT:     4.320      2.392      4.286
REMARK INTER + INTRA:           6.765
REMARK INTER:                   6.318
REMARK INTRA:                   0.447
REMARK UNBOUND:                 2.066
REMARK SMILES C[C@H]1[C@H](C)CC[C@@]2(C(=O)[O-])CC[C@@]3(C)C(=CC[C@@H]4[C@@]5(C)CC[C@H](O)C(C)(C)[C@H]5CC[C@]43C)[C@H]12
REMARK SMILES IDX 7 1 6 2 11 3 33 4 5 5 12 6 15 7 2 8 3 9 13 10 16 11 1 12
REMARK SMILES IDX 4 13 14 14 31 15 17 16 18 17 30 18 32 19 19 20 29 21 28 22
REMARK SMILES IDX 21 23 20 24 25 25 22 26 23 27 26 28 27 29 8 30 9 31 10 32
REMARK SMILES IDX 24 33
REMARK H PARENT 24 34
REMARK Flexibility Score: inf
ROOT
ATOM      1  C   UNL     1      -7.540   8.831  -7.382  1.00  0.00     0.017 C 
ATOM      2  C   UNL     1      -9.036   9.355  -7.193  1.00  0.00     0.014 C 
ATOM      3  C   UNL     1      -6.672   9.742  -6.452  1.00  0.00     0.014 C 
ATOM      4  C   UNL     1      -7.459   7.161  -7.135  1.00  0.00     0.030 C 
ATOM      5  C   UNL     1     -10.118   8.314  -7.417  1.00  0.00     0.004 C 
ATOM      6  C   UNL     1      -5.218   9.272  -6.416  1.00  0.00     0.013 C 
ATOM      7  C   UNL     1      -6.044   6.837  -6.943  1.00  0.00    -0.063 C 
ATOM      8  C   UNL     1      -8.180   6.689  -8.460  1.00  0.00    -0.003 C 
ATOM      9  C   UNL     1      -9.676   7.261  -8.552  1.00  0.00    -0.011 C 
ATOM     10  C   UNL     1      -5.148   7.797  -5.973  1.00  0.00    -0.006 C 
ATOM     11  C   UNL     1      -5.538   5.687  -7.452  1.00  0.00    -0.027 C 
ATOM     12  C   UNL     1      -8.114   5.255  -9.102  1.00  0.00     0.008 C 
ATOM     13  C   UNL     1      -9.918   7.737 -10.039  1.00  0.00     0.008 C 
ATOM     14  C   UNL     1      -5.726   7.815  -4.473  1.00  0.00     0.017 C 
ATOM     15  C   UNL     1      -3.706   7.236  -6.060  1.00  0.00    -0.020 C 
ATOM     16  C   UNL     1      -4.078   5.445  -7.728  1.00  0.00     0.032 C 
ATOM     17  C   UNL     1      -3.419   6.847  -7.597  1.00  0.00     0.006 C 
ATOM     18  C   UNL     1      -2.607   8.192  -5.674  1.00  0.00     0.008 C 
ATOM     19  C   UNL     1      -3.591   6.031  -4.986  1.00  0.00     0.012 C 
ATOM     20  C   UNL     1      -2.237   7.389  -8.488  1.00  0.00    -0.025 C 
ATOM     21  C   UNL     1      -1.243   7.541  -5.979  1.00  0.00     0.005 C 
ATOM     22  C   UNL     1      -0.958   7.552  -7.552  1.00  0.00     0.003 C 
ATOM     23  C   UNL     1      -2.538   8.646  -9.439  1.00  0.00     0.010 C 
ATOM     24  C   UNL     1      -2.101   6.241  -9.553  1.00  0.00     0.012 C 
ATOM     25  C   UNL     1      -0.048   8.756  -7.919  1.00  0.00    -0.006 C 
ATOM     26  C   UNL     1      -1.281   9.289 -10.098  1.00  0.00     0.033 C 
ATOM     27  C   UNL     1       0.071   8.902  -9.468  1.00  0.00     0.120 C 
ATOM     28  C   UNL     1       1.379   8.417  -7.303  1.00  0.00     0.014 C 
ATOM     29  C   UNL     1      -0.477  10.124  -7.292  1.00  0.00     0.014 C 
ENDROOT
BRANCH   1  30
ATOM     30  C   UNL     1      -6.850   9.178  -8.761  1.00  0.00     0.048 C 
ATOM     31  O   UNL     1      -5.943   8.477  -9.350  1.00  0.00    -0.550 OA
ATOM     32  O   UNL     1      -7.492  10.123  -9.632  1.00  0.00    -0.550 OA
ENDBRANCH   1  30
BRANCH  27  33
ATOM     33  O   UNL     1       0.562   7.756 -10.124  1.00  0.00    -0.393 OA
ATOM     34  H   UNL     1       0.874   8.026 -11.023  1.00  0.00     0.210 HD
ENDBRANCH  27  33
TORSDOF 2
ENDMDL
