MODEL 1
REMARK VINA RESULT:    -5.901      0.000      0.000
REMARK INTER + INTRA:          -9.155
REMARK INTER:                  -7.971
REMARK INTRA:                  -1.185
REMARK UNBOUND:                -1.185
REMARK SMILES CC[C@@H](CC[C@@H](C)[C@@H]1CC[C@H]2[C@H]3CC(=O)C4=CC(=O)CC[C@]4(C)[C@@H]3CC[C@]21C)C(C)C
REMARK SMILES IDX 4 1 3 2 2 3 1 4 29 5 30 6 31 7 5 8 6 9 7 10 8 11 9 12 27 13
REMARK SMILES IDX 10 14 11 15 26 16 28 17 12 18 25 19 24 20 13 21 22 22 14 23
REMARK SMILES IDX 16 24 21 25 23 26 15 27 17 28 20 29 18 30 19 31
REMARK H PARENT
REMARK Flexibility Score: inf
ROOT
ATOM      1  C   UNL     1       5.195  19.390   7.183  1.00  0.00     0.004 C 
ENDROOT
BRANCH   1   2
ATOM      2  C   UNL     1       6.425  19.659   6.270  1.00  0.00    -0.009 C 
BRANCH   2   3
ATOM      3  C   UNL     1       7.261  20.898   6.694  1.00  0.00     0.000 C 
ATOM      4  C   UNL     1       6.509  21.840   7.635  1.00  0.00     0.004 C 
ENDBRANCH   2   3
BRANCH   2   5
ATOM      5  C   UNL     1       6.056  19.652   4.744  1.00  0.00    -0.014 C 
ATOM      6  C   UNL     1       6.613  18.398   4.050  1.00  0.00     0.007 C 
ATOM      7  C   UNL     1       6.511  20.904   3.966  1.00  0.00     0.007 C 
ENDBRANCH   2   5
ENDBRANCH   1   2
BRANCH   1   8
ATOM      8  C   UNL     1       3.866  19.158   6.435  1.00  0.00     0.004 C 
BRANCH   8   9
ATOM      9  C   UNL     1       2.665  19.874   7.109  1.00  0.00    -0.011 C 
ATOM     10  C   UNL     1       3.141  20.709   8.322  1.00  0.00     0.008 C 
BRANCH   9  11
ATOM     11  C   UNL     1       1.841  20.684   6.041  1.00  0.00    -0.002 C 
ATOM     12  C   UNL     1       1.611  19.910   4.726  1.00  0.00     0.005 C 
ATOM     13  C   UNL     1       2.362  22.111   5.619  1.00  0.00    -0.026 C 
ATOM     14  C   UNL     1       2.032  20.827   3.580  1.00  0.00     0.005 C 
ATOM     15  C   UNL     1       2.939  21.897   4.204  1.00  0.00    -0.001 C 
ATOM     16  C   UNL     1       1.130  23.068   5.546  1.00  0.00     0.007 C 
ATOM     17  C   UNL     1       3.427  22.712   6.573  1.00  0.00     0.012 C 
ATOM     18  C   UNL     1       3.134  23.198   3.355  1.00  0.00     0.004 C 
ATOM     19  C   UNL     1       1.415  24.383   4.826  1.00  0.00     0.005 C 
ATOM     20  C   UNL     1       1.917  24.161   3.380  1.00  0.00     0.003 C 
ATOM     21  C   UNL     1       3.486  22.837   1.896  1.00  0.00     0.085 C 
ATOM     22  C   UNL     1       2.177  25.523   2.584  1.00  0.00    -0.000 C 
ATOM     23  C   UNL     1       3.693  24.048   1.050  1.00  0.00     0.159 C 
ATOM     24  C   UNL     1       3.299  25.383   1.543  1.00  0.00     0.005 C 
ATOM     25  C   UNL     1       2.558  26.706   3.537  1.00  0.00     0.020 C 
ATOM     26  C   UNL     1       0.875  25.883   1.824  1.00  0.00     0.017 C 
ATOM     27  O   UNL     1       4.201  23.911  -0.096  1.00  0.00    -0.295 OA
ATOM     28  C   UNL     1       3.934  26.464   1.055  1.00  0.00     0.055 C 
ATOM     29  C   UNL     1       2.839  28.022   2.800  1.00  0.00     0.081 C 
ATOM     30  C   UNL     1       3.710  27.809   1.602  1.00  0.00     0.156 C 
ATOM     31  O   UNL     1       4.259  28.802   1.053  1.00  0.00    -0.295 OA
ENDBRANCH   9  11
ENDBRANCH   8   9
ENDBRANCH   1   8
TORSDOF 6
ENDMDL
MODEL 2
REMARK VINA RESULT:    -3.209      4.046      7.129
REMARK INTER + INTRA:          -5.519
REMARK INTER:                  -6.890
REMARK INTRA:                   1.371
REMARK UNBOUND:                -1.185
REMARK SMILES CC[C@@H](CC[C@@H](C)[C@@H]1CC[C@H]2[C@H]3CC(=O)C4=CC(=O)CC[C@]4(C)[C@@H]3CC[C@]21C)C(C)C
REMARK SMILES IDX 4 1 3 2 2 3 1 4 29 5 30 6 31 7 5 8 6 9 7 10 8 11 9 12 27 13
REMARK SMILES IDX 10 14 11 15 26 16 28 17 12 18 25 19 24 20 13 21 22 22 14 23
REMARK SMILES IDX 16 24 21 25 23 26 15 27 17 28 20 29 18 30 19 31
REMARK H PARENT
REMARK Flexibility Score: inf
ROOT
ATOM      1  C   UNL     1       2.378  27.600   9.010  1.00  0.00     0.004 C 
ENDROOT
BRANCH   1   2
ATOM      2  C   UNL     1       2.531  28.731  10.066  1.00  0.00    -0.009 C 
BRANCH   2   3
ATOM      3  C   UNL     1       4.006  29.125  10.353  1.00  0.00     0.000 C 
ATOM      4  C   UNL     1       4.917  28.983   9.133  1.00  0.00     0.004 C 
ENDBRANCH   2   3
BRANCH   2   5
ATOM      5  C   UNL     1       1.696  28.460  11.367  1.00  0.00    -0.014 C 
ATOM      6  C   UNL     1       2.595  28.485  12.613  1.00  0.00     0.007 C 
ATOM      7  C   UNL     1       0.891  27.144  11.352  1.00  0.00     0.007 C 
ENDBRANCH   2   5
ENDBRANCH   1   2
BRANCH   1   8
ATOM      8  C   UNL     1       2.926  27.937   7.608  1.00  0.00     0.004 C 
BRANCH   8   9
ATOM      9  C   UNL     1       1.801  28.194   6.570  1.00  0.00    -0.011 C 
ATOM     10  C   UNL     1       2.305  29.125   5.441  1.00  0.00     0.008 C 
BRANCH   9  11
ATOM     11  C   UNL     1       1.194  26.830   6.070  1.00  0.00    -0.002 C 
ATOM     12  C   UNL     1       0.929  25.823   7.208  1.00  0.00     0.005 C 
ATOM     13  C   UNL     1       1.970  26.030   4.955  1.00  0.00    -0.026 C 
ATOM     14  C   UNL     1       1.569  24.499   6.801  1.00  0.00     0.005 C 
ATOM     15  C   UNL     1       2.597  24.841   5.713  1.00  0.00    -0.001 C 
ATOM     16  C   UNL     1       0.919  25.504   3.926  1.00  0.00     0.007 C 
ATOM     17  C   UNL     1       3.053  26.855   4.212  1.00  0.00     0.012 C 
ATOM     18  C   UNL     1       3.059  23.643   4.817  1.00  0.00     0.004 C 
ATOM     19  C   UNL     1       1.464  24.434   2.986  1.00  0.00     0.005 C 
ATOM     20  C   UNL     1       2.018  23.209   3.751  1.00  0.00     0.003 C 
ATOM     21  C   UNL     1       3.443  22.435   5.696  1.00  0.00     0.085 C 
ATOM     22  C   UNL     1       2.550  22.049   2.788  1.00  0.00    -0.000 C 
ATOM     23  C   UNL     1       3.902  21.270   4.884  1.00  0.00     0.159 C 
ATOM     24  C   UNL     1       3.701  21.251   3.422  1.00  0.00     0.005 C 
ATOM     25  C   UNL     1       3.056  22.602   1.413  1.00  0.00     0.020 C 
ATOM     26  C   UNL     1       1.379  21.065   2.540  1.00  0.00     0.017 C 
ATOM     27  O   UNL     1       4.456  20.300   5.469  1.00  0.00    -0.295 OA
ATOM     28  C   UNL     1       4.536  20.515   2.666  1.00  0.00     0.055 C 
ATOM     29  C   UNL     1       3.599  21.514   0.476  1.00  0.00     0.081 C 
ATOM     30  C   UNL     1       4.501  20.563   1.198  1.00  0.00     0.156 C 
ATOM     31  O   UNL     1       5.240  19.788   0.533  1.00  0.00    -0.295 OA
ENDBRANCH   9  11
ENDBRANCH   8   9
ENDBRANCH   1   8
TORSDOF 6
ENDMDL
