MODEL 1
REMARK VINA RESULT:    -4.194      0.000      0.000
REMARK INTER + INTRA:          -9.554
REMARK INTER:                  -7.872
REMARK INTRA:                  -1.682
REMARK UNBOUND:                -1.682
REMARK SMILES O=C([O-])CCCCCCCCCCCCCCC(=O)[O-]
REMARK SMILES IDX 10 1 9 2 8 3 7 4 6 5 5 6 4 7 2 8 1 9 3 10 11 11 12 12 13 13
REMARK SMILES IDX 14 14 15 15 16 16 17 17 18 18 19 19 20 20
REMARK H PARENT
REMARK Flexibility Score: inf
ROOT
ATOM      1  C   UNL     1     -40.183 -49.663  36.359  1.00  0.00     0.000 C 
ENDROOT
BRANCH   1   2
ATOM      2  C   UNL     1     -40.509 -48.433  37.214  1.00  0.00     0.000 C 
BRANCH   2   3
ATOM      3  C   UNL     1     -41.547 -48.774  38.294  1.00  0.00     0.000 C 
BRANCH   3   4
ATOM      4  C   UNL     1     -41.746 -47.635  39.307  1.00  0.00     0.000 C 
BRANCH   4   5
ATOM      5  C   UNL     1     -43.155 -47.635  39.924  1.00  0.00     0.000 C 
BRANCH   5   6
ATOM      6  C   UNL     1     -43.595 -46.245  40.419  1.00  0.00     0.006 C 
BRANCH   6   7
ATOM      7  C   UNL     1     -42.464 -45.201  40.437  1.00  0.00     0.053 C 
BRANCH   7   8
ATOM      8  C   UNL     1     -41.834 -45.058  41.790  1.00  0.00     0.041 C 
ATOM      9  O   UNL     1     -41.362 -43.949  42.155  1.00  0.00    -0.550 OA
ATOM     10  O   UNL     1     -41.737 -46.155  42.637  1.00  0.00    -0.550 OA
ENDBRANCH   7   8
ENDBRANCH   6   7
ENDBRANCH   5   6
ENDBRANCH   4   5
ENDBRANCH   3   4
ENDBRANCH   2   3
ENDBRANCH   1   2
BRANCH   1  11
ATOM     11  C   UNL     1     -40.616 -49.451  34.901  1.00  0.00     0.000 C 
BRANCH  11  12
ATOM     12  C   UNL     1     -41.337 -48.110  34.687  1.00  0.00     0.000 C 
BRANCH  12  13
ATOM     13  C   UNL     1     -42.845 -48.283  34.443  1.00  0.00     0.000 C 
BRANCH  13  14
ATOM     14  C   UNL     1     -43.253 -49.758  34.293  1.00  0.00     0.000 C 
BRANCH  14  15
ATOM     15  C   UNL     1     -44.123 -50.250  35.464  1.00  0.00     0.000 C 
BRANCH  15  16
ATOM     16  C   UNL     1     -44.577 -49.105  36.382  1.00  0.00     0.006 C 
BRANCH  16  17
ATOM     17  C   UNL     1     -45.325 -49.607  37.625  1.00  0.00     0.053 C 
BRANCH  17  18
ATOM     18  C   UNL     1     -46.759 -49.879  37.295  1.00  0.00     0.041 C 
ATOM     19  O   UNL     1     -47.184 -51.064  37.246  1.00  0.00    -0.550 OA
ATOM     20  O   UNL     1     -47.637 -48.823  37.092  1.00  0.00    -0.550 OA
ENDBRANCH  17  18
ENDBRANCH  16  17
ENDBRANCH  15  16
ENDBRANCH  14  15
ENDBRANCH  13  14
ENDBRANCH  12  13
ENDBRANCH  11  12
ENDBRANCH   1  11
TORSDOF 15
ENDMDL
MODEL 2
REMARK VINA RESULT:    -4.138      3.386      6.821
REMARK INTER + INTRA:          -9.449
REMARK INTER:                  -8.010
REMARK INTRA:                  -1.439
REMARK UNBOUND:                -1.682
REMARK SMILES O=C([O-])CCCCCCCCCCCCCCC(=O)[O-]
REMARK SMILES IDX 10 1 9 2 8 3 7 4 6 5 5 6 4 7 2 8 1 9 3 10 11 11 12 12 13 13
REMARK SMILES IDX 14 14 15 15 16 16 17 17 18 18 19 19 20 20
REMARK H PARENT
REMARK Flexibility Score: inf
ROOT
ATOM      1  C   UNL     1     -46.131 -51.954  37.900  1.00  0.00     0.000 C 
ENDROOT
BRANCH   1   2
ATOM      2  C   UNL     1     -47.518 -52.587  38.062  1.00  0.00     0.000 C 
BRANCH   2   3
ATOM      3  C   UNL     1     -47.404 -54.054  38.505  1.00  0.00     0.000 C 
BRANCH   3   4
ATOM      4  C   UNL     1     -47.875 -54.274  39.952  1.00  0.00     0.000 C 
BRANCH   4   5
ATOM      5  C   UNL     1     -48.944 -53.256  40.385  1.00  0.00     0.000 C 
BRANCH   5   6
ATOM      6  C   UNL     1     -48.682 -52.667  41.782  1.00  0.00     0.006 C 
BRANCH   6   7
ATOM      7  C   UNL     1     -48.113 -51.236  41.762  1.00  0.00     0.053 C 
BRANCH   7   8
ATOM      8  C   UNL     1     -46.633 -51.209  41.520  1.00  0.00     0.041 C 
ATOM      9  O   UNL     1     -46.123 -50.297  40.817  1.00  0.00    -0.550 OA
ATOM     10  O   UNL     1     -45.821 -52.208  42.041  1.00  0.00    -0.550 OA
ENDBRANCH   7   8
ENDBRANCH   6   7
ENDBRANCH   5   6
ENDBRANCH   4   5
ENDBRANCH   3   4
ENDBRANCH   2   3
ENDBRANCH   1   2
BRANCH   1  11
ATOM     11  C   UNL     1     -46.154 -50.833  36.851  1.00  0.00     0.000 C 
BRANCH  11  12
ATOM     12  C   UNL     1     -46.889 -49.576  37.346  1.00  0.00     0.000 C 
BRANCH  12  13
ATOM     13  C   UNL     1     -45.931 -48.413  37.652  1.00  0.00     0.000 C 
BRANCH  13  14
ATOM     14  C   UNL     1     -44.505 -48.675  37.141  1.00  0.00     0.000 C 
BRANCH  14  15
ATOM     15  C   UNL     1     -43.432 -48.348  38.196  1.00  0.00     0.000 C 
BRANCH  15  16
ATOM     16  C   UNL     1     -44.039 -47.955  39.552  1.00  0.00     0.006 C 
BRANCH  16  17
ATOM     17  C   UNL     1     -43.059 -47.169  40.432  1.00  0.00     0.053 C 
BRANCH  17  18
ATOM     18  C   UNL     1     -43.409 -45.715  40.432  1.00  0.00     0.041 C 
ATOM     19  O   UNL     1     -44.615 -45.353  40.474  1.00  0.00    -0.550 OA
ATOM     20  O   UNL     1     -42.402 -44.758  40.437  1.00  0.00    -0.550 OA
ENDBRANCH  17  18
ENDBRANCH  16  17
ENDBRANCH  15  16
ENDBRANCH  14  15
ENDBRANCH  13  14
ENDBRANCH  12  13
ENDBRANCH  11  12
ENDBRANCH   1  11
TORSDOF 15
ENDMDL
MODEL 3
REMARK VINA RESULT:    -4.056      3.772      8.102
REMARK INTER + INTRA:          -9.296
REMARK INTER:                  -7.735
REMARK INTRA:                  -1.561
REMARK UNBOUND:                -1.682
REMARK SMILES O=C([O-])CCCCCCCCCCCCCCC(=O)[O-]
REMARK SMILES IDX 10 1 9 2 8 3 7 4 6 5 5 6 4 7 2 8 1 9 3 10 11 11 12 12 13 13
REMARK SMILES IDX 14 14 15 15 16 16 17 17 18 18 19 19 20 20
REMARK H PARENT
REMARK Flexibility Score: inf
ROOT
ATOM      1  C   UNL     1     -45.799 -50.836  40.190  1.00  0.00     0.000 C 
ENDROOT
BRANCH   1   2
ATOM      2  C   UNL     1     -46.451 -51.367  41.472  1.00  0.00     0.000 C 
BRANCH   2   3
ATOM      3  C   UNL     1     -47.966 -51.109  41.465  1.00  0.00     0.000 C 
BRANCH   3   4
ATOM      4  C   UNL     1     -48.787 -52.394  41.661  1.00  0.00     0.000 C 
BRANCH   4   5
ATOM      5  C   UNL     1     -48.149 -53.611  40.969  1.00  0.00     0.000 C 
BRANCH   5   6
ATOM      6  C   UNL     1     -48.431 -53.659  39.457  1.00  0.00     0.006 C 
BRANCH   6   7
ATOM      7  C   UNL     1     -47.338 -54.371  38.639  1.00  0.00     0.053 C 
BRANCH   7   8
ATOM      8  C   UNL     1     -47.255 -55.837  38.941  1.00  0.00     0.041 C 
ATOM      9  O   UNL     1     -48.133 -56.625  38.502  1.00  0.00    -0.550 OA
ATOM     10  O   UNL     1     -46.228 -56.330  39.737  1.00  0.00    -0.550 OA
ENDBRANCH   7   8
ENDBRANCH   6   7
ENDBRANCH   5   6
ENDBRANCH   4   5
ENDBRANCH   3   4
ENDBRANCH   2   3
ENDBRANCH   1   2
BRANCH   1  11
ATOM     11  C   UNL     1     -46.854 -50.564  39.107  1.00  0.00     0.000 C 
BRANCH  11  12
ATOM     12  C   UNL     1     -46.238 -50.412  37.706  1.00  0.00     0.000 C 
BRANCH  12  13
ATOM     13  C   UNL     1     -45.908 -48.950  37.362  1.00  0.00     0.000 C 
BRANCH  13  14
ATOM     14  C   UNL     1     -44.447 -48.763  36.922  1.00  0.00     0.000 C 
BRANCH  14  15
ATOM     15  C   UNL     1     -43.483 -48.646  38.116  1.00  0.00     0.000 C 
BRANCH  15  16
ATOM     16  C   UNL     1     -44.008 -47.700  39.207  1.00  0.00     0.006 C 
BRANCH  16  17
ATOM     17  C   UNL     1     -42.878 -47.016  39.988  1.00  0.00     0.053 C 
BRANCH  17  18
ATOM     18  C   UNL     1     -43.407 -45.837  40.743  1.00  0.00     0.041 C 
ATOM     19  O   UNL     1     -44.555 -45.384  40.489  1.00  0.00    -0.550 OA
ATOM     20  O   UNL     1     -42.653 -45.269  41.761  1.00  0.00    -0.550 OA
ENDBRANCH  17  18
ENDBRANCH  16  17
ENDBRANCH  15  16
ENDBRANCH  14  15
ENDBRANCH  13  14
ENDBRANCH  12  13
ENDBRANCH  11  12
ENDBRANCH   1  11
TORSDOF 15
ENDMDL
MODEL 4
REMARK VINA RESULT:    -4.030      4.198      6.845
REMARK INTER + INTRA:          -9.246
REMARK INTER:                  -7.232
REMARK INTRA:                  -2.014
REMARK UNBOUND:                -1.682
REMARK SMILES O=C([O-])CCCCCCCCCCCCCCC(=O)[O-]
REMARK SMILES IDX 10 1 9 2 8 3 7 4 6 5 5 6 4 7 2 8 1 9 3 10 11 11 12 12 13 13
REMARK SMILES IDX 14 14 15 15 16 16 17 17 18 18 19 19 20 20
REMARK H PARENT
REMARK Flexibility Score: inf
ROOT
ATOM      1  C   UNL     1     -45.653 -51.384  40.148  1.00  0.00     0.000 C 
ENDROOT
BRANCH   1   2
ATOM      2  C   UNL     1     -46.570 -50.632  39.176  1.00  0.00     0.000 C 
BRANCH   2   3
ATOM      3  C   UNL     1     -46.434 -51.191  37.751  1.00  0.00     0.000 C 
BRANCH   3   4
ATOM      4  C   UNL     1     -46.150 -50.097  36.709  1.00  0.00     0.000 C 
BRANCH   4   5
ATOM      5  C   UNL     1     -44.656 -49.988  36.362  1.00  0.00     0.000 C 
BRANCH   5   6
ATOM      6  C   UNL     1     -43.997 -48.720  36.935  1.00  0.00     0.006 C 
BRANCH   6   7
ATOM      7  C   UNL     1     -43.231 -48.953  38.250  1.00  0.00     0.053 C 
BRANCH   7   8
ATOM      8  C   UNL     1     -43.733 -48.090  39.369  1.00  0.00     0.041 C 
ATOM      9  O   UNL     1     -44.857 -47.529  39.280  1.00  0.00    -0.550 OA
ATOM     10  O   UNL     1     -42.947 -47.876  40.494  1.00  0.00    -0.550 OA
ENDBRANCH   7   8
ENDBRANCH   6   7
ENDBRANCH   5   6
ENDBRANCH   4   5
ENDBRANCH   3   4
ENDBRANCH   2   3
ENDBRANCH   1   2
BRANCH   1  11
ATOM     11  C   UNL     1     -46.236 -51.381  41.570  1.00  0.00     0.000 C 
BRANCH  11  12
ATOM     12  C   UNL     1     -47.736 -51.045  41.593  1.00  0.00     0.000 C 
BRANCH  12  13
ATOM     13  C   UNL     1     -48.596 -52.220  42.088  1.00  0.00     0.000 C 
BRANCH  13  14
ATOM     14  C   UNL     1     -49.170 -53.059  40.934  1.00  0.00     0.000 C 
BRANCH  14  15
ATOM     15  C   UNL     1     -48.239 -54.216  40.529  1.00  0.00     0.000 C 
BRANCH  15  16
ATOM     16  C   UNL     1     -47.939 -54.231  39.022  1.00  0.00     0.006 C 
BRANCH  16  17
ATOM     17  C   UNL     1     -46.627 -54.954  38.688  1.00  0.00     0.053 C 
BRANCH  17  18
ATOM     18  C   UNL     1     -46.848 -56.432  38.625  1.00  0.00     0.041 C 
ATOM     19  O   UNL     1     -45.882 -57.225  38.780  1.00  0.00    -0.550 OA
ATOM     20  O   UNL     1     -48.130 -56.935  38.444  1.00  0.00    -0.550 OA
ENDBRANCH  17  18
ENDBRANCH  16  17
ENDBRANCH  15  16
ENDBRANCH  14  15
ENDBRANCH  13  14
ENDBRANCH  12  13
ENDBRANCH  11  12
ENDBRANCH   1  11
TORSDOF 15
ENDMDL
MODEL 5
REMARK VINA RESULT:    -4.020      5.104      9.180
REMARK INTER + INTRA:          -9.227
REMARK INTER:                  -7.187
REMARK INTRA:                  -2.041
REMARK UNBOUND:                -1.682
REMARK SMILES O=C([O-])CCCCCCCCCCCCCCC(=O)[O-]
REMARK SMILES IDX 10 1 9 2 8 3 7 4 6 5 5 6 4 7 2 8 1 9 3 10 11 11 12 12 13 13
REMARK SMILES IDX 14 14 15 15 16 16 17 17 18 18 19 19 20 20
REMARK H PARENT
REMARK Flexibility Score: inf
ROOT
ATOM      1  C   UNL     1     -47.059 -52.318  42.465  1.00  0.00     0.000 C 
ENDROOT
BRANCH   1   2
ATOM      2  C   UNL     1     -48.142 -53.386  42.271  1.00  0.00     0.000 C 
BRANCH   2   3
ATOM      3  C   UNL     1     -49.101 -52.996  41.135  1.00  0.00     0.000 C 
BRANCH   3   4
ATOM      4  C   UNL     1     -48.791 -53.727  39.819  1.00  0.00     0.000 C 
BRANCH   4   5
ATOM      5  C   UNL     1     -47.724 -54.822  39.991  1.00  0.00     0.000 C 
BRANCH   5   6
ATOM      6  C   UNL     1     -47.431 -55.585  38.687  1.00  0.00     0.006 C 
BRANCH   6   7
ATOM      7  C   UNL     1     -48.056 -56.990  38.630  1.00  0.00     0.053 C 
BRANCH   7   8
ATOM      8  C   UNL     1     -47.035 -58.066  38.414  1.00  0.00     0.041 C 
ATOM      9  O   UNL     1     -45.886 -57.959  38.919  1.00  0.00    -0.550 OA
ATOM     10  O   UNL     1     -47.337 -59.171  37.627  1.00  0.00    -0.550 OA
ENDBRANCH   7   8
ENDBRANCH   6   7
ENDBRANCH   5   6
ENDBRANCH   4   5
ENDBRANCH   3   4
ENDBRANCH   2   3
ENDBRANCH   1   2
BRANCH   1  11
ATOM     11  C   UNL     1     -47.414 -51.029  41.708  1.00  0.00     0.000 C 
BRANCH  11  12
ATOM     12  C   UNL     1     -46.291 -50.570  40.764  1.00  0.00     0.000 C 
BRANCH  12  13
ATOM     13  C   UNL     1     -45.432 -51.740  40.255  1.00  0.00     0.000 C 
BRANCH  13  14
ATOM     14  C   UNL     1     -45.621 -51.998  38.751  1.00  0.00     0.000 C 
BRANCH  14  15
ATOM     15  C   UNL     1     -46.741 -51.136  38.142  1.00  0.00     0.000 C 
BRANCH  15  16
ATOM     16  C   UNL     1     -46.231 -50.209  37.028  1.00  0.00     0.006 C 
BRANCH  16  17
ATOM     17  C   UNL     1     -46.222 -48.732  37.448  1.00  0.00     0.053 C 
BRANCH  17  18
ATOM     18  C   UNL     1     -44.897 -48.367  38.040  1.00  0.00     0.041 C 
ATOM     19  O   UNL     1     -43.832 -48.629  37.420  1.00  0.00    -0.550 OA
ATOM     20  O   UNL     1     -44.840 -47.692  39.252  1.00  0.00    -0.550 OA
ENDBRANCH  17  18
ENDBRANCH  16  17
ENDBRANCH  15  16
ENDBRANCH  14  15
ENDBRANCH  13  14
ENDBRANCH  12  13
ENDBRANCH  11  12
ENDBRANCH   1  11
TORSDOF 15
ENDMDL
MODEL 6
REMARK VINA RESULT:    -4.005      3.952      6.579
REMARK INTER + INTRA:          -9.199
REMARK INTER:                  -6.834
REMARK INTRA:                  -2.364
REMARK UNBOUND:                -1.682
REMARK SMILES O=C([O-])CCCCCCCCCCCCCCC(=O)[O-]
REMARK SMILES IDX 10 1 9 2 8 3 7 4 6 5 5 6 4 7 2 8 1 9 3 10 11 11 12 12 13 13
REMARK SMILES IDX 14 14 15 15 16 16 17 17 18 18 19 19 20 20
REMARK H PARENT
REMARK Flexibility Score: inf
ROOT
ATOM      1  C   UNL     1     -43.816 -51.175  40.225  1.00  0.00     0.000 C 
ENDROOT
BRANCH   1   2
ATOM      2  C   UNL     1     -43.683 -49.789  40.865  1.00  0.00     0.000 C 
BRANCH   2   3
ATOM      3  C   UNL     1     -42.555 -48.984  40.202  1.00  0.00     0.000 C 
BRANCH   3   4
ATOM      4  C   UNL     1     -43.042 -48.157  39.002  1.00  0.00     0.000 C 
BRANCH   4   5
ATOM      5  C   UNL     1     -44.493 -47.673  39.170  1.00  0.00     0.000 C 
BRANCH   5   6
ATOM      6  C   UNL     1     -45.385 -48.021  37.965  1.00  0.00     0.006 C 
BRANCH   6   7
ATOM      7  C   UNL     1     -44.778 -49.072  37.018  1.00  0.00     0.053 C 
BRANCH   7   8
ATOM      8  C   UNL     1     -45.654 -50.279  36.861  1.00  0.00     0.041 C 
ATOM      9  O   UNL     1     -45.140 -51.416  36.692  1.00  0.00    -0.550 OA
ATOM     10  O   UNL     1     -47.037 -50.145  36.865  1.00  0.00    -0.550 OA
ENDBRANCH   7   8
ENDBRANCH   6   7
ENDBRANCH   5   6
ENDBRANCH   4   5
ENDBRANCH   3   4
ENDBRANCH   2   3
ENDBRANCH   1   2
BRANCH   1  11
ATOM     11  C   UNL     1     -45.239 -51.728  40.396  1.00  0.00     0.000 C 
BRANCH  11  12
ATOM     12  C   UNL     1     -46.305 -50.621  40.413  1.00  0.00     0.000 C 
BRANCH  12  13
ATOM     13  C   UNL     1     -47.408 -50.879  41.454  1.00  0.00     0.000 C 
BRANCH  13  14
ATOM     14  C   UNL     1     -47.146 -52.143  42.289  1.00  0.00     0.000 C 
BRANCH  14  15
ATOM     15  C   UNL     1     -48.381 -53.059  42.372  1.00  0.00     0.000 C 
BRANCH  15  16
ATOM     16  C   UNL     1     -48.785 -53.630  41.004  1.00  0.00     0.006 C 
BRANCH  16  17
ATOM     17  C   UNL     1     -47.724 -54.574  40.422  1.00  0.00     0.053 C 
BRANCH  17  18
ATOM     18  C   UNL     1     -47.465 -54.243  38.985  1.00  0.00     0.041 C 
ATOM     19  O   UNL     1     -46.800 -55.033  38.263  1.00  0.00    -0.550 OA
ATOM     20  O   UNL     1     -48.002 -53.089  38.431  1.00  0.00    -0.550 OA
ENDBRANCH  17  18
ENDBRANCH  16  17
ENDBRANCH  15  16
ENDBRANCH  14  15
ENDBRANCH  13  14
ENDBRANCH  12  13
ENDBRANCH  11  12
ENDBRANCH   1  11
TORSDOF 15
ENDMDL
MODEL 7
REMARK VINA RESULT:    -4.001      4.026      7.400
REMARK INTER + INTRA:          -9.192
REMARK INTER:                  -6.720
REMARK INTRA:                  -2.472
REMARK UNBOUND:                -1.682
REMARK SMILES O=C([O-])CCCCCCCCCCCCCCC(=O)[O-]
REMARK SMILES IDX 10 1 9 2 8 3 7 4 6 5 5 6 4 7 2 8 1 9 3 10 11 11 12 12 13 13
REMARK SMILES IDX 14 14 15 15 16 16 17 17 18 18 19 19 20 20
REMARK H PARENT
REMARK Flexibility Score: inf
ROOT
ATOM      1  C   UNL     1     -47.906 -54.116  38.937  1.00  0.00     0.000 C 
ENDROOT
BRANCH   1   2
ATOM      2  C   UNL     1     -46.417 -54.114  38.574  1.00  0.00     0.000 C 
BRANCH   2   3
ATOM      3  C   UNL     1     -46.100 -53.001  37.562  1.00  0.00     0.000 C 
BRANCH   3   4
ATOM      4  C   UNL     1     -47.268 -52.019  37.377  1.00  0.00     0.000 C 
BRANCH   4   5
ATOM      5  C   UNL     1     -46.791 -50.585  37.090  1.00  0.00     0.000 C 
BRANCH   5   6
ATOM      6  C   UNL     1     -45.321 -50.519  36.639  1.00  0.00     0.006 C 
BRANCH   6   7
ATOM      7  C   UNL     1     -44.695 -49.116  36.747  1.00  0.00     0.053 C 
BRANCH   7   8
ATOM      8  C   UNL     1     -43.336 -49.043  36.117  1.00  0.00     0.041 C 
ATOM      9  O   UNL     1     -42.348 -49.584  36.679  1.00  0.00    -0.550 OA
ATOM     10  O   UNL     1     -43.153 -48.349  34.928  1.00  0.00    -0.550 OA
ENDBRANCH   7   8
ENDBRANCH   6   7
ENDBRANCH   5   6
ENDBRANCH   4   5
ENDBRANCH   3   4
ENDBRANCH   2   3
ENDBRANCH   1   2
BRANCH   1  11
ATOM     11  C   UNL     1     -48.107 -54.326  40.445  1.00  0.00     0.000 C 
BRANCH  11  12
ATOM     12  C   UNL     1     -49.002 -53.249  41.078  1.00  0.00     0.000 C 
BRANCH  12  13
ATOM     13  C   UNL     1     -48.341 -52.568  42.288  1.00  0.00     0.000 C 
BRANCH  13  14
ATOM     14  C   UNL     1     -46.970 -51.962  41.947  1.00  0.00     0.000 C 
BRANCH  14  15
ATOM     15  C   UNL     1     -47.067 -50.845  40.892  1.00  0.00     0.000 C 
BRANCH  15  16
ATOM     16  C   UNL     1     -45.691 -50.288  40.496  1.00  0.00     0.006 C 
BRANCH  16  17
ATOM     17  C   UNL     1     -44.544 -51.249  40.836  1.00  0.00     0.053 C 
BRANCH  17  18
ATOM     18  C   UNL     1     -43.411 -51.070  39.875  1.00  0.00     0.041 C 
ATOM     19  O   UNL     1     -43.177 -51.947  39.001  1.00  0.00    -0.550 OA
ATOM     20  O   UNL     1     -42.646 -49.912  39.911  1.00  0.00    -0.550 OA
ENDBRANCH  17  18
ENDBRANCH  16  17
ENDBRANCH  15  16
ENDBRANCH  14  15
ENDBRANCH  13  14
ENDBRANCH  12  13
ENDBRANCH  11  12
ENDBRANCH   1  11
TORSDOF 15
ENDMDL
MODEL 8
REMARK VINA RESULT:    -3.939      3.754      7.584
REMARK INTER + INTRA:          -9.075
REMARK INTER:                  -6.679
REMARK INTRA:                  -2.396
REMARK UNBOUND:                -1.682
REMARK SMILES O=C([O-])CCCCCCCCCCCCCCC(=O)[O-]
REMARK SMILES IDX 10 1 9 2 8 3 7 4 6 5 5 6 4 7 2 8 1 9 3 10 11 11 12 12 13 13
REMARK SMILES IDX 14 14 15 15 16 16 17 17 18 18 19 19 20 20
REMARK H PARENT
REMARK Flexibility Score: inf
ROOT
ATOM      1  C   UNL     1     -48.056 -54.091  40.274  1.00  0.00     0.000 C 
ENDROOT
BRANCH   1   2
ATOM      2  C   UNL     1     -46.817 -54.668  39.579  1.00  0.00     0.000 C 
BRANCH   2   3
ATOM      3  C   UNL     1     -46.429 -53.822  38.357  1.00  0.00     0.000 C 
BRANCH   3   4
ATOM      4  C   UNL     1     -47.614 -53.028  37.785  1.00  0.00     0.000 C 
BRANCH   4   5
ATOM      5  C   UNL     1     -47.255 -51.561  37.492  1.00  0.00     0.000 C 
BRANCH   5   6
ATOM      6  C   UNL     1     -45.781 -51.372  37.091  1.00  0.00     0.006 C 
BRANCH   6   7
ATOM      7  C   UNL     1     -45.461 -49.979  36.518  1.00  0.00     0.053 C 
BRANCH   7   8
ATOM      8  C   UNL     1     -44.171 -49.952  35.756  1.00  0.00     0.041 C 
ATOM      9  O   UNL     1     -43.567 -48.863  35.571  1.00  0.00    -0.550 OA
ATOM     10  O   UNL     1     -43.650 -51.123  35.220  1.00  0.00    -0.550 OA
ENDBRANCH   7   8
ENDBRANCH   6   7
ENDBRANCH   5   6
ENDBRANCH   4   5
ENDBRANCH   3   4
ENDBRANCH   2   3
ENDBRANCH   1   2
BRANCH   1  11
ATOM     11  C   UNL     1     -47.828 -53.958  41.787  1.00  0.00     0.000 C 
BRANCH  11  12
ATOM     12  C   UNL     1     -47.299 -52.571  42.186  1.00  0.00     0.000 C 
BRANCH  12  13
ATOM     13  C   UNL     1     -47.777 -51.461  41.235  1.00  0.00     0.000 C 
BRANCH  13  14
ATOM     14  C   UNL     1     -46.664 -50.458  40.893  1.00  0.00     0.000 C 
BRANCH  14  15
ATOM     15  C   UNL     1     -45.280 -51.126  40.791  1.00  0.00     0.000 C 
BRANCH  15  16
ATOM     16  C   UNL     1     -44.160 -50.119  40.491  1.00  0.00     0.006 C 
BRANCH  16  17
ATOM     17  C   UNL     1     -44.669 -48.870  39.758  1.00  0.00     0.053 C 
BRANCH  17  18
ATOM     18  C   UNL     1     -43.560 -47.880  39.585  1.00  0.00     0.041 C 
ATOM     19  O   UNL     1     -42.739 -48.006  38.639  1.00  0.00    -0.550 OA
ATOM     20  O   UNL     1     -43.465 -46.789  40.439  1.00  0.00    -0.550 OA
ENDBRANCH  17  18
ENDBRANCH  16  17
ENDBRANCH  15  16
ENDBRANCH  14  15
ENDBRANCH  13  14
ENDBRANCH  12  13
ENDBRANCH  11  12
ENDBRANCH   1  11
TORSDOF 15
ENDMDL
MODEL 9
REMARK VINA RESULT:    -3.914      3.475      5.865
REMARK INTER + INTRA:          -9.028
REMARK INTER:                  -6.837
REMARK INTRA:                  -2.191
REMARK UNBOUND:                -1.682
REMARK SMILES O=C([O-])CCCCCCCCCCCCCCC(=O)[O-]
REMARK SMILES IDX 10 1 9 2 8 3 7 4 6 5 5 6 4 7 2 8 1 9 3 10 11 11 12 12 13 13
REMARK SMILES IDX 14 14 15 15 16 16 17 17 18 18 19 19 20 20
REMARK H PARENT
REMARK Flexibility Score: inf
ROOT
ATOM      1  C   UNL     1     -47.907 -53.387  40.677  1.00  0.00     0.000 C 
ENDROOT
BRANCH   1   2
ATOM      2  C   UNL     1     -48.283 -52.067  41.358  1.00  0.00     0.000 C 
BRANCH   2   3
ATOM      3  C   UNL     1     -47.088 -51.101  41.382  1.00  0.00     0.000 C 
BRANCH   3   4
ATOM      4  C   UNL     1     -45.772 -51.796  41.765  1.00  0.00     0.000 C 
BRANCH   4   5
ATOM      5  C   UNL     1     -44.577 -51.290  40.938  1.00  0.00     0.000 C 
BRANCH   5   6
ATOM      6  C   UNL     1     -44.737 -49.829  40.482  1.00  0.00     0.006 C 
BRANCH   6   7
ATOM      7  C   UNL     1     -43.406 -49.121  40.169  1.00  0.00     0.053 C 
BRANCH   7   8
ATOM      8  C   UNL     1     -43.592 -47.676  39.817  1.00  0.00     0.041 C 
ATOM      9  O   UNL     1     -44.727 -47.247  39.479  1.00  0.00    -0.550 OA
ATOM     10  O   UNL     1     -42.507 -46.808  39.828  1.00  0.00    -0.550 OA
ENDBRANCH   7   8
ENDBRANCH   6   7
ENDBRANCH   5   6
ENDBRANCH   4   5
ENDBRANCH   3   4
ENDBRANCH   2   3
ENDBRANCH   1   2
BRANCH   1  11
ATOM     11  C   UNL     1     -48.013 -53.269  39.149  1.00  0.00     0.000 C 
BRANCH  11  12
ATOM     12  C   UNL     1     -46.703 -53.641  38.435  1.00  0.00     0.000 C 
BRANCH  12  13
ATOM     13  C   UNL     1     -46.099 -52.459  37.657  1.00  0.00     0.000 C 
BRANCH  13  14
ATOM     14  C   UNL     1     -46.913 -51.166  37.822  1.00  0.00     0.000 C 
BRANCH  14  15
ATOM     15  C   UNL     1     -46.506 -50.081  36.810  1.00  0.00     0.000 C 
BRANCH  15  16
ATOM     16  C   UNL     1     -45.016 -49.718  36.902  1.00  0.00     0.006 C 
BRANCH  16  17
ATOM     17  C   UNL     1     -44.301 -49.811  35.547  1.00  0.00     0.053 C 
BRANCH  17  18
ATOM     18  C   UNL     1     -43.117 -48.897  35.519  1.00  0.00     0.041 C 
ATOM     19  O   UNL     1     -42.833 -48.259  34.471  1.00  0.00    -0.550 OA
ATOM     20  O   UNL     1     -42.356 -48.711  36.666  1.00  0.00    -0.550 OA
ENDBRANCH  17  18
ENDBRANCH  16  17
ENDBRANCH  15  16
ENDBRANCH  14  15
ENDBRANCH  13  14
ENDBRANCH  12  13
ENDBRANCH  11  12
ENDBRANCH   1  11
TORSDOF 15
ENDMDL
