MODEL 1
REMARK VINA RESULT:    -4.718      0.000      0.000
REMARK INTER + INTRA:         -15.111
REMARK INTER:                 -11.888
REMARK INTRA:                  -3.223
REMARK UNBOUND:                -3.223
REMARK SMILES CCCCCCCCCCCCCCCCCCCCCCCCCCCC(=O)[O-]
REMARK SMILES IDX 15 1 16 2 17 3 18 4 19 5 20 6 21 7 22 8 23 9 24 10 25 11
REMARK SMILES IDX 26 12 27 13 28 14 29 15 30 16 14 17 13 18 12 19 11 20 10 21
REMARK SMILES IDX 9 22 8 23 7 24 6 25 5 26 4 27 3 28 2 29 1 30
REMARK H PARENT
REMARK Flexibility Score: inf
ROOT
ATOM      1  C   UNL     1     -10.923 -13.170  17.493  1.00  0.00     0.000 C 
ENDROOT
BRANCH   1   2
ATOM      2  C   UNL     1      -9.588 -13.905  17.289  1.00  0.00     0.000 C 
BRANCH   2   3
ATOM      3  C   UNL     1      -8.544 -13.558  18.366  1.00  0.00     0.000 C 
BRANCH   3   4
ATOM      4  C   UNL     1      -7.204 -13.008  17.831  1.00  0.00     0.000 C 
BRANCH   4   5
ATOM      5  C   UNL     1      -6.858 -13.413  16.388  1.00  0.00     0.000 C 
BRANCH   5   6
ATOM      6  C   UNL     1      -6.441 -12.218  15.518  1.00  0.00     0.000 C 
BRANCH   6   7
ATOM      7  C   UNL     1      -6.706 -10.890  16.240  1.00  0.00     0.000 C 
BRANCH   7   8
ATOM      8  C   UNL     1      -7.778 -10.042  15.535  1.00  0.00     0.000 C 
BRANCH   8   9
ATOM      9  C   UNL     1      -9.170 -10.206  16.170  1.00  0.00     0.000 C 
BRANCH   9  10
ATOM     10  C   UNL     1      -9.397  -9.255  17.358  1.00  0.00     0.000 C 
BRANCH  10  11
ATOM     11  C   UNL     1      -9.187  -9.931  18.731  1.00  0.00     0.000 C 
BRANCH  11  12
ATOM     12  C   UNL     1      -8.102  -9.232  19.563  1.00  0.00     0.006 C 
BRANCH  12  13
ATOM     13  C   UNL     1      -7.835  -9.991  20.866  1.00  0.00     0.053 C 
BRANCH  13  14
ATOM     14  C   UNL     1      -6.398 -10.395  20.955  1.00  0.00     0.041 C 
ATOM     15  O   UNL     1      -5.724 -10.571  19.907  1.00  0.00    -0.550 OA
ATOM     16  O   UNL     1      -5.811 -10.616  22.196  1.00  0.00    -0.550 OA
ENDBRANCH  13  14
ENDBRANCH  12  13
ENDBRANCH  11  12
ENDBRANCH  10  11
ENDBRANCH   9  10
ENDBRANCH   8   9
ENDBRANCH   7   8
ENDBRANCH   6   7
ENDBRANCH   5   6
ENDBRANCH   4   5
ENDBRANCH   3   4
ENDBRANCH   2   3
ENDBRANCH   1   2
BRANCH   1  17
ATOM     17  C   UNL     1     -11.807 -13.167  16.232  1.00  0.00     0.000 C 
BRANCH  17  18
ATOM     18  C   UNL     1     -11.117 -12.688  14.942  1.00  0.00     0.000 C 
BRANCH  18  19
ATOM     19  C   UNL     1     -10.992 -13.795  13.880  1.00  0.00     0.000 C 
BRANCH  19  20
ATOM     20  C   UNL     1      -9.748 -13.617  12.994  1.00  0.00     0.000 C 
BRANCH  20  21
ATOM     21  C   UNL     1      -9.947 -14.185  11.577  1.00  0.00     0.000 C 
BRANCH  21  22
ATOM     22  C   UNL     1      -8.624 -14.632  10.935  1.00  0.00    -0.000 C 
BRANCH  22  23
ATOM     23  C   UNL     1      -8.784 -15.905  10.083  1.00  0.00    -0.000 C 
BRANCH  23  24
ATOM     24  C   UNL     1     -10.264 -16.297   9.887  1.00  0.00    -0.000 C 
BRANCH  24  25
ATOM     25  C   UNL     1     -10.668 -16.476   8.413  1.00  0.00    -0.000 C 
BRANCH  25  26
ATOM     26  C   UNL     1     -11.570 -17.697   8.184  1.00  0.00    -0.000 C 
BRANCH  26  27
ATOM     27  C   UNL     1     -13.035 -17.272   8.002  1.00  0.00    -0.000 C 
BRANCH  27  28
ATOM     28  C   UNL     1     -13.169 -15.865   7.395  1.00  0.00    -0.000 C 
BRANCH  28  29
ATOM     29  C   UNL     1     -14.456 -15.154   7.835  1.00  0.00    -0.003 C 
ATOM     30  C   UNL     1     -14.813 -14.024   6.875  1.00  0.00     0.004 C 
ENDBRANCH  28  29
ENDBRANCH  27  28
ENDBRANCH  26  27
ENDBRANCH  25  26
ENDBRANCH  24  25
ENDBRANCH  23  24
ENDBRANCH  22  23
ENDBRANCH  21  22
ENDBRANCH  20  21
ENDBRANCH  19  20
ENDBRANCH  18  19
ENDBRANCH  17  18
ENDBRANCH   1  17
TORSDOF 26
ENDMDL
MODEL 2
REMARK VINA RESULT:    -4.712      4.471     10.529
REMARK INTER + INTRA:         -15.097
REMARK INTER:                 -11.924
REMARK INTRA:                  -3.172
REMARK UNBOUND:                -3.223
REMARK SMILES CCCCCCCCCCCCCCCCCCCCCCCCCCCC(=O)[O-]
REMARK SMILES IDX 15 1 16 2 17 3 18 4 19 5 20 6 21 7 22 8 23 9 24 10 25 11
REMARK SMILES IDX 26 12 27 13 28 14 29 15 30 16 14 17 13 18 12 19 11 20 10 21
REMARK SMILES IDX 9 22 8 23 7 24 6 25 5 26 4 27 3 28 2 29 1 30
REMARK H PARENT
REMARK Flexibility Score: inf
ROOT
ATOM      1  C   UNL     1     -11.241 -13.359  17.314  1.00  0.00     0.000 C 
ENDROOT
BRANCH   1   2
ATOM      2  C   UNL     1     -11.632 -12.753  15.956  1.00  0.00     0.000 C 
BRANCH   2   3
ATOM      3  C   UNL     1     -12.066 -13.815  14.930  1.00  0.00     0.000 C 
BRANCH   3   4
ATOM      4  C   UNL     1     -11.180 -13.916  13.671  1.00  0.00     0.000 C 
BRANCH   4   5
ATOM      5  C   UNL     1      -9.838 -13.165  13.750  1.00  0.00     0.000 C 
BRANCH   5   6
ATOM      6  C   UNL     1      -8.692 -13.919  13.058  1.00  0.00     0.000 C 
BRANCH   6   7
ATOM      7  C   UNL     1      -9.054 -14.263  11.607  1.00  0.00     0.000 C 
BRANCH   7   8
ATOM      8  C   UNL     1      -7.837 -14.742  10.797  1.00  0.00     0.000 C 
BRANCH   8   9
ATOM      9  C   UNL     1      -8.097 -16.077  10.078  1.00  0.00     0.000 C 
BRANCH   9  10
ATOM     10  C   UNL     1      -9.542 -16.205   9.565  1.00  0.00     0.000 C 
BRANCH  10  11
ATOM     11  C   UNL     1      -9.647 -16.935   8.208  1.00  0.00     0.000 C 
BRANCH  11  12
ATOM     12  C   UNL     1     -11.044 -16.799   7.583  1.00  0.00     0.006 C 
BRANCH  12  13
ATOM     13  C   UNL     1     -12.098 -16.498   8.653  1.00  0.00     0.053 C 
BRANCH  13  14
ATOM     14  C   UNL     1     -13.455 -16.376   8.036  1.00  0.00     0.041 C 
ATOM     15  O   UNL     1     -13.609 -15.720   6.973  1.00  0.00    -0.550 OA
ATOM     16  O   UNL     1     -14.557 -16.952   8.657  1.00  0.00    -0.550 OA
ENDBRANCH  13  14
ENDBRANCH  12  13
ENDBRANCH  11  12
ENDBRANCH  10  11
ENDBRANCH   9  10
ENDBRANCH   8   9
ENDBRANCH   7   8
ENDBRANCH   6   7
ENDBRANCH   5   6
ENDBRANCH   4   5
ENDBRANCH   3   4
ENDBRANCH   2   3
ENDBRANCH   1   2
BRANCH   1  17
ATOM     17  C   UNL     1      -9.950 -12.752  17.895  1.00  0.00     0.000 C 
BRANCH  17  18
ATOM     18  C   UNL     1      -8.798 -13.745  18.126  1.00  0.00     0.000 C 
BRANCH  18  19
ATOM     19  C   UNL     1      -7.864 -13.875  16.910  1.00  0.00     0.000 C 
BRANCH  19  20
ATOM     20  C   UNL     1      -6.793 -12.772  16.875  1.00  0.00     0.000 C 
BRANCH  20  21
ATOM     21  C   UNL     1      -6.820 -11.964  15.565  1.00  0.00     0.000 C 
BRANCH  21  22
ATOM     22  C   UNL     1      -7.825 -10.801  15.615  1.00  0.00    -0.000 C 
BRANCH  22  23
ATOM     23  C   UNL     1      -7.169  -9.474  16.036  1.00  0.00    -0.000 C 
BRANCH  23  24
ATOM     24  C   UNL     1      -7.602  -8.295  15.138  1.00  0.00    -0.000 C 
BRANCH  24  25
ATOM     25  C   UNL     1      -7.506  -6.923  15.827  1.00  0.00    -0.000 C 
BRANCH  25  26
ATOM     26  C   UNL     1      -6.718  -6.968  17.144  1.00  0.00    -0.000 C 
BRANCH  26  27
ATOM     27  C   UNL     1      -7.393  -6.104  18.219  1.00  0.00    -0.000 C 
BRANCH  27  28
ATOM     28  C   UNL     1      -8.772  -6.646  18.630  1.00  0.00    -0.000 C 
BRANCH  28  29
ATOM     29  C   UNL     1      -8.701  -8.077  19.181  1.00  0.00    -0.003 C 
ATOM     30  C   UNL     1      -9.748  -8.970  18.522  1.00  0.00     0.004 C 
ENDBRANCH  28  29
ENDBRANCH  27  28
ENDBRANCH  26  27
ENDBRANCH  25  26
ENDBRANCH  24  25
ENDBRANCH  23  24
ENDBRANCH  22  23
ENDBRANCH  21  22
ENDBRANCH  20  21
ENDBRANCH  19  20
ENDBRANCH  18  19
ENDBRANCH  17  18
ENDBRANCH   1  17
TORSDOF 26
ENDMDL
MODEL 3
REMARK VINA RESULT:    -4.629      5.129      9.950
REMARK INTER + INTRA:         -14.888
REMARK INTER:                  -9.323
REMARK INTRA:                  -5.565
REMARK UNBOUND:                -3.223
REMARK SMILES CCCCCCCCCCCCCCCCCCCCCCCCCCCC(=O)[O-]
REMARK SMILES IDX 15 1 16 2 17 3 18 4 19 5 20 6 21 7 22 8 23 9 24 10 25 11
REMARK SMILES IDX 26 12 27 13 28 14 29 15 30 16 14 17 13 18 12 19 11 20 10 21
REMARK SMILES IDX 9 22 8 23 7 24 6 25 5 26 4 27 3 28 2 29 1 30
REMARK H PARENT
REMARK Flexibility Score: inf
ROOT
ATOM      1  C   UNL     1      -9.232 -10.246  17.065  1.00  0.00     0.000 C 
ENDROOT
BRANCH   1   2
ATOM      2  C   UNL     1      -9.912  -9.696  18.329  1.00  0.00     0.000 C 
BRANCH   2   3
ATOM      3  C   UNL     1      -8.998  -9.739  19.566  1.00  0.00     0.000 C 
BRANCH   3   4
ATOM      4  C   UNL     1      -7.875 -10.796  19.519  1.00  0.00     0.000 C 
BRANCH   4   5
ATOM      5  C   UNL     1      -6.535 -10.359  20.136  1.00  0.00     0.000 C 
BRANCH   5   6
ATOM      6  C   UNL     1      -5.322 -10.830  19.320  1.00  0.00     0.000 C 
BRANCH   6   7
ATOM      7  C   UNL     1      -5.560 -10.639  17.816  1.00  0.00     0.000 C 
BRANCH   7   8
ATOM      8  C   UNL     1      -5.255 -11.911  17.008  1.00  0.00     0.000 C 
BRANCH   8   9
ATOM      9  C   UNL     1      -6.526 -12.699  16.648  1.00  0.00     0.000 C 
BRANCH   9  10
ATOM     10  C   UNL     1      -6.850 -13.803  17.670  1.00  0.00     0.000 C 
BRANCH  10  11
ATOM     11  C   UNL     1      -8.355 -14.139  17.752  1.00  0.00     0.000 C 
BRANCH  11  12
ATOM     12  C   UNL     1      -9.066 -13.951  16.404  1.00  0.00     0.006 C 
BRANCH  12  13
ATOM     13  C   UNL     1     -10.208 -14.959  16.240  1.00  0.00     0.053 C 
BRANCH  13  14
ATOM     14  C   UNL     1     -11.534 -14.275  16.342  1.00  0.00     0.041 C 
ATOM     15  O   UNL     1     -11.591 -13.028  16.506  1.00  0.00    -0.550 OA
ATOM     16  O   UNL     1     -12.708 -15.018  16.297  1.00  0.00    -0.550 OA
ENDBRANCH  13  14
ENDBRANCH  12  13
ENDBRANCH  11  12
ENDBRANCH  10  11
ENDBRANCH   9  10
ENDBRANCH   8   9
ENDBRANCH   7   8
ENDBRANCH   6   7
ENDBRANCH   5   6
ENDBRANCH   4   5
ENDBRANCH   3   4
ENDBRANCH   2   3
ENDBRANCH   1   2
BRANCH   1  17
ATOM     17  C   UNL     1      -8.980  -9.165  15.997  1.00  0.00     0.000 C 
BRANCH  17  18
ATOM     18  C   UNL     1      -7.635  -9.269  15.256  1.00  0.00     0.000 C 
BRANCH  18  19
ATOM     19  C   UNL     1      -7.309  -8.016  14.424  1.00  0.00     0.000 C 
BRANCH  19  20
ATOM     20  C   UNL     1      -5.969  -7.378  14.827  1.00  0.00     0.000 C 
BRANCH  20  21
ATOM     21  C   UNL     1      -6.111  -6.406  16.012  1.00  0.00     0.000 C 
BRANCH  21  22
ATOM     22  C   UNL     1      -5.586  -7.004  17.326  1.00  0.00    -0.000 C 
BRANCH  22  23
ATOM     23  C   UNL     1      -6.674  -7.088  18.412  1.00  0.00    -0.000 C 
BRANCH  23  24
ATOM     24  C   UNL     1      -7.986  -6.399  17.981  1.00  0.00    -0.000 C 
BRANCH  24  25
ATOM     25  C   UNL     1      -8.964  -6.146  19.142  1.00  0.00    -0.000 C 
BRANCH  25  26
ATOM     26  C   UNL     1      -8.339  -5.334  20.285  1.00  0.00    -0.000 C 
BRANCH  26  27
ATOM     27  C   UNL     1      -8.599  -6.004  21.642  1.00  0.00    -0.000 C 
BRANCH  27  28
ATOM     28  C   UNL     1      -7.531  -7.053  21.995  1.00  0.00    -0.000 C 
BRANCH  28  29
ATOM     29  C   UNL     1      -8.110  -8.242  22.775  1.00  0.00    -0.003 C 
ATOM     30  C   UNL     1      -9.618  -8.097  22.955  1.00  0.00     0.004 C 
ENDBRANCH  28  29
ENDBRANCH  27  28
ENDBRANCH  26  27
ENDBRANCH  25  26
ENDBRANCH  24  25
ENDBRANCH  23  24
ENDBRANCH  22  23
ENDBRANCH  21  22
ENDBRANCH  20  21
ENDBRANCH  19  20
ENDBRANCH  18  19
ENDBRANCH  17  18
ENDBRANCH   1  17
TORSDOF 26
ENDMDL
MODEL 4
REMARK VINA RESULT:    -4.605      4.324      9.911
REMARK INTER + INTRA:         -14.826
REMARK INTER:                 -10.744
REMARK INTRA:                  -4.082
REMARK UNBOUND:                -3.223
REMARK SMILES CCCCCCCCCCCCCCCCCCCCCCCCCCCC(=O)[O-]
REMARK SMILES IDX 15 1 16 2 17 3 18 4 19 5 20 6 21 7 22 8 23 9 24 10 25 11
REMARK SMILES IDX 26 12 27 13 28 14 29 15 30 16 14 17 13 18 12 19 11 20 10 21
REMARK SMILES IDX 9 22 8 23 7 24 6 25 5 26 4 27 3 28 2 29 1 30
REMARK H PARENT
REMARK Flexibility Score: inf
ROOT
ATOM      1  C   UNL     1      -8.994 -13.671  18.141  1.00  0.00     0.000 C 
ENDROOT
BRANCH   1   2
ATOM      2  C   UNL     1      -9.374 -12.183  18.059  1.00  0.00     0.000 C 
BRANCH   2   3
ATOM      3  C   UNL     1     -10.665 -11.940  17.256  1.00  0.00     0.000 C 
BRANCH   3   4
ATOM      4  C   UNL     1     -11.605 -13.159  17.136  1.00  0.00     0.000 C 
BRANCH   4   5
ATOM      5  C   UNL     1     -11.976 -13.563  15.698  1.00  0.00     0.000 C 
BRANCH   5   6
ATOM      6  C   UNL     1     -10.806 -14.207  14.940  1.00  0.00     0.000 C 
BRANCH   6   7
ATOM      7  C   UNL     1     -10.159 -13.208  13.971  1.00  0.00     0.000 C 
BRANCH   7   8
ATOM      8  C   UNL     1      -8.972 -13.818  13.206  1.00  0.00     0.000 C 
BRANCH   8   9
ATOM      9  C   UNL     1      -9.256 -13.969  11.701  1.00  0.00     0.000 C 
BRANCH   9  10
ATOM     10  C   UNL     1      -8.068 -14.571  10.930  1.00  0.00     0.000 C 
BRANCH  10  11
ATOM     11  C   UNL     1      -8.419 -15.882  10.192  1.00  0.00     0.000 C 
BRANCH  11  12
ATOM     12  C   UNL     1      -9.932 -16.054  10.000  1.00  0.00     0.006 C 
BRANCH  12  13
ATOM     13  C   UNL     1     -10.269 -17.473   9.533  1.00  0.00     0.053 C 
BRANCH  13  14
ATOM     14  C   UNL     1     -11.424 -17.455   8.583  1.00  0.00     0.041 C 
ATOM     15  O   UNL     1     -12.065 -18.512   8.347  1.00  0.00    -0.550 OA
ATOM     16  O   UNL     1     -11.769 -16.279   7.926  1.00  0.00    -0.550 OA
ENDBRANCH  13  14
ENDBRANCH  12  13
ENDBRANCH  11  12
ENDBRANCH  10  11
ENDBRANCH   9  10
ENDBRANCH   8   9
ENDBRANCH   7   8
ENDBRANCH   6   7
ENDBRANCH   5   6
ENDBRANCH   4   5
ENDBRANCH   3   4
ENDBRANCH   2   3
ENDBRANCH   1   2
BRANCH   1  17
ATOM     17  C   UNL     1      -7.648 -13.987  17.461  1.00  0.00     0.000 C 
BRANCH  17  18
ATOM     18  C   UNL     1      -7.206 -12.991  16.375  1.00  0.00     0.000 C 
BRANCH  18  19
ATOM     19  C   UNL     1      -5.813 -12.394  16.638  1.00  0.00     0.000 C 
BRANCH  19  20
ATOM     20  C   UNL     1      -5.515 -12.244  18.139  1.00  0.00     0.000 C 
BRANCH  20  21
ATOM     21  C   UNL     1      -5.782 -10.819  18.655  1.00  0.00     0.000 C 
BRANCH  21  22
ATOM     22  C   UNL     1      -6.787 -10.795  19.817  1.00  0.00    -0.000 C 
BRANCH  22  23
ATOM     23  C   UNL     1      -7.547  -9.460  19.911  1.00  0.00    -0.000 C 
BRANCH  23  24
ATOM     24  C   UNL     1      -7.540  -8.685  18.575  1.00  0.00    -0.000 C 
BRANCH  24  25
ATOM     25  C   UNL     1      -8.938  -8.498  17.960  1.00  0.00    -0.000 C 
BRANCH  25  26
ATOM     26  C   UNL     1      -8.929  -8.554  16.426  1.00  0.00    -0.000 C 
BRANCH  26  27
ATOM     27  C   UNL     1      -7.800  -9.461  15.916  1.00  0.00    -0.000 C 
BRANCH  27  28
ATOM     28  C   UNL     1      -6.846  -8.731  14.956  1.00  0.00    -0.000 C 
BRANCH  28  29
ATOM     29  C   UNL     1      -7.445  -7.427  14.409  1.00  0.00    -0.003 C 
ATOM     30  C   UNL     1      -6.614  -6.221  14.836  1.00  0.00     0.004 C 
ENDBRANCH  28  29
ENDBRANCH  27  28
ENDBRANCH  26  27
ENDBRANCH  25  26
ENDBRANCH  24  25
ENDBRANCH  23  24
ENDBRANCH  22  23
ENDBRANCH  21  22
ENDBRANCH  20  21
ENDBRANCH  19  20
ENDBRANCH  18  19
ENDBRANCH  17  18
ENDBRANCH   1  17
TORSDOF 26
ENDMDL
MODEL 5
REMARK VINA RESULT:    -4.582     10.410     13.663
REMARK INTER + INTRA:         -14.770
REMARK INTER:                  -9.743
REMARK INTRA:                  -5.027
REMARK UNBOUND:                -3.223
REMARK SMILES CCCCCCCCCCCCCCCCCCCCCCCCCCCC(=O)[O-]
REMARK SMILES IDX 15 1 16 2 17 3 18 4 19 5 20 6 21 7 22 8 23 9 24 10 25 11
REMARK SMILES IDX 26 12 27 13 28 14 29 15 30 16 14 17 13 18 12 19 11 20 10 21
REMARK SMILES IDX 9 22 8 23 7 24 6 25 5 26 4 27 3 28 2 29 1 30
REMARK H PARENT
REMARK Flexibility Score: inf
ROOT
ATOM      1  C   UNL     1     -16.129 -18.731  16.862  1.00  0.00     0.000 C 
ENDROOT
BRANCH   1   2
ATOM      2  C   UNL     1     -15.127 -19.202  15.795  1.00  0.00     0.000 C 
BRANCH   2   3
ATOM      3  C   UNL     1     -15.737 -19.249  14.382  1.00  0.00     0.000 C 
BRANCH   3   4
ATOM      4  C   UNL     1     -15.158 -20.336  13.451  1.00  0.00     0.000 C 
BRANCH   4   5
ATOM      5  C   UNL     1     -16.036 -20.698  12.240  1.00  0.00     0.000 C 
BRANCH   5   6
ATOM      6  C   UNL     1     -16.947 -21.906  12.505  1.00  0.00     0.000 C 
BRANCH   6   7
ATOM      7  C   UNL     1     -18.353 -21.456  12.927  1.00  0.00     0.000 C 
BRANCH   7   8
ATOM      8  C   UNL     1     -18.568 -21.549  14.447  1.00  0.00     0.000 C 
BRANCH   8   9
ATOM      9  C   UNL     1     -17.870 -22.773  15.066  1.00  0.00     0.000 C 
BRANCH   9  10
ATOM     10  C   UNL     1     -16.923 -22.396  16.219  1.00  0.00     0.000 C 
BRANCH  10  11
ATOM     11  C   UNL     1     -15.728 -23.362  16.369  1.00  0.00     0.000 C 
BRANCH  11  12
ATOM     12  C   UNL     1     -14.512 -22.916  15.543  1.00  0.00     0.006 C 
BRANCH  12  13
ATOM     13  C   UNL     1     -13.250 -23.669  15.972  1.00  0.00     0.053 C 
BRANCH  13  14
ATOM     14  C   UNL     1     -12.147 -22.711  16.290  1.00  0.00     0.041 C 
ATOM     15  O   UNL     1     -11.125 -23.107  16.911  1.00  0.00    -0.550 OA
ATOM     16  O   UNL     1     -12.262 -21.371  15.938  1.00  0.00    -0.550 OA
ENDBRANCH  13  14
ENDBRANCH  12  13
ENDBRANCH  11  12
ENDBRANCH  10  11
ENDBRANCH   9  10
ENDBRANCH   8   9
ENDBRANCH   7   8
ENDBRANCH   6   7
ENDBRANCH   5   6
ENDBRANCH   4   5
ENDBRANCH   3   4
ENDBRANCH   2   3
ENDBRANCH   1   2
BRANCH   1  17
ATOM     17  C   UNL     1     -17.339 -17.987  16.265  1.00  0.00     0.000 C 
BRANCH  17  18
ATOM     18  C   UNL     1     -18.716 -18.578  16.614  1.00  0.00     0.000 C 
BRANCH  18  19
ATOM     19  C   UNL     1     -18.693 -19.447  17.884  1.00  0.00     0.000 C 
BRANCH  19  20
ATOM     20  C   UNL     1     -19.740 -20.572  17.842  1.00  0.00     0.000 C 
BRANCH  20  21
ATOM     21  C   UNL     1     -20.615 -20.612  19.108  1.00  0.00     0.000 C 
BRANCH  21  22
ATOM     22  C   UNL     1     -20.453 -19.350  19.971  1.00  0.00    -0.000 C 
BRANCH  22  23
ATOM     23  C   UNL     1     -21.804 -18.704  20.329  1.00  0.00    -0.000 C 
BRANCH  23  24
ATOM     24  C   UNL     1     -23.002 -19.505  19.776  1.00  0.00    -0.000 C 
BRANCH  24  25
ATOM     25  C   UNL     1     -23.782 -18.770  18.672  1.00  0.00    -0.000 C 
BRANCH  25  26
ATOM     26  C   UNL     1     -23.022 -17.563  18.105  1.00  0.00    -0.000 C 
BRANCH  26  27
ATOM     27  C   UNL     1     -22.393 -17.898  16.745  1.00  0.00    -0.000 C 
BRANCH  27  28
ATOM     28  C   UNL     1     -22.987 -19.170  16.118  1.00  0.00    -0.000 C 
BRANCH  28  29
ATOM     29  C   UNL     1     -22.042 -19.821  15.098  1.00  0.00    -0.003 C 
ATOM     30  C   UNL     1     -22.796 -20.788  14.192  1.00  0.00     0.004 C 
ENDBRANCH  28  29
ENDBRANCH  27  28
ENDBRANCH  26  27
ENDBRANCH  25  26
ENDBRANCH  24  25
ENDBRANCH  23  24
ENDBRANCH  22  23
ENDBRANCH  21  22
ENDBRANCH  20  21
ENDBRANCH  19  20
ENDBRANCH  18  19
ENDBRANCH  17  18
ENDBRANCH   1  17
TORSDOF 26
ENDMDL
MODEL 6
REMARK VINA RESULT:    -4.579      4.427      9.368
REMARK INTER + INTRA:         -14.761
REMARK INTER:                  -8.849
REMARK INTRA:                  -5.912
REMARK UNBOUND:                -3.223
REMARK SMILES CCCCCCCCCCCCCCCCCCCCCCCCCCCC(=O)[O-]
REMARK SMILES IDX 15 1 16 2 17 3 18 4 19 5 20 6 21 7 22 8 23 9 24 10 25 11
REMARK SMILES IDX 26 12 27 13 28 14 29 15 30 16 14 17 13 18 12 19 11 20 10 21
REMARK SMILES IDX 9 22 8 23 7 24 6 25 5 26 4 27 3 28 2 29 1 30
REMARK H PARENT
REMARK Flexibility Score: inf
ROOT
ATOM      1  C   UNL     1      -8.347  -8.325  16.263  1.00  0.00     0.000 C 
ENDROOT
BRANCH   1   2
ATOM      2  C   UNL     1      -7.741  -9.712  15.993  1.00  0.00     0.000 C 
BRANCH   2   3
ATOM      3  C   UNL     1      -6.276  -9.643  15.526  1.00  0.00     0.000 C 
BRANCH   3   4
ATOM      4  C   UNL     1      -5.249 -10.281  16.486  1.00  0.00     0.000 C 
BRANCH   4   5
ATOM      5  C   UNL     1      -5.768 -10.568  17.906  1.00  0.00     0.000 C 
BRANCH   5   6
ATOM      6  C   UNL     1      -5.801 -12.068  18.236  1.00  0.00     0.000 C 
BRANCH   6   7
ATOM      7  C   UNL     1      -7.238 -12.607  18.216  1.00  0.00     0.000 C 
BRANCH   7   8
ATOM      8  C   UNL     1      -7.414 -13.772  17.228  1.00  0.00     0.000 C 
BRANCH   8   9
ATOM      9  C   UNL     1      -6.542 -13.614  15.970  1.00  0.00     0.000 C 
BRANCH   9  10
ATOM     10  C   UNL     1      -7.348 -13.163  14.740  1.00  0.00     0.000 C 
BRANCH  10  11
ATOM     11  C   UNL     1      -8.701 -13.893  14.593  1.00  0.00     0.000 C 
BRANCH  11  12
ATOM     12  C   UNL     1      -9.848 -12.929  14.257  1.00  0.00     0.006 C 
BRANCH  12  13
ATOM     13  C   UNL     1     -10.179 -12.031  15.453  1.00  0.00     0.053 C 
BRANCH  13  14
ATOM     14  C   UNL     1     -11.143 -12.712  16.371  1.00  0.00     0.041 C 
ATOM     15  O   UNL     1     -12.141 -13.320  15.903  1.00  0.00    -0.550 OA
ATOM     16  O   UNL     1     -10.963 -12.642  17.748  1.00  0.00    -0.550 OA
ENDBRANCH  13  14
ENDBRANCH  12  13
ENDBRANCH  11  12
ENDBRANCH  10  11
ENDBRANCH   9  10
ENDBRANCH   8   9
ENDBRANCH   7   8
ENDBRANCH   6   7
ENDBRANCH   5   6
ENDBRANCH   4   5
ENDBRANCH   3   4
ENDBRANCH   2   3
ENDBRANCH   1   2
BRANCH   1  17
ATOM     17  C   UNL     1      -9.022  -8.221  17.644  1.00  0.00     0.000 C 
BRANCH  17  18
ATOM     18  C   UNL     1      -9.380  -9.563  18.307  1.00  0.00     0.000 C 
BRANCH  18  19
ATOM     19  C   UNL     1      -8.753  -9.730  19.703  1.00  0.00     0.000 C 
BRANCH  19  20
ATOM     20  C   UNL     1      -9.174  -8.611  20.670  1.00  0.00     0.000 C 
BRANCH  20  21
ATOM     21  C   UNL     1      -7.969  -7.877  21.285  1.00  0.00     0.000 C 
BRANCH  21  22
ATOM     22  C   UNL     1      -6.627  -8.458  20.813  1.00  0.00    -0.000 C 
BRANCH  22  23
ATOM     23  C   UNL     1      -5.763  -7.421  20.073  1.00  0.00    -0.000 C 
BRANCH  23  24
ATOM     24  C   UNL     1      -6.588  -6.210  19.588  1.00  0.00    -0.000 C 
BRANCH  24  25
ATOM     25  C   UNL     1      -6.345  -5.844  18.113  1.00  0.00    -0.000 C 
BRANCH  25  26
ATOM     26  C   UNL     1      -5.212  -6.659  17.474  1.00  0.00    -0.000 C 
BRANCH  26  27
ATOM     27  C   UNL     1      -4.963  -6.212  16.026  1.00  0.00    -0.000 C 
BRANCH  27  28
ATOM     28  C   UNL     1      -6.142  -5.417  15.443  1.00  0.00    -0.000 C 
BRANCH  28  29
ATOM     29  C   UNL     1      -6.321  -5.648  13.936  1.00  0.00    -0.003 C 
ATOM     30  C   UNL     1      -7.750  -6.072  13.613  1.00  0.00     0.004 C 
ENDBRANCH  28  29
ENDBRANCH  27  28
ENDBRANCH  26  27
ENDBRANCH  25  26
ENDBRANCH  24  25
ENDBRANCH  23  24
ENDBRANCH  22  23
ENDBRANCH  21  22
ENDBRANCH  20  21
ENDBRANCH  19  20
ENDBRANCH  18  19
ENDBRANCH  17  18
ENDBRANCH   1  17
TORSDOF 26
ENDMDL
MODEL 7
REMARK VINA RESULT:    -4.574      4.119      8.091
REMARK INTER + INTRA:         -14.750
REMARK INTER:                 -10.077
REMARK INTRA:                  -4.672
REMARK UNBOUND:                -3.223
REMARK SMILES CCCCCCCCCCCCCCCCCCCCCCCCCCCC(=O)[O-]
REMARK SMILES IDX 15 1 16 2 17 3 18 4 19 5 20 6 21 7 22 8 23 9 24 10 25 11
REMARK SMILES IDX 26 12 27 13 28 14 29 15 30 16 14 17 13 18 12 19 11 20 10 21
REMARK SMILES IDX 9 22 8 23 7 24 6 25 5 26 4 27 3 28 2 29 1 30
REMARK H PARENT
REMARK Flexibility Score: inf
ROOT
ATOM      1  C   UNL     1     -11.484 -13.846  16.233  1.00  0.00     0.000 C 
ENDROOT
BRANCH   1   2
ATOM      2  C   UNL     1     -10.951 -14.089  14.811  1.00  0.00     0.000 C 
BRANCH   2   3
ATOM      3  C   UNL     1      -9.840 -13.101  14.412  1.00  0.00     0.000 C 
BRANCH   3   4
ATOM      4  C   UNL     1      -8.434 -13.719  14.260  1.00  0.00     0.000 C 
BRANCH   4   5
ATOM      5  C   UNL     1      -7.404 -13.276  15.314  1.00  0.00     0.000 C 
BRANCH   5   6
ATOM      6  C   UNL     1      -7.297 -11.749  15.437  1.00  0.00     0.000 C 
BRANCH   6   7
ATOM      7  C   UNL     1      -6.251 -11.351  16.488  1.00  0.00     0.000 C 
BRANCH   7   8
ATOM      8  C   UNL     1      -6.326 -12.226  17.751  1.00  0.00     0.000 C 
BRANCH   8   9
ATOM      9  C   UNL     1      -5.707 -11.540  18.981  1.00  0.00     0.000 C 
BRANCH   9  10
ATOM     10  C   UNL     1      -6.472 -10.272  19.402  1.00  0.00     0.000 C 
BRANCH  10  11
ATOM     11  C   UNL     1      -7.392 -10.489  20.622  1.00  0.00     0.000 C 
BRANCH  11  12
ATOM     12  C   UNL     1      -7.426  -9.265  21.549  1.00  0.00     0.006 C 
BRANCH  12  13
ATOM     13  C   UNL     1      -8.858  -8.751  21.727  1.00  0.00     0.053 C 
BRANCH  13  14
ATOM     14  C   UNL     1      -9.017  -8.082  23.055  1.00  0.00     0.041 C 
ATOM     15  O   UNL     1      -8.009  -7.861  23.776  1.00  0.00    -0.550 OA
ATOM     16  O   UNL     1     -10.282  -7.739  23.518  1.00  0.00    -0.550 OA
ENDBRANCH  13  14
ENDBRANCH  12  13
ENDBRANCH  11  12
ENDBRANCH  10  11
ENDBRANCH   9  10
ENDBRANCH   8   9
ENDBRANCH   7   8
ENDBRANCH   6   7
ENDBRANCH   5   6
ENDBRANCH   4   5
ENDBRANCH   3   4
ENDBRANCH   2   3
ENDBRANCH   1   2
BRANCH   1  17
ATOM     17  C   UNL     1     -10.443 -14.152  17.326  1.00  0.00     0.000 C 
BRANCH  17  18
ATOM     18  C   UNL     1      -9.853 -12.923  18.041  1.00  0.00     0.000 C 
BRANCH  18  19
ATOM     19  C   UNL     1     -10.739 -11.672  17.913  1.00  0.00     0.000 C 
BRANCH  19  20
ATOM     20  C   UNL     1     -10.013 -10.510  17.214  1.00  0.00     0.000 C 
BRANCH  20  21
ATOM     21  C   UNL     1      -9.782  -9.310  18.149  1.00  0.00     0.000 C 
BRANCH  21  22
ATOM     22  C   UNL     1      -8.875  -8.242  17.517  1.00  0.00    -0.000 C 
BRANCH  22  23
ATOM     23  C   UNL     1      -8.696  -7.011  18.424  1.00  0.00    -0.000 C 
BRANCH  23  24
ATOM     24  C   UNL     1      -7.213  -6.739  18.757  1.00  0.00    -0.000 C 
BRANCH  24  25
ATOM     25  C   UNL     1      -6.711  -5.367  18.274  1.00  0.00    -0.000 C 
BRANCH  25  26
ATOM     26  C   UNL     1      -5.649  -5.472  17.171  1.00  0.00    -0.000 C 
BRANCH  26  27
ATOM     27  C   UNL     1      -6.301  -5.694  15.799  1.00  0.00    -0.000 C 
BRANCH  27  28
ATOM     28  C   UNL     1      -6.221  -7.159  15.338  1.00  0.00    -0.000 C 
BRANCH  28  29
ATOM     29  C   UNL     1      -7.056  -7.426  14.078  1.00  0.00    -0.003 C 
ATOM     30  C   UNL     1      -7.762  -6.158  13.609  1.00  0.00     0.004 C 
ENDBRANCH  28  29
ENDBRANCH  27  28
ENDBRANCH  26  27
ENDBRANCH  25  26
ENDBRANCH  24  25
ENDBRANCH  23  24
ENDBRANCH  22  23
ENDBRANCH  21  22
ENDBRANCH  20  21
ENDBRANCH  19  20
ENDBRANCH  18  19
ENDBRANCH  17  18
ENDBRANCH   1  17
TORSDOF 26
ENDMDL
MODEL 8
REMARK VINA RESULT:    -4.573     11.790     14.638
REMARK INTER + INTRA:         -14.748
REMARK INTER:                  -9.063
REMARK INTRA:                  -5.685
REMARK UNBOUND:                -3.223
REMARK SMILES CCCCCCCCCCCCCCCCCCCCCCCCCCCC(=O)[O-]
REMARK SMILES IDX 15 1 16 2 17 3 18 4 19 5 20 6 21 7 22 8 23 9 24 10 25 11
REMARK SMILES IDX 26 12 27 13 28 14 29 15 30 16 14 17 13 18 12 19 11 20 10 21
REMARK SMILES IDX 9 22 8 23 7 24 6 25 5 26 4 27 3 28 2 29 1 30
REMARK H PARENT
REMARK Flexibility Score: inf
ROOT
ATOM      1  C   UNL     1     -22.182 -18.648  19.347  1.00  0.00     0.000 C 
ENDROOT
BRANCH   1   2
ATOM      2  C   UNL     1     -22.861 -19.845  20.033  1.00  0.00     0.000 C 
BRANCH   2   3
ATOM      3  C   UNL     1     -24.344 -19.993  19.647  1.00  0.00     0.000 C 
BRANCH   3   4
ATOM      4  C   UNL     1     -24.752 -21.385  19.122  1.00  0.00     0.000 C 
BRANCH   4   5
ATOM      5  C   UNL     1     -24.258 -21.723  17.704  1.00  0.00     0.000 C 
BRANCH   5   6
ATOM      6  C   UNL     1     -23.641 -23.126  17.607  1.00  0.00     0.000 C 
BRANCH   6   7
ATOM      7  C   UNL     1     -22.217 -23.066  17.035  1.00  0.00     0.000 C 
BRANCH   7   8
ATOM      8  C   UNL     1     -21.595 -21.665  17.156  1.00  0.00     0.000 C 
BRANCH   8   9
ATOM      9  C   UNL     1     -20.156 -21.705  17.698  1.00  0.00     0.000 C 
BRANCH   9  10
ATOM     10  C   UNL     1     -19.469 -20.328  17.661  1.00  0.00     0.000 C 
BRANCH  10  11
ATOM     11  C   UNL     1     -19.954 -19.432  16.501  1.00  0.00     0.000 C 
BRANCH  11  12
ATOM     12  C   UNL     1     -19.034 -18.223  16.277  1.00  0.00     0.006 C 
BRANCH  12  13
ATOM     13  C   UNL     1     -17.748 -18.351  17.100  1.00  0.00     0.053 C 
BRANCH  13  14
ATOM     14  C   UNL     1     -16.718 -17.378  16.623  1.00  0.00     0.041 C 
ATOM     15  O   UNL     1     -16.963 -16.144  16.629  1.00  0.00    -0.550 OA
ATOM     16  O   UNL     1     -15.500 -17.836  16.132  1.00  0.00    -0.550 OA
ENDBRANCH  13  14
ENDBRANCH  12  13
ENDBRANCH  11  12
ENDBRANCH  10  11
ENDBRANCH   9  10
ENDBRANCH   8   9
ENDBRANCH   7   8
ENDBRANCH   6   7
ENDBRANCH   5   6
ENDBRANCH   4   5
ENDBRANCH   3   4
ENDBRANCH   2   3
ENDBRANCH   1   2
BRANCH   1  17
ATOM     17  C   UNL     1     -23.184 -17.696  18.667  1.00  0.00     0.000 C 
BRANCH  17  18
ATOM     18  C   UNL     1     -22.951 -17.453  17.165  1.00  0.00     0.000 C 
BRANCH  18  19
ATOM     19  C   UNL     1     -24.014 -18.122  16.276  1.00  0.00     0.000 C 
BRANCH  19  20
ATOM     20  C   UNL     1     -23.394 -19.064  15.231  1.00  0.00     0.000 C 
BRANCH  20  21
ATOM     21  C   UNL     1     -24.383 -20.137  14.742  1.00  0.00     0.000 C 
BRANCH  21  22
ATOM     22  C   UNL     1     -23.683 -21.276  13.984  1.00  0.00    -0.000 C 
BRANCH  22  23
ATOM     23  C   UNL     1     -22.279 -20.881  13.492  1.00  0.00    -0.000 C 
BRANCH  23  24
ATOM     24  C   UNL     1     -21.476 -22.093  12.974  1.00  0.00    -0.000 C 
BRANCH  24  25
ATOM     25  C   UNL     1     -20.326 -22.518  13.903  1.00  0.00    -0.000 C 
BRANCH  25  26
ATOM     26  C   UNL     1     -18.954 -22.025  13.421  1.00  0.00    -0.000 C 
BRANCH  26  27
ATOM     27  C   UNL     1     -17.851 -22.402  14.421  1.00  0.00    -0.000 C 
BRANCH  27  28
ATOM     28  C   UNL     1     -17.070 -21.178  14.926  1.00  0.00    -0.000 C 
BRANCH  28  29
ATOM     29  C   UNL     1     -16.905 -20.099  13.847  1.00  0.00    -0.003 C 
ATOM     30  C   UNL     1     -15.912 -20.543  12.777  1.00  0.00     0.004 C 
ENDBRANCH  28  29
ENDBRANCH  27  28
ENDBRANCH  26  27
ENDBRANCH  25  26
ENDBRANCH  24  25
ENDBRANCH  23  24
ENDBRANCH  22  23
ENDBRANCH  21  22
ENDBRANCH  20  21
ENDBRANCH  19  20
ENDBRANCH  18  19
ENDBRANCH  17  18
ENDBRANCH   1  17
TORSDOF 26
ENDMDL
MODEL 9
REMARK VINA RESULT:    -4.567     11.324     13.983
REMARK INTER + INTRA:         -14.730
REMARK INTER:                  -9.178
REMARK INTRA:                  -5.553
REMARK UNBOUND:                -3.223
REMARK SMILES CCCCCCCCCCCCCCCCCCCCCCCCCCCC(=O)[O-]
REMARK SMILES IDX 15 1 16 2 17 3 18 4 19 5 20 6 21 7 22 8 23 9 24 10 25 11
REMARK SMILES IDX 26 12 27 13 28 14 29 15 30 16 14 17 13 18 12 19 11 20 10 21
REMARK SMILES IDX 9 22 8 23 7 24 6 25 5 26 4 27 3 28 2 29 1 30
REMARK H PARENT
REMARK Flexibility Score: inf
ROOT
ATOM      1  C   UNL     1     -21.846 -18.951  15.993  1.00  0.00     0.000 C 
ENDROOT
BRANCH   1   2
ATOM      2  C   UNL     1     -23.164 -18.250  16.359  1.00  0.00     0.000 C 
BRANCH   2   3
ATOM      3  C   UNL     1     -22.994 -17.199  17.470  1.00  0.00     0.000 C 
BRANCH   3   4
ATOM      4  C   UNL     1     -23.556 -17.602  18.850  1.00  0.00     0.000 C 
BRANCH   4   5
ATOM      5  C   UNL     1     -24.183 -19.006  18.919  1.00  0.00     0.000 C 
BRANCH   5   6
ATOM      6  C   UNL     1     -23.313 -20.009  19.691  1.00  0.00     0.000 C 
BRANCH   6   7
ATOM      7  C   UNL     1     -22.022 -19.349  20.194  1.00  0.00     0.000 C 
BRANCH   7   8
ATOM      8  C   UNL     1     -20.774 -19.862  19.457  1.00  0.00     0.000 C 
BRANCH   8   9
ATOM      9  C   UNL     1     -19.512 -19.052  19.800  1.00  0.00     0.000 C 
BRANCH   9  10
ATOM     10  C   UNL     1     -18.315 -19.409  18.901  1.00  0.00     0.000 C 
BRANCH  10  11
ATOM     11  C   UNL     1     -18.714 -20.194  17.633  1.00  0.00     0.000 C 
BRANCH  11  12
ATOM     12  C   UNL     1     -18.359 -19.436  16.345  1.00  0.00     0.006 C 
BRANCH  12  13
ATOM     13  C   UNL     1     -17.064 -18.636  16.517  1.00  0.00     0.053 C 
BRANCH  13  14
ATOM     14  C   UNL     1     -17.300 -17.185  16.242  1.00  0.00     0.041 C 
ATOM     15  O   UNL     1     -16.457 -16.327  16.611  1.00  0.00    -0.550 OA
ATOM     16  O   UNL     1     -18.470 -16.775  15.613  1.00  0.00    -0.550 OA
ENDBRANCH  13  14
ENDBRANCH  12  13
ENDBRANCH  11  12
ENDBRANCH  10  11
ENDBRANCH   9  10
ENDBRANCH   8   9
ENDBRANCH   7   8
ENDBRANCH   6   7
ENDBRANCH   5   6
ENDBRANCH   4   5
ENDBRANCH   3   4
ENDBRANCH   2   3
ENDBRANCH   1   2
BRANCH   1  17
ATOM     17  C   UNL     1     -22.055 -20.362  15.412  1.00  0.00     0.000 C 
BRANCH  17  18
ATOM     18  C   UNL     1     -22.867 -21.327  16.294  1.00  0.00     0.000 C 
BRANCH  18  19
ATOM     19  C   UNL     1     -21.988 -22.354  17.028  1.00  0.00     0.000 C 
BRANCH  19  20
ATOM     20  C   UNL     1     -20.806 -22.832  16.169  1.00  0.00     0.000 C 
BRANCH  20  21
ATOM     21  C   UNL     1     -19.751 -23.596  16.989  1.00  0.00     0.000 C 
BRANCH  21  22
ATOM     22  C   UNL     1     -19.070 -24.708  16.175  1.00  0.00    -0.000 C 
BRANCH  22  23
ATOM     23  C   UNL     1     -17.727 -24.259  15.573  1.00  0.00    -0.000 C 
BRANCH  23  24
ATOM     24  C   UNL     1     -17.033 -23.178  16.429  1.00  0.00    -0.000 C 
BRANCH  24  25
ATOM     25  C   UNL     1     -16.012 -22.330  15.649  1.00  0.00    -0.000 C 
BRANCH  25  26
ATOM     26  C   UNL     1     -16.209 -22.405  14.129  1.00  0.00    -0.000 C 
BRANCH  26  27
ATOM     27  C   UNL     1     -16.767 -21.084  13.580  1.00  0.00    -0.000 C 
BRANCH  27  28
ATOM     28  C   UNL     1     -17.854 -21.300  12.515  1.00  0.00    -0.000 C 
BRANCH  28  29
ATOM     29  C   UNL     1     -19.211 -21.676  13.126  1.00  0.00    -0.003 C 
ATOM     30  C   UNL     1     -19.684 -23.035  12.617  1.00  0.00     0.004 C 
ENDBRANCH  28  29
ENDBRANCH  27  28
ENDBRANCH  26  27
ENDBRANCH  25  26
ENDBRANCH  24  25
ENDBRANCH  23  24
ENDBRANCH  22  23
ENDBRANCH  21  22
ENDBRANCH  20  21
ENDBRANCH  19  20
ENDBRANCH  18  19
ENDBRANCH  17  18
ENDBRANCH   1  17
TORSDOF 26
ENDMDL
