MODEL 1
REMARK VINA RESULT:    -4.424      0.000      0.000
REMARK INTER + INTRA:         -17.075
REMARK INTER:                 -11.148
REMARK INTRA:                  -5.927
REMARK UNBOUND:                -5.927
REMARK SMILES CCCCCCCCCCCCCCCCCCCCCCCCCCCC(=O)[O-]
REMARK SMILES IDX 15 1 16 2 17 3 18 4 19 5 20 6 21 7 22 8 23 9 24 10 25 11
REMARK SMILES IDX 26 12 27 13 28 14 29 15 30 16 14 17 13 18 12 19 11 20 10 21
REMARK SMILES IDX 9 22 8 23 7 24 6 25 5 26 4 27 3 28 2 29 1 30
REMARK H PARENT
REMARK Flexibility Score: inf
ROOT
ATOM      1  C   UNL     1      10.029 -18.963  23.340  1.00  0.00     0.000 C 
ENDROOT
BRANCH   1   2
ATOM      2  C   UNL     1       8.714 -19.612  23.812  1.00  0.00     0.000 C 
BRANCH   2   3
ATOM      3  C   UNL     1       7.599 -19.542  22.756  1.00  0.00     0.000 C 
BRANCH   3   4
ATOM      4  C   UNL     1       6.715 -20.803  22.736  1.00  0.00     0.000 C 
BRANCH   4   5
ATOM      5  C   UNL     1       6.942 -21.739  21.536  1.00  0.00     0.000 C 
BRANCH   5   6
ATOM      6  C   UNL     1       8.288 -22.477  21.597  1.00  0.00     0.000 C 
BRANCH   6   7
ATOM      7  C   UNL     1       9.085 -22.275  20.300  1.00  0.00     0.000 C 
BRANCH   7   8
ATOM      8  C   UNL     1      10.563 -21.928  20.552  1.00  0.00     0.000 C 
BRANCH   8   9
ATOM      9  C   UNL     1      11.099 -22.327  21.941  1.00  0.00     0.000 C 
BRANCH   9  10
ATOM     10  C   UNL     1      12.522 -21.830  22.258  1.00  0.00     0.000 C 
BRANCH  10  11
ATOM     11  C   UNL     1      12.693 -21.179  23.645  1.00  0.00     0.000 C 
BRANCH  11  12
ATOM     12  C   UNL     1      13.543 -19.897  23.661  1.00  0.00     0.006 C 
BRANCH  12  13
ATOM     13  C   UNL     1      13.417 -19.112  24.974  1.00  0.00     0.053 C 
BRANCH  13  14
ATOM     14  C   UNL     1      14.060 -19.864  26.096  1.00  0.00     0.041 C 
ATOM     15  O   UNL     1      15.279 -20.172  26.036  1.00  0.00    -0.550 OA
ATOM     16  O   UNL     1      13.301 -20.267  27.188  1.00  0.00    -0.550 OA
ENDBRANCH  13  14
ENDBRANCH  12  13
ENDBRANCH  11  12
ENDBRANCH  10  11
ENDBRANCH   9  10
ENDBRANCH   8   9
ENDBRANCH   7   8
ENDBRANCH   6   7
ENDBRANCH   5   6
ENDBRANCH   4   5
ENDBRANCH   3   4
ENDBRANCH   2   3
ENDBRANCH   1   2
BRANCH   1  17
ATOM     17  C   UNL     1      10.054 -18.519  21.863  1.00  0.00     0.000 C 
BRANCH  17  18
ATOM     18  C   UNL     1      10.597 -17.100  21.618  1.00  0.00     0.000 C 
BRANCH  18  19
ATOM     19  C   UNL     1      11.838 -16.783  22.470  1.00  0.00     0.000 C 
BRANCH  19  20
ATOM     20  C   UNL     1      11.519 -15.843  23.642  1.00  0.00     0.000 C 
BRANCH  20  21
ATOM     21  C   UNL     1      10.143 -15.168  23.494  1.00  0.00     0.000 C 
BRANCH  21  22
ATOM     22  C   UNL     1       9.169 -15.563  24.614  1.00  0.00    -0.000 C 
BRANCH  22  23
ATOM     23  C   UNL     1       7.800 -16.007  24.076  1.00  0.00    -0.000 C 
BRANCH  23  24
ATOM     24  C   UNL     1       7.461 -15.276  22.769  1.00  0.00    -0.000 C 
BRANCH  24  25
ATOM     25  C   UNL     1       7.081 -16.235  21.625  1.00  0.00    -0.000 C 
BRANCH  25  26
ATOM     26  C   UNL     1       7.107 -15.608  20.218  1.00  0.00    -0.000 C 
BRANCH  26  27
ATOM     27  C   UNL     1       7.469 -16.620  19.118  1.00  0.00    -0.000 C 
BRANCH  27  28
ATOM     28  C   UNL     1       7.179 -18.070  19.531  1.00  0.00    -0.000 C 
BRANCH  28  29
ATOM     29  C   UNL     1       7.953 -19.091  18.684  1.00  0.00    -0.003 C 
ATOM     30  C   UNL     1       9.327 -18.554  18.296  1.00  0.00     0.004 C 
ENDBRANCH  28  29
ENDBRANCH  27  28
ENDBRANCH  26  27
ENDBRANCH  25  26
ENDBRANCH  24  25
ENDBRANCH  23  24
ENDBRANCH  22  23
ENDBRANCH  21  22
ENDBRANCH  20  21
ENDBRANCH  19  20
ENDBRANCH  18  19
ENDBRANCH  17  18
ENDBRANCH   1  17
TORSDOF 26
ENDMDL
MODEL 2
REMARK VINA RESULT:    -4.412      1.893      2.179
REMARK INTER + INTRA:         -17.044
REMARK INTER:                 -11.197
REMARK INTRA:                  -5.847
REMARK UNBOUND:                -5.927
REMARK SMILES CCCCCCCCCCCCCCCCCCCCCCCCCCCC(=O)[O-]
REMARK SMILES IDX 15 1 16 2 17 3 18 4 19 5 20 6 21 7 22 8 23 9 24 10 25 11
REMARK SMILES IDX 26 12 27 13 28 14 29 15 30 16 14 17 13 18 12 19 11 20 10 21
REMARK SMILES IDX 9 22 8 23 7 24 6 25 5 26 4 27 3 28 2 29 1 30
REMARK H PARENT
REMARK Flexibility Score: inf
ROOT
ATOM      1  C   UNL     1       9.361 -19.772  23.525  1.00  0.00     0.000 C 
ENDROOT
BRANCH   1   2
ATOM      2  C   UNL     1       7.876 -20.170  23.424  1.00  0.00     0.000 C 
BRANCH   2   3
ATOM      3  C   UNL     1       7.302 -19.985  22.011  1.00  0.00     0.000 C 
BRANCH   3   4
ATOM      4  C   UNL     1       6.770 -21.297  21.405  1.00  0.00     0.000 C 
BRANCH   4   5
ATOM      5  C   UNL     1       7.801 -22.109  20.601  1.00  0.00     0.000 C 
BRANCH   5   6
ATOM      6  C   UNL     1       8.415 -23.264  21.406  1.00  0.00     0.000 C 
BRANCH   6   7
ATOM      7  C   UNL     1       9.897 -22.998  21.707  1.00  0.00     0.000 C 
BRANCH   7   8
ATOM      8  C   UNL     1      10.571 -22.100  20.655  1.00  0.00     0.000 C 
BRANCH   8   9
ATOM      9  C   UNL     1      12.030 -21.710  20.969  1.00  0.00     0.000 C 
BRANCH   9  10
ATOM     10  C   UNL     1      12.443 -21.868  22.445  1.00  0.00     0.000 C 
BRANCH  10  11
ATOM     11  C   UNL     1      13.644 -21.006  22.883  1.00  0.00     0.000 C 
BRANCH  11  12
ATOM     12  C   UNL     1      14.026 -19.879  21.907  1.00  0.00     0.006 C 
BRANCH  12  13
ATOM     13  C   UNL     1      14.992 -18.858  22.521  1.00  0.00     0.053 C 
BRANCH  13  14
ATOM     14  C   UNL     1      14.820 -17.520  21.875  1.00  0.00     0.041 C 
ATOM     15  O   UNL     1      15.209 -17.334  20.692  1.00  0.00    -0.550 OA
ATOM     16  O   UNL     1      14.274 -16.465  22.594  1.00  0.00    -0.550 OA
ENDBRANCH  13  14
ENDBRANCH  12  13
ENDBRANCH  11  12
ENDBRANCH  10  11
ENDBRANCH   9  10
ENDBRANCH   8   9
ENDBRANCH   7   8
ENDBRANCH   6   7
ENDBRANCH   5   6
ENDBRANCH   4   5
ENDBRANCH   3   4
ENDBRANCH   2   3
ENDBRANCH   1   2
BRANCH   1  17
ATOM     17  C   UNL     1       9.920 -18.990  22.318  1.00  0.00     0.000 C 
BRANCH  17  18
ATOM     18  C   UNL     1      10.979 -17.929  22.664  1.00  0.00     0.000 C 
BRANCH  18  19
ATOM     19  C   UNL     1      11.548 -18.096  24.083  1.00  0.00     0.000 C 
BRANCH  19  20
ATOM     20  C   UNL     1      11.064 -16.997  25.041  1.00  0.00     0.000 C 
BRANCH  20  21
ATOM     21  C   UNL     1      10.077 -16.026  24.368  1.00  0.00     0.000 C 
BRANCH  21  22
ATOM     22  C   UNL     1       8.661 -16.121  24.957  1.00  0.00    -0.000 C 
BRANCH  22  23
ATOM     23  C   UNL     1       7.605 -16.473  23.898  1.00  0.00    -0.000 C 
BRANCH  23  24
ATOM     24  C   UNL     1       7.587 -15.428  22.774  1.00  0.00    -0.000 C 
BRANCH  24  25
ATOM     25  C   UNL     1       6.717 -15.850  21.574  1.00  0.00    -0.000 C 
BRANCH  25  26
ATOM     26  C   UNL     1       7.465 -15.938  20.230  1.00  0.00    -0.000 C 
BRANCH  26  27
ATOM     27  C   UNL     1       7.374 -17.331  19.584  1.00  0.00    -0.000 C 
BRANCH  27  28
ATOM     28  C   UNL     1       8.749 -17.891  19.192  1.00  0.00    -0.000 C 
BRANCH  28  29
ATOM     29  C   UNL     1       8.656 -19.273  18.527  1.00  0.00    -0.003 C 
ATOM     30  C   UNL     1       9.999 -19.691  17.938  1.00  0.00     0.004 C 
ENDBRANCH  28  29
ENDBRANCH  27  28
ENDBRANCH  26  27
ENDBRANCH  25  26
ENDBRANCH  24  25
ENDBRANCH  23  24
ENDBRANCH  22  23
ENDBRANCH  21  22
ENDBRANCH  20  21
ENDBRANCH  19  20
ENDBRANCH  18  19
ENDBRANCH  17  18
ENDBRANCH   1  17
TORSDOF 26
ENDMDL
MODEL 3
REMARK VINA RESULT:    -4.330      3.265      5.460
REMARK INTER + INTRA:         -16.839
REMARK INTER:                 -10.895
REMARK INTRA:                  -5.944
REMARK UNBOUND:                -5.927
REMARK SMILES CCCCCCCCCCCCCCCCCCCCCCCCCCCC(=O)[O-]
REMARK SMILES IDX 15 1 16 2 17 3 18 4 19 5 20 6 21 7 22 8 23 9 24 10 25 11
REMARK SMILES IDX 26 12 27 13 28 14 29 15 30 16 14 17 13 18 12 19 11 20 10 21
REMARK SMILES IDX 9 22 8 23 7 24 6 25 5 26 4 27 3 28 2 29 1 30
REMARK H PARENT
REMARK Flexibility Score: inf
ROOT
ATOM      1  C   UNL     1      11.164 -16.606  24.466  1.00  0.00     0.000 C 
ENDROOT
BRANCH   1   2
ATOM      2  C   UNL     1      11.562 -15.851  23.183  1.00  0.00     0.000 C 
BRANCH   2   3
ATOM      3  C   UNL     1      12.796 -16.454  22.493  1.00  0.00     0.000 C 
BRANCH   3   4
ATOM      4  C   UNL     1      13.472 -17.553  23.332  1.00  0.00     0.000 C 
BRANCH   4   5
ATOM      5  C   UNL     1      13.474 -18.954  22.694  1.00  0.00     0.000 C 
BRANCH   5   6
ATOM      6  C   UNL     1      12.790 -20.013  23.571  1.00  0.00     0.000 C 
BRANCH   6   7
ATOM      7  C   UNL     1      12.547 -21.307  22.782  1.00  0.00     0.000 C 
BRANCH   7   8
ATOM      8  C   UNL     1      13.107 -21.252  21.350  1.00  0.00     0.000 C 
BRANCH   8   9
ATOM      9  C   UNL     1      12.077 -21.524  20.235  1.00  0.00     0.000 C 
BRANCH   9  10
ATOM     10  C   UNL     1      12.278 -20.702  18.948  1.00  0.00     0.000 C 
BRANCH  10  11
ATOM     11  C   UNL     1      12.411 -19.181  19.158  1.00  0.00     0.000 C 
BRANCH  11  12
ATOM     12  C   UNL     1      13.825 -18.615  18.937  1.00  0.00     0.006 C 
BRANCH  12  13
ATOM     13  C   UNL     1      14.818 -19.670  18.431  1.00  0.00     0.053 C 
BRANCH  13  14
ATOM     14  C   UNL     1      15.274 -19.337  17.046  1.00  0.00     0.041 C 
ATOM     15  O   UNL     1      14.527 -18.681  16.273  1.00  0.00    -0.550 OA
ATOM     16  O   UNL     1      16.506 -19.790  16.592  1.00  0.00    -0.550 OA
ENDBRANCH  13  14
ENDBRANCH  12  13
ENDBRANCH  11  12
ENDBRANCH  10  11
ENDBRANCH   9  10
ENDBRANCH   8   9
ENDBRANCH   7   8
ENDBRANCH   6   7
ENDBRANCH   5   6
ENDBRANCH   4   5
ENDBRANCH   3   4
ENDBRANCH   2   3
ENDBRANCH   1   2
BRANCH   1  17
ATOM     17  C   UNL     1       9.742 -16.317  24.989  1.00  0.00     0.000 C 
BRANCH  17  18
ATOM     18  C   UNL     1       8.909 -15.359  24.119  1.00  0.00     0.000 C 
BRANCH  18  19
ATOM     19  C   UNL     1       7.602 -15.996  23.616  1.00  0.00     0.000 C 
BRANCH  19  20
ATOM     20  C   UNL     1       7.013 -15.248  22.410  1.00  0.00     0.000 C 
BRANCH  20  21
ATOM     21  C   UNL     1       7.322 -15.951  21.076  1.00  0.00     0.000 C 
BRANCH  21  22
ATOM     22  C   UNL     1       7.769 -17.408  21.267  1.00  0.00    -0.000 C 
BRANCH  22  23
ATOM     23  C   UNL     1       9.194 -17.661  20.751  1.00  0.00    -0.000 C 
BRANCH  23  24
ATOM     24  C   UNL     1       9.920 -18.690  21.629  1.00  0.00    -0.000 C 
BRANCH  24  25
ATOM     25  C   UNL     1       9.027 -19.268  22.743  1.00  0.00    -0.000 C 
BRANCH  25  26
ATOM     26  C   UNL     1       9.014 -20.806  22.831  1.00  0.00    -0.000 C 
BRANCH  26  27
ATOM     27  C   UNL     1       7.659 -21.417  22.433  1.00  0.00    -0.000 C 
BRANCH  27  28
ATOM     28  C   UNL     1       7.303 -21.156  20.962  1.00  0.00    -0.000 C 
BRANCH  28  29
ATOM     29  C   UNL     1       8.309 -21.789  19.990  1.00  0.00    -0.003 C 
ATOM     30  C   UNL     1       8.607 -20.854  18.822  1.00  0.00     0.004 C 
ENDBRANCH  28  29
ENDBRANCH  27  28
ENDBRANCH  26  27
ENDBRANCH  25  26
ENDBRANCH  24  25
ENDBRANCH  23  24
ENDBRANCH  22  23
ENDBRANCH  21  22
ENDBRANCH  20  21
ENDBRANCH  19  20
ENDBRANCH  18  19
ENDBRANCH  17  18
ENDBRANCH   1  17
TORSDOF 26
ENDMDL
MODEL 4
REMARK VINA RESULT:    -4.251      1.944      3.988
REMARK INTER + INTRA:         -16.640
REMARK INTER:                 -11.604
REMARK INTRA:                  -5.035
REMARK UNBOUND:                -5.927
REMARK SMILES CCCCCCCCCCCCCCCCCCCCCCCCCCCC(=O)[O-]
REMARK SMILES IDX 15 1 16 2 17 3 18 4 19 5 20 6 21 7 22 8 23 9 24 10 25 11
REMARK SMILES IDX 26 12 27 13 28 14 29 15 30 16 14 17 13 18 12 19 11 20 10 21
REMARK SMILES IDX 9 22 8 23 7 24 6 25 5 26 4 27 3 28 2 29 1 30
REMARK H PARENT
REMARK Flexibility Score: inf
ROOT
ATOM      1  C   UNL     1       7.938 -19.015  22.375  1.00  0.00     0.000 C 
ENDROOT
BRANCH   1   2
ATOM      2  C   UNL     1       8.057 -20.435  22.959  1.00  0.00     0.000 C 
BRANCH   2   3
ATOM      3  C   UNL     1       7.358 -21.497  22.095  1.00  0.00     0.000 C 
BRANCH   3   4
ATOM      4  C   UNL     1       8.268 -22.698  21.773  1.00  0.00     0.000 C 
BRANCH   4   5
ATOM      5  C   UNL     1       9.181 -22.514  20.548  1.00  0.00     0.000 C 
BRANCH   5   6
ATOM      6  C   UNL     1       8.613 -21.526  19.519  1.00  0.00     0.000 C 
BRANCH   6   7
ATOM      7  C   UNL     1       9.741 -20.826  18.747  1.00  0.00     0.000 C 
BRANCH   7   8
ATOM      8  C   UNL     1      11.082 -20.838  19.502  1.00  0.00     0.000 C 
BRANCH   8   9
ATOM      9  C   UNL     1      12.193 -19.974  18.871  1.00  0.00     0.000 C 
BRANCH   9  10
ATOM     10  C   UNL     1      12.989 -19.108  19.866  1.00  0.00     0.000 C 
BRANCH  10  11
ATOM     11  C   UNL     1      14.501 -19.401  19.923  1.00  0.00     0.000 C 
BRANCH  11  12
ATOM     12  C   UNL     1      14.996 -20.008  21.248  1.00  0.00     0.006 C 
BRANCH  12  13
ATOM     13  C   UNL     1      16.073 -19.154  21.931  1.00  0.00     0.053 C 
BRANCH  13  14
ATOM     14  C   UNL     1      16.666 -19.889  23.091  1.00  0.00     0.041 C 
ATOM     15  O   UNL     1      17.884 -20.208  23.082  1.00  0.00    -0.550 OA
ATOM     16  O   UNL     1      15.863 -20.264  24.160  1.00  0.00    -0.550 OA
ENDBRANCH  13  14
ENDBRANCH  12  13
ENDBRANCH  11  12
ENDBRANCH  10  11
ENDBRANCH   9  10
ENDBRANCH   8   9
ENDBRANCH   7   8
ENDBRANCH   6   7
ENDBRANCH   5   6
ENDBRANCH   4   5
ENDBRANCH   3   4
ENDBRANCH   2   3
ENDBRANCH   1   2
BRANCH   1  17
ATOM     17  C   UNL     1       9.208 -18.474  21.685  1.00  0.00     0.000 C 
BRANCH  17  18
ATOM     18  C   UNL     1       8.953 -17.550  20.481  1.00  0.00     0.000 C 
BRANCH  18  19
ATOM     19  C   UNL     1       7.460 -17.250  20.268  1.00  0.00     0.000 C 
BRANCH  19  20
ATOM     20  C   UNL     1       7.121 -15.769  20.499  1.00  0.00     0.000 C 
BRANCH  20  21
ATOM     21  C   UNL     1       6.510 -15.517  21.889  1.00  0.00     0.000 C 
BRANCH  21  22
ATOM     22  C   UNL     1       7.518 -14.910  22.876  1.00  0.00    -0.000 C 
BRANCH  22  23
ATOM     23  C   UNL     1       7.965 -15.912  23.952  1.00  0.00    -0.000 C 
BRANCH  23  24
ATOM     24  C   UNL     1       9.256 -15.441  24.638  1.00  0.00    -0.000 C 
BRANCH  24  25
ATOM     25  C   UNL     1      10.453 -15.355  23.672  1.00  0.00    -0.000 C 
BRANCH  25  26
ATOM     26  C   UNL     1      11.463 -16.513  23.787  1.00  0.00    -0.000 C 
BRANCH  26  27
ATOM     27  C   UNL     1      11.177 -17.441  24.981  1.00  0.00    -0.000 C 
BRANCH  27  28
ATOM     28  C   UNL     1      12.084 -18.680  24.996  1.00  0.00    -0.000 C 
BRANCH  28  29
ATOM     29  C   UNL     1      12.479 -19.140  23.585  1.00  0.00    -0.003 C 
ATOM     30  C   UNL     1      11.829 -20.476  23.240  1.00  0.00     0.004 C 
ENDBRANCH  28  29
ENDBRANCH  27  28
ENDBRANCH  26  27
ENDBRANCH  25  26
ENDBRANCH  24  25
ENDBRANCH  23  24
ENDBRANCH  22  23
ENDBRANCH  21  22
ENDBRANCH  20  21
ENDBRANCH  19  20
ENDBRANCH  18  19
ENDBRANCH  17  18
ENDBRANCH   1  17
TORSDOF 26
ENDMDL
MODEL 5
REMARK VINA RESULT:    -4.206      1.620      3.235
REMARK INTER + INTRA:         -16.527
REMARK INTER:                 -10.962
REMARK INTRA:                  -5.565
REMARK UNBOUND:                -5.927
REMARK SMILES CCCCCCCCCCCCCCCCCCCCCCCCCCCC(=O)[O-]
REMARK SMILES IDX 15 1 16 2 17 3 18 4 19 5 20 6 21 7 22 8 23 9 24 10 25 11
REMARK SMILES IDX 26 12 27 13 28 14 29 15 30 16 14 17 13 18 12 19 11 20 10 21
REMARK SMILES IDX 9 22 8 23 7 24 6 25 5 26 4 27 3 28 2 29 1 30
REMARK H PARENT
REMARK Flexibility Score: inf
ROOT
ATOM      1  C   UNL     1       7.498 -17.888  19.709  1.00  0.00     0.000 C 
ENDROOT
BRANCH   1   2
ATOM      2  C   UNL     1       7.552 -19.377  20.102  1.00  0.00     0.000 C 
BRANCH   2   3
ATOM      3  C   UNL     1       7.681 -19.591  21.618  1.00  0.00     0.000 C 
BRANCH   3   4
ATOM      4  C   UNL     1       6.920 -20.835  22.112  1.00  0.00     0.000 C 
BRANCH   4   5
ATOM      5  C   UNL     1       7.808 -22.026  22.515  1.00  0.00     0.000 C 
BRANCH   5   6
ATOM      6  C   UNL     1       8.244 -22.881  21.317  1.00  0.00     0.000 C 
BRANCH   6   7
ATOM      7  C   UNL     1       9.752 -22.744  21.063  1.00  0.00     0.000 C 
BRANCH   7   8
ATOM      8  C   UNL     1      10.474 -21.939  22.158  1.00  0.00     0.000 C 
BRANCH   8   9
ATOM      9  C   UNL     1      11.846 -22.501  22.583  1.00  0.00     0.000 C 
BRANCH   9  10
ATOM     10  C   UNL     1      12.948 -21.444  22.786  1.00  0.00     0.000 C 
BRANCH  10  11
ATOM     11  C   UNL     1      13.791 -21.132  21.533  1.00  0.00     0.000 C 
BRANCH  11  12
ATOM     12  C   UNL     1      14.781 -19.964  21.691  1.00  0.00     0.006 C 
BRANCH  12  13
ATOM     13  C   UNL     1      15.051 -19.603  23.158  1.00  0.00     0.053 C 
BRANCH  13  14
ATOM     14  C   UNL     1      16.299 -20.271  23.640  1.00  0.00     0.041 C 
ATOM     15  O   UNL     1      17.301 -20.364  22.883  1.00  0.00    -0.550 OA
ATOM     16  O   UNL     1      16.342 -20.834  24.909  1.00  0.00    -0.550 OA
ENDBRANCH  13  14
ENDBRANCH  12  13
ENDBRANCH  11  12
ENDBRANCH  10  11
ENDBRANCH   9  10
ENDBRANCH   8   9
ENDBRANCH   7   8
ENDBRANCH   6   7
ENDBRANCH   5   6
ENDBRANCH   4   5
ENDBRANCH   3   4
ENDBRANCH   2   3
ENDBRANCH   1   2
BRANCH   1  17
ATOM     17  C   UNL     1       8.011 -16.902  20.779  1.00  0.00     0.000 C 
BRANCH  17  18
ATOM     18  C   UNL     1       7.049 -15.751  21.119  1.00  0.00     0.000 C 
BRANCH  18  19
ATOM     19  C   UNL     1       7.081 -15.369  22.609  1.00  0.00     0.000 C 
BRANCH  19  20
ATOM     20  C   UNL     1       7.137 -16.600  23.527  1.00  0.00     0.000 C 
BRANCH  20  21
ATOM     21  C   UNL     1       8.378 -16.596  24.438  1.00  0.00     0.000 C 
BRANCH  21  22
ATOM     22  C   UNL     1       8.820 -18.011  24.839  1.00  0.00    -0.000 C 
BRANCH  22  23
ATOM     23  C   UNL     1      10.006 -18.518  24.003  1.00  0.00    -0.000 C 
BRANCH  23  24
ATOM     24  C   UNL     1      10.771 -17.346  23.370  1.00  0.00    -0.000 C 
BRANCH  24  25
ATOM     25  C   UNL     1      11.842 -17.801  22.362  1.00  0.00    -0.000 C 
BRANCH  25  26
ATOM     26  C   UNL     1      11.295 -18.525  21.117  1.00  0.00    -0.000 C 
BRANCH  26  27
ATOM     27  C   UNL     1      11.431 -17.690  19.831  1.00  0.00    -0.000 C 
BRANCH  27  28
ATOM     28  C   UNL     1      11.258 -18.534  18.559  1.00  0.00    -0.000 C 
BRANCH  28  29
ATOM     29  C   UNL     1      11.279 -20.042  18.844  1.00  0.00    -0.003 C 
ATOM     30  C   UNL     1      10.219 -20.771  18.023  1.00  0.00     0.004 C 
ENDBRANCH  28  29
ENDBRANCH  27  28
ENDBRANCH  26  27
ENDBRANCH  25  26
ENDBRANCH  24  25
ENDBRANCH  23  24
ENDBRANCH  22  23
ENDBRANCH  21  22
ENDBRANCH  20  21
ENDBRANCH  19  20
ENDBRANCH  18  19
ENDBRANCH  17  18
ENDBRANCH   1  17
TORSDOF 26
ENDMDL
MODEL 6
REMARK VINA RESULT:    -4.204      2.045      5.294
REMARK INTER + INTRA:         -16.520
REMARK INTER:                 -10.791
REMARK INTRA:                  -5.729
REMARK UNBOUND:                -5.927
REMARK SMILES CCCCCCCCCCCCCCCCCCCCCCCCCCCC(=O)[O-]
REMARK SMILES IDX 15 1 16 2 17 3 18 4 19 5 20 6 21 7 22 8 23 9 24 10 25 11
REMARK SMILES IDX 26 12 27 13 28 14 29 15 30 16 14 17 13 18 12 19 11 20 10 21
REMARK SMILES IDX 9 22 8 23 7 24 6 25 5 26 4 27 3 28 2 29 1 30
REMARK H PARENT
REMARK Flexibility Score: inf
ROOT
ATOM      1  C   UNL     1       6.822 -17.006  23.498  1.00  0.00     0.000 C 
ENDROOT
BRANCH   1   2
ATOM      2  C   UNL     1       7.375 -15.805  22.708  1.00  0.00     0.000 C 
BRANCH   2   3
ATOM      3  C   UNL     1       7.194 -15.953  21.189  1.00  0.00     0.000 C 
BRANCH   3   4
ATOM      4  C   UNL     1       7.688 -17.312  20.659  1.00  0.00     0.000 C 
BRANCH   4   5
ATOM      5  C   UNL     1       8.286 -17.281  19.242  1.00  0.00     0.000 C 
BRANCH   5   6
ATOM      6  C   UNL     1       8.273 -18.655  18.555  1.00  0.00     0.000 C 
BRANCH   6   7
ATOM      7  C   UNL     1       9.313 -19.594  19.184  1.00  0.00     0.000 C 
BRANCH   7   8
ATOM      8  C   UNL     1      10.754 -19.267  18.755  1.00  0.00     0.000 C 
BRANCH   8   9
ATOM      9  C   UNL     1      11.690 -20.486  18.628  1.00  0.00     0.000 C 
BRANCH   9  10
ATOM     10  C   UNL     1      13.194 -20.155  18.626  1.00  0.00     0.000 C 
BRANCH  10  11
ATOM     11  C   UNL     1      13.915 -20.381  19.971  1.00  0.00     0.000 C 
BRANCH  11  12
ATOM     12  C   UNL     1      14.339 -19.097  20.704  1.00  0.00     0.006 C 
BRANCH  12  13
ATOM     13  C   UNL     1      14.879 -19.365  22.115  1.00  0.00     0.053 C 
BRANCH  13  14
ATOM     14  C   UNL     1      16.375 -19.373  22.110  1.00  0.00     0.041 C 
ATOM     15  O   UNL     1      17.007 -18.999  21.086  1.00  0.00    -0.550 OA
ATOM     16  O   UNL     1      17.073 -19.838  23.217  1.00  0.00    -0.550 OA
ENDBRANCH  13  14
ENDBRANCH  12  13
ENDBRANCH  11  12
ENDBRANCH  10  11
ENDBRANCH   9  10
ENDBRANCH   8   9
ENDBRANCH   7   8
ENDBRANCH   6   7
ENDBRANCH   5   6
ENDBRANCH   4   5
ENDBRANCH   3   4
ENDBRANCH   2   3
ENDBRANCH   1   2
BRANCH   1  17
ATOM     17  C   UNL     1       7.824 -17.687  24.454  1.00  0.00     0.000 C 
BRANCH  17  18
ATOM     18  C   UNL     1       7.883 -19.221  24.351  1.00  0.00     0.000 C 
BRANCH  18  19
ATOM     19  C   UNL     1       7.769 -19.725  22.902  1.00  0.00     0.000 C 
BRANCH  19  20
ATOM     20  C   UNL     1       7.154 -21.130  22.817  1.00  0.00     0.000 C 
BRANCH  20  21
ATOM     21  C   UNL     1       6.678 -21.477  21.395  1.00  0.00     0.000 C 
BRANCH  21  22
ATOM     22  C   UNL     1       7.679 -22.362  20.636  1.00  0.00    -0.000 C 
BRANCH  22  23
ATOM     23  C   UNL     1       8.674 -23.063  21.574  1.00  0.00    -0.000 C 
BRANCH  23  24
ATOM     24  C   UNL     1      10.114 -22.625  21.271  1.00  0.00    -0.000 C 
BRANCH  24  25
ATOM     25  C   UNL     1      10.813 -21.976  22.481  1.00  0.00    -0.000 C 
BRANCH  25  26
ATOM     26  C   UNL     1      11.216 -20.502  22.284  1.00  0.00    -0.000 C 
BRANCH  26  27
ATOM     27  C   UNL     1      11.513 -19.780  23.609  1.00  0.00    -0.000 C 
BRANCH  27  28
ATOM     28  C   UNL     1      11.447 -18.251  23.477  1.00  0.00    -0.000 C 
BRANCH  28  29
ATOM     29  C   UNL     1      10.775 -17.801  22.172  1.00  0.00    -0.003 C 
ATOM     30  C   UNL     1      11.610 -16.739  21.462  1.00  0.00     0.004 C 
ENDBRANCH  28  29
ENDBRANCH  27  28
ENDBRANCH  26  27
ENDBRANCH  25  26
ENDBRANCH  24  25
ENDBRANCH  23  24
ENDBRANCH  22  23
ENDBRANCH  21  22
ENDBRANCH  20  21
ENDBRANCH  19  20
ENDBRANCH  18  19
ENDBRANCH  17  18
ENDBRANCH   1  17
TORSDOF 26
ENDMDL
MODEL 7
REMARK VINA RESULT:    -4.190      2.876      6.332
REMARK INTER + INTRA:         -16.485
REMARK INTER:                 -10.549
REMARK INTRA:                  -5.937
REMARK UNBOUND:                -5.927
REMARK SMILES CCCCCCCCCCCCCCCCCCCCCCCCCCCC(=O)[O-]
REMARK SMILES IDX 15 1 16 2 17 3 18 4 19 5 20 6 21 7 22 8 23 9 24 10 25 11
REMARK SMILES IDX 26 12 27 13 28 14 29 15 30 16 14 17 13 18 12 19 11 20 10 21
REMARK SMILES IDX 9 22 8 23 7 24 6 25 5 26 4 27 3 28 2 29 1 30
REMARK H PARENT
REMARK Flexibility Score: inf
ROOT
ATOM      1  C   UNL     1      10.369 -21.611  21.201  1.00  0.00     0.000 C 
ENDROOT
BRANCH   1   2
ATOM      2  C   UNL     1       9.605 -22.944  21.312  1.00  0.00     0.000 C 
BRANCH   2   3
ATOM      3  C   UNL     1       8.151 -22.763  21.775  1.00  0.00     0.000 C 
BRANCH   3   4
ATOM      4  C   UNL     1       7.488 -21.505  21.182  1.00  0.00     0.000 C 
BRANCH   4   5
ATOM      5  C   UNL     1       6.909 -20.524  22.216  1.00  0.00     0.000 C 
BRANCH   5   6
ATOM      6  C   UNL     1       6.936 -21.077  23.649  1.00  0.00     0.000 C 
BRANCH   6   7
ATOM      7  C   UNL     1       7.146 -19.950  24.670  1.00  0.00     0.000 C 
BRANCH   7   8
ATOM      8  C   UNL     1       6.700 -18.574  24.146  1.00  0.00     0.000 C 
BRANCH   8   9
ATOM      9  C   UNL     1       7.473 -17.373  24.726  1.00  0.00     0.000 C 
BRANCH   9  10
ATOM     10  C   UNL     1       8.102 -16.435  23.679  1.00  0.00     0.000 C 
BRANCH  10  11
ATOM     11  C   UNL     1       7.114 -15.844  22.653  1.00  0.00     0.000 C 
BRANCH  11  12
ATOM     12  C   UNL     1       7.308 -16.334  21.207  1.00  0.00     0.006 C 
BRANCH  12  13
ATOM     13  C   UNL     1       8.536 -17.240  21.043  1.00  0.00     0.053 C 
BRANCH  13  14
ATOM     14  C   UNL     1       8.393 -18.100  19.827  1.00  0.00     0.041 C 
ATOM     15  O   UNL     1       9.406 -18.641  19.311  1.00  0.00    -0.550 OA
ATOM     16  O   UNL     1       7.147 -18.266  19.236  1.00  0.00    -0.550 OA
ENDBRANCH  13  14
ENDBRANCH  12  13
ENDBRANCH  11  12
ENDBRANCH  10  11
ENDBRANCH   9  10
ENDBRANCH   8   9
ENDBRANCH   7   8
ENDBRANCH   6   7
ENDBRANCH   5   6
ENDBRANCH   4   5
ENDBRANCH   3   4
ENDBRANCH   2   3
ENDBRANCH   1   2
BRANCH   1  17
ATOM     17  C   UNL     1      10.873 -21.023  22.537  1.00  0.00     0.000 C 
BRANCH  17  18
ATOM     18  C   UNL     1      10.422 -19.580  22.825  1.00  0.00     0.000 C 
BRANCH  18  19
ATOM     19  C   UNL     1      10.722 -19.140  24.268  1.00  0.00     0.000 C 
BRANCH  19  20
ATOM     20  C   UNL     1      11.559 -17.854  24.326  1.00  0.00     0.000 C 
BRANCH  20  21
ATOM     21  C   UNL     1      12.965 -18.094  24.905  1.00  0.00     0.000 C 
BRANCH  21  22
ATOM     22  C   UNL     1      13.125 -19.502  25.501  1.00  0.00    -0.000 C 
BRANCH  22  23
ATOM     23  C   UNL     1      14.471 -20.146  25.137  1.00  0.00    -0.000 C 
BRANCH  23  24
ATOM     24  C   UNL     1      14.272 -21.331  24.181  1.00  0.00    -0.000 C 
BRANCH  24  25
ATOM     25  C   UNL     1      15.162 -21.248  22.927  1.00  0.00    -0.000 C 
BRANCH  25  26
ATOM     26  C   UNL     1      15.237 -19.854  22.275  1.00  0.00    -0.000 C 
BRANCH  26  27
ATOM     27  C   UNL     1      13.954 -19.480  21.514  1.00  0.00    -0.000 C 
BRANCH  27  28
ATOM     28  C   UNL     1      13.922 -18.000  21.102  1.00  0.00    -0.000 C 
BRANCH  28  29
ATOM     29  C   UNL     1      12.526 -17.542  20.656  1.00  0.00    -0.003 C 
ATOM     30  C   UNL     1      12.197 -16.161  21.213  1.00  0.00     0.004 C 
ENDBRANCH  28  29
ENDBRANCH  27  28
ENDBRANCH  26  27
ENDBRANCH  25  26
ENDBRANCH  24  25
ENDBRANCH  23  24
ENDBRANCH  22  23
ENDBRANCH  21  22
ENDBRANCH  20  21
ENDBRANCH  19  20
ENDBRANCH  18  19
ENDBRANCH  17  18
ENDBRANCH   1  17
TORSDOF 26
ENDMDL
MODEL 8
REMARK VINA RESULT:    -4.160      2.367      4.605
REMARK INTER + INTRA:         -16.411
REMARK INTER:                 -10.730
REMARK INTRA:                  -5.681
REMARK UNBOUND:                -5.927
REMARK SMILES CCCCCCCCCCCCCCCCCCCCCCCCCCCC(=O)[O-]
REMARK SMILES IDX 15 1 16 2 17 3 18 4 19 5 20 6 21 7 22 8 23 9 24 10 25 11
REMARK SMILES IDX 26 12 27 13 28 14 29 15 30 16 14 17 13 18 12 19 11 20 10 21
REMARK SMILES IDX 9 22 8 23 7 24 6 25 5 26 4 27 3 28 2 29 1 30
REMARK H PARENT
REMARK Flexibility Score: inf
ROOT
ATOM      1  C   UNL     1       8.650 -16.561  24.616  1.00  0.00     0.000 C 
ENDROOT
BRANCH   1   2
ATOM      2  C   UNL     1       7.604 -17.667  24.852  1.00  0.00     0.000 C 
BRANCH   2   3
ATOM      3  C   UNL     1       8.074 -19.047  24.367  1.00  0.00     0.000 C 
BRANCH   3   4
ATOM      4  C   UNL     1       6.911 -19.948  23.910  1.00  0.00     0.000 C 
BRANCH   4   5
ATOM      5  C   UNL     1       7.276 -20.995  22.843  1.00  0.00     0.000 C 
BRANCH   5   6
ATOM      6  C   UNL     1       8.759 -20.955  22.447  1.00  0.00     0.000 C 
BRANCH   6   7
ATOM      7  C   UNL     1       9.058 -21.965  21.330  1.00  0.00     0.000 C 
BRANCH   7   8
ATOM      8  C   UNL     1      10.143 -22.985  21.717  1.00  0.00     0.000 C 
BRANCH   8   9
ATOM      9  C   UNL     1      11.422 -22.376  22.326  1.00  0.00     0.000 C 
BRANCH   9  10
ATOM     10  C   UNL     1      12.354 -21.676  21.319  1.00  0.00     0.000 C 
BRANCH  10  11
ATOM     11  C   UNL     1      13.550 -20.931  21.944  1.00  0.00     0.000 C 
BRANCH  11  12
ATOM     12  C   UNL     1      14.367 -20.074  20.961  1.00  0.00     0.006 C 
BRANCH  12  13
ATOM     13  C   UNL     1      15.052 -18.879  21.637  1.00  0.00     0.053 C 
BRANCH  13  14
ATOM     14  C   UNL     1      15.792 -18.060  20.628  1.00  0.00     0.041 C 
ATOM     15  O   UNL     1      16.885 -18.470  20.156  1.00  0.00    -0.550 OA
ATOM     16  O   UNL     1      15.299 -16.820  20.242  1.00  0.00    -0.550 OA
ENDBRANCH  13  14
ENDBRANCH  12  13
ENDBRANCH  11  12
ENDBRANCH  10  11
ENDBRANCH   9  10
ENDBRANCH   8   9
ENDBRANCH   7   8
ENDBRANCH   6   7
ENDBRANCH   5   6
ENDBRANCH   4   5
ENDBRANCH   3   4
ENDBRANCH   2   3
ENDBRANCH   1   2
BRANCH   1  17
ATOM     17  C   UNL     1       8.234 -15.458  23.620  1.00  0.00     0.000 C 
BRANCH  17  18
ATOM     18  C   UNL     1       7.075 -15.833  22.680  1.00  0.00     0.000 C 
BRANCH  18  19
ATOM     19  C   UNL     1       7.551 -16.182  21.259  1.00  0.00     0.000 C 
BRANCH  19  20
ATOM     20  C   UNL     1       7.487 -17.690  20.974  1.00  0.00     0.000 C 
BRANCH  20  21
ATOM     21  C   UNL     1       7.226 -17.996  19.489  1.00  0.00     0.000 C 
BRANCH  21  22
ATOM     22  C   UNL     1       7.971 -19.249  19.004  1.00  0.00    -0.000 C 
BRANCH  22  23
ATOM     23  C   UNL     1       9.301 -18.912  18.311  1.00  0.00    -0.000 C 
BRANCH  23  24
ATOM     24  C   UNL     1      10.491 -19.453  19.117  1.00  0.00    -0.000 C 
BRANCH  24  25
ATOM     25  C   UNL     1      11.528 -18.367  19.460  1.00  0.00    -0.000 C 
BRANCH  25  26
ATOM     26  C   UNL     1      11.088 -17.371  20.550  1.00  0.00    -0.000 C 
BRANCH  26  27
ATOM     27  C   UNL     1      10.843 -18.044  21.912  1.00  0.00    -0.000 C 
BRANCH  27  28
ATOM     28  C   UNL     1      11.915 -17.684  22.951  1.00  0.00    -0.000 C 
BRANCH  28  29
ATOM     29  C   UNL     1      12.084 -16.167  23.123  1.00  0.00    -0.003 C 
ATOM     30  C   UNL     1      13.558 -15.780  23.170  1.00  0.00     0.004 C 
ENDBRANCH  28  29
ENDBRANCH  27  28
ENDBRANCH  26  27
ENDBRANCH  25  26
ENDBRANCH  24  25
ENDBRANCH  23  24
ENDBRANCH  22  23
ENDBRANCH  21  22
ENDBRANCH  20  21
ENDBRANCH  19  20
ENDBRANCH  18  19
ENDBRANCH  17  18
ENDBRANCH   1  17
TORSDOF 26
ENDMDL
MODEL 9
REMARK VINA RESULT:    -4.158      3.181      6.570
REMARK INTER + INTRA:         -16.405
REMARK INTER:                 -10.959
REMARK INTRA:                  -5.447
REMARK UNBOUND:                -5.927
REMARK SMILES CCCCCCCCCCCCCCCCCCCCCCCCCCCC(=O)[O-]
REMARK SMILES IDX 15 1 16 2 17 3 18 4 19 5 20 6 21 7 22 8 23 9 24 10 25 11
REMARK SMILES IDX 26 12 27 13 28 14 29 15 30 16 14 17 13 18 12 19 11 20 10 21
REMARK SMILES IDX 9 22 8 23 7 24 6 25 5 26 4 27 3 28 2 29 1 30
REMARK H PARENT
REMARK Flexibility Score: inf
ROOT
ATOM      1  C   UNL     1      11.850 -21.562  20.782  1.00  0.00     0.000 C 
ENDROOT
BRANCH   1   2
ATOM      2  C   UNL     1      10.495 -22.020  21.354  1.00  0.00     0.000 C 
BRANCH   2   3
ATOM      3  C   UNL     1       9.445 -20.898  21.377  1.00  0.00     0.000 C 
BRANCH   3   4
ATOM      4  C   UNL     1       8.765 -20.745  22.750  1.00  0.00     0.000 C 
BRANCH   4   5
ATOM      5  C   UNL     1       7.227 -20.805  22.727  1.00  0.00     0.000 C 
BRANCH   5   6
ATOM      6  C   UNL     1       6.572 -19.754  23.635  1.00  0.00     0.000 C 
BRANCH   6   7
ATOM      7  C   UNL     1       6.922 -20.005  25.109  1.00  0.00     0.000 C 
BRANCH   7   8
ATOM      8  C   UNL     1       7.265 -18.714  25.872  1.00  0.00     0.000 C 
BRANCH   8   9
ATOM      9  C   UNL     1       8.647 -18.113  25.548  1.00  0.00     0.000 C 
BRANCH   9  10
ATOM     10  C   UNL     1       8.812 -16.624  25.911  1.00  0.00     0.000 C 
BRANCH  10  11
ATOM     11  C   UNL     1       8.707 -15.647  24.723  1.00  0.00     0.000 C 
BRANCH  11  12
ATOM     12  C   UNL     1       8.448 -16.309  23.358  1.00  0.00     0.006 C 
BRANCH  12  13
ATOM     13  C   UNL     1       7.360 -15.594  22.545  1.00  0.00     0.053 C 
BRANCH  13  14
ATOM     14  C   UNL     1       7.240 -16.203  21.184  1.00  0.00     0.041 C 
ATOM     15  O   UNL     1       6.761 -15.534  20.231  1.00  0.00    -0.550 OA
ATOM     16  O   UNL     1       7.612 -17.525  20.978  1.00  0.00    -0.550 OA
ENDBRANCH  13  14
ENDBRANCH  12  13
ENDBRANCH  11  12
ENDBRANCH  10  11
ENDBRANCH   9  10
ENDBRANCH   8   9
ENDBRANCH   7   8
ENDBRANCH   6   7
ENDBRANCH   5   6
ENDBRANCH   4   5
ENDBRANCH   3   4
ENDBRANCH   2   3
ENDBRANCH   1   2
BRANCH   1  17
ATOM     17  C   UNL     1      11.919 -20.082  20.350  1.00  0.00     0.000 C 
BRANCH  17  18
ATOM     18  C   UNL     1      13.305 -19.604  19.883  1.00  0.00     0.000 C 
BRANCH  18  19
ATOM     19  C   UNL     1      13.479 -18.080  20.000  1.00  0.00     0.000 C 
BRANCH  19  20
ATOM     20  C   UNL     1      14.762 -17.693  20.752  1.00  0.00     0.000 C 
BRANCH  20  21
ATOM     21  C   UNL     1      15.715 -18.888  20.936  1.00  0.00     0.000 C 
BRANCH  21  22
ATOM     22  C   UNL     1      15.865 -19.302  22.408  1.00  0.00    -0.000 C 
BRANCH  22  23
ATOM     23  C   UNL     1      15.594 -20.798  22.631  1.00  0.00    -0.000 C 
BRANCH  23  24
ATOM     24  C   UNL     1      14.328 -21.006  23.475  1.00  0.00    -0.000 C 
BRANCH  24  25
ATOM     25  C   UNL     1      13.692 -19.683  23.941  1.00  0.00    -0.000 C 
BRANCH  25  26
ATOM     26  C   UNL     1      12.154 -19.699  24.028  1.00  0.00    -0.000 C 
BRANCH  26  27
ATOM     27  C   UNL     1      11.512 -18.394  23.526  1.00  0.00    -0.000 C 
BRANCH  27  28
ATOM     28  C   UNL     1      12.462 -17.191  23.630  1.00  0.00    -0.000 C 
BRANCH  28  29
ATOM     29  C   UNL     1      12.008 -16.004  22.768  1.00  0.00    -0.003 C 
ATOM     30  C   UNL     1      13.106 -14.952  22.659  1.00  0.00     0.004 C 
ENDBRANCH  28  29
ENDBRANCH  27  28
ENDBRANCH  26  27
ENDBRANCH  25  26
ENDBRANCH  24  25
ENDBRANCH  23  24
ENDBRANCH  22  23
ENDBRANCH  21  22
ENDBRANCH  20  21
ENDBRANCH  19  20
ENDBRANCH  18  19
ENDBRANCH  17  18
ENDBRANCH   1  17
TORSDOF 26
ENDMDL
