MODEL 1
REMARK VINA RESULT:    -7.167      0.000      0.000
REMARK INTER + INTRA:          -8.709
REMARK INTER:                  -8.424
REMARK INTRA:                  -0.285
REMARK UNBOUND:                -0.285
REMARK SMILES O=c1c(O)c(-c2ccc(O)c(O)c2)oc2cc(O)ccc12
REMARK SMILES IDX 5 1 3 2 2 3 1 4 21 5 15 6 14 7 16 8 17 9 19 10 20 11 6 12
REMARK SMILES IDX 7 13 8 14 9 15 13 16 11 17 10 18 12 20 4 22 18 24
REMARK H PARENT 10 19 12 21 4 23 18 25
REMARK Flexibility Score: inf
ROOT
ATOM      1  C   UNL     1       4.285   9.737   9.741  1.00  0.00     0.180 A 
ATOM      2  C   UNL     1       3.897   8.860   8.706  1.00  0.00     0.208 A 
ATOM      3  C   UNL     1       2.536   8.554   8.554  1.00  0.00     0.235 A 
ATOM      4  O   UNL     1       2.163   7.781   7.629  1.00  0.00    -0.285 OA
ATOM      5  C   UNL     1       1.600   9.106   9.443  1.00  0.00     0.069 A 
ATOM      6  C   UNL     1       2.071   9.956  10.467  1.00  0.00     0.142 A 
ATOM      7  O   UNL     1       3.368  10.228  10.571  1.00  0.00    -0.452 OA
ATOM      8  C   UNL     1       1.172  10.519  11.379  1.00  0.00     0.094 A 
ATOM      9  C   UNL     1      -0.199  10.244  11.279  1.00  0.00     0.119 A 
ATOM     10  C   UNL     1      -0.669   9.404  10.263  1.00  0.00     0.047 A 
ATOM     11  C   UNL     1       0.223   8.836   9.348  1.00  0.00     0.020 A 
ENDROOT
BRANCH   1  12
ATOM     12  C   UNL     1       5.697  10.124   9.954  1.00  0.00     0.025 A 
ATOM     13  C   UNL     1       6.410   9.573  11.032  1.00  0.00     0.016 A 
ATOM     14  C   UNL     1       7.737   9.940  11.265  1.00  0.00     0.051 A 
ATOM     15  C   UNL     1       8.368  10.874  10.433  1.00  0.00     0.157 A 
ATOM     16  C   UNL     1       6.328  11.077   9.134  1.00  0.00     0.062 A 
ATOM     17  C   UNL     1       7.661  11.447   9.369  1.00  0.00     0.158 A 
BRANCH  15  18
ATOM     18  O   UNL     1       9.693  11.241  10.661  1.00  0.00    -0.504 OA
ATOM     19  H   UNL     1      10.110  12.040  10.198  1.00  0.00     0.293 HD
ENDBRANCH  15  18
BRANCH  17  20
ATOM     20  O   UNL     1       8.286  12.386   8.551  1.00  0.00    -0.504 OA
ATOM     21  H   UNL     1       8.042  13.369   8.589  1.00  0.00     0.293 HD
ENDBRANCH  17  20
ENDBRANCH   1  12
BRANCH   2  22
ATOM     22  O   UNL     1       4.856   8.287   7.868  1.00  0.00    -0.502 OA
ATOM     23  H   UNL     1       5.822   8.169   8.152  1.00  0.00     0.293 HD
ENDBRANCH   2  22
BRANCH   9  24
ATOM     24  O   UNL     1      -1.102  10.800  12.182  1.00  0.00    -0.508 OA
ATOM     25  H   UNL     1      -1.331  11.787  12.162  1.00  0.00     0.293 HD
ENDBRANCH   9  24
TORSDOF 5
ENDMDL
MODEL 2
REMARK VINA RESULT:    -7.043      1.517      2.970
REMARK INTER + INTRA:          -8.563
REMARK INTER:                  -8.280
REMARK INTRA:                  -0.283
REMARK UNBOUND:                -0.285
REMARK SMILES O=c1c(O)c(-c2ccc(O)c(O)c2)oc2cc(O)ccc12
REMARK SMILES IDX 5 1 3 2 2 3 1 4 21 5 15 6 14 7 16 8 17 9 19 10 20 11 6 12
REMARK SMILES IDX 7 13 8 14 9 15 13 16 11 17 10 18 12 20 4 22 18 24
REMARK H PARENT 10 19 12 21 4 23 18 25
REMARK Flexibility Score: inf
ROOT
ATOM      1  C   UNL     1       4.944  10.005  10.361  1.00  0.00     0.180 A 
ATOM      2  C   UNL     1       4.001  10.796  11.052  1.00  0.00     0.208 A 
ATOM      3  C   UNL     1       2.678  10.340  11.148  1.00  0.00     0.235 A 
ATOM      4  O   UNL     1       1.819  11.024  11.770  1.00  0.00    -0.285 OA
ATOM      5  C   UNL     1       2.319   9.126  10.541  1.00  0.00     0.069 A 
ATOM      6  C   UNL     1       3.316   8.404   9.849  1.00  0.00     0.142 A 
ATOM      7  O   UNL     1       4.560   8.867   9.788  1.00  0.00    -0.452 OA
ATOM      8  C   UNL     1       2.996   7.195   9.222  1.00  0.00     0.094 A 
ATOM      9  C   UNL     1       1.689   6.693   9.281  1.00  0.00     0.119 A 
ATOM     10  C   UNL     1       0.700   7.405   9.970  1.00  0.00     0.047 A 
ATOM     11  C   UNL     1       1.009   8.615  10.597  1.00  0.00     0.020 A 
ENDROOT
BRANCH   1  12
ATOM     12  C   UNL     1       6.362  10.407  10.232  1.00  0.00     0.025 A 
ATOM     13  C   UNL     1       7.314   9.877  11.117  1.00  0.00     0.016 A 
ATOM     14  C   UNL     1       8.655  10.258  11.027  1.00  0.00     0.051 A 
ATOM     15  C   UNL     1       9.061  11.187  10.060  1.00  0.00     0.157 A 
ATOM     16  C   UNL     1       6.771  11.355   9.276  1.00  0.00     0.062 A 
ATOM     17  C   UNL     1       8.117  11.740   9.187  1.00  0.00     0.158 A 
BRANCH  15  18
ATOM     18  O   UNL     1      10.399  11.569   9.966  1.00  0.00    -0.504 OA
ATOM     19  H   UNL     1      10.848  12.113  10.693  1.00  0.00     0.293 HD
ENDBRANCH  15  18
BRANCH  17  20
ATOM     20  O   UNL     1       8.522  12.674   8.235  1.00  0.00    -0.504 OA
ATOM     21  H   UNL     1       9.001  12.395   7.387  1.00  0.00     0.293 HD
ENDBRANCH  17  20
ENDBRANCH   1  12
BRANCH   2  22
ATOM     22  O   UNL     1       4.376  12.023  11.602  1.00  0.00    -0.502 OA
ATOM     23  H   UNL     1       5.342  12.331  11.634  1.00  0.00     0.293 HD
ENDBRANCH   2  22
BRANCH   9  24
ATOM     24  O   UNL     1       1.362   5.490   8.661  1.00  0.00    -0.508 OA
ATOM     25  H   UNL     1       0.740   4.820   9.100  1.00  0.00     0.293 HD
ENDBRANCH   9  24
TORSDOF 5
ENDMDL
MODEL 3
REMARK VINA RESULT:    -6.829      1.659      3.590
REMARK INTER + INTRA:          -8.311
REMARK INTER:                  -7.988
REMARK INTRA:                  -0.323
REMARK UNBOUND:                -0.285
REMARK SMILES O=c1c(O)c(-c2ccc(O)c(O)c2)oc2cc(O)ccc12
REMARK SMILES IDX 5 1 3 2 2 3 1 4 21 5 15 6 14 7 16 8 17 9 19 10 20 11 6 12
REMARK SMILES IDX 7 13 8 14 9 15 13 16 11 17 10 18 12 20 4 22 18 24
REMARK H PARENT 10 19 12 21 4 23 18 25
REMARK Flexibility Score: inf
ROOT
ATOM      1  C   UNL     1       3.963   9.335   9.539  1.00  0.00     0.180 A 
ATOM      2  C   UNL     1       2.800   9.845  10.155  1.00  0.00     0.208 A 
ATOM      3  C   UNL     1       1.573   9.209   9.913  1.00  0.00     0.235 A 
ATOM      4  O   UNL     1       0.521   9.640  10.461  1.00  0.00    -0.285 OA
ATOM      5  C   UNL     1       1.526   8.101   9.053  1.00  0.00     0.069 A 
ATOM      6  C   UNL     1       2.730   7.666   8.458  1.00  0.00     0.142 A 
ATOM      7  O   UNL     1       3.873   8.290   8.719  1.00  0.00    -0.452 OA
ATOM      8  C   UNL     1       2.724   6.570   7.587  1.00  0.00     0.094 A 
ATOM      9  C   UNL     1       1.526   5.900   7.304  1.00  0.00     0.119 A 
ATOM     10  C   UNL     1       0.332   6.328   7.896  1.00  0.00     0.047 A 
ATOM     11  C   UNL     1       0.328   7.422   8.766  1.00  0.00     0.020 A 
ENDROOT
BRANCH   1  12
ATOM     12  C   UNL     1       5.297   9.937   9.759  1.00  0.00     0.025 A 
ATOM     13  C   UNL     1       5.760  10.929   8.879  1.00  0.00     0.016 A 
ATOM     14  C   UNL     1       7.025  11.497   9.055  1.00  0.00     0.051 A 
ATOM     15  C   UNL     1       7.851  11.070  10.103  1.00  0.00     0.157 A 
ATOM     16  C   UNL     1       6.138   9.497  10.797  1.00  0.00     0.062 A 
ATOM     17  C   UNL     1       7.408  10.065  10.972  1.00  0.00     0.158 A 
BRANCH  15  18
ATOM     18  O   UNL     1       9.112  11.635  10.283  1.00  0.00    -0.504 OA
ATOM     19  H   UNL     1       9.869  11.117  10.712  1.00  0.00     0.293 HD
ENDBRANCH  15  18
BRANCH  17  20
ATOM     20  O   UNL     1       8.238   9.632  12.005  1.00  0.00    -0.504 OA
ATOM     21  H   UNL     1       7.918   9.603  12.967  1.00  0.00     0.293 HD
ENDBRANCH  17  20
ENDBRANCH   1  12
BRANCH   2  22
ATOM     22  O   UNL     1       2.870  10.980  10.966  1.00  0.00    -0.502 OA
ATOM     23  H   UNL     1       3.617  11.660  10.883  1.00  0.00     0.293 HD
ENDBRANCH   2  22
BRANCH   9  24
ATOM     24  O   UNL     1       1.511   4.808   6.439  1.00  0.00    -0.508 OA
ATOM     25  H   UNL     1       1.021   3.952   6.676  1.00  0.00     0.293 HD
ENDBRANCH   9  24
TORSDOF 5
ENDMDL
MODEL 4
REMARK VINA RESULT:    -6.735      2.182      2.243
REMARK INTER + INTRA:          -8.201
REMARK INTER:                  -8.013
REMARK INTRA:                  -0.188
REMARK UNBOUND:                -0.285
REMARK SMILES O=c1c(O)c(-c2ccc(O)c(O)c2)oc2cc(O)ccc12
REMARK SMILES IDX 5 1 3 2 2 3 1 4 21 5 15 6 14 7 16 8 17 9 19 10 20 11 6 12
REMARK SMILES IDX 7 13 8 14 9 15 13 16 11 17 10 18 12 20 4 22 18 24
REMARK H PARENT 10 19 12 21 4 23 18 25
REMARK Flexibility Score: inf
ROOT
ATOM      1  C   UNL     1       5.035   9.207   9.456  1.00  0.00     0.180 A 
ATOM      2  C   UNL     1       4.579   8.510   8.318  1.00  0.00     0.208 A 
ATOM      3  C   UNL     1       3.502   7.621   8.457  1.00  0.00     0.235 A 
ATOM      4  O   UNL     1       3.069   6.994   7.451  1.00  0.00    -0.285 OA
ATOM      5  C   UNL     1       2.922   7.431   9.721  1.00  0.00     0.069 A 
ATOM      6  C   UNL     1       3.451   8.149  10.815  1.00  0.00     0.142 A 
ATOM      7  O   UNL     1       4.467   8.988  10.640  1.00  0.00    -0.452 OA
ATOM      8  C   UNL     1       2.907   7.980  12.093  1.00  0.00     0.094 A 
ATOM      9  C   UNL     1       1.833   7.101  12.292  1.00  0.00     0.119 A 
ATOM     10  C   UNL     1       1.305   6.391  11.208  1.00  0.00     0.047 A 
ATOM     11  C   UNL     1       1.843   6.551   9.928  1.00  0.00     0.020 A 
ENDROOT
BRANCH   1  12
ATOM     12  C   UNL     1       6.153  10.176   9.389  1.00  0.00     0.025 A 
ATOM     13  C   UNL     1       7.326   9.930  10.120  1.00  0.00     0.016 A 
ATOM     14  C   UNL     1       8.385  10.840  10.087  1.00  0.00     0.051 A 
ATOM     15  C   UNL     1       8.281  12.018   9.335  1.00  0.00     0.157 A 
ATOM     16  C   UNL     1       6.045  11.369   8.652  1.00  0.00     0.062 A 
ATOM     17  C   UNL     1       7.107  12.284   8.620  1.00  0.00     0.158 A 
BRANCH  15  18
ATOM     18  O   UNL     1       9.336  12.927   9.299  1.00  0.00    -0.504 OA
ATOM     19  H   UNL     1      10.281  12.635   9.082  1.00  0.00     0.293 HD
ENDBRANCH  15  18
BRANCH  17  20
ATOM     20  O   UNL     1       7.001  13.463   7.884  1.00  0.00    -0.504 OA
ATOM     21  H   UNL     1       7.650  14.231   8.013  1.00  0.00     0.293 HD
ENDBRANCH  17  20
ENDBRANCH   1  12
BRANCH   2  22
ATOM     22  O   UNL     1       5.209   8.683   7.083  1.00  0.00    -0.502 OA
ATOM     23  H   UNL     1       5.869   9.433   6.912  1.00  0.00     0.293 HD
ENDBRANCH   2  22
BRANCH   9  24
ATOM     24  O   UNL     1       1.284   6.927  13.560  1.00  0.00    -0.508 OA
ATOM     25  H   UNL     1       0.282   6.867  13.699  1.00  0.00     0.293 HD
ENDBRANCH   9  24
TORSDOF 5
ENDMDL
MODEL 5
REMARK VINA RESULT:    -6.723      2.740      3.522
REMARK INTER + INTRA:          -8.187
REMARK INTER:                  -8.727
REMARK INTRA:                   0.540
REMARK UNBOUND:                -0.285
REMARK SMILES O=c1c(O)c(-c2ccc(O)c(O)c2)oc2cc(O)ccc12
REMARK SMILES IDX 5 1 3 2 2 3 1 4 21 5 15 6 14 7 16 8 17 9 19 10 20 11 6 12
REMARK SMILES IDX 7 13 8 14 9 15 13 16 11 17 10 18 12 20 4 22 18 24
REMARK H PARENT 10 19 12 21 4 23 18 25
REMARK Flexibility Score: inf
ROOT
ATOM      1  C   UNL     1       4.588   9.603  10.816  1.00  0.00     0.180 A 
ATOM      2  C   UNL     1       3.272   9.787  10.344  1.00  0.00     0.208 A 
ATOM      3  C   UNL     1       2.237   9.031  10.915  1.00  0.00     0.235 A 
ATOM      4  O   UNL     1       1.050   9.185  10.518  1.00  0.00    -0.285 OA
ATOM      5  C   UNL     1       2.537   8.098  11.921  1.00  0.00     0.069 A 
ATOM      6  C   UNL     1       3.884   7.957  12.322  1.00  0.00     0.142 A 
ATOM      7  O   UNL     1       4.833   8.699  11.762  1.00  0.00    -0.452 OA
ATOM      8  C   UNL     1       4.225   7.032  13.315  1.00  0.00     0.094 A 
ATOM      9  C   UNL     1       3.234   6.245  13.917  1.00  0.00     0.119 A 
ATOM     10  C   UNL     1       1.898   6.385  13.523  1.00  0.00     0.047 A 
ATOM     11  C   UNL     1       1.548   7.306  12.531  1.00  0.00     0.020 A 
ENDROOT
BRANCH   1  12
ATOM     12  C   UNL     1       5.731  10.376  10.278  1.00  0.00     0.025 A 
ATOM     13  C   UNL     1       5.541  11.198   9.155  1.00  0.00     0.016 A 
ATOM     14  C   UNL     1       6.610  11.920   8.618  1.00  0.00     0.051 A 
ATOM     15  C   UNL     1       7.886  11.820   9.187  1.00  0.00     0.157 A 
ATOM     16  C   UNL     1       7.018  10.263  10.833  1.00  0.00     0.062 A 
ATOM     17  C   UNL     1       8.091  10.987  10.293  1.00  0.00     0.158 A 
BRANCH  15  18
ATOM     18  O   UNL     1       8.954  12.541   8.655  1.00  0.00    -0.504 OA
ATOM     19  H   UNL     1       8.806  13.327   8.033  1.00  0.00     0.293 HD
ENDBRANCH  15  18
BRANCH  17  20
ATOM     20  O   UNL     1       9.365  10.879  10.848  1.00  0.00    -0.504 OA
ATOM     21  H   UNL     1       9.768  11.626  11.402  1.00  0.00     0.293 HD
ENDBRANCH  17  20
ENDBRANCH   1  12
BRANCH   2  22
ATOM     22  O   UNL     1       3.011  10.686   9.307  1.00  0.00    -0.502 OA
ATOM     23  H   UNL     1       2.271  11.376   9.362  1.00  0.00     0.293 HD
ENDBRANCH   2  22
BRANCH   9  24
ATOM     24  O   UNL     1       3.564   5.322  14.906  1.00  0.00    -0.508 OA
ATOM     25  H   UNL     1       2.906   4.612  15.209  1.00  0.00     0.293 HD
ENDBRANCH   9  24
TORSDOF 5
ENDMDL
MODEL 6
REMARK VINA RESULT:    -6.713      3.088      5.882
REMARK INTER + INTRA:          -8.176
REMARK INTER:                  -7.857
REMARK INTRA:                  -0.319
REMARK UNBOUND:                -0.285
REMARK SMILES O=c1c(O)c(-c2ccc(O)c(O)c2)oc2cc(O)ccc12
REMARK SMILES IDX 5 1 3 2 2 3 1 4 21 5 15 6 14 7 16 8 17 9 19 10 20 11 6 12
REMARK SMILES IDX 7 13 8 14 9 15 13 16 11 17 10 18 12 20 4 22 18 24
REMARK H PARENT 10 19 12 21 4 23 18 25
REMARK Flexibility Score: inf
ROOT
ATOM      1  C   UNL     1       4.118   9.788   9.929  1.00  0.00     0.180 A 
ATOM      2  C   UNL     1       4.111  11.186  10.113  1.00  0.00     0.208 A 
ATOM      3  C   UNL     1       4.205  12.016   8.985  1.00  0.00     0.235 A 
ATOM      4  O   UNL     1       4.190  13.270   9.122  1.00  0.00    -0.285 OA
ATOM      5  C   UNL     1       4.326  11.440   7.711  1.00  0.00     0.069 A 
ATOM      6  C   UNL     1       4.348  10.031   7.614  1.00  0.00     0.142 A 
ATOM      7  O   UNL     1       4.248   9.281   8.705  1.00  0.00    -0.452 OA
ATOM      8  C   UNL     1       4.477   9.418   6.362  1.00  0.00     0.094 A 
ATOM      9  C   UNL     1       4.580  10.197   5.202  1.00  0.00     0.119 A 
ATOM     10  C   UNL     1       4.555  11.593   5.296  1.00  0.00     0.047 A 
ATOM     11  C   UNL     1       4.429  12.215   6.542  1.00  0.00     0.020 A 
ENDROOT
BRANCH   1  12
ATOM     12  C   UNL     1       4.003   8.846  11.066  1.00  0.00     0.025 A 
ATOM     13  C   UNL     1       5.165   8.270  11.606  1.00  0.00     0.016 A 
ATOM     14  C   UNL     1       5.078   7.363  12.665  1.00  0.00     0.051 A 
ATOM     15  C   UNL     1       3.829   7.006  13.189  1.00  0.00     0.157 A 
ATOM     16  C   UNL     1       2.750   8.469  11.582  1.00  0.00     0.062 A 
ATOM     17  C   UNL     1       2.663   7.557  12.643  1.00  0.00     0.158 A 
BRANCH  15  18
ATOM     18  O   UNL     1       3.739   6.103  14.247  1.00  0.00    -0.504 OA
ATOM     19  H   UNL     1       3.981   5.126  14.132  1.00  0.00     0.293 HD
ENDBRANCH  15  18
BRANCH  17  20
ATOM     20  O   UNL     1       1.421   7.190  13.158  1.00  0.00    -0.504 OA
ATOM     21  H   UNL     1       1.280   6.300  13.621  1.00  0.00     0.293 HD
ENDBRANCH  17  20
ENDBRANCH   1  12
BRANCH   2  22
ATOM     22  O   UNL     1       4.041  11.731  11.397  1.00  0.00    -0.502 OA
ATOM     23  H   UNL     1       3.552  11.269  12.155  1.00  0.00     0.293 HD
ENDBRANCH   2  22
BRANCH   9  24
ATOM     24  O   UNL     1       4.708   9.596   3.952  1.00  0.00    -0.508 OA
ATOM     25  H   UNL     1       3.896   9.297   3.423  1.00  0.00     0.293 HD
ENDBRANCH   9  24
TORSDOF 5
ENDMDL
MODEL 7
REMARK VINA RESULT:    -6.706      3.105      4.507
REMARK INTER + INTRA:          -8.167
REMARK INTER:                  -7.856
REMARK INTRA:                  -0.311
REMARK UNBOUND:                -0.285
REMARK SMILES O=c1c(O)c(-c2ccc(O)c(O)c2)oc2cc(O)ccc12
REMARK SMILES IDX 5 1 3 2 2 3 1 4 21 5 15 6 14 7 16 8 17 9 19 10 20 11 6 12
REMARK SMILES IDX 7 13 8 14 9 15 13 16 11 17 10 18 12 20 4 22 18 24
REMARK H PARENT 10 19 12 21 4 23 18 25
REMARK Flexibility Score: inf
ROOT
ATOM      1  C   UNL     1       4.729  10.280   9.983  1.00  0.00     0.180 A 
ATOM      2  C   UNL     1       5.981   9.883  10.499  1.00  0.00     0.208 A 
ATOM      3  C   UNL     1       6.019   8.889  11.489  1.00  0.00     0.235 A 
ATOM      4  O   UNL     1       7.127   8.510  11.958  1.00  0.00    -0.285 OA
ATOM      5  C   UNL     1       4.818   8.331  11.955  1.00  0.00     0.069 A 
ATOM      6  C   UNL     1       3.606   8.799  11.404  1.00  0.00     0.142 A 
ATOM      7  O   UNL     1       3.612   9.736  10.462  1.00  0.00    -0.452 OA
ATOM      8  C   UNL     1       2.386   8.276  11.849  1.00  0.00     0.094 A 
ATOM      9  C   UNL     1       2.364   7.284  12.839  1.00  0.00     0.119 A 
ATOM     10  C   UNL     1       3.565   6.817  13.385  1.00  0.00     0.047 A 
ATOM     11  C   UNL     1       4.788   7.335  12.948  1.00  0.00     0.020 A 
ENDROOT
BRANCH   1  12
ATOM     12  C   UNL     1       4.606  11.308   8.925  1.00  0.00     0.025 A 
ATOM     13  C   UNL     1       4.243  12.619   9.274  1.00  0.00     0.016 A 
ATOM     14  C   UNL     1       4.101  13.600   8.289  1.00  0.00     0.051 A 
ATOM     15  C   UNL     1       4.303  13.281   6.940  1.00  0.00     0.157 A 
ATOM     16  C   UNL     1       4.788  10.987   7.567  1.00  0.00     0.062 A 
ATOM     17  C   UNL     1       4.643  11.971   6.578  1.00  0.00     0.158 A 
BRANCH  15  18
ATOM     18  O   UNL     1       4.164  14.257   5.955  1.00  0.00    -0.504 OA
ATOM     19  H   UNL     1       4.403  15.226   6.131  1.00  0.00     0.293 HD
ENDBRANCH  15  18
BRANCH  17  20
ATOM     20  O   UNL     1       4.831  11.654   5.234  1.00  0.00    -0.504 OA
ATOM     21  H   UNL     1       4.253  12.060   4.507  1.00  0.00     0.293 HD
ENDBRANCH  17  20
ENDBRANCH   1  12
BRANCH   2  22
ATOM     22  O   UNL     1       7.155  10.492  10.051  1.00  0.00    -0.502 OA
ATOM     23  H   UNL     1       7.949   9.957   9.718  1.00  0.00     0.293 HD
ENDBRANCH   2  22
BRANCH   9  24
ATOM     24  O   UNL     1       1.155   6.756  13.288  1.00  0.00    -0.508 OA
ATOM     25  H   UNL     1       1.008   5.756  13.357  1.00  0.00     0.293 HD
ENDBRANCH   9  24
TORSDOF 5
ENDMDL
MODEL 8
REMARK VINA RESULT:    -6.651      3.854      5.207
REMARK INTER + INTRA:          -8.102
REMARK INTER:                  -8.127
REMARK INTRA:                   0.025
REMARK UNBOUND:                -0.285
REMARK SMILES O=c1c(O)c(-c2ccc(O)c(O)c2)oc2cc(O)ccc12
REMARK SMILES IDX 5 1 3 2 2 3 1 4 21 5 15 6 14 7 16 8 17 9 19 10 20 11 6 12
REMARK SMILES IDX 7 13 8 14 9 15 13 16 11 17 10 18 12 20 4 22 18 24
REMARK H PARENT 10 19 12 21 4 23 18 25
REMARK Flexibility Score: inf
ROOT
ATOM      1  C   UNL     1       5.215  11.679   7.644  1.00  0.00     0.180 A 
ATOM      2  C   UNL     1       4.563  10.894   6.671  1.00  0.00     0.208 A 
ATOM      3  C   UNL     1       3.933  11.537   5.594  1.00  0.00     0.235 A 
ATOM      4  O   UNL     1       3.352  10.856   4.705  1.00  0.00    -0.285 OA
ATOM      5  C   UNL     1       3.949  12.939   5.522  1.00  0.00     0.069 A 
ATOM      6  C   UNL     1       4.604  13.654   6.549  1.00  0.00     0.142 A 
ATOM      7  O   UNL     1       5.195  13.006   7.547  1.00  0.00    -0.452 OA
ATOM      8  C   UNL     1       4.633  15.053   6.519  1.00  0.00     0.094 A 
ATOM      9  C   UNL     1       4.017  15.749   5.471  1.00  0.00     0.119 A 
ATOM     10  C   UNL     1       3.370  15.043   4.450  1.00  0.00     0.047 A 
ATOM     11  C   UNL     1       3.333  13.645   4.473  1.00  0.00     0.020 A 
ENDROOT
BRANCH   1  12
ATOM     12  C   UNL     1       5.918  11.075   8.798  1.00  0.00     0.025 A 
ATOM     13  C   UNL     1       5.244  10.147   9.609  1.00  0.00     0.016 A 
ATOM     14  C   UNL     1       5.881   9.580  10.716  1.00  0.00     0.051 A 
ATOM     15  C   UNL     1       7.195   9.943  11.037  1.00  0.00     0.157 A 
ATOM     16  C   UNL     1       7.230  11.452   9.137  1.00  0.00     0.062 A 
ATOM     17  C   UNL     1       7.869  10.884  10.249  1.00  0.00     0.158 A 
BRANCH  15  18
ATOM     18  O   UNL     1       7.834   9.378  12.140  1.00  0.00    -0.504 OA
ATOM     19  H   UNL     1       8.798   9.071  12.094  1.00  0.00     0.293 HD
ENDBRANCH  15  18
BRANCH  17  20
ATOM     20  O   UNL     1       9.171  11.254  10.579  1.00  0.00    -0.504 OA
ATOM     21  H   UNL     1       9.438  11.462  11.535  1.00  0.00     0.293 HD
ENDBRANCH  17  20
ENDBRANCH   1  12
BRANCH   2  22
ATOM     22  O   UNL     1       4.521   9.503   6.795  1.00  0.00    -0.502 OA
ATOM     23  H   UNL     1       3.977   8.919   6.170  1.00  0.00     0.293 HD
ENDBRANCH   2  22
BRANCH   9  24
ATOM     24  O   UNL     1       4.041  17.141   5.432  1.00  0.00    -0.508 OA
ATOM     25  H   UNL     1       3.213  17.691   5.631  1.00  0.00     0.293 HD
ENDBRANCH   9  24
TORSDOF 5
ENDMDL
MODEL 9
REMARK VINA RESULT:    -6.642      3.513      5.066
REMARK INTER + INTRA:          -8.092
REMARK INTER:                  -8.398
REMARK INTRA:                   0.307
REMARK UNBOUND:                -0.285
REMARK SMILES O=c1c(O)c(-c2ccc(O)c(O)c2)oc2cc(O)ccc12
REMARK SMILES IDX 5 1 3 2 2 3 1 4 21 5 15 6 14 7 16 8 17 9 19 10 20 11 6 12
REMARK SMILES IDX 7 13 8 14 9 15 13 16 11 17 10 18 12 20 4 22 18 24
REMARK H PARENT 10 19 12 21 4 23 18 25
REMARK Flexibility Score: inf
ROOT
ATOM      1  C   UNL     1       5.247  11.877   7.691  1.00  0.00     0.180 A 
ATOM      2  C   UNL     1       5.563  13.178   7.248  1.00  0.00     0.208 A 
ATOM      3  C   UNL     1       4.815  13.737   6.201  1.00  0.00     0.235 A 
ATOM      4  O   UNL     1       5.071  14.903   5.794  1.00  0.00    -0.285 OA
ATOM      5  C   UNL     1       3.790  12.984   5.606  1.00  0.00     0.069 A 
ATOM      6  C   UNL     1       3.551  11.680   6.091  1.00  0.00     0.142 A 
ATOM      7  O   UNL     1       4.276  11.191   7.091  1.00  0.00    -0.452 OA
ATOM      8  C   UNL     1       2.544  10.893   5.519  1.00  0.00     0.094 A 
ATOM      9  C   UNL     1       1.768  11.397   4.466  1.00  0.00     0.119 A 
ATOM     10  C   UNL     1       2.002  12.691   3.985  1.00  0.00     0.047 A 
ATOM     11  C   UNL     1       3.006  13.483   4.550  1.00  0.00     0.020 A 
ENDROOT
BRANCH   1  12
ATOM     12  C   UNL     1       5.976  11.226   8.802  1.00  0.00     0.025 A 
ATOM     13  C   UNL     1       5.304  10.308   9.626  1.00  0.00     0.016 A 
ATOM     14  C   UNL     1       5.967   9.698  10.694  1.00  0.00     0.051 A 
ATOM     15  C   UNL     1       7.306  10.008  10.963  1.00  0.00     0.157 A 
ATOM     16  C   UNL     1       7.315  11.549   9.089  1.00  0.00     0.062 A 
ATOM     17  C   UNL     1       7.980  10.938  10.162  1.00  0.00     0.158 A 
BRANCH  15  18
ATOM     18  O   UNL     1       7.971   9.399  12.026  1.00  0.00    -0.504 OA
ATOM     19  H   UNL     1       7.528   9.277  12.929  1.00  0.00     0.293 HD
ENDBRANCH  15  18
BRANCH  17  20
ATOM     20  O   UNL     1       9.308  11.255  10.441  1.00  0.00    -0.504 OA
ATOM     21  H   UNL     1       9.971  11.462   9.703  1.00  0.00     0.293 HD
ENDBRANCH  17  20
ENDBRANCH   1  12
BRANCH   2  22
ATOM     22  O   UNL     1       6.621  13.884   7.826  1.00  0.00    -0.502 OA
ATOM     23  H   UNL     1       6.913  14.794   7.489  1.00  0.00     0.293 HD
ENDBRANCH   2  22
BRANCH   9  24
ATOM     24  O   UNL     1       0.764  10.622   3.890  1.00  0.00    -0.508 OA
ATOM     25  H   UNL     1       0.981   9.842   3.280  1.00  0.00     0.293 HD
ENDBRANCH   9  24
TORSDOF 5
ENDMDL
