MODEL 1
REMARK VINA RESULT:    -6.364      0.000      0.000
REMARK INTER + INTRA:         -13.037
REMARK INTER:                 -11.572
REMARK INTRA:                  -1.465
REMARK UNBOUND:                -1.465
REMARK SMILES CCCCCC=CCC=CCCCCCCCC(=O)[O-]
REMARK SMILES IDX 11 1 12 2 13 3 14 4 15 5 16 6 17 7 18 8 19 9 20 10 10 11
REMARK SMILES IDX 9 12 8 13 7 14 6 15 5 16 4 17 3 18 2 19 1 20
REMARK H PARENT
REMARK Flexibility Score: inf
ROOT
ATOM      1  C   UNL     1      -3.126  11.800 -18.649  1.00  0.00     0.027 C 
ENDROOT
BRANCH   1   2
ATOM      2  C   UNL     1      -4.324  12.245 -19.502  1.00  0.00     0.004 C 
BRANCH   2   3
ATOM      3  C   UNL     1      -5.108  11.076 -20.124  1.00  0.00     0.000 C 
BRANCH   3   4
ATOM      4  C   UNL     1      -6.305  11.554 -20.965  1.00  0.00     0.000 C 
BRANCH   4   5
ATOM      5  C   UNL     1      -7.654  11.110 -20.378  1.00  0.00     0.000 C 
BRANCH   5   6
ATOM      6  C   UNL     1      -7.544  10.665 -18.912  1.00  0.00     0.006 C 
BRANCH   6   7
ATOM      7  C   UNL     1      -7.626  11.868 -17.967  1.00  0.00     0.053 C 
BRANCH   7   8
ATOM      8  C   UNL     1      -7.564  11.420 -16.541  1.00  0.00     0.041 C 
ATOM      9  O   UNL     1      -8.288  11.973 -15.672  1.00  0.00    -0.550 OA
ATOM     10  O   UNL     1      -6.671  10.426 -16.162  1.00  0.00    -0.550 OA
ENDBRANCH   7   8
ENDBRANCH   6   7
ENDBRANCH   5   6
ENDBRANCH   4   5
ENDBRANCH   3   4
ENDBRANCH   2   3
ENDBRANCH   1   2
BRANCH   1  11
ATOM     11  C   UNL     1      -3.522  10.736 -17.653  1.00  0.00    -0.031 C 
ATOM     12  C   UNL     1      -3.023   9.486 -17.617  1.00  0.00    -0.027 C 
BRANCH  12  13
ATOM     13  C   UNL     1      -1.959   8.955 -18.541  1.00  0.00     0.054 C 
BRANCH  13  14
ATOM     14  C   UNL     1      -0.568   9.260 -18.041  1.00  0.00    -0.027 C 
ATOM     15  C   UNL     1       0.537   8.561 -18.365  1.00  0.00    -0.031 C 
BRANCH  15  16
ATOM     16  C   UNL     1       0.552   7.324 -19.227  1.00  0.00     0.027 C 
BRANCH  16  17
ATOM     17  C   UNL     1       0.179   6.088 -18.395  1.00  0.00     0.004 C 
BRANCH  17  18
ATOM     18  C   UNL     1      -0.600   5.042 -19.207  1.00  0.00     0.000 C 
BRANCH  18  19
ATOM     19  C   UNL     1      -1.967   4.714 -18.589  1.00  0.00    -0.003 C 
ATOM     20  C   UNL     1      -2.222   5.559 -17.343  1.00  0.00     0.004 C 
ENDBRANCH  18  19
ENDBRANCH  17  18
ENDBRANCH  16  17
ENDBRANCH  15  16
ENDBRANCH  13  14
ENDBRANCH  12  13
ENDBRANCH   1  11
TORSDOF 14
ENDMDL
MODEL 2
REMARK VINA RESULT:    -6.118      2.617      7.451
REMARK INTER + INTRA:         -12.591
REMARK INTER:                 -11.153
REMARK INTRA:                  -1.438
REMARK UNBOUND:                -1.465
REMARK SMILES CCCCCC=CCC=CCCCCCCCC(=O)[O-]
REMARK SMILES IDX 11 1 12 2 13 3 14 4 15 5 16 6 17 7 18 8 19 9 20 10 10 11
REMARK SMILES IDX 9 12 8 13 7 14 6 15 5 16 4 17 3 18 2 19 1 20
REMARK H PARENT
REMARK Flexibility Score: inf
ROOT
ATOM      1  C   UNL     1      -3.632  10.111 -17.753  1.00  0.00     0.027 C 
ENDROOT
BRANCH   1   2
ATOM      2  C   UNL     1      -2.778   8.840 -17.881  1.00  0.00     0.004 C 
BRANCH   2   3
ATOM      3  C   UNL     1      -1.275   9.121 -18.057  1.00  0.00     0.000 C 
BRANCH   3   4
ATOM      4  C   UNL     1      -0.632   8.221 -19.127  1.00  0.00     0.000 C 
BRANCH   4   5
ATOM      5  C   UNL     1       0.613   7.485 -18.608  1.00  0.00     0.000 C 
BRANCH   5   6
ATOM      6  C   UNL     1       0.264   6.219 -17.811  1.00  0.00     0.006 C 
BRANCH   6   7
ATOM      7  C   UNL     1      -0.338   5.146 -18.723  1.00  0.00     0.053 C 
BRANCH   7   8
ATOM      8  C   UNL     1      -1.787   4.946 -18.411  1.00  0.00     0.041 C 
ATOM      9  O   UNL     1      -2.281   5.429 -17.358  1.00  0.00    -0.550 OA
ATOM     10  O   UNL     1      -2.582   4.184 -19.257  1.00  0.00    -0.550 OA
ENDBRANCH   7   8
ENDBRANCH   6   7
ENDBRANCH   5   6
ENDBRANCH   4   5
ENDBRANCH   3   4
ENDBRANCH   2   3
ENDBRANCH   1   2
BRANCH   1  11
ATOM     11  C   UNL     1      -2.825  11.351 -18.059  1.00  0.00    -0.031 C 
ATOM     12  C   UNL     1      -3.247  12.382 -18.816  1.00  0.00    -0.027 C 
BRANCH  12  13
ATOM     13  C   UNL     1      -4.609  12.484 -19.452  1.00  0.00     0.054 C 
BRANCH  13  14
ATOM     14  C   UNL     1      -4.832  11.412 -20.491  1.00  0.00    -0.027 C 
ATOM     15  C   UNL     1      -6.036  11.038 -20.965  1.00  0.00    -0.031 C 
BRANCH  15  16
ATOM     16  C   UNL     1      -7.357  11.586 -20.488  1.00  0.00     0.027 C 
BRANCH  16  17
ATOM     17  C   UNL     1      -8.040  10.586 -19.543  1.00  0.00     0.004 C 
BRANCH  17  18
ATOM     18  C   UNL     1      -7.467  10.635 -18.117  1.00  0.00     0.000 C 
BRANCH  18  19
ATOM     19  C   UNL     1      -7.682  11.997 -17.442  1.00  0.00    -0.003 C 
ATOM     20  C   UNL     1      -8.045  11.828 -15.969  1.00  0.00     0.004 C 
ENDBRANCH  18  19
ENDBRANCH  17  18
ENDBRANCH  16  17
ENDBRANCH  15  16
ENDBRANCH  13  14
ENDBRANCH  12  13
ENDBRANCH   1  11
TORSDOF 14
ENDMDL
MODEL 3
REMARK VINA RESULT:    -5.706      2.866      7.391
REMARK INTER + INTRA:         -11.840
REMARK INTER:                 -10.661
REMARK INTRA:                  -1.179
REMARK UNBOUND:                -1.465
REMARK SMILES CCCCCC=CCC=CCCCCCCCC(=O)[O-]
REMARK SMILES IDX 11 1 12 2 13 3 14 4 15 5 16 6 17 7 18 8 19 9 20 10 10 11
REMARK SMILES IDX 9 12 8 13 7 14 6 15 5 16 4 17 3 18 2 19 1 20
REMARK H PARENT
REMARK Flexibility Score: inf
ROOT
ATOM      1  C   UNL     1      -5.072  10.104 -17.386  1.00  0.00     0.027 C 
ENDROOT
BRANCH   1   2
ATOM      2  C   UNL     1      -3.749   9.621 -16.773  1.00  0.00     0.004 C 
BRANCH   2   3
ATOM      3  C   UNL     1      -2.918   8.734 -17.718  1.00  0.00     0.000 C 
BRANCH   3   4
ATOM      4  C   UNL     1      -1.755   9.502 -18.371  1.00  0.00     0.000 C 
BRANCH   4   5
ATOM      5  C   UNL     1      -0.400   8.805 -18.169  1.00  0.00     0.000 C 
BRANCH   5   6
ATOM      6  C   UNL     1      -0.247   7.546 -19.035  1.00  0.00     0.006 C 
BRANCH   6   7
ATOM      7  C   UNL     1      -0.117   6.294 -18.162  1.00  0.00     0.053 C 
BRANCH   7   8
ATOM      8  C   UNL     1      -1.070   5.236 -18.618  1.00  0.00     0.041 C 
ATOM      9  O   UNL     1      -1.977   4.824 -17.847  1.00  0.00    -0.550 OA
ATOM     10  O   UNL     1      -0.926   4.666 -19.877  1.00  0.00    -0.550 OA
ENDBRANCH   7   8
ENDBRANCH   6   7
ENDBRANCH   5   6
ENDBRANCH   4   5
ENDBRANCH   3   4
ENDBRANCH   2   3
ENDBRANCH   1   2
BRANCH   1  11
ATOM     11  C   UNL     1      -6.110  10.368 -16.321  1.00  0.00    -0.031 C 
ATOM     12  C   UNL     1      -7.235  11.086 -16.498  1.00  0.00    -0.027 C 
BRANCH  12  13
ATOM     13  C   UNL     1      -7.663  11.713 -17.800  1.00  0.00     0.054 C 
BRANCH  13  14
ATOM     14  C   UNL     1      -7.990  10.678 -18.848  1.00  0.00    -0.027 C 
ATOM     15  C   UNL     1      -7.535  10.696 -20.116  1.00  0.00    -0.031 C 
BRANCH  15  16
ATOM     16  C   UNL     1      -6.678  11.786 -20.708  1.00  0.00     0.027 C 
BRANCH  16  17
ATOM     17  C   UNL     1      -5.205  11.573 -20.330  1.00  0.00     0.004 C 
BRANCH  17  18
ATOM     18  C   UNL     1      -4.632  12.737 -19.507  1.00  0.00     0.000 C 
BRANCH  18  19
ATOM     19  C   UNL     1      -3.157  12.527 -19.138  1.00  0.00    -0.003 C 
ATOM     20  C   UNL     1      -2.469  13.859 -18.845  1.00  0.00     0.004 C 
ENDBRANCH  18  19
ENDBRANCH  17  18
ENDBRANCH  16  17
ENDBRANCH  15  16
ENDBRANCH  13  14
ENDBRANCH  12  13
ENDBRANCH   1  11
TORSDOF 14
ENDMDL
MODEL 4
REMARK VINA RESULT:    -5.656      4.422      5.621
REMARK INTER + INTRA:         -11.750
REMARK INTER:                 -10.523
REMARK INTRA:                  -1.227
REMARK UNBOUND:                -1.465
REMARK SMILES CCCCCC=CCC=CCCCCCCCC(=O)[O-]
REMARK SMILES IDX 11 1 12 2 13 3 14 4 15 5 16 6 17 7 18 8 19 9 20 10 10 11
REMARK SMILES IDX 9 12 8 13 7 14 6 15 5 16 4 17 3 18 2 19 1 20
REMARK H PARENT
REMARK Flexibility Score: inf
ROOT
ATOM      1  C   UNL     1      -4.467  10.792 -19.181  1.00  0.00     0.027 C 
ENDROOT
BRANCH   1   2
ATOM      2  C   UNL     1      -4.196  12.301 -19.287  1.00  0.00     0.004 C 
BRANCH   2   3
ATOM      3  C   UNL     1      -2.833  12.725 -18.710  1.00  0.00     0.000 C 
BRANCH   3   4
ATOM      4  C   UNL     1      -2.443  14.157 -19.119  1.00  0.00     0.000 C 
BRANCH   4   5
ATOM      5  C   UNL     1      -1.821  14.952 -17.961  1.00  0.00     0.000 C 
BRANCH   5   6
ATOM      6  C   UNL     1      -1.370  16.358 -18.383  1.00  0.00     0.006 C 
BRANCH   6   7
ATOM      7  C   UNL     1       0.149  16.414 -18.568  1.00  0.00     0.053 C 
BRANCH   7   8
ATOM      8  C   UNL     1       0.574  17.779 -19.008  1.00  0.00     0.041 C 
ATOM      9  O   UNL     1      -0.279  18.696 -19.141  1.00  0.00    -0.550 OA
ATOM     10  O   UNL     1       1.905  18.027 -19.319  1.00  0.00    -0.550 OA
ENDBRANCH   7   8
ENDBRANCH   6   7
ENDBRANCH   5   6
ENDBRANCH   4   5
ENDBRANCH   3   4
ENDBRANCH   2   3
ENDBRANCH   1   2
BRANCH   1  11
ATOM     11  C   UNL     1      -4.394  10.317 -17.749  1.00  0.00    -0.031 C 
ATOM     12  C   UNL     1      -3.547   9.379 -17.287  1.00  0.00    -0.027 C 
BRANCH  12  13
ATOM     13  C   UNL     1      -2.505   8.674 -18.116  1.00  0.00     0.054 C 
BRANCH  13  14
ATOM     14  C   UNL     1      -1.184   9.405 -18.108  1.00  0.00    -0.027 C 
ATOM     15  C   UNL     1      -0.021   8.898 -18.561  1.00  0.00    -0.031 C 
BRANCH  15  16
ATOM     16  C   UNL     1       0.160   7.497 -19.088  1.00  0.00     0.027 C 
BRANCH  16  17
ATOM     17  C   UNL     1       0.547   6.543 -17.949  1.00  0.00     0.004 C 
BRANCH  17  18
ATOM     18  C   UNL     1      -0.444   5.379 -17.789  1.00  0.00     0.000 C 
BRANCH  18  19
ATOM     19  C   UNL     1      -0.942   4.841 -19.138  1.00  0.00    -0.003 C 
ATOM     20  C   UNL     1      -2.373   4.320 -19.026  1.00  0.00     0.004 C 
ENDBRANCH  18  19
ENDBRANCH  17  18
ENDBRANCH  16  17
ENDBRANCH  15  16
ENDBRANCH  13  14
ENDBRANCH  12  13
ENDBRANCH   1  11
TORSDOF 14
ENDMDL
MODEL 5
REMARK VINA RESULT:    -5.199      1.818      2.245
REMARK INTER + INTRA:         -10.918
REMARK INTER:                  -9.378
REMARK INTRA:                  -1.540
REMARK UNBOUND:                -1.465
REMARK SMILES CCCCCC=CCC=CCCCCCCCC(=O)[O-]
REMARK SMILES IDX 11 1 12 2 13 3 14 4 15 5 16 6 17 7 18 8 19 9 20 10 10 11
REMARK SMILES IDX 9 12 8 13 7 14 6 15 5 16 4 17 3 18 2 19 1 20
REMARK H PARENT
REMARK Flexibility Score: inf
ROOT
ATOM      1  C   UNL     1      -3.844  10.763 -19.173  1.00  0.00     0.027 C 
ENDROOT
BRANCH   1   2
ATOM      2  C   UNL     1      -3.420  12.237 -19.092  1.00  0.00     0.004 C 
BRANCH   2   3
ATOM      3  C   UNL     1      -4.571  13.226 -19.351  1.00  0.00     0.000 C 
BRANCH   3   4
ATOM      4  C   UNL     1      -5.888  12.513 -19.703  1.00  0.00     0.000 C 
BRANCH   4   5
ATOM      5  C   UNL     1      -6.983  12.743 -18.649  1.00  0.00     0.000 C 
BRANCH   5   6
ATOM      6  C   UNL     1      -7.570  11.430 -18.110  1.00  0.00     0.006 C 
BRANCH   6   7
ATOM      7  C   UNL     1      -7.402  10.297 -19.126  1.00  0.00     0.053 C 
BRANCH   7   8
ATOM      8  C   UNL     1      -8.663  10.099 -19.904  1.00  0.00     0.041 C 
ATOM      9  O   UNL     1      -9.418   9.123 -19.650  1.00  0.00    -0.550 OA
ATOM     10  O   UNL     1      -8.982  10.962 -20.944  1.00  0.00    -0.550 OA
ENDBRANCH   7   8
ENDBRANCH   6   7
ENDBRANCH   5   6
ENDBRANCH   4   5
ENDBRANCH   3   4
ENDBRANCH   2   3
ENDBRANCH   1   2
BRANCH   1  11
ATOM     11  C   UNL     1      -4.004  10.158 -17.799  1.00  0.00    -0.031 C 
ATOM     12  C   UNL     1      -3.317   9.098 -17.334  1.00  0.00    -0.027 C 
BRANCH  12  13
ATOM     13  C   UNL     1      -2.246   8.363 -18.097  1.00  0.00     0.054 C 
BRANCH  13  14
ATOM     14  C   UNL     1      -0.965   9.157 -18.186  1.00  0.00    -0.027 C 
ATOM     15  C   UNL     1       0.220   8.664 -18.593  1.00  0.00    -0.031 C 
BRANCH  15  16
ATOM     16  C   UNL     1       0.472   7.224 -18.964  1.00  0.00     0.027 C 
BRANCH  16  17
ATOM     17  C   UNL     1       0.539   6.351 -17.703  1.00  0.00     0.004 C 
BRANCH  17  18
ATOM     18  C   UNL     1      -0.287   5.061 -17.832  1.00  0.00     0.000 C 
BRANCH  18  19
ATOM     19  C   UNL     1      -0.962   4.929 -19.204  1.00  0.00    -0.003 C 
ATOM     20  C   UNL     1      -2.367   4.347 -19.071  1.00  0.00     0.004 C 
ENDBRANCH  18  19
ENDBRANCH  17  18
ENDBRANCH  16  17
ENDBRANCH  15  16
ENDBRANCH  13  14
ENDBRANCH  12  13
ENDBRANCH   1  11
TORSDOF 14
ENDMDL
MODEL 6
REMARK VINA RESULT:    -5.185      1.550      3.032
REMARK INTER + INTRA:         -10.892
REMARK INTER:                  -9.495
REMARK INTRA:                  -1.398
REMARK UNBOUND:                -1.465
REMARK SMILES CCCCCC=CCC=CCCCCCCCC(=O)[O-]
REMARK SMILES IDX 11 1 12 2 13 3 14 4 15 5 16 6 17 7 18 8 19 9 20 10 10 11
REMARK SMILES IDX 9 12 8 13 7 14 6 15 5 16 4 17 3 18 2 19 1 20
REMARK H PARENT
REMARK Flexibility Score: inf
ROOT
ATOM      1  C   UNL     1      -2.323   8.957 -18.186  1.00  0.00     0.027 C 
ENDROOT
BRANCH   1   2
ATOM      2  C   UNL     1      -3.339   9.580 -17.215  1.00  0.00     0.004 C 
BRANCH   2   3
ATOM      3  C   UNL     1      -4.541  10.236 -17.916  1.00  0.00     0.000 C 
BRANCH   3   4
ATOM      4  C   UNL     1      -4.181  10.786 -19.307  1.00  0.00     0.000 C 
BRANCH   4   5
ATOM      5  C   UNL     1      -4.498  12.283 -19.449  1.00  0.00     0.000 C 
BRANCH   5   6
ATOM      6  C   UNL     1      -5.998  12.556 -19.636  1.00  0.00     0.006 C 
BRANCH   6   7
ATOM      7  C   UNL     1      -6.628  11.530 -20.583  1.00  0.00     0.053 C 
BRANCH   7   8
ATOM      8  C   UNL     1      -7.838  10.913 -19.957  1.00  0.00     0.041 C 
ATOM      9  O   UNL     1      -7.881  10.722 -18.713  1.00  0.00    -0.550 OA
ATOM     10  O   UNL     1      -8.900  10.503 -20.752  1.00  0.00    -0.550 OA
ENDBRANCH   7   8
ENDBRANCH   6   7
ENDBRANCH   5   6
ENDBRANCH   4   5
ENDBRANCH   3   4
ENDBRANCH   2   3
ENDBRANCH   1   2
BRANCH   1  11
ATOM     11  C   UNL     1      -0.951   9.565 -18.014  1.00  0.00    -0.031 C 
ATOM     12  C   UNL     1       0.191   9.046 -18.502  1.00  0.00    -0.027 C 
BRANCH  12  13
ATOM     13  C   UNL     1       0.285   7.792 -19.331  1.00  0.00     0.054 C 
BRANCH  13  14
ATOM     14  C   UNL     1       0.687   6.594 -18.506  1.00  0.00    -0.027 C 
ATOM     15  C   UNL     1       0.312   5.325 -18.757  1.00  0.00    -0.031 C 
BRANCH  15  16
ATOM     16  C   UNL     1      -0.623   4.906 -19.864  1.00  0.00     0.027 C 
BRANCH  16  17
ATOM     17  C   UNL     1      -1.901   4.288 -19.279  1.00  0.00     0.004 C 
BRANCH  17  18
ATOM     18  C   UNL     1      -2.032   4.523 -17.766  1.00  0.00     0.000 C 
BRANCH  18  19
ATOM     19  C   UNL     1      -2.794   5.813 -17.433  1.00  0.00    -0.003 C 
ATOM     20  C   UNL     1      -2.839   6.051 -15.926  1.00  0.00     0.004 C 
ENDBRANCH  18  19
ENDBRANCH  17  18
ENDBRANCH  16  17
ENDBRANCH  15  16
ENDBRANCH  13  14
ENDBRANCH  12  13
ENDBRANCH   1  11
TORSDOF 14
ENDMDL
MODEL 7
REMARK VINA RESULT:    -5.183      1.791      2.928
REMARK INTER + INTRA:         -10.889
REMARK INTER:                 -10.049
REMARK INTRA:                  -0.840
REMARK UNBOUND:                -1.465
REMARK SMILES CCCCCC=CCC=CCCCCCCCC(=O)[O-]
REMARK SMILES IDX 11 1 12 2 13 3 14 4 15 5 16 6 17 7 18 8 19 9 20 10 10 11
REMARK SMILES IDX 9 12 8 13 7 14 6 15 5 16 4 17 3 18 2 19 1 20
REMARK H PARENT
REMARK Flexibility Score: inf
ROOT
ATOM      1  C   UNL     1      -3.949  10.176 -16.934  1.00  0.00     0.027 C 
ENDROOT
BRANCH   1   2
ATOM      2  C   UNL     1      -5.427  10.176 -17.356  1.00  0.00     0.004 C 
BRANCH   2   3
ATOM      3  C   UNL     1      -6.402  10.431 -16.192  1.00  0.00     0.000 C 
BRANCH   3   4
ATOM      4  C   UNL     1      -7.748  11.004 -16.669  1.00  0.00     0.000 C 
BRANCH   4   5
ATOM      5  C   UNL     1      -7.626  11.767 -17.998  1.00  0.00     0.000 C 
BRANCH   5   6
ATOM      6  C   UNL     1      -7.816  10.859 -19.222  1.00  0.00     0.006 C 
BRANCH   6   7
ATOM      7  C   UNL     1      -7.327  11.551 -20.498  1.00  0.00     0.053 C 
BRANCH   7   8
ATOM      8  C   UNL     1      -5.841  11.721 -20.465  1.00  0.00     0.041 C 
ATOM      9  O   UNL     1      -5.094  10.863 -21.006  1.00  0.00    -0.550 OA
ATOM     10  O   UNL     1      -5.279  12.799 -19.796  1.00  0.00    -0.550 OA
ENDBRANCH   7   8
ENDBRANCH   6   7
ENDBRANCH   5   6
ENDBRANCH   4   5
ENDBRANCH   3   4
ENDBRANCH   2   3
ENDBRANCH   1   2
BRANCH   1  11
ATOM     11  C   UNL     1      -3.067  10.760 -18.012  1.00  0.00    -0.031 C 
ATOM     12  C   UNL     1      -1.981  10.160 -18.533  1.00  0.00    -0.027 C 
BRANCH  12  13
ATOM     13  C   UNL     1      -1.488   8.788 -18.152  1.00  0.00     0.054 C 
BRANCH  13  14
ATOM     14  C   UNL     1      -0.303   8.359 -18.984  1.00  0.00    -0.027 C 
ATOM     15  C   UNL     1       0.564   7.386 -18.644  1.00  0.00    -0.031 C 
BRANCH  15  16
ATOM     16  C   UNL     1       0.528   6.613 -17.350  1.00  0.00     0.027 C 
BRANCH  16  17
ATOM     17  C   UNL     1      -0.059   5.213 -17.580  1.00  0.00     0.004 C 
BRANCH  17  18
ATOM     18  C   UNL     1      -1.596   5.212 -17.601  1.00  0.00     0.000 C 
BRANCH  18  19
ATOM     19  C   UNL     1      -2.168   4.557 -18.866  1.00  0.00    -0.003 C 
ATOM     20  C   UNL     1      -1.174   4.635 -20.022  1.00  0.00     0.004 C 
ENDBRANCH  18  19
ENDBRANCH  17  18
ENDBRANCH  16  17
ENDBRANCH  15  16
ENDBRANCH  13  14
ENDBRANCH  12  13
ENDBRANCH   1  11
TORSDOF 14
ENDMDL
MODEL 8
REMARK VINA RESULT:    -5.128      2.904      7.522
REMARK INTER + INTRA:         -10.790
REMARK INTER:                  -9.343
REMARK INTRA:                  -1.447
REMARK UNBOUND:                -1.465
REMARK SMILES CCCCCC=CCC=CCCCCCCCC(=O)[O-]
REMARK SMILES IDX 11 1 12 2 13 3 14 4 15 5 16 6 17 7 18 8 19 9 20 10 10 11
REMARK SMILES IDX 9 12 8 13 7 14 6 15 5 16 4 17 3 18 2 19 1 20
REMARK H PARENT
REMARK Flexibility Score: inf
ROOT
ATOM      1  C   UNL     1      -2.715   7.926 -17.732  1.00  0.00     0.027 C 
ENDROOT
BRANCH   1   2
ATOM      2  C   UNL     1      -2.529   6.664 -16.875  1.00  0.00     0.004 C 
BRANCH   2   3
ATOM      3  C   UNL     1      -2.754   5.353 -17.648  1.00  0.00     0.000 C 
BRANCH   3   4
ATOM      4  C   UNL     1      -1.435   4.638 -17.988  1.00  0.00     0.000 C 
BRANCH   4   5
ATOM      5  C   UNL     1      -0.882   5.042 -19.363  1.00  0.00     0.000 C 
BRANCH   5   6
ATOM      6  C   UNL     1       0.461   5.782 -19.267  1.00  0.00     0.006 C 
BRANCH   6   7
ATOM      7  C   UNL     1       0.256   7.298 -19.330  1.00  0.00     0.053 C 
BRANCH   7   8
ATOM      8  C   UNL     1       0.625   7.932 -18.027  1.00  0.00     0.041 C 
ATOM      9  O   UNL     1       0.778   9.180 -17.949  1.00  0.00    -0.550 OA
ATOM     10  O   UNL     1       0.850   7.141 -16.908  1.00  0.00    -0.550 OA
ENDBRANCH   7   8
ENDBRANCH   6   7
ENDBRANCH   5   6
ENDBRANCH   4   5
ENDBRANCH   3   4
ENDBRANCH   2   3
ENDBRANCH   1   2
BRANCH   1  11
ATOM     11  C   UNL     1      -3.498   8.985 -16.992  1.00  0.00    -0.031 C 
ATOM     12  C   UNL     1      -3.843  10.185 -17.495  1.00  0.00    -0.027 C 
BRANCH  12  13
ATOM     13  C   UNL     1      -3.537  10.655 -18.894  1.00  0.00     0.054 C 
BRANCH  13  14
ATOM     14  C   UNL     1      -4.090  12.033 -19.163  1.00  0.00    -0.027 C 
ATOM     15  C   UNL     1      -5.198  12.290 -19.885  1.00  0.00    -0.031 C 
BRANCH  15  16
ATOM     16  C   UNL     1      -6.027  11.247 -20.591  1.00  0.00     0.027 C 
BRANCH  16  17
ATOM     17  C   UNL     1      -7.494  11.340 -20.148  1.00  0.00     0.004 C 
BRANCH  17  18
ATOM     18  C   UNL     1      -7.754  10.626 -18.812  1.00  0.00     0.000 C 
BRANCH  18  19
ATOM     19  C   UNL     1      -7.644  11.571 -17.608  1.00  0.00    -0.003 C 
ATOM     20  C   UNL     1      -7.351  10.796 -16.326  1.00  0.00     0.004 C 
ENDBRANCH  18  19
ENDBRANCH  17  18
ENDBRANCH  16  17
ENDBRANCH  15  16
ENDBRANCH  13  14
ENDBRANCH  12  13
ENDBRANCH   1  11
TORSDOF 14
ENDMDL
MODEL 9
REMARK VINA RESULT:    -4.939      4.614      8.732
REMARK INTER + INTRA:         -10.445
REMARK INTER:                  -9.429
REMARK INTRA:                  -1.016
REMARK UNBOUND:                -1.465
REMARK SMILES CCCCCC=CCC=CCCCCCCCC(=O)[O-]
REMARK SMILES IDX 11 1 12 2 13 3 14 4 15 5 16 6 17 7 18 8 19 9 20 10 10 11
REMARK SMILES IDX 9 12 8 13 7 14 6 15 5 16 4 17 3 18 2 19 1 20
REMARK H PARENT
REMARK Flexibility Score: inf
ROOT
ATOM      1  C   UNL     1      -2.752  11.035 -17.675  1.00  0.00     0.027 C 
ENDROOT
BRANCH   1   2
ATOM      2  C   UNL     1      -3.135   9.552 -17.552  1.00  0.00     0.004 C 
BRANCH   2   3
ATOM      3  C   UNL     1      -2.222   8.609 -18.356  1.00  0.00     0.000 C 
BRANCH   3   4
ATOM      4  C   UNL     1      -0.732   8.959 -18.197  1.00  0.00     0.000 C 
BRANCH   4   5
ATOM      5  C   UNL     1       0.191   7.917 -18.850  1.00  0.00     0.000 C 
BRANCH   5   6
ATOM      6  C   UNL     1       0.227   6.591 -18.077  1.00  0.00     0.006 C 
BRANCH   6   7
ATOM      7  C   UNL     1      -0.303   5.440 -18.939  1.00  0.00     0.053 C 
BRANCH   7   8
ATOM      8  C   UNL     1      -1.663   5.024 -18.479  1.00  0.00     0.041 C 
ATOM      9  O   UNL     1      -2.095   5.399 -17.356  1.00  0.00    -0.550 OA
ATOM     10  O   UNL     1      -2.436   4.181 -19.265  1.00  0.00    -0.550 OA
ENDBRANCH   7   8
ENDBRANCH   6   7
ENDBRANCH   5   6
ENDBRANCH   4   5
ENDBRANCH   3   4
ENDBRANCH   2   3
ENDBRANCH   1   2
BRANCH   1  11
ATOM     11  C   UNL     1      -3.639  11.753 -18.665  1.00  0.00    -0.031 C 
ATOM     12  C   UNL     1      -3.357  12.938 -19.239  1.00  0.00    -0.027 C 
BRANCH  12  13
ATOM     13  C   UNL     1      -2.091  13.725 -19.017  1.00  0.00     0.054 C 
BRANCH  13  14
ATOM     14  C   UNL     1      -2.308  14.901 -18.096  1.00  0.00    -0.027 C 
ATOM     15  C   UNL     1      -1.475  15.953 -17.982  1.00  0.00    -0.031 C 
BRANCH  15  16
ATOM     16  C   UNL     1      -0.160  16.093 -18.707  1.00  0.00     0.027 C 
BRANCH  16  17
ATOM     17  C   UNL     1       0.110  17.567 -19.043  1.00  0.00     0.004 C 
BRANCH  17  18
ATOM     18  C   UNL     1      -1.118  18.461 -18.811  1.00  0.00     0.000 C 
BRANCH  18  19
ATOM     19  C   UNL     1      -0.760  19.786 -18.122  1.00  0.00    -0.003 C 
ATOM     20  C   UNL     1       0.753  19.970 -18.038  1.00  0.00     0.004 C 
ENDBRANCH  18  19
ENDBRANCH  17  18
ENDBRANCH  16  17
ENDBRANCH  15  16
ENDBRANCH  13  14
ENDBRANCH  12  13
ENDBRANCH   1  11
TORSDOF 14
ENDMDL
