MODEL 1
REMARK VINA RESULT:    -3.870      0.000      0.000
REMARK INTER + INTRA:          -9.924
REMARK INTER:                  -7.263
REMARK INTRA:                  -2.661
REMARK UNBOUND:                -2.661
REMARK SMILES CCCCCCCCC=CCCCCCCCC(=O)[O-]
REMARK SMILES IDX 10 1 9 2 11 3 12 4 13 5 14 6 15 7 16 8 17 9 18 10 19 11
REMARK SMILES IDX 20 12 8 13 7 14 6 15 5 16 4 17 3 18 2 19 1 20
REMARK H PARENT
REMARK Flexibility Score: inf
ROOT
ATOM      1  C   UNL     1      18.851   4.108  44.598  1.00  0.00    -0.031 C 
ATOM      2  C   UNL     1      18.227   4.298  45.776  1.00  0.00    -0.031 C 
ENDROOT
BRANCH   1   3
ATOM      3  C   UNL     1      19.965   4.976  44.071  1.00  0.00     0.027 C 
BRANCH   3   4
ATOM      4  C   UNL     1      20.019   4.914  42.537  1.00  0.00     0.004 C 
BRANCH   4   5
ATOM      5  C   UNL     1      19.051   5.903  41.871  1.00  0.00     0.000 C 
BRANCH   5   6
ATOM      6  C   UNL     1      18.933   7.227  42.640  1.00  0.00     0.000 C 
BRANCH   6   7
ATOM      7  C   UNL     1      17.486   7.478  43.083  1.00  0.00     0.000 C 
BRANCH   7   8
ATOM      8  C   UNL     1      17.440   8.151  44.459  1.00  0.00     0.006 C 
BRANCH   8   9
ATOM      9  C   UNL     1      18.821   8.673  44.864  1.00  0.00     0.053 C 
BRANCH   9  10
ATOM     10  C   UNL     1      18.819  10.166  44.930  1.00  0.00     0.041 C 
ATOM     11  O   UNL     1      19.457  10.839  44.077  1.00  0.00    -0.550 OA
ATOM     12  O   UNL     1      18.068  10.819  45.900  1.00  0.00    -0.550 OA
ENDBRANCH   9  10
ENDBRANCH   8   9
ENDBRANCH   7   8
ENDBRANCH   6   7
ENDBRANCH   5   6
ENDBRANCH   4   5
ENDBRANCH   3   4
ENDBRANCH   1   3
BRANCH   2  13
ATOM     13  C   UNL     1      18.484   5.461  46.705  1.00  0.00     0.027 C 
BRANCH  13  14
ATOM     14  C   UNL     1      17.213   5.886  47.456  1.00  0.00     0.004 C 
BRANCH  14  15
ATOM     15  C   UNL     1      15.934   5.514  46.685  1.00  0.00     0.000 C 
BRANCH  15  16
ATOM     16  C   UNL     1      14.761   5.173  47.618  1.00  0.00     0.000 C 
BRANCH  16  17
ATOM     17  C   UNL     1      15.031   3.931  48.481  1.00  0.00    -0.000 C 
BRANCH  17  18
ATOM     18  C   UNL     1      15.372   2.719  47.606  1.00  0.00    -0.000 C 
BRANCH  18  19
ATOM     19  C   UNL     1      16.349   1.780  48.323  1.00  0.00    -0.003 C 
ATOM     20  C   UNL     1      17.017   2.478  49.504  1.00  0.00     0.004 C 
ENDBRANCH  18  19
ENDBRANCH  17  18
ENDBRANCH  16  17
ENDBRANCH  15  16
ENDBRANCH  14  15
ENDBRANCH  13  14
ENDBRANCH   2  13
TORSDOF 15
ENDMDL
MODEL 2
REMARK VINA RESULT:    -3.864      2.789      3.342
REMARK INTER + INTRA:          -9.914
REMARK INTER:                  -7.688
REMARK INTRA:                  -2.226
REMARK UNBOUND:                -2.661
REMARK SMILES CCCCCCCCC=CCCCCCCCC(=O)[O-]
REMARK SMILES IDX 10 1 9 2 11 3 12 4 13 5 14 6 15 7 16 8 17 9 18 10 19 11
REMARK SMILES IDX 20 12 8 13 7 14 6 15 5 16 4 17 3 18 2 19 1 20
REMARK H PARENT
REMARK Flexibility Score: inf
ROOT
ATOM      1  C   UNL     1      18.622   4.502  45.578  1.00  0.00    -0.031 C 
ATOM      2  C   UNL     1      17.473   5.153  45.840  1.00  0.00    -0.031 C 
ENDROOT
BRANCH   1   3
ATOM      3  C   UNL     1      19.971   5.163  45.458  1.00  0.00     0.027 C 
BRANCH   3   4
ATOM      4  C   UNL     1      20.370   5.316  43.983  1.00  0.00     0.004 C 
BRANCH   4   5
ATOM      5  C   UNL     1      20.399   6.783  43.528  1.00  0.00     0.000 C 
BRANCH   5   6
ATOM      6  C   UNL     1      19.110   7.205  42.807  1.00  0.00     0.000 C 
BRANCH   6   7
ATOM      7  C   UNL     1      18.460   6.008  42.101  1.00  0.00     0.000 C 
BRANCH   7   8
ATOM      8  C   UNL     1      16.938   6.018  42.291  1.00  0.00     0.006 C 
BRANCH   8   9
ATOM      9  C   UNL     1      16.300   7.203  41.560  1.00  0.00     0.053 C 
BRANCH   9  10
ATOM     10  C   UNL     1      15.670   6.752  40.281  1.00  0.00     0.041 C 
ATOM     11  O   UNL     1      16.302   6.846  39.196  1.00  0.00    -0.550 OA
ATOM     12  O   UNL     1      14.405   6.178  40.293  1.00  0.00    -0.550 OA
ENDBRANCH   9  10
ENDBRANCH   8   9
ENDBRANCH   7   8
ENDBRANCH   6   7
ENDBRANCH   5   6
ENDBRANCH   4   5
ENDBRANCH   3   4
ENDBRANCH   1   3
BRANCH   2  13
ATOM     13  C   UNL     1      17.346   6.653  45.962  1.00  0.00     0.027 C 
BRANCH  13  14
ATOM     14  C   UNL     1      16.133   7.058  46.813  1.00  0.00     0.004 C 
BRANCH  14  15
ATOM     15  C   UNL     1      16.083   6.295  48.148  1.00  0.00     0.000 C 
BRANCH  15  16
ATOM     16  C   UNL     1      14.772   5.514  48.334  1.00  0.00     0.000 C 
BRANCH  16  17
ATOM     17  C   UNL     1      15.007   4.028  48.649  1.00  0.00    -0.000 C 
BRANCH  17  18
ATOM     18  C   UNL     1      16.481   3.763  48.977  1.00  0.00    -0.000 C 
BRANCH  18  19
ATOM     19  C   UNL     1      16.804   2.268  48.888  1.00  0.00    -0.003 C 
ATOM     20  C   UNL     1      15.591   1.469  48.418  1.00  0.00     0.004 C 
ENDBRANCH  18  19
ENDBRANCH  17  18
ENDBRANCH  16  17
ENDBRANCH  15  16
ENDBRANCH  14  15
ENDBRANCH  13  14
ENDBRANCH   2  13
TORSDOF 15
ENDMDL
MODEL 3
REMARK VINA RESULT:    -3.552      3.466      5.615
REMARK INTER + INTRA:          -9.327
REMARK INTER:                  -7.072
REMARK INTRA:                  -2.255
REMARK UNBOUND:                -2.661
REMARK SMILES CCCCCCCCC=CCCCCCCCC(=O)[O-]
REMARK SMILES IDX 10 1 9 2 11 3 12 4 13 5 14 6 15 7 16 8 17 9 18 10 19 11
REMARK SMILES IDX 20 12 8 13 7 14 6 15 5 16 4 17 3 18 2 19 1 20
REMARK H PARENT
REMARK Flexibility Score: inf
ROOT
ATOM      1  C   UNL     1      18.535   6.578  42.488  1.00  0.00    -0.031 C 
ATOM      2  C   UNL     1      18.104   7.775  42.927  1.00  0.00    -0.031 C 
ENDROOT
BRANCH   1   3
ATOM      3  C   UNL     1      19.828   5.928  42.909  1.00  0.00     0.027 C 
BRANCH   3   4
ATOM      4  C   UNL     1      19.556   4.704  43.796  1.00  0.00     0.004 C 
BRANCH   4   5
ATOM      5  C   UNL     1      19.468   5.061  45.287  1.00  0.00     0.000 C 
BRANCH   5   6
ATOM      6  C   UNL     1      18.213   4.486  45.961  1.00  0.00     0.000 C 
BRANCH   6   7
ATOM      7  C   UNL     1      17.885   5.248  47.252  1.00  0.00     0.000 C 
BRANCH   7   8
ATOM      8  C   UNL     1      17.048   4.384  48.202  1.00  0.00     0.006 C 
BRANCH   8   9
ATOM      9  C   UNL     1      16.297   3.291  47.437  1.00  0.00     0.053 C 
BRANCH   9  10
ATOM     10  C   UNL     1      16.054   2.107  48.317  1.00  0.00     0.041 C 
ATOM     11  O   UNL     1      17.023   1.428  48.748  1.00  0.00    -0.550 OA
ATOM     12  O   UNL     1      14.760   1.785  48.707  1.00  0.00    -0.550 OA
ENDBRANCH   9  10
ENDBRANCH   8   9
ENDBRANCH   7   8
ENDBRANCH   6   7
ENDBRANCH   5   6
ENDBRANCH   4   5
ENDBRANCH   3   4
ENDBRANCH   1   3
BRANCH   2  13
ATOM     13  C   UNL     1      18.890   8.690  43.834  1.00  0.00     0.027 C 
BRANCH  13  14
ATOM     14  C   UNL     1      18.432   8.580  45.296  1.00  0.00     0.004 C 
BRANCH  14  15
ATOM     15  C   UNL     1      16.942   8.213  45.409  1.00  0.00     0.000 C 
BRANCH  15  16
ATOM     16  C   UNL     1      16.081   9.383  45.913  1.00  0.00     0.000 C 
BRANCH  16  17
ATOM     17  C   UNL     1      14.887   8.919  46.761  1.00  0.00    -0.000 C 
BRANCH  17  18
ATOM     18  C   UNL     1      15.027   7.440  47.142  1.00  0.00    -0.000 C 
BRANCH  18  19
ATOM     19  C   UNL     1      14.599   7.203  48.595  1.00  0.00    -0.003 C 
ATOM     20  C   UNL     1      13.798   5.912  48.729  1.00  0.00     0.004 C 
ENDBRANCH  18  19
ENDBRANCH  17  18
ENDBRANCH  16  17
ENDBRANCH  15  16
ENDBRANCH  14  15
ENDBRANCH  13  14
ENDBRANCH   2  13
TORSDOF 15
ENDMDL
MODEL 4
REMARK VINA RESULT:    -3.544      3.664      6.263
REMARK INTER + INTRA:          -9.312
REMARK INTER:                  -7.469
REMARK INTRA:                  -1.843
REMARK UNBOUND:                -2.661
REMARK SMILES CCCCCCCCC=CCCCCCCCC(=O)[O-]
REMARK SMILES IDX 10 1 9 2 11 3 12 4 13 5 14 6 15 7 16 8 17 9 18 10 19 11
REMARK SMILES IDX 20 12 8 13 7 14 6 15 5 16 4 17 3 18 2 19 1 20
REMARK H PARENT
REMARK Flexibility Score: inf
ROOT
ATOM      1  C   UNL     1      16.559  10.256  45.289  1.00  0.00    -0.031 C 
ATOM      2  C   UNL     1      17.435   9.242  45.163  1.00  0.00    -0.031 C 
ENDROOT
BRANCH   1   3
ATOM      3  C   UNL     1      15.061  10.091  45.338  1.00  0.00     0.027 C 
BRANCH   3   4
ATOM      4  C   UNL     1      14.576   9.978  46.791  1.00  0.00     0.004 C 
BRANCH   4   5
ATOM      5  C   UNL     1      13.898   8.631  47.085  1.00  0.00     0.000 C 
BRANCH   5   6
ATOM      6  C   UNL     1      14.723   7.747  48.032  1.00  0.00     0.000 C 
BRANCH   6   7
ATOM      7  C   UNL     1      14.017   7.583  49.384  1.00  0.00     0.000 C 
BRANCH   7   8
ATOM      8  C   UNL     1      13.089   6.362  49.375  1.00  0.00     0.006 C 
BRANCH   8   9
ATOM      9  C   UNL     1      11.752   6.682  50.049  1.00  0.00     0.053 C 
BRANCH   9  10
ATOM     10  C   UNL     1      11.046   7.779  49.318  1.00  0.00     0.041 C 
ATOM     11  O   UNL     1      10.860   8.894  49.874  1.00  0.00    -0.550 OA
ATOM     12  O   UNL     1      10.639   7.588  48.003  1.00  0.00    -0.550 OA
ENDBRANCH   9  10
ENDBRANCH   8   9
ENDBRANCH   7   8
ENDBRANCH   6   7
ENDBRANCH   5   6
ENDBRANCH   4   5
ENDBRANCH   3   4
ENDBRANCH   1   3
BRANCH   2  13
ATOM     13  C   UNL     1      17.051   7.796  44.959  1.00  0.00     0.027 C 
BRANCH  13  14
ATOM     14  C   UNL     1      17.690   6.879  46.013  1.00  0.00     0.004 C 
BRANCH  14  15
ATOM     15  C   UNL     1      16.862   5.603  46.247  1.00  0.00     0.000 C 
BRANCH  15  16
ATOM     16  C   UNL     1      17.388   4.766  47.424  1.00  0.00     0.000 C 
BRANCH  16  17
ATOM     17  C   UNL     1      16.268   4.299  48.367  1.00  0.00    -0.000 C 
BRANCH  17  18
ATOM     18  C   UNL     1      16.689   3.044  49.140  1.00  0.00    -0.000 C 
BRANCH  18  19
ATOM     19  C   UNL     1      15.628   1.944  49.023  1.00  0.00    -0.003 C 
ATOM     20  C   UNL     1      15.179   1.764  47.576  1.00  0.00     0.004 C 
ENDBRANCH  18  19
ENDBRANCH  17  18
ENDBRANCH  16  17
ENDBRANCH  15  16
ENDBRANCH  14  15
ENDBRANCH  13  14
ENDBRANCH   2  13
TORSDOF 15
ENDMDL
MODEL 5
REMARK VINA RESULT:    -3.518      4.994      7.968
REMARK INTER + INTRA:          -9.265
REMARK INTER:                  -7.121
REMARK INTRA:                  -2.144
REMARK UNBOUND:                -2.661
REMARK SMILES CCCCCCCCC=CCCCCCCCC(=O)[O-]
REMARK SMILES IDX 10 1 9 2 11 3 12 4 13 5 14 6 15 7 16 8 17 9 18 10 19 11
REMARK SMILES IDX 20 12 8 13 7 14 6 15 5 16 4 17 3 18 2 19 1 20
REMARK H PARENT
REMARK Flexibility Score: inf
ROOT
ATOM      1  C   UNL     1      11.964   7.491  52.026  1.00  0.00    -0.031 C 
ATOM      2  C   UNL     1      12.686   7.013  50.995  1.00  0.00    -0.031 C 
ENDROOT
BRANCH   1   3
ATOM      3  C   UNL     1      10.459   7.468  52.100  1.00  0.00     0.027 C 
BRANCH   3   4
ATOM      4  C   UNL     1       9.860   8.634  51.299  1.00  0.00     0.004 C 
BRANCH   4   5
ATOM      5  C   UNL     1      10.351  10.004  51.792  1.00  0.00     0.000 C 
BRANCH   5   6
ATOM      6  C   UNL     1      10.777  10.929  50.642  1.00  0.00     0.000 C 
BRANCH   6   7
ATOM      7  C   UNL     1      11.187  10.116  49.407  1.00  0.00     0.000 C 
BRANCH   7   8
ATOM      8  C   UNL     1      12.478  10.668  48.789  1.00  0.00     0.006 C 
BRANCH   8   9
ATOM      9  C   UNL     1      13.684  10.381  49.687  1.00  0.00     0.053 C 
BRANCH   9  10
ATOM     10  C   UNL     1      14.613  11.553  49.706  1.00  0.00     0.041 C 
ATOM     11  O   UNL     1      15.832  11.400  49.430  1.00  0.00    -0.550 OA
ATOM     12  O   UNL     1      14.123  12.824  49.977  1.00  0.00    -0.550 OA
ENDBRANCH   9  10
ENDBRANCH   8   9
ENDBRANCH   7   8
ENDBRANCH   6   7
ENDBRANCH   5   6
ENDBRANCH   4   5
ENDBRANCH   3   4
ENDBRANCH   1   3
BRANCH   2  13
ATOM     13  C   UNL     1      12.096   6.467  49.716  1.00  0.00     0.027 C 
BRANCH  13  14
ATOM     14  C   UNL     1      12.917   6.879  48.485  1.00  0.00     0.004 C 
BRANCH  14  15
ATOM     15  C   UNL     1      14.430   6.865  48.767  1.00  0.00     0.000 C 
BRANCH  15  16
ATOM     16  C   UNL     1      15.169   5.777  47.972  1.00  0.00     0.000 C 
BRANCH  16  17
ATOM     17  C   UNL     1      15.096   4.397  48.645  1.00  0.00    -0.000 C 
BRANCH  17  18
ATOM     18  C   UNL     1      16.499   3.816  48.858  1.00  0.00    -0.000 C 
BRANCH  18  19
ATOM     19  C   UNL     1      16.436   2.305  49.111  1.00  0.00    -0.003 C 
ATOM     20  C   UNL     1      15.455   1.627  48.158  1.00  0.00     0.004 C 
ENDBRANCH  18  19
ENDBRANCH  17  18
ENDBRANCH  16  17
ENDBRANCH  15  16
ENDBRANCH  14  15
ENDBRANCH  13  14
ENDBRANCH   2  13
TORSDOF 15
ENDMDL
MODEL 6
REMARK VINA RESULT:    -3.472      3.085      5.186
REMARK INTER + INTRA:          -9.178
REMARK INTER:                  -7.183
REMARK INTRA:                  -1.995
REMARK UNBOUND:                -2.661
REMARK SMILES CCCCCCCCC=CCCCCCCCC(=O)[O-]
REMARK SMILES IDX 10 1 9 2 11 3 12 4 13 5 14 6 15 7 16 8 17 9 18 10 19 11
REMARK SMILES IDX 20 12 8 13 7 14 6 15 5 16 4 17 3 18 2 19 1 20
REMARK H PARENT
REMARK Flexibility Score: inf
ROOT
ATOM      1  C   UNL     1      18.917   7.740  43.787  1.00  0.00    -0.031 C 
ATOM      2  C   UNL     1      19.405   6.506  43.561  1.00  0.00    -0.031 C 
ENDROOT
BRANCH   1   3
ATOM      3  C   UNL     1      17.457   8.059  43.989  1.00  0.00     0.027 C 
BRANCH   3   4
ATOM      4  C   UNL     1      17.116   8.108  45.485  1.00  0.00     0.004 C 
BRANCH   4   5
ATOM      5  C   UNL     1      16.268   9.334  45.858  1.00  0.00     0.000 C 
BRANCH   5   6
ATOM      6  C   UNL     1      14.966   8.955  46.580  1.00  0.00     0.000 C 
BRANCH   6   7
ATOM      7  C   UNL     1      15.131   7.642  47.357  1.00  0.00     0.000 C 
BRANCH   7   8
ATOM      8  C   UNL     1      13.805   6.877  47.432  1.00  0.00     0.006 C 
BRANCH   8   9
ATOM      9  C   UNL     1      13.499   6.446  48.869  1.00  0.00     0.053 C 
BRANCH   9  10
ATOM     10  C   UNL     1      12.239   7.091  49.353  1.00  0.00     0.041 C 
ATOM     11  O   UNL     1      11.472   6.473  50.138  1.00  0.00    -0.550 OA
ATOM     12  O   UNL     1      11.938   8.395  48.981  1.00  0.00    -0.550 OA
ENDBRANCH   9  10
ENDBRANCH   8   9
ENDBRANCH   7   8
ENDBRANCH   6   7
ENDBRANCH   5   6
ENDBRANCH   4   5
ENDBRANCH   3   4
ENDBRANCH   1   3
BRANCH   2  13
ATOM     13  C   UNL     1      18.559   5.268  43.385  1.00  0.00     0.027 C 
BRANCH  13  14
ATOM     14  C   UNL     1      18.709   4.298  44.567  1.00  0.00     0.004 C 
BRANCH  14  15
ATOM     15  C   UNL     1      19.165   5.016  45.849  1.00  0.00     0.000 C 
BRANCH  15  16
ATOM     16  C   UNL     1      18.149   4.883  46.994  1.00  0.00     0.000 C 
BRANCH  16  17
ATOM     17  C   UNL     1      16.729   4.572  46.494  1.00  0.00    -0.000 C 
BRANCH  17  18
ATOM     18  C   UNL     1      15.905   3.875  47.582  1.00  0.00    -0.000 C 
BRANCH  18  19
ATOM     19  C   UNL     1      16.336   2.413  47.748  1.00  0.00    -0.003 C 
ATOM     20  C   UNL     1      16.113   1.932  49.179  1.00  0.00     0.004 C 
ENDBRANCH  18  19
ENDBRANCH  17  18
ENDBRANCH  16  17
ENDBRANCH  15  16
ENDBRANCH  14  15
ENDBRANCH  13  14
ENDBRANCH   2  13
TORSDOF 15
ENDMDL
MODEL 7
REMARK VINA RESULT:    -3.454      9.335     11.908
REMARK INTER + INTRA:          -9.144
REMARK INTER:                  -6.002
REMARK INTRA:                  -3.142
REMARK UNBOUND:                -2.661
REMARK SMILES CCCCCCCCC=CCCCCCCCC(=O)[O-]
REMARK SMILES IDX 10 1 9 2 11 3 12 4 13 5 14 6 15 7 16 8 17 9 18 10 19 11
REMARK SMILES IDX 20 12 8 13 7 14 6 15 5 16 4 17 3 18 2 19 1 20
REMARK H PARENT
REMARK Flexibility Score: inf
ROOT
ATOM      1  C   UNL     1      18.480  15.577  45.873  1.00  0.00    -0.031 C 
ATOM      2  C   UNL     1      17.414  16.237  46.362  1.00  0.00    -0.031 C 
ENDROOT
BRANCH   1   3
ATOM      3  C   UNL     1      19.561  16.204  45.031  1.00  0.00     0.027 C 
BRANCH   3   4
ATOM      4  C   UNL     1      19.820  15.366  43.770  1.00  0.00     0.004 C 
BRANCH   4   5
ATOM      5  C   UNL     1      19.020  15.862  42.556  1.00  0.00     0.000 C 
BRANCH   5   6
ATOM      6  C   UNL     1      18.082  14.788  41.987  1.00  0.00     0.000 C 
BRANCH   6   7
ATOM      7  C   UNL     1      16.625  15.069  42.377  1.00  0.00     0.000 C 
BRANCH   7   8
ATOM      8  C   UNL     1      16.131  14.064  43.424  1.00  0.00     0.006 C 
BRANCH   8   9
ATOM      9  C   UNL     1      14.780  14.491  44.002  1.00  0.00     0.053 C 
BRANCH   9  10
ATOM     10  C   UNL     1      13.661  13.989  43.146  1.00  0.00     0.041 C 
ATOM     11  O   UNL     1      13.526  12.754  42.939  1.00  0.00    -0.550 OA
ATOM     12  O   UNL     1      12.733  14.880  42.621  1.00  0.00    -0.550 OA
ENDBRANCH   9  10
ENDBRANCH   8   9
ENDBRANCH   7   8
ENDBRANCH   6   7
ENDBRANCH   5   6
ENDBRANCH   4   5
ENDBRANCH   3   4
ENDBRANCH   1   3
BRANCH   2  13
ATOM     13  C   UNL     1      17.090  17.682  46.067  1.00  0.00     0.027 C 
BRANCH  13  14
ATOM     14  C   UNL     1      16.183  17.827  44.836  1.00  0.00     0.004 C 
BRANCH  14  15
ATOM     15  C   UNL     1      16.883  18.573  43.686  1.00  0.00     0.000 C 
BRANCH  15  16
ATOM     16  C   UNL     1      16.058  18.567  42.389  1.00  0.00     0.000 C 
BRANCH  16  17
ATOM     17  C   UNL     1      16.936  18.587  41.128  1.00  0.00    -0.000 C 
BRANCH  17  18
ATOM     18  C   UNL     1      16.148  18.106  39.904  1.00  0.00    -0.000 C 
BRANCH  18  19
ATOM     19  C   UNL     1      14.708  17.742  40.284  1.00  0.00    -0.003 C 
ATOM     20  C   UNL     1      14.353  16.335  39.811  1.00  0.00     0.004 C 
ENDBRANCH  18  19
ENDBRANCH  17  18
ENDBRANCH  16  17
ENDBRANCH  15  16
ENDBRANCH  14  15
ENDBRANCH  13  14
ENDBRANCH   2  13
TORSDOF 15
ENDMDL
MODEL 8
REMARK VINA RESULT:    -3.405      9.514     12.000
REMARK INTER + INTRA:          -9.051
REMARK INTER:                  -6.084
REMARK INTRA:                  -2.967
REMARK UNBOUND:                -2.661
REMARK SMILES CCCCCCCCC=CCCCCCCCC(=O)[O-]
REMARK SMILES IDX 10 1 9 2 11 3 12 4 13 5 14 6 15 7 16 8 17 9 18 10 19 11
REMARK SMILES IDX 20 12 8 13 7 14 6 15 5 16 4 17 3 18 2 19 1 20
REMARK H PARENT
REMARK Flexibility Score: inf
ROOT
ATOM      1  C   UNL     1      17.611  17.833  42.348  1.00  0.00    -0.031 C 
ATOM      2  C   UNL     1      17.648  17.855  41.002  1.00  0.00    -0.031 C 
ENDROOT
BRANCH   1   3
ATOM      3  C   UNL     1      16.440  18.292  43.178  1.00  0.00     0.027 C 
BRANCH   3   4
ATOM      4  C   UNL     1      16.891  18.632  44.607  1.00  0.00     0.004 C 
BRANCH   4   5
ATOM      5  C   UNL     1      18.260  18.028  44.955  1.00  0.00     0.000 C 
BRANCH   5   6
ATOM      6  C   UNL     1      18.145  16.728  45.766  1.00  0.00     0.000 C 
BRANCH   6   7
ATOM      7  C   UNL     1      19.339  15.805  45.494  1.00  0.00     0.000 C 
BRANCH   7   8
ATOM      8  C   UNL     1      19.149  15.028  44.186  1.00  0.00     0.006 C 
BRANCH   8   9
ATOM      9  C   UNL     1      20.261  15.354  43.185  1.00  0.00     0.053 C 
BRANCH   9  10
ATOM     10  C   UNL     1      20.207  14.419  42.019  1.00  0.00     0.041 C 
ATOM     11  O   UNL     1      20.689  13.259  42.113  1.00  0.00    -0.550 OA
ATOM     12  O   UNL     1      19.575  14.809  40.845  1.00  0.00    -0.550 OA
ENDBRANCH   9  10
ENDBRANCH   8   9
ENDBRANCH   7   8
ENDBRANCH   6   7
ENDBRANCH   5   6
ENDBRANCH   4   5
ENDBRANCH   3   4
ENDBRANCH   1   3
BRANCH   2  13
ATOM     13  C   UNL     1      16.562  18.428  40.124  1.00  0.00     0.027 C 
BRANCH  13  14
ATOM     14  C   UNL     1      16.218  17.494  38.954  1.00  0.00     0.004 C 
BRANCH  14  15
ATOM     15  C   UNL     1      15.005  16.600  39.264  1.00  0.00     0.000 C 
BRANCH  15  16
ATOM     16  C   UNL     1      14.181  17.115  40.455  1.00  0.00     0.000 C 
BRANCH  16  17
ATOM     17  C   UNL     1      14.019  16.062  41.563  1.00  0.00    -0.000 C 
BRANCH  17  18
ATOM     18  C   UNL     1      14.795  14.784  41.223  1.00  0.00    -0.000 C 
BRANCH  18  19
ATOM     19  C   UNL     1      15.972  14.583  42.183  1.00  0.00    -0.003 C 
ATOM     20  C   UNL     1      15.515  14.650  43.637  1.00  0.00     0.004 C 
ENDBRANCH  18  19
ENDBRANCH  17  18
ENDBRANCH  16  17
ENDBRANCH  15  16
ENDBRANCH  14  15
ENDBRANCH  13  14
ENDBRANCH   2  13
TORSDOF 15
ENDMDL
MODEL 9
REMARK VINA RESULT:    -3.403     10.150     12.469
REMARK INTER + INTRA:          -9.048
REMARK INTER:                  -6.334
REMARK INTRA:                  -2.714
REMARK UNBOUND:                -2.661
REMARK SMILES CCCCCCCCC=CCCCCCCCC(=O)[O-]
REMARK SMILES IDX 10 1 9 2 11 3 12 4 13 5 14 6 15 7 16 8 17 9 18 10 19 11
REMARK SMILES IDX 20 12 8 13 7 14 6 15 5 16 4 17 3 18 2 19 1 20
REMARK H PARENT
REMARK Flexibility Score: inf
ROOT
ATOM      1  C   UNL     1      17.498  19.118  44.882  1.00  0.00    -0.031 C 
ATOM      2  C   UNL     1      18.345  18.261  45.483  1.00  0.00    -0.031 C 
ENDROOT
BRANCH   1   3
ATOM      3  C   UNL     1      16.271  18.706  44.109  1.00  0.00     0.027 C 
BRANCH   3   4
ATOM      4  C   UNL     1      15.013  18.835  44.981  1.00  0.00     0.004 C 
BRANCH   4   5
ATOM      5  C   UNL     1      14.073  17.628  44.846  1.00  0.00     0.000 C 
BRANCH   5   6
ATOM      6  C   UNL     1      14.692  16.332  45.389  1.00  0.00     0.000 C 
BRANCH   6   7
ATOM      7  C   UNL     1      14.679  15.229  44.323  1.00  0.00     0.000 C 
BRANCH   7   8
ATOM      8  C   UNL     1      14.018  15.720  43.030  1.00  0.00     0.006 C 
BRANCH   8   9
ATOM      9  C   UNL     1      12.870  14.797  42.613  1.00  0.00     0.053 C 
BRANCH   9  10
ATOM     10  C   UNL     1      13.369  13.715  41.710  1.00  0.00     0.041 C 
ATOM     11  O   UNL     1      14.337  13.933  40.934  1.00  0.00    -0.550 OA
ATOM     12  O   UNL     1      12.802  12.448  41.763  1.00  0.00    -0.550 OA
ENDBRANCH   9  10
ENDBRANCH   8   9
ENDBRANCH   7   8
ENDBRANCH   6   7
ENDBRANCH   5   6
ENDBRANCH   4   5
ENDBRANCH   3   4
ENDBRANCH   1   3
BRANCH   2  13
ATOM     13  C   UNL     1      18.247  16.757  45.396  1.00  0.00     0.027 C 
BRANCH  13  14
ATOM     14  C   UNL     1      19.580  16.119  44.975  1.00  0.00     0.004 C 
BRANCH  14  15
ATOM     15  C   UNL     1      19.539  15.594  43.530  1.00  0.00     0.000 C 
BRANCH  15  16
ATOM     16  C   UNL     1      18.144  15.716  42.896  1.00  0.00     0.000 C 
BRANCH  16  17
ATOM     17  C   UNL     1      18.116  16.686  41.705  1.00  0.00    -0.000 C 
BRANCH  17  18
ATOM     18  C   UNL     1      16.835  16.508  40.882  1.00  0.00    -0.000 C 
BRANCH  18  19
ATOM     19  C   UNL     1      16.243  17.864  40.485  1.00  0.00    -0.003 C 
ATOM     20  C   UNL     1      14.752  17.746  40.180  1.00  0.00     0.004 C 
ENDBRANCH  18  19
ENDBRANCH  17  18
ENDBRANCH  16  17
ENDBRANCH  15  16
ENDBRANCH  14  15
ENDBRANCH  13  14
ENDBRANCH   2  13
TORSDOF 15
ENDMDL
