MODEL 1
REMARK VINA RESULT:    -3.641      0.000      0.000
REMARK INTER + INTRA:          -4.911
REMARK INTER:                  -4.492
REMARK INTRA:                  -0.419
REMARK UNBOUND:                -0.419
REMARK SMILES CCCCCc1ccccc1
REMARK SMILES IDX 4 1 3 2 2 3 1 4 5 5 6 6 7 7 11 8 8 9 10 10 9 11
REMARK H PARENT
REMARK Flexibility Score: inf
ROOT
ATOM      1  C   UNL     1       3.875 111.421 183.274  1.00  0.00     0.005 C 
ENDROOT
BRANCH   1   2
ATOM      2  C   UNL     1       3.133 112.359 184.238  1.00  0.00     0.000 C 
BRANCH   2   3
ATOM      3  C   UNL     1       4.086 113.263 185.034  1.00  0.00    -0.003 C 
ATOM      4  C   UNL     1       5.479 112.648 185.125  1.00  0.00     0.004 C 
ENDBRANCH   2   3
ENDBRANCH   1   2
BRANCH   1   5
ATOM      5  C   UNL     1       3.047 110.184 182.898  1.00  0.00     0.035 C 
BRANCH   5   6
ATOM      6  C   UNL     1       3.906 108.947 182.921  1.00  0.00    -0.048 A 
ATOM      7  C   UNL     1       3.525 107.806 182.195  1.00  0.00     0.004 A 
ATOM      8  C   UNL     1       5.124 108.944 183.621  1.00  0.00     0.004 A 
ATOM      9  C   UNL     1       4.340 106.670 182.191  1.00  0.00     0.000 A 
ATOM     10  C   UNL     1       5.936 107.805 183.614  1.00  0.00     0.000 A 
ATOM     11  C   UNL     1       5.544 106.668 182.902  1.00  0.00     0.000 A 
ENDBRANCH   5   6
ENDBRANCH   1   5
TORSDOF 4
ENDMDL
MODEL 2
REMARK VINA RESULT:    -3.576      2.021      5.311
REMARK INTER + INTRA:          -4.831
REMARK INTER:                  -4.292
REMARK INTRA:                  -0.538
REMARK UNBOUND:                -0.419
REMARK SMILES CCCCCc1ccccc1
REMARK SMILES IDX 4 1 3 2 2 3 1 4 5 5 6 6 7 7 11 8 8 9 10 10 9 11
REMARK H PARENT
REMARK Flexibility Score: inf
ROOT
ATOM      1  C   UNL     1       4.230 110.434 181.674  1.00  0.00     0.005 C 
ENDROOT
BRANCH   1   2
ATOM      2  C   UNL     1       3.182 109.312 181.618  1.00  0.00     0.000 C 
BRANCH   2   3
ATOM      3  C   UNL     1       2.859 108.734 183.004  1.00  0.00    -0.003 C 
ATOM      4  C   UNL     1       1.456 109.132 183.450  1.00  0.00     0.004 C 
ENDBRANCH   2   3
ENDBRANCH   1   2
BRANCH   1   5
ATOM      5  C   UNL     1       4.689 110.744 183.106  1.00  0.00     0.035 C 
BRANCH   5   6
ATOM      6  C   UNL     1       4.283 112.139 183.500  1.00  0.00    -0.048 A 
ATOM      7  C   UNL     1       3.174 112.345 184.337  1.00  0.00     0.004 A 
ATOM      8  C   UNL     1       5.044 113.243 183.081  1.00  0.00     0.004 A 
ATOM      9  C   UNL     1       2.817 113.639 184.728  1.00  0.00     0.000 A 
ATOM     10  C   UNL     1       4.684 114.536 183.475  1.00  0.00     0.000 A 
ATOM     11  C   UNL     1       3.571 114.734 184.296  1.00  0.00     0.000 A 
ENDBRANCH   5   6
ENDBRANCH   1   5
TORSDOF 4
ENDMDL
MODEL 3
REMARK VINA RESULT:    -3.571      4.236      6.686
REMARK INTER + INTRA:          -4.825
REMARK INTER:                  -4.278
REMARK INTRA:                  -0.548
REMARK UNBOUND:                -0.419
REMARK SMILES CCCCCc1ccccc1
REMARK SMILES IDX 4 1 3 2 2 3 1 4 5 5 6 6 7 7 11 8 8 9 10 10 9 11
REMARK H PARENT
REMARK Flexibility Score: inf
ROOT
ATOM      1  C   UNL     1       4.258 105.799 179.719  1.00  0.00     0.005 C 
ENDROOT
BRANCH   1   2
ATOM      2  C   UNL     1       4.793 106.492 180.981  1.00  0.00     0.000 C 
BRANCH   2   3
ATOM      3  C   UNL     1       3.675 106.889 181.958  1.00  0.00    -0.003 C 
ATOM      4  C   UNL     1       3.238 108.333 181.733  1.00  0.00     0.004 C 
ENDBRANCH   2   3
ENDBRANCH   1   2
BRANCH   1   5
ATOM      5  C   UNL     1       2.921 105.083 179.959  1.00  0.00     0.035 C 
BRANCH   5   6
ATOM      6  C   UNL     1       1.904 105.505 178.931  1.00  0.00    -0.048 A 
ATOM      7  C   UNL     1       1.803 104.816 177.711  1.00  0.00     0.004 A 
ATOM      8  C   UNL     1       1.012 106.554 179.207  1.00  0.00     0.004 A 
ATOM      9  C   UNL     1       0.837 105.189 176.771  1.00  0.00     0.000 A 
ATOM     10  C   UNL     1       0.047 106.923 178.264  1.00  0.00     0.000 A 
ATOM     11  C   UNL     1      -0.040 106.243 177.047  1.00  0.00     0.000 A 
ENDBRANCH   5   6
ENDBRANCH   1   5
TORSDOF 4
ENDMDL
MODEL 4
REMARK VINA RESULT:    -3.567      1.687      4.523
REMARK INTER + INTRA:          -4.820
REMARK INTER:                  -4.024
REMARK INTRA:                  -0.796
REMARK UNBOUND:                -0.419
REMARK SMILES CCCCCc1ccccc1
REMARK SMILES IDX 4 1 3 2 2 3 1 4 5 5 6 6 7 7 11 8 8 9 10 10 9 11
REMARK H PARENT
REMARK Flexibility Score: inf
ROOT
ATOM      1  C   UNL     1       4.057 106.585 181.382  1.00  0.00     0.005 C 
ENDROOT
BRANCH   1   2
ATOM      2  C   UNL     1       5.526 106.857 181.740  1.00  0.00     0.000 C 
BRANCH   2   3
ATOM      3  C   UNL     1       5.819 106.651 183.234  1.00  0.00    -0.003 C 
ATOM      4  C   UNL     1       5.863 107.984 183.974  1.00  0.00     0.004 C 
ENDBRANCH   2   3
ENDBRANCH   1   2
BRANCH   1   5
ATOM      5  C   UNL     1       3.392 107.772 180.669  1.00  0.00     0.035 C 
BRANCH   5   6
ATOM      6  C   UNL     1       3.221 108.928 181.618  1.00  0.00    -0.048 A 
ATOM      7  C   UNL     1       2.243 108.881 182.624  1.00  0.00     0.004 A 
ATOM      8  C   UNL     1       4.076 110.040 181.540  1.00  0.00     0.004 A 
ATOM      9  C   UNL     1       2.106 109.942 183.525  1.00  0.00     0.000 A 
ATOM     10  C   UNL     1       3.937 111.099 182.444  1.00  0.00     0.000 A 
ATOM     11  C   UNL     1       2.952 111.051 183.434  1.00  0.00     0.000 A 
ENDBRANCH   5   6
ENDBRANCH   1   5
TORSDOF 4
ENDMDL
MODEL 5
REMARK VINA RESULT:    -3.556      0.114      1.465
REMARK INTER + INTRA:          -4.806
REMARK INTER:                  -4.414
REMARK INTRA:                  -0.393
REMARK UNBOUND:                -0.419
REMARK SMILES CCCCCc1ccccc1
REMARK SMILES IDX 4 1 3 2 2 3 1 4 5 5 6 6 7 7 11 8 8 9 10 10 9 11
REMARK H PARENT
REMARK Flexibility Score: inf
ROOT
ATOM      1  C   UNL     1       3.960 111.461 183.324  1.00  0.00     0.005 C 
ENDROOT
BRANCH   1   2
ATOM      2  C   UNL     1       3.225 112.306 184.374  1.00  0.00     0.000 C 
BRANCH   2   3
ATOM      3  C   UNL     1       4.150 113.307 185.082  1.00  0.00    -0.003 C 
ATOM      4  C   UNL     1       5.585 112.792 185.125  1.00  0.00     0.004 C 
ENDBRANCH   2   3
ENDBRANCH   1   2
BRANCH   1   5
ATOM      5  C   UNL     1       3.136 110.254 182.852  1.00  0.00     0.035 C 
BRANCH   5   6
ATOM      6  C   UNL     1       3.983 109.009 182.841  1.00  0.00    -0.048 A 
ATOM      7  C   UNL     1       5.151 108.939 183.618  1.00  0.00     0.004 A 
ATOM      8  C   UNL     1       3.583 107.887 182.097  1.00  0.00     0.004 A 
ATOM      9  C   UNL     1       5.919 107.771 183.632  1.00  0.00     0.000 A 
ATOM     10  C   UNL     1       4.354 106.720 182.113  1.00  0.00     0.000 A 
ATOM     11  C   UNL     1       5.521 106.662 182.878  1.00  0.00     0.000 A 
ENDBRANCH   5   6
ENDBRANCH   1   5
TORSDOF 4
ENDMDL
MODEL 6
REMARK VINA RESULT:    -3.549      4.119      6.382
REMARK INTER + INTRA:          -4.798
REMARK INTER:                  -4.339
REMARK INTRA:                  -0.460
REMARK UNBOUND:                -0.419
REMARK SMILES CCCCCc1ccccc1
REMARK SMILES IDX 4 1 3 2 2 3 1 4 5 5 6 6 7 7 11 8 8 9 10 10 9 11
REMARK H PARENT
REMARK Flexibility Score: inf
ROOT
ATOM      1  C   UNL     1       3.867 106.356 180.409  1.00  0.00     0.005 C 
ENDROOT
BRANCH   1   2
ATOM      2  C   UNL     1       3.666 107.021 181.779  1.00  0.00     0.000 C 
BRANCH   2   3
ATOM      3  C   UNL     1       3.272 108.501 181.667  1.00  0.00    -0.003 C 
ATOM      4  C   UNL     1       2.160 108.849 182.651  1.00  0.00     0.004 C 
ENDBRANCH   2   3
ENDBRANCH   1   2
BRANCH   1   5
ATOM      5  C   UNL     1       2.906 105.183 180.173  1.00  0.00     0.035 C 
BRANCH   5   6
ATOM      6  C   UNL     1       1.898 105.531 179.110  1.00  0.00    -0.048 A 
ATOM      7  C   UNL     1       1.010 106.603 179.299  1.00  0.00     0.004 A 
ATOM      8  C   UNL     1       1.875 104.824 177.897  1.00  0.00     0.004 A 
ATOM      9  C   UNL     1       0.097 106.946 178.298  1.00  0.00     0.000 A 
ATOM     10  C   UNL     1       0.960 105.170 176.897  1.00  0.00     0.000 A 
ATOM     11  C   UNL     1       0.070 106.229 177.098  1.00  0.00     0.000 A 
ENDBRANCH   5   6
ENDBRANCH   1   5
TORSDOF 4
ENDMDL
MODEL 7
REMARK VINA RESULT:    -3.516      3.026      6.552
REMARK INTER + INTRA:          -4.757
REMARK INTER:                  -4.302
REMARK INTRA:                  -0.455
REMARK UNBOUND:                -0.419
REMARK SMILES CCCCCc1ccccc1
REMARK SMILES IDX 4 1 3 2 2 3 1 4 5 5 6 6 7 7 11 8 8 9 10 10 9 11
REMARK H PARENT
REMARK Flexibility Score: inf
ROOT
ATOM      1  C   UNL     1       2.835 105.084 179.823  1.00  0.00     0.005 C 
ENDROOT
BRANCH   1   2
ATOM      2  C   UNL     1       2.937 104.553 178.385  1.00  0.00     0.000 C 
BRANCH   2   3
ATOM      3  C   UNL     1       1.710 104.912 177.533  1.00  0.00    -0.003 C 
ATOM      4  C   UNL     1       0.987 106.131 178.098  1.00  0.00     0.004 C 
ENDBRANCH   2   3
ENDBRANCH   1   2
BRANCH   1   5
ATOM      5  C   UNL     1       4.126 105.768 180.294  1.00  0.00     0.035 C 
BRANCH   5   6
ATOM      6  C   UNL     1       3.811 106.887 181.252  1.00  0.00    -0.048 A 
ATOM      7  C   UNL     1       4.595 107.076 182.402  1.00  0.00     0.004 A 
ATOM      8  C   UNL     1       2.767 107.784 180.975  1.00  0.00     0.004 A 
ATOM      9  C   UNL     1       4.322 108.134 183.274  1.00  0.00     0.000 A 
ATOM     10  C   UNL     1       2.497 108.842 181.849  1.00  0.00     0.000 A 
ATOM     11  C   UNL     1       3.272 109.016 182.999  1.00  0.00     0.000 A 
ENDBRANCH   5   6
ENDBRANCH   1   5
TORSDOF 4
ENDMDL
MODEL 8
REMARK VINA RESULT:    -3.495      4.046      5.926
REMARK INTER + INTRA:          -4.732
REMARK INTER:                  -4.274
REMARK INTRA:                  -0.457
REMARK UNBOUND:                -0.419
REMARK SMILES CCCCCc1ccccc1
REMARK SMILES IDX 4 1 3 2 2 3 1 4 5 5 6 6 7 7 11 8 8 9 10 10 9 11
REMARK H PARENT
REMARK Flexibility Score: inf
ROOT
ATOM      1  C   UNL     1       2.431 108.376 180.607  1.00  0.00     0.005 C 
ENDROOT
BRANCH   1   2
ATOM      2  C   UNL     1       2.419 108.790 182.086  1.00  0.00     0.000 C 
BRANCH   2   3
ATOM      3  C   UNL     1       3.521 108.099 182.903  1.00  0.00    -0.003 C 
ATOM      4  C   UNL     1       4.069 106.882 182.166  1.00  0.00     0.004 C 
ENDBRANCH   2   3
ENDBRANCH   1   2
BRANCH   1   5
ATOM      5  C   UNL     1       1.039 107.987 180.090  1.00  0.00     0.035 C 
BRANCH   5   6
ATOM      6  C   UNL     1       1.146 106.895 179.058  1.00  0.00    -0.048 A 
ATOM      7  C   UNL     1       2.072 105.851 179.224  1.00  0.00     0.004 A 
ATOM      8  C   UNL     1       0.283 106.880 177.950  1.00  0.00     0.004 A 
ATOM      9  C   UNL     1       2.148 104.821 178.282  1.00  0.00     0.000 A 
ATOM     10  C   UNL     1       0.362 105.847 177.010  1.00  0.00     0.000 A 
ATOM     11  C   UNL     1       1.295 104.820 177.174  1.00  0.00     0.000 A 
ENDBRANCH   5   6
ENDBRANCH   1   5
TORSDOF 4
ENDMDL
MODEL 9
REMARK VINA RESULT:    -3.410      3.194      6.136
REMARK INTER + INTRA:          -4.626
REMARK INTER:                  -4.159
REMARK INTRA:                  -0.467
REMARK UNBOUND:                -0.419
REMARK SMILES CCCCCc1ccccc1
REMARK SMILES IDX 4 1 3 2 2 3 1 4 5 5 6 6 7 7 11 8 8 9 10 10 9 11
REMARK H PARENT
REMARK Flexibility Score: inf
ROOT
ATOM      1  C   UNL     1       2.834 105.094 179.695  1.00  0.00     0.005 C 
ENDROOT
BRANCH   1   2
ATOM      2  C   UNL     1       2.286 104.898 178.274  1.00  0.00     0.000 C 
BRANCH   2   3
ATOM      3  C   UNL     1       1.235 105.952 177.894  1.00  0.00    -0.003 C 
ATOM      4  C   UNL     1       0.769 106.729 179.122  1.00  0.00     0.004 C 
ENDBRANCH   2   3
ENDBRANCH   1   2
BRANCH   1   5
ATOM      5  C   UNL     1       4.303 105.538 179.708  1.00  0.00     0.035 C 
BRANCH   5   6
ATOM      6  C   UNL     1       4.609 106.317 180.960  1.00  0.00    -0.048 A 
ATOM      7  C   UNL     1       3.605 107.074 181.585  1.00  0.00     0.004 A 
ATOM      8  C   UNL     1       5.884 106.247 181.544  1.00  0.00     0.004 A 
ATOM      9  C   UNL     1       3.881 107.771 182.766  1.00  0.00     0.000 A 
ATOM     10  C   UNL     1       6.156 106.945 182.726  1.00  0.00     0.000 A 
ATOM     11  C   UNL     1       5.156 107.708 183.335  1.00  0.00     0.000 A 
ENDBRANCH   5   6
ENDBRANCH   1   5
TORSDOF 4
ENDMDL
