MODEL 1
REMARK VINA RESULT:    -3.082      0.000      0.000
REMARK INTER + INTRA:          -4.974
REMARK INTER:                  -4.703
REMARK INTRA:                  -0.271
REMARK UNBOUND:                -0.271
REMARK SMILES CC1=CCC[C@@H](C)C(=O)C[C@@H](C(C)C)C(=O)C1
REMARK SMILES IDX 8 1 9 2 6 3 7 4 5 5 4 6 3 7 2 8 1 9 10 11 11 12 15 13 16 14
REMARK SMILES IDX 17 15 12 17 13 18 14 19
REMARK H PARENT
REMARK Flexibility Score: 70.00
ROOT
ATOM      1  C   UNL     1      -1.000  -8.601 -38.482  1.00  0.00     0.136 C 
ATOM      2  O   UNL     1      -1.315  -7.545 -39.013  1.00  0.00    -0.299 OA
ENDROOT
BRANCH   1   3
ATOM      3  C   UNL     1      -1.125  -8.759 -36.974  1.00  0.00     0.053 C 
ATOM      4  C   UNL     1      -0.373  -7.656 -36.211  1.00  0.00     0.016 C 
BRANCH   3   5
ATOM      5  C   UNL     1      -0.687 -10.161 -36.496  1.00  0.00     0.015 C 
BRANCH   5   6
ATOM      6  C   UNL     1      -1.854 -11.158 -36.282  1.00  0.00     0.028 C 
BRANCH   6   7
ATOM      7  C   UNL     1      -1.499 -12.525 -36.819  1.00  0.00    -0.028 C 
ATOM      8  C   UNL     1      -1.887 -13.026 -38.018  1.00  0.00    -0.070 CG0
ATOM      9  C   UNL     1      -1.556 -14.465 -38.321  1.00  0.00     0.039 C 
ATOM     10  G   UNL     1      -2.630 -12.211 -39.065  1.00  0.00     0.000 G0
ENDBRANCH   6   7
ENDBRANCH   5   6
ENDBRANCH   3   5
ENDBRANCH   1   3
BRANCH   1  11
ATOM     11  C   UNL     1      -0.455  -9.713 -39.348  1.00  0.00     0.087 C 
BRANCH  11  12
ATOM     12  C   UNL     1      -1.475 -10.195 -40.414  1.00  0.00     0.066 C 
BRANCH  12  13
ATOM     13  C   UNL     1      -1.820 -11.671 -40.240  1.00  0.00     0.140 C 
ATOM     14  O   UNL     1      -1.403 -12.472 -41.063  1.00  0.00    -0.299 OA
BRANCH  13  15
ATOM     15  C   UNL     1      -2.633 -12.223 -39.084  1.00  0.00     0.106 CG0
ATOM     16  G   UNL     1      -1.853 -13.008 -38.041  1.00  0.00     0.000 G0
ENDBRANCH  13  15
ENDBRANCH  12  13
BRANCH  12  17
ATOM     17  C   UNL     1      -1.052  -9.886 -41.885  1.00  0.00    -0.006 C 
ATOM     18  C   UNL     1       0.431  -9.513 -42.057  1.00  0.00     0.008 C 
ATOM     19  C   UNL     1      -1.936  -8.794 -42.511  1.00  0.00     0.008 C 
ENDBRANCH  12  17
ENDBRANCH  11  12
ENDBRANCH   1  11
TORSDOF 1
ENDMDL
MODEL 2
REMARK VINA RESULT:    -2.988      2.084      4.180
REMARK INTER + INTRA:          -4.831
REMARK INTER:                  -4.985
REMARK INTRA:                   0.154
REMARK UNBOUND:                -0.271
REMARK SMILES CC1=CCC[C@@H](C)C(=O)C[C@@H](C(C)C)C(=O)C1
REMARK SMILES IDX 8 1 9 2 6 3 7 4 5 5 4 6 3 7 2 8 1 9 10 11 11 12 15 13 16 14
REMARK SMILES IDX 17 15 12 17 13 18 14 19
REMARK H PARENT
REMARK Flexibility Score: 70.00
ROOT
ATOM      1  C   UNL     1      -1.467  -9.711 -38.536  1.00  0.00     0.136 C 
ATOM      2  O   UNL     1      -0.740  -9.871 -37.565  1.00  0.00    -0.299 OA
ENDROOT
BRANCH   1   3
ATOM      3  C   UNL     1      -1.370  -8.432 -39.353  1.00  0.00     0.053 C 
ATOM      4  C   UNL     1      -0.975  -7.222 -38.491  1.00  0.00     0.016 C 
BRANCH   3   5
ATOM      5  C   UNL     1      -2.665  -8.148 -40.148  1.00  0.00     0.015 C 
BRANCH   5   6
ATOM      6  C   UNL     1      -2.681  -8.743 -41.578  1.00  0.00     0.028 C 
BRANCH   6   7
ATOM      7  C   UNL     1      -1.276  -8.909 -42.109  1.00  0.00    -0.028 C 
ATOM      8  C   UNL     1      -0.579 -10.071 -42.143  1.00  0.00    -0.070 CG0
ATOM      9  C   UNL     1       0.864 -10.016 -42.575  1.00  0.00     0.039 C 
ATOM     10  G   UNL     1      -1.178 -11.419 -41.773  1.00  0.00     0.000 G0
ENDBRANCH   6   7
ENDBRANCH   5   6
ENDBRANCH   3   5
ENDBRANCH   1   3
BRANCH   1  11
ATOM     11  C   UNL     1      -2.474 -10.787 -38.872  1.00  0.00     0.087 C 
BRANCH  11  12
ATOM     12  C   UNL     1      -1.806 -12.136 -39.248  1.00  0.00     0.066 C 
BRANCH  12  13
ATOM     13  C   UNL     1      -0.815 -11.975 -40.397  1.00  0.00     0.140 C 
ATOM     14  O   UNL     1       0.347 -12.313 -40.222  1.00  0.00    -0.299 OA
BRANCH  13  15
ATOM     15  C   UNL     1      -1.184 -11.442 -41.770  1.00  0.00     0.106 CG0
ATOM     16  G   UNL     1      -0.594 -10.089 -42.134  1.00  0.00     0.000 G0
ENDBRANCH  13  15
ENDBRANCH  12  13
BRANCH  12  17
ATOM     17  C   UNL     1      -2.819 -13.289 -39.535  1.00  0.00    -0.006 C 
ATOM     18  C   UNL     1      -2.249 -14.445 -40.376  1.00  0.00     0.008 C 
ATOM     19  C   UNL     1      -4.108 -12.761 -40.187  1.00  0.00     0.008 C 
ENDBRANCH  12  17
ENDBRANCH  11  12
ENDBRANCH   1  11
TORSDOF 1
ENDMDL
MODEL 3
REMARK VINA RESULT:    -2.891      1.747      2.222
REMARK INTER + INTRA:          -4.682
REMARK INTER:                  -4.447
REMARK INTRA:                  -0.235
REMARK UNBOUND:                -0.271
REMARK SMILES CC1=CCC[C@@H](C)C(=O)C[C@@H](C(C)C)C(=O)C1
REMARK SMILES IDX 8 1 9 2 6 3 7 4 5 5 4 6 3 7 2 8 1 9 10 11 11 12 15 13 16 14
REMARK SMILES IDX 17 15 12 17 13 18 14 19
REMARK H PARENT
REMARK Flexibility Score: 70.00
ROOT
ATOM      1  C   UNL     1      -0.632  -8.733 -37.861  1.00  0.00     0.136 C 
ATOM      2  O   UNL     1      -0.077  -7.723 -38.271  1.00  0.00    -0.299 OA
ENDROOT
BRANCH   1   3
ATOM      3  C   UNL     1      -1.163  -8.782 -36.436  1.00  0.00     0.053 C 
ATOM      4  C   UNL     1      -1.203  -7.390 -35.784  1.00  0.00     0.016 C 
BRANCH   3   5
ATOM      5  C   UNL     1      -0.383  -9.784 -35.557  1.00  0.00     0.015 C 
BRANCH   5   6
ATOM      6  C   UNL     1      -1.278 -10.742 -34.731  1.00  0.00     0.028 C 
BRANCH   6   7
ATOM      7  C   UNL     1      -0.866 -12.181 -34.944  1.00  0.00    -0.028 C 
ATOM      8  C   UNL     1      -1.426 -13.037 -35.833  1.00  0.00    -0.070 CG0
ATOM      9  C   UNL     1      -0.980 -14.476 -35.803  1.00  0.00     0.039 C 
ATOM     10  G   UNL     1      -2.472 -12.618 -36.855  1.00  0.00     0.000 G0
ENDBRANCH   6   7
ENDBRANCH   5   6
ENDBRANCH   3   5
ENDBRANCH   1   3
BRANCH   1  11
ATOM     11  C   UNL     1      -0.739  -9.926 -38.783  1.00  0.00     0.087 C 
BRANCH  11  12
ATOM     12  C   UNL     1      -2.106 -10.651 -38.667  1.00  0.00     0.066 C 
BRANCH  12  13
ATOM     13  C   UNL     1      -1.943 -12.090 -38.188  1.00  0.00     0.140 C 
ATOM     14  O   UNL     1      -1.331 -12.879 -38.895  1.00  0.00    -0.299 OA
BRANCH  13  15
ATOM     15  C   UNL     1      -2.473 -12.611 -36.865  1.00  0.00     0.106 CG0
ATOM     16  G   UNL     1      -1.420 -13.028 -35.849  1.00  0.00     0.000 G0
ENDBRANCH  13  15
ENDBRANCH  12  13
BRANCH  12  17
ATOM     17  C   UNL     1      -2.973 -10.584 -39.964  1.00  0.00    -0.006 C 
ATOM     18  C   UNL     1      -3.076  -9.182 -40.591  1.00  0.00     0.008 C 
ATOM     19  C   UNL     1      -4.383 -11.153 -39.733  1.00  0.00     0.008 C 
ENDBRANCH  12  17
ENDBRANCH  11  12
ENDBRANCH   1  11
TORSDOF 1
ENDMDL
MODEL 4
REMARK VINA RESULT:    -2.833      2.768      5.142
REMARK INTER + INTRA:          -4.595
REMARK INTER:                  -4.318
REMARK INTRA:                  -0.277
REMARK UNBOUND:                -0.271
REMARK SMILES CC1=CCC[C@@H](C)C(=O)C[C@@H](C(C)C)C(=O)C1
REMARK SMILES IDX 8 1 9 2 6 3 7 4 5 5 4 6 3 7 2 8 1 9 10 11 11 12 15 13 16 14
REMARK SMILES IDX 17 15 12 17 13 18 14 19
REMARK H PARENT
REMARK Flexibility Score: 70.00
ROOT
ATOM      1  C   UNL     1      -0.122 -11.461 -40.809  1.00  0.00     0.136 C 
ATOM      2  O   UNL     1       0.517 -12.500 -40.716  1.00  0.00    -0.299 OA
ENDROOT
BRANCH   1   3
ATOM      3  C   UNL     1       0.289 -10.406 -41.825  1.00  0.00     0.053 C 
ATOM      4  C   UNL     1       1.780 -10.048 -41.718  1.00  0.00     0.016 C 
BRANCH   3   5
ATOM      5  C   UNL     1      -0.593  -9.140 -41.739  1.00  0.00     0.015 C 
BRANCH   5   6
ATOM      6  C   UNL     1      -1.864  -9.184 -42.623  1.00  0.00     0.028 C 
BRANCH   6   7
ATOM      7  C   UNL     1      -3.023  -8.501 -41.935  1.00  0.00    -0.028 C 
ATOM      8  C   UNL     1      -4.139  -9.116 -41.473  1.00  0.00    -0.070 CG0
ATOM      9  C   UNL     1      -5.254  -8.251 -40.943  1.00  0.00     0.039 C 
ATOM     10  G   UNL     1      -4.319 -10.626 -41.459  1.00  0.00     0.000 G0
ENDBRANCH   6   7
ENDBRANCH   5   6
ENDBRANCH   3   5
ENDBRANCH   1   3
BRANCH   1  11
ATOM     11  C   UNL     1      -1.289 -11.243 -39.873  1.00  0.00     0.087 C 
BRANCH  11  12
ATOM     12  C   UNL     1      -2.505 -12.146 -40.214  1.00  0.00     0.066 C 
BRANCH  12  13
ATOM     13  C   UNL     1      -3.810 -11.355 -40.224  1.00  0.00     0.140 C 
ATOM     14  O   UNL     1      -4.458 -11.279 -39.190  1.00  0.00    -0.299 OA
BRANCH  13  15
ATOM     15  C   UNL     1      -4.352 -10.625 -41.439  1.00  0.00     0.106 CG0
ATOM     16  G   UNL     1      -4.130  -9.121 -41.460  1.00  0.00     0.000 G0
ENDBRANCH  13  15
ENDBRANCH  12  13
BRANCH  12  17
ATOM     17  C   UNL     1      -2.624 -13.417 -39.316  1.00  0.00    -0.006 C 
ATOM     18  C   UNL     1      -1.871 -13.326 -37.977  1.00  0.00     0.008 C 
ATOM     19  C   UNL     1      -2.189 -14.685 -40.069  1.00  0.00     0.008 C 
ENDBRANCH  12  17
ENDBRANCH  11  12
ENDBRANCH   1  11
TORSDOF 1
ENDMDL
MODEL 5
REMARK VINA RESULT:    -2.768      2.283      4.536
REMARK INTER + INTRA:          -4.495
REMARK INTER:                  -4.417
REMARK INTRA:                  -0.079
REMARK UNBOUND:                -0.271
REMARK SMILES CC1=CCC[C@@H](C)C(=O)C[C@@H](C(C)C)C(=O)C1
REMARK SMILES IDX 8 1 9 2 6 3 7 4 5 5 4 6 3 7 2 8 1 9 10 11 11 12 15 13 16 14
REMARK SMILES IDX 17 15 12 17 13 18 14 19
REMARK H PARENT
REMARK Flexibility Score: 70.00
ROOT
ATOM      1  C   UNL     1      -1.485  -9.808 -38.734  1.00  0.00     0.136 C 
ATOM      2  O   UNL     1      -0.642 -10.089 -37.893  1.00  0.00    -0.299 OA
ENDROOT
BRANCH   1   3
ATOM      3  C   UNL     1      -1.363  -8.517 -39.528  1.00  0.00     0.053 C 
ATOM      4  C   UNL     1      -1.137  -7.297 -38.621  1.00  0.00     0.016 C 
BRANCH   3   5
ATOM      5  C   UNL     1      -2.570  -8.293 -40.467  1.00  0.00     0.015 C 
BRANCH   5   6
ATOM      6  C   UNL     1      -2.383  -8.861 -41.896  1.00  0.00     0.028 C 
BRANCH   6   7
ATOM      7  C   UNL     1      -3.701  -9.335 -42.465  1.00  0.00    -0.028 C 
ATOM      8  C   UNL     1      -4.036 -10.626 -42.705  1.00  0.00    -0.070 CG0
ATOM      9  C   UNL     1      -5.341 -10.897 -43.410  1.00  0.00     0.039 C 
ATOM     10  G   UNL     1      -3.168 -11.807 -42.299  1.00  0.00     0.000 G0
ENDBRANCH   6   7
ENDBRANCH   5   6
ENDBRANCH   3   5
ENDBRANCH   1   3
BRANCH   1  11
ATOM     11  C   UNL     1      -2.653 -10.748 -38.931  1.00  0.00     0.087 C 
BRANCH  11  12
ATOM     12  C   UNL     1      -2.283 -11.994 -39.778  1.00  0.00     0.066 C 
BRANCH  12  13
ATOM     13  C   UNL     1      -3.321 -12.270 -40.862  1.00  0.00     0.140 C 
ATOM     14  O   UNL     1      -4.341 -12.871 -40.557  1.00  0.00    -0.299 OA
BRANCH  13  15
ATOM     15  C   UNL     1      -3.185 -11.820 -42.304  1.00  0.00     0.106 CG0
ATOM     16  G   UNL     1      -4.043 -10.632 -42.711  1.00  0.00     0.000 G0
ENDBRANCH  13  15
ENDBRANCH  12  13
BRANCH  12  17
ATOM     17  C   UNL     1      -1.997 -13.275 -38.933  1.00  0.00    -0.006 C 
ATOM     18  C   UNL     1      -2.017 -13.053 -37.410  1.00  0.00     0.008 C 
ATOM     19  C   UNL     1      -0.672 -13.939 -39.342  1.00  0.00     0.008 C 
ENDBRANCH  12  17
ENDBRANCH  11  12
ENDBRANCH   1  11
TORSDOF 1
ENDMDL
MODEL 6
REMARK VINA RESULT:    -2.753     12.965     14.984
REMARK INTER + INTRA:          -4.473
REMARK INTER:                  -4.237
REMARK INTRA:                  -0.236
REMARK UNBOUND:                -0.271
REMARK SMILES CC1=CCC[C@@H](C)C(=O)C[C@@H](C(C)C)C(=O)C1
REMARK SMILES IDX 8 1 9 2 6 3 7 4 5 5 4 6 3 7 2 8 1 9 10 11 11 12 15 13 16 14
REMARK SMILES IDX 17 15 12 17 13 18 14 19
REMARK H PARENT
REMARK Flexibility Score: 70.00
ROOT
ATOM      1  C   UNL     1       0.154 -22.293 -44.065  1.00  0.00     0.136 C 
ATOM      2  O   UNL     1      -0.061 -21.089 -44.054  1.00  0.00    -0.299 OA
ENDROOT
BRANCH   1   3
ATOM      3  C   UNL     1       0.312 -23.048 -42.753  1.00  0.00     0.053 C 
ATOM      4  C   UNL     1      -1.011 -23.146 -41.977  1.00  0.00     0.016 C 
BRANCH   3   5
ATOM      5  C   UNL     1       1.431 -22.452 -41.869  1.00  0.00     0.015 C 
BRANCH   5   6
ATOM      6  C   UNL     1       2.830 -23.077 -42.099  1.00  0.00     0.028 C 
BRANCH   6   7
ATOM      7  C   UNL     1       2.747 -24.586 -42.125  1.00  0.00    -0.028 C 
ATOM      8  C   UNL     1       2.918 -25.365 -43.221  1.00  0.00    -0.070 CG0
ATOM      9  C   UNL     1       2.657 -26.843 -43.084  1.00  0.00     0.039 C 
ATOM     10  G   UNL     1       3.362 -24.826 -44.572  1.00  0.00     0.000 G0
ENDBRANCH   6   7
ENDBRANCH   5   6
ENDBRANCH   3   5
ENDBRANCH   1   3
BRANCH   1  11
ATOM     11  C   UNL     1       0.295 -22.992 -45.398  1.00  0.00     0.087 C 
BRANCH  11  12
ATOM     12  C   UNL     1       0.788 -24.457 -45.257  1.00  0.00     0.066 C 
BRANCH  12  13
ATOM     13  C   UNL     1       2.269 -24.590 -45.601  1.00  0.00     0.140 C 
ATOM     14  O   UNL     1       2.612 -24.478 -46.769  1.00  0.00    -0.299 OA
BRANCH  13  15
ATOM     15  C   UNL     1       3.362 -24.827 -44.576  1.00  0.00     0.106 CG0
ATOM     16  G   UNL     1       2.901 -25.352 -43.226  1.00  0.00     0.000 G0
ENDBRANCH  13  15
ENDBRANCH  12  13
BRANCH  12  17
ATOM     17  C   UNL     1      -0.069 -25.495 -46.046  1.00  0.00    -0.006 C 
ATOM     18  C   UNL     1      -1.216 -24.882 -46.869  1.00  0.00     0.008 C 
ATOM     19  C   UNL     1      -0.624 -26.591 -45.122  1.00  0.00     0.008 C 
ENDBRANCH  12  17
ENDBRANCH  11  12
ENDBRANCH   1  11
TORSDOF 1
ENDMDL
MODEL 7
REMARK VINA RESULT:    -2.701      3.126      5.623
REMARK INTER + INTRA:          -4.393
REMARK INTER:                  -3.804
REMARK INTRA:                  -0.589
REMARK UNBOUND:                -0.271
REMARK SMILES CC1=CCC[C@@H](C)C(=O)C[C@@H](C(C)C)C(=O)C1
REMARK SMILES IDX 8 1 9 2 6 3 7 4 5 5 4 6 3 7 2 8 1 9 10 11 11 12 15 13 16 14
REMARK SMILES IDX 17 15 12 17 13 18 14 19
REMARK H PARENT
REMARK Flexibility Score: 70.00
ROOT
ATOM      1  C   UNL     1      -2.368  -9.625 -40.440  1.00  0.00     0.136 C 
ATOM      2  O   UNL     1      -1.800  -8.800 -39.737  1.00  0.00    -0.299 OA
ENDROOT
BRANCH   1   3
ATOM      3  C   UNL     1      -1.962  -9.786 -41.897  1.00  0.00     0.053 C 
ATOM      4  C   UNL     1      -0.457 -10.056 -42.054  1.00  0.00     0.016 C 
BRANCH   3   5
ATOM      5  C   UNL     1      -2.404  -8.584 -42.762  1.00  0.00     0.015 C 
BRANCH   5   6
ATOM      6  C   UNL     1      -3.871  -8.140 -42.540  1.00  0.00     0.028 C 
BRANCH   6   7
ATOM      7  C   UNL     1      -4.803  -8.866 -43.483  1.00  0.00    -0.028 C 
ATOM      8  C   UNL     1      -5.695  -9.822 -43.128  1.00  0.00    -0.070 CG0
ATOM      9  C   UNL     1      -6.438 -10.537 -44.228  1.00  0.00     0.039 C 
ATOM     10  G   UNL     1      -5.984 -10.205 -41.684  1.00  0.00     0.000 G0
ENDBRANCH   6   7
ENDBRANCH   5   6
ENDBRANCH   3   5
ENDBRANCH   1   3
BRANCH   1  11
ATOM     11  C   UNL     1      -3.492 -10.438 -39.839  1.00  0.00     0.087 C 
BRANCH  11  12
ATOM     12  C   UNL     1      -3.914 -11.630 -40.738  1.00  0.00     0.066 C 
BRANCH  12  13
ATOM     13  C   UNL     1      -5.363 -11.507 -41.198  1.00  0.00     0.140 C 
ATOM     14  O   UNL     1      -6.080 -12.496 -41.151  1.00  0.00    -0.299 OA
BRANCH  13  15
ATOM     15  C   UNL     1      -5.993 -10.216 -41.689  1.00  0.00     0.106 CG0
ATOM     16  G   UNL     1      -5.698  -9.845 -43.134  1.00  0.00     0.000 G0
ENDBRANCH  13  15
ENDBRANCH  12  13
BRANCH  12  17
ATOM     17  C   UNL     1      -3.641 -13.031 -40.105  1.00  0.00    -0.006 C 
ATOM     18  C   UNL     1      -3.401 -13.009 -38.585  1.00  0.00     0.008 C 
ATOM     19  C   UNL     1      -2.475 -13.751 -40.803  1.00  0.00     0.008 C 
ENDBRANCH  12  17
ENDBRANCH  11  12
ENDBRANCH   1  11
TORSDOF 1
ENDMDL
MODEL 8
REMARK VINA RESULT:    -2.659      3.230      5.802
REMARK INTER + INTRA:          -4.330
REMARK INTER:                  -4.162
REMARK INTRA:                  -0.167
REMARK UNBOUND:                -0.271
REMARK SMILES CC1=CCC[C@@H](C)C(=O)C[C@@H](C(C)C)C(=O)C1
REMARK SMILES IDX 8 1 9 2 6 3 7 4 5 5 4 6 3 7 2 8 1 9 10 11 11 12 15 13 16 14
REMARK SMILES IDX 17 15 12 17 13 18 14 19
REMARK H PARENT
REMARK Flexibility Score: 70.00
ROOT
ATOM      1  C   UNL     1      -3.118 -12.636 -41.275  1.00  0.00     0.136 C 
ATOM      2  O   UNL     1      -2.721 -13.789 -41.183  1.00  0.00    -0.299 OA
ENDROOT
BRANCH   1   3
ATOM      3  C   UNL     1      -4.338 -12.188 -40.484  1.00  0.00     0.053 C 
ATOM      4  C   UNL     1      -4.367 -12.793 -39.072  1.00  0.00     0.016 C 
BRANCH   3   5
ATOM      5  C   UNL     1      -5.657 -12.470 -41.237  1.00  0.00     0.015 C 
BRANCH   5   6
ATOM      6  C   UNL     1      -5.643 -12.059 -42.731  1.00  0.00     0.028 C 
BRANCH   6   7
ATOM      7  C   UNL     1      -6.209 -10.670 -42.912  1.00  0.00    -0.028 C 
ATOM      8  C   UNL     1      -5.488  -9.555 -43.187  1.00  0.00    -0.070 CG0
ATOM      9  C   UNL     1      -6.210  -8.232 -43.191  1.00  0.00     0.039 C 
ATOM     10  G   UNL     1      -3.999  -9.574 -43.494  1.00  0.00     0.000 G0
ENDBRANCH   6   7
ENDBRANCH   5   6
ENDBRANCH   3   5
ENDBRANCH   1   3
BRANCH   1  11
ATOM     11  C   UNL     1      -2.396 -11.694 -42.212  1.00  0.00     0.087 C 
BRANCH  11  12
ATOM     12  C   UNL     1      -2.220 -10.273 -41.614  1.00  0.00     0.066 C 
BRANCH  12  13
ATOM     13  C   UNL     1      -3.069  -9.241 -42.350  1.00  0.00     0.140 C 
ATOM     14  O   UNL     1      -2.994  -8.069 -42.010  1.00  0.00    -0.299 OA
BRANCH  13  15
ATOM     15  C   UNL     1      -3.994  -9.569 -43.507  1.00  0.00     0.106 CG0
ATOM     16  G   UNL     1      -5.481  -9.554 -43.192  1.00  0.00     0.000 G0
ENDBRANCH  13  15
ENDBRANCH  12  13
BRANCH  12  17
ATOM     17  C   UNL     1      -0.734  -9.807 -41.508  1.00  0.00    -0.006 C 
ATOM     18  C   UNL     1       0.266 -10.684 -42.282  1.00  0.00     0.008 C 
ATOM     19  C   UNL     1      -0.284  -9.678 -40.044  1.00  0.00     0.008 C 
ENDBRANCH  12  17
ENDBRANCH  11  12
ENDBRANCH   1  11
TORSDOF 1
ENDMDL
MODEL 9
REMARK VINA RESULT:    -2.654      2.684      5.056
REMARK INTER + INTRA:          -4.321
REMARK INTER:                  -3.891
REMARK INTRA:                  -0.430
REMARK UNBOUND:                -0.271
REMARK SMILES CC1=CCC[C@@H](C)C(=O)C[C@@H](C(C)C)C(=O)C1
REMARK SMILES IDX 8 1 9 2 6 3 7 4 5 5 4 6 3 7 2 8 1 9 10 11 11 12 15 13 16 14
REMARK SMILES IDX 17 15 12 17 13 18 14 19
REMARK H PARENT
REMARK Flexibility Score: 70.00
ROOT
ATOM      1  C   UNL     1      -3.435 -12.843 -39.241  1.00  0.00     0.136 C 
ATOM      2  O   UNL     1      -3.789 -13.591 -38.340  1.00  0.00    -0.299 OA
ENDROOT
BRANCH   1   3
ATOM      3  C   UNL     1      -2.297 -13.252 -40.164  1.00  0.00     0.053 C 
ATOM      4  C   UNL     1      -2.217 -14.777 -40.345  1.00  0.00     0.016 C 
BRANCH   3   5
ATOM      5  C   UNL     1      -0.938 -12.677 -39.706  1.00  0.00     0.015 C 
BRANCH   5   6
ATOM      6  C   UNL     1      -0.443 -11.467 -40.538  1.00  0.00     0.028 C 
BRANCH   6   7
ATOM      7  C   UNL     1      -0.510 -10.193 -39.727  1.00  0.00    -0.028 C 
ATOM      8  C   UNL     1      -1.248  -9.099 -40.038  1.00  0.00    -0.070 CG0
ATOM      9  C   UNL     1      -1.076  -7.867 -39.186  1.00  0.00     0.039 C 
ATOM     10  G   UNL     1      -2.236  -9.055 -41.193  1.00  0.00     0.000 G0
ENDBRANCH   6   7
ENDBRANCH   5   6
ENDBRANCH   3   5
ENDBRANCH   1   3
BRANCH   1  11
ATOM     11  C   UNL     1      -4.123 -11.505 -39.385  1.00  0.00     0.087 C 
BRANCH  11  12
ATOM     12  C   UNL     1      -4.086 -10.966 -40.840  1.00  0.00     0.066 C 
BRANCH  12  13
ATOM     13  C   UNL     1      -3.657  -9.502 -40.889  1.00  0.00     0.140 C 
ATOM     14  O   UNL     1      -4.488  -8.639 -40.646  1.00  0.00    -0.299 OA
BRANCH  13  15
ATOM     15  C   UNL     1      -2.245  -9.040 -41.197  1.00  0.00     0.106 CG0
ATOM     16  G   UNL     1      -1.265  -9.087 -40.036  1.00  0.00     0.000 G0
ENDBRANCH  13  15
ENDBRANCH  12  13
BRANCH  12  17
ATOM     17  C   UNL     1      -5.410 -11.192 -41.635  1.00  0.00    -0.006 C 
ATOM     18  C   UNL     1      -6.312 -12.304 -41.071  1.00  0.00     0.008 C 
ATOM     19  C   UNL     1      -5.137 -11.453 -43.126  1.00  0.00     0.008 C 
ENDBRANCH  12  17
ENDBRANCH  11  12
ENDBRANCH   1  11
TORSDOF 1
ENDMDL
