MODEL 1
REMARK VINA RESULT:    -5.448      0.000      0.000
REMARK INTER + INTRA:          -8.299
REMARK INTER:                  -7.996
REMARK INTRA:                  -0.304
REMARK UNBOUND:                -0.304
REMARK SMILES O=C([O-])CCCCCCCC(=O)[O-]
REMARK SMILES IDX 7 1 6 2 5 3 4 4 2 5 1 6 3 7 8 8 9 9 10 10 11 11 12 12 13 13
REMARK H PARENT
REMARK Flexibility Score: inf
ROOT
ATOM      1  C   UNL     1      -5.853 -31.002 -50.899  1.00  0.00     0.000 C 
ENDROOT
BRANCH   1   2
ATOM      2  C   UNL     1      -5.311 -32.289 -51.540  1.00  0.00     0.000 C 
BRANCH   2   3
ATOM      3  C   UNL     1      -4.032 -32.799 -50.854  1.00  0.00     0.006 C 
BRANCH   3   4
ATOM      4  C   UNL     1      -2.807 -32.710 -51.774  1.00  0.00     0.053 C 
BRANCH   4   5
ATOM      5  C   UNL     1      -1.551 -33.131 -51.072  1.00  0.00     0.041 C 
ATOM      6  O   UNL     1      -0.427 -32.798 -51.532  1.00  0.00    -0.550 OA
ATOM      7  O   UNL     1      -1.623 -33.865 -49.895  1.00  0.00    -0.550 OA
ENDBRANCH   4   5
ENDBRANCH   3   4
ENDBRANCH   2   3
ENDBRANCH   1   2
BRANCH   1   8
ATOM      8  C   UNL     1      -6.897 -31.278 -49.806  1.00  0.00     0.000 C 
BRANCH   8   9
ATOM      9  C   UNL     1      -7.479 -29.968 -49.259  1.00  0.00     0.006 C 
BRANCH   9  10
ATOM     10  C   UNL     1      -6.386 -29.102 -48.625  1.00  0.00     0.053 C 
BRANCH  10  11
ATOM     11  C   UNL     1      -6.396 -27.729 -49.220  1.00  0.00     0.041 C 
ATOM     12  O   UNL     1      -6.747 -26.740 -48.524  1.00  0.00    -0.550 OA
ATOM     13  O   UNL     1      -6.064 -27.548 -50.556  1.00  0.00    -0.550 OA
ENDBRANCH  10  11
ENDBRANCH   9  10
ENDBRANCH   8   9
ENDBRANCH   1   8
TORSDOF 8
ENDMDL
MODEL 2
REMARK VINA RESULT:    -5.419      1.659      2.304
REMARK INTER + INTRA:          -8.257
REMARK INTER:                  -7.859
REMARK INTRA:                  -0.399
REMARK UNBOUND:                -0.304
REMARK SMILES O=C([O-])CCCCCCCC(=O)[O-]
REMARK SMILES IDX 7 1 6 2 5 3 4 4 2 5 1 6 3 7 8 8 9 9 10 10 11 11 12 12 13 13
REMARK H PARENT
REMARK Flexibility Score: inf
ROOT
ATOM      1  C   UNL     1      -5.268 -31.934 -52.241  1.00  0.00     0.000 C 
ENDROOT
BRANCH   1   2
ATOM      2  C   UNL     1      -4.139 -31.490 -53.184  1.00  0.00     0.000 C 
BRANCH   2   3
ATOM      3  C   UNL     1      -2.852 -32.312 -52.995  1.00  0.00     0.006 C 
BRANCH   3   4
ATOM      4  C   UNL     1      -2.941 -33.259 -51.791  1.00  0.00     0.053 C 
BRANCH   4   5
ATOM      5  C   UNL     1      -1.876 -32.970 -50.776  1.00  0.00     0.041 C 
ATOM      6  O   UNL     1      -1.197 -31.913 -50.854  1.00  0.00    -0.550 OA
ATOM      7  O   UNL     1      -1.655 -33.854 -49.728  1.00  0.00    -0.550 OA
ENDBRANCH   4   5
ENDBRANCH   3   4
ENDBRANCH   2   3
ENDBRANCH   1   2
BRANCH   1   8
ATOM      8  C   UNL     1      -5.780 -30.792 -51.350  1.00  0.00     0.000 C 
BRANCH   8   9
ATOM      9  C   UNL     1      -5.972 -31.267 -49.904  1.00  0.00     0.006 C 
BRANCH   9  10
ATOM     10  C   UNL     1      -7.459 -31.403 -49.563  1.00  0.00     0.053 C 
BRANCH  10  11
ATOM     11  C   UNL     1      -7.933 -30.205 -48.802  1.00  0.00     0.041 C 
ATOM     12  O   UNL     1      -7.153 -29.238 -48.593  1.00  0.00    -0.550 OA
ATOM     13  O   UNL     1      -9.219 -30.177 -48.281  1.00  0.00    -0.550 OA
ENDBRANCH  10  11
ENDBRANCH   9  10
ENDBRANCH   8   9
ENDBRANCH   1   8
TORSDOF 8
ENDMDL
MODEL 3
REMARK VINA RESULT:    -5.408      3.197      3.576
REMARK INTER + INTRA:          -8.240
REMARK INTER:                  -7.785
REMARK INTRA:                  -0.455
REMARK UNBOUND:                -0.304
REMARK SMILES O=C([O-])CCCCCCCC(=O)[O-]
REMARK SMILES IDX 7 1 6 2 5 3 4 4 2 5 1 6 3 7 8 8 9 9 10 10 11 11 12 12 13 13
REMARK H PARENT
REMARK Flexibility Score: inf
ROOT
ATOM      1  C   UNL     1      -5.704 -31.390 -50.389  1.00  0.00     0.000 C 
ENDROOT
BRANCH   1   2
ATOM      2  C   UNL     1      -5.695 -32.342 -51.595  1.00  0.00     0.000 C 
BRANCH   2   3
ATOM      3  C   UNL     1      -5.198 -31.663 -52.883  1.00  0.00     0.006 C 
BRANCH   3   4
ATOM      4  C   UNL     1      -4.908 -30.170 -52.676  1.00  0.00     0.053 C 
BRANCH   4   5
ATOM      5  C   UNL     1      -4.899 -29.419 -53.973  1.00  0.00     0.041 C 
ATOM      6  O   UNL     1      -5.234 -29.997 -55.041  1.00  0.00    -0.550 OA
ATOM      7  O   UNL     1      -4.550 -28.075 -53.998  1.00  0.00    -0.550 OA
ENDBRANCH   4   5
ENDBRANCH   3   4
ENDBRANCH   2   3
ENDBRANCH   1   2
BRANCH   1   8
ATOM      8  C   UNL     1      -7.112 -31.173 -49.815  1.00  0.00     0.000 C 
BRANCH   8   9
ATOM      9  C   UNL     1      -7.187 -29.861 -49.024  1.00  0.00     0.006 C 
BRANCH   9  10
ATOM     10  C   UNL     1      -6.200 -28.828 -49.575  1.00  0.00     0.053 C 
BRANCH  10  11
ATOM     11  C   UNL     1      -6.466 -27.481 -48.982  1.00  0.00     0.041 C 
ATOM     12  O   UNL     1      -6.783 -26.514 -49.724  1.00  0.00    -0.550 OA
ATOM     13  O   UNL     1      -6.317 -27.281 -47.616  1.00  0.00    -0.550 OA
ENDBRANCH  10  11
ENDBRANCH   9  10
ENDBRANCH   8   9
ENDBRANCH   1   8
TORSDOF 8
ENDMDL
MODEL 4
REMARK VINA RESULT:    -5.407      2.407      5.672
REMARK INTER + INTRA:          -8.239
REMARK INTER:                  -7.893
REMARK INTRA:                  -0.346
REMARK UNBOUND:                -0.304
REMARK SMILES O=C([O-])CCCCCCCC(=O)[O-]
REMARK SMILES IDX 7 1 6 2 5 3 4 4 2 5 1 6 3 7 8 8 9 9 10 10 11 11 12 12 13 13
REMARK H PARENT
REMARK Flexibility Score: inf
ROOT
ATOM      1  C   UNL     1      -6.276 -31.216 -50.811  1.00  0.00     0.000 C 
ENDROOT
BRANCH   1   2
ATOM      2  C   UNL     1      -7.051 -31.225 -49.485  1.00  0.00     0.000 C 
BRANCH   2   3
ATOM      3  C   UNL     1      -7.539 -29.825 -49.074  1.00  0.00     0.006 C 
BRANCH   3   4
ATOM      4  C   UNL     1      -6.376 -28.881 -48.742  1.00  0.00     0.053 C 
BRANCH   4   5
ATOM      5  C   UNL     1      -6.268 -27.761 -49.732  1.00  0.00     0.041 C 
ATOM      6  O   UNL     1      -6.804 -26.648 -49.490  1.00  0.00    -0.550 OA
ATOM      7  O   UNL     1      -5.550 -27.938 -50.908  1.00  0.00    -0.550 OA
ENDBRANCH   4   5
ENDBRANCH   3   4
ENDBRANCH   2   3
ENDBRANCH   1   2
BRANCH   1   8
ATOM      8  C   UNL     1      -5.079 -32.179 -50.805  1.00  0.00     0.000 C 
BRANCH   8   9
ATOM      9  C   UNL     1      -4.307 -32.106 -52.129  1.00  0.00     0.006 C 
BRANCH   9  10
ATOM     10  C   UNL     1      -5.233 -31.711 -53.284  1.00  0.00     0.053 C 
BRANCH  10  11
ATOM     11  C   UNL     1      -4.786 -30.421 -53.896  1.00  0.00     0.041 C 
ATOM     12  O   UNL     1      -5.245 -30.056 -55.010  1.00  0.00    -0.550 OA
ATOM     13  O   UNL     1      -3.826 -29.646 -53.259  1.00  0.00    -0.550 OA
ENDBRANCH  10  11
ENDBRANCH   9  10
ENDBRANCH   8   9
ENDBRANCH   1   8
TORSDOF 8
ENDMDL
MODEL 5
REMARK VINA RESULT:    -5.315      1.798      6.265
REMARK INTER + INTRA:          -8.104
REMARK INTER:                  -7.689
REMARK INTRA:                  -0.415
REMARK UNBOUND:                -0.304
REMARK SMILES O=C([O-])CCCCCCCC(=O)[O-]
REMARK SMILES IDX 7 1 6 2 5 3 4 4 2 5 1 6 3 7 8 8 9 9 10 10 11 11 12 12 13 13
REMARK H PARENT
REMARK Flexibility Score: inf
ROOT
ATOM      1  C   UNL     1      -5.254 -31.040 -52.424  1.00  0.00     0.000 C 
ENDROOT
BRANCH   1   2
ATOM      2  C   UNL     1      -5.695 -31.990 -51.301  1.00  0.00     0.000 C 
BRANCH   2   3
ATOM      3  C   UNL     1      -5.982 -31.255 -49.980  1.00  0.00     0.006 C 
BRANCH   3   4
ATOM      4  C   UNL     1      -7.447 -31.392 -49.547  1.00  0.00     0.053 C 
BRANCH   4   5
ATOM      5  C   UNL     1      -7.934 -30.168 -48.831  1.00  0.00     0.041 C 
ATOM      6  O   UNL     1      -7.210 -29.139 -48.773  1.00  0.00    -0.550 OA
ATOM      7  O   UNL     1      -9.197 -30.155 -48.254  1.00  0.00    -0.550 OA
ENDBRANCH   4   5
ENDBRANCH   3   4
ENDBRANCH   2   3
ENDBRANCH   1   2
BRANCH   1   8
ATOM      8  C   UNL     1      -4.328 -31.719 -53.445  1.00  0.00     0.000 C 
BRANCH   8   9
ATOM      9  C   UNL     1      -2.861 -31.625 -53.004  1.00  0.00     0.006 C 
BRANCH   9  10
ATOM     10  C   UNL     1      -2.296 -33.009 -52.675  1.00  0.00     0.053 C 
BRANCH  10  11
ATOM     11  C   UNL     1      -2.228 -33.209 -51.194  1.00  0.00     0.041 C 
ATOM     12  O   UNL     1      -1.474 -32.485 -50.492  1.00  0.00    -0.550 OA
ATOM     13  O   UNL     1      -2.960 -34.226 -50.596  1.00  0.00    -0.550 OA
ENDBRANCH  10  11
ENDBRANCH   9  10
ENDBRANCH   8   9
ENDBRANCH   1   8
TORSDOF 8
ENDMDL
MODEL 6
REMARK VINA RESULT:    -5.243      0.984      5.974
REMARK INTER + INTRA:          -7.999
REMARK INTER:                  -7.534
REMARK INTRA:                  -0.465
REMARK UNBOUND:                -0.304
REMARK SMILES O=C([O-])CCCCCCCC(=O)[O-]
REMARK SMILES IDX 7 1 6 2 5 3 4 4 2 5 1 6 3 7 8 8 9 9 10 10 11 11 12 12 13 13
REMARK H PARENT
REMARK Flexibility Score: inf
ROOT
ATOM      1  C   UNL     1      -5.785 -32.261 -51.607  1.00  0.00     0.000 C 
ENDROOT
BRANCH   1   2
ATOM      2  C   UNL     1      -5.679 -31.618 -50.215  1.00  0.00     0.000 C 
BRANCH   2   3
ATOM      3  C   UNL     1      -6.825 -30.632 -49.930  1.00  0.00     0.006 C 
BRANCH   3   4
ATOM      4  C   UNL     1      -6.345 -29.392 -49.164  1.00  0.00     0.053 C 
BRANCH   4   5
ATOM      5  C   UNL     1      -6.061 -28.244 -50.085  1.00  0.00     0.041 C 
ATOM      6  O   UNL     1      -5.235 -28.377 -51.027  1.00  0.00    -0.550 OA
ATOM      7  O   UNL     1      -6.729 -27.037 -49.922  1.00  0.00    -0.550 OA
ENDBRANCH   4   5
ENDBRANCH   3   4
ENDBRANCH   2   3
ENDBRANCH   1   2
BRANCH   1   8
ATOM      8  C   UNL     1      -4.857 -31.601 -52.637  1.00  0.00     0.000 C 
BRANCH   8   9
ATOM      9  C   UNL     1      -3.444 -31.420 -52.067  1.00  0.00     0.006 C 
BRANCH   9  10
ATOM     10  C   UNL     1      -2.667 -32.740 -52.093  1.00  0.00     0.053 C 
BRANCH  10  11
ATOM     11  C   UNL     1      -1.674 -32.785 -50.975  1.00  0.00     0.041 C 
ATOM     12  O   UNL     1      -0.786 -31.898 -50.881  1.00  0.00    -0.550 OA
ATOM     13  O   UNL     1      -1.699 -33.834 -50.065  1.00  0.00    -0.550 OA
ENDBRANCH  10  11
ENDBRANCH   9  10
ENDBRANCH   8   9
ENDBRANCH   1   8
TORSDOF 8
ENDMDL
MODEL 7
REMARK VINA RESULT:    -5.238      2.776      6.152
REMARK INTER + INTRA:          -7.991
REMARK INTER:                  -7.437
REMARK INTRA:                  -0.554
REMARK UNBOUND:                -0.304
REMARK SMILES O=C([O-])CCCCCCCC(=O)[O-]
REMARK SMILES IDX 7 1 6 2 5 3 4 4 2 5 1 6 3 7 8 8 9 9 10 10 11 11 12 12 13 13
REMARK H PARENT
REMARK Flexibility Score: inf
ROOT
ATOM      1  C   UNL     1      -4.667 -32.371 -51.754  1.00  0.00     0.000 C 
ENDROOT
BRANCH   1   2
ATOM      2  C   UNL     1      -5.574 -31.309 -51.113  1.00  0.00     0.000 C 
BRANCH   2   3
ATOM      3  C   UNL     1      -5.367 -29.909 -51.718  1.00  0.00     0.006 C 
BRANCH   3   4
ATOM      4  C   UNL     1      -4.358 -29.921 -52.874  1.00  0.00     0.053 C 
BRANCH   4   5
ATOM      5  C   UNL     1      -5.004 -29.571 -54.180  1.00  0.00     0.041 C 
ATOM      6  O   UNL     1      -5.044 -30.416 -55.113  1.00  0.00    -0.550 OA
ATOM      7  O   UNL     1      -5.587 -28.322 -54.357  1.00  0.00    -0.550 OA
ENDBRANCH   4   5
ENDBRANCH   3   4
ENDBRANCH   2   3
ENDBRANCH   1   2
BRANCH   1   8
ATOM      8  C   UNL     1      -3.601 -32.903 -50.785  1.00  0.00     0.000 C 
BRANCH   8   9
ATOM      9  C   UNL     1      -2.543 -33.727 -51.531  1.00  0.00     0.006 C 
BRANCH   9  10
ATOM     10  C   UNL     1      -2.224 -33.108 -52.895  1.00  0.00     0.053 C 
BRANCH  10  11
ATOM     11  C   UNL     1      -0.945 -32.333 -52.832  1.00  0.00     0.041 C 
ATOM     12  O   UNL     1      -0.548 -31.685 -53.835  1.00  0.00    -0.550 OA
ATOM     13  O   UNL     1      -0.168 -32.367 -51.681  1.00  0.00    -0.550 OA
ENDBRANCH  10  11
ENDBRANCH   9  10
ENDBRANCH   8   9
ENDBRANCH   1   8
TORSDOF 8
ENDMDL
MODEL 8
REMARK VINA RESULT:    -5.205      1.974      2.631
REMARK INTER + INTRA:          -7.942
REMARK INTER:                  -7.478
REMARK INTRA:                  -0.465
REMARK UNBOUND:                -0.304
REMARK SMILES O=C([O-])CCCCCCCC(=O)[O-]
REMARK SMILES IDX 7 1 6 2 5 3 4 4 2 5 1 6 3 7 8 8 9 9 10 10 11 11 12 12 13 13
REMARK H PARENT
REMARK Flexibility Score: inf
ROOT
ATOM      1  C   UNL     1      -4.752 -31.614 -53.415  1.00  0.00     0.000 C 
ENDROOT
BRANCH   1   2
ATOM      2  C   UNL     1      -5.370 -32.199 -52.136  1.00  0.00     0.000 C 
BRANCH   2   3
ATOM      3  C   UNL     1      -4.309 -32.688 -51.135  1.00  0.00     0.006 C 
BRANCH   3   4
ATOM      4  C   UNL     1      -2.963 -32.977 -51.813  1.00  0.00     0.053 C 
BRANCH   4   5
ATOM      5  C   UNL     1      -1.819 -32.867 -50.850  1.00  0.00     0.041 C 
ATOM      6  O   UNL     1      -1.060 -31.862 -50.881  1.00  0.00    -0.550 OA
ATOM      7  O   UNL     1      -1.610 -33.858 -49.900  1.00  0.00    -0.550 OA
ENDBRANCH   4   5
ENDBRANCH   3   4
ENDBRANCH   2   3
ENDBRANCH   1   2
BRANCH   1   8
ATOM      8  C   UNL     1      -5.400 -30.285 -53.833  1.00  0.00     0.000 C 
BRANCH   8   9
ATOM      9  C   UNL     1      -4.464 -29.104 -53.547  1.00  0.00     0.006 C 
BRANCH   9  10
ATOM     10  C   UNL     1      -4.278 -28.901 -52.040  1.00  0.00     0.053 C 
BRANCH  10  11
ATOM     11  C   UNL     1      -5.385 -28.062 -51.484  1.00  0.00     0.041 C 
ATOM     12  O   UNL     1      -5.750 -28.208 -50.288  1.00  0.00    -0.550 OA
ATOM     13  O   UNL     1      -6.046 -27.154 -52.300  1.00  0.00    -0.550 OA
ENDBRANCH  10  11
ENDBRANCH   9  10
ENDBRANCH   8   9
ENDBRANCH   1   8
TORSDOF 8
ENDMDL
MODEL 9
REMARK VINA RESULT:    -5.155      2.917      3.443
REMARK INTER + INTRA:          -7.869
REMARK INTER:                  -7.471
REMARK INTRA:                  -0.399
REMARK UNBOUND:                -0.304
REMARK SMILES O=C([O-])CCCCCCCC(=O)[O-]
REMARK SMILES IDX 7 1 6 2 5 3 4 4 2 5 1 6 3 7 8 8 9 9 10 10 11 11 12 12 13 13
REMARK H PARENT
REMARK Flexibility Score: inf
ROOT
ATOM      1  C   UNL     1      -5.547 -31.933 -51.305  1.00  0.00     0.000 C 
ENDROOT
BRANCH   1   2
ATOM      2  C   UNL     1      -4.259 -32.418 -51.987  1.00  0.00     0.000 C 
BRANCH   2   3
ATOM      3  C   UNL     1      -3.296 -33.113 -51.008  1.00  0.00     0.006 C 
BRANCH   3   4
ATOM      4  C   UNL     1      -2.099 -33.748 -51.726  1.00  0.00     0.053 C 
BRANCH   4   5
ATOM      5  C   UNL     1      -0.921 -32.822 -51.771  1.00  0.00     0.041 C 
ATOM      6  O   UNL     1       0.020 -33.033 -52.581  1.00  0.00    -0.550 OA
ATOM      7  O   UNL     1      -0.876 -31.711 -50.939  1.00  0.00    -0.550 OA
ENDBRANCH   4   5
ENDBRANCH   3   4
ENDBRANCH   2   3
ENDBRANCH   1   2
BRANCH   1   8
ATOM      8  C   UNL     1      -5.647 -30.401 -51.248  1.00  0.00     0.000 C 
BRANCH   8   9
ATOM      9  C   UNL     1      -4.682 -29.750 -52.248  1.00  0.00     0.006 C 
BRANCH   9  10
ATOM     10  C   UNL     1      -5.305 -28.503 -52.882  1.00  0.00     0.053 C 
BRANCH  10  11
ATOM     11  C   UNL     1      -5.263 -28.598 -54.375  1.00  0.00     0.041 C 
ATOM     12  O   UNL     1      -5.293 -27.554 -55.077  1.00  0.00    -0.550 OA
ATOM     13  O   UNL     1      -5.239 -29.842 -54.991  1.00  0.00    -0.550 OA
ENDBRANCH  10  11
ENDBRANCH   9  10
ENDBRANCH   8   9
ENDBRANCH   1   8
TORSDOF 8
ENDMDL
