MODEL 1
REMARK VINA RESULT:    -6.634      0.000      0.000
REMARK INTER + INTRA:          -8.077
REMARK INTER:                  -7.409
REMARK INTRA:                  -0.668
REMARK UNBOUND:                -0.668
REMARK SMILES C=C(C)[C@H]1CC[C@]2(C(=O)[O-])CC[C@]3(C)[C@@H](CC[C@H]4[C@@]5(C)CCC(=O)C(C)(C)[C@H]5CC[C@@]43C)[C@H]12
REMARK SMILES IDX 7 1 6 2 33 3 11 4 5 5 15 6 4 7 12 8 16 9 13 10 17 11 31 12
REMARK SMILES IDX 14 13 18 14 30 15 32 16 19 17 29 18 21 19 20 20 28 21 22 22
REMARK SMILES IDX 25 23 23 24 26 25 27 26 24 27 8 28 9 29 10 30 2 31 3 32 1 33
REMARK H PARENT
REMARK Flexibility Score: inf
ROOT
ATOM      1  C   UNL     1      40.076  23.571  24.703  1.00  0.00     0.014 C 
ATOM      2  C   UNL     1      38.867  23.194  25.596  1.00  0.00     0.014 C 
ATOM      3  C   UNL     1      39.413  24.213  23.417  1.00  0.00     0.012 C 
ATOM      4  C   UNL     1      41.053  24.468  25.527  1.00  0.00     0.014 C 
ATOM      5  C   UNL     1      37.707  22.969  24.656  1.00  0.00     0.009 C 
ATOM      6  C   UNL     1      39.844  25.683  22.991  1.00  0.00     0.000 C 
ATOM      7  C   UNL     1      37.871  24.012  23.545  1.00  0.00     0.018 C 
ATOM      8  C   UNL     1      41.640  25.648  24.754  1.00  0.00     0.008 C 
ATOM      9  C   UNL     1      40.670  25.581  21.670  1.00  0.00     0.005 C 
ATOM     10  C   UNL     1      40.548  26.558  24.111  1.00  0.00    -0.024 C 
ATOM     11  C   UNL     1      41.241  26.903  21.147  1.00  0.00     0.005 C 
ATOM     12  C   UNL     1      41.160  27.932  23.484  1.00  0.00    -0.024 C 
ATOM     13  C   UNL     1      39.506  26.917  25.231  1.00  0.00     0.012 C 
ATOM     14  C   UNL     1      42.083  27.579  22.252  1.00  0.00     0.002 C 
ATOM     15  C   UNL     1      42.006  28.749  24.537  1.00  0.00     0.008 C 
ATOM     16  C   UNL     1      39.965  28.854  23.019  1.00  0.00     0.012 C 
ATOM     17  C   UNL     1      43.168  28.669  21.799  1.00  0.00    -0.025 C 
ATOM     18  C   UNL     1      43.519  28.562  24.396  1.00  0.00     0.006 C 
ATOM     19  C   UNL     1      42.532  29.900  21.064  1.00  0.00     0.015 C 
ATOM     20  C   UNL     1      44.108  27.980  20.756  1.00  0.00     0.012 C 
ATOM     21  C   UNL     1      44.086  29.091  23.039  1.00  0.00     0.008 C 
ATOM     22  C   UNL     1      42.255  31.145  21.922  1.00  0.00     0.077 C 
ATOM     23  C   UNL     1      44.576  30.604  23.045  1.00  0.00     0.027 C 
ATOM     24  C   UNL     1      43.421  31.545  22.769  1.00  0.00     0.138 C 
ATOM     25  C   UNL     1      45.247  30.987  24.396  1.00  0.00     0.020 C 
ATOM     26  C   UNL     1      45.656  30.839  21.954  1.00  0.00     0.020 C 
ATOM     27  O   UNL     1      43.448  32.690  23.202  1.00  0.00    -0.299 OA
ENDROOT
BRANCH   1  28
ATOM     28  C   UNL     1      40.849  22.318  24.288  1.00  0.00     0.048 C 
ATOM     29  O   UNL     1      41.289  21.534  25.173  1.00  0.00    -0.550 OA
ATOM     30  O   UNL     1      41.063  21.999  22.951  1.00  0.00    -0.550 OA
ENDBRANCH   1  28
BRANCH   7  31
ATOM     31  C   UNL     1      37.170  23.613  22.229  1.00  0.00    -0.077 C 
ATOM     32  C   UNL     1      36.922  24.616  21.121  1.00  0.00     0.039 C 
ATOM     33  C   UNL     1      36.804  22.337  22.011  1.00  0.00     0.008 C 
ENDBRANCH   7  31
TORSDOF 2
ENDMDL
MODEL 2
REMARK VINA RESULT:    -6.444      2.400      2.967
REMARK INTER + INTRA:          -7.866
REMARK INTER:                  -7.192
REMARK INTRA:                  -0.674
REMARK UNBOUND:                -0.668
REMARK SMILES C=C(C)[C@H]1CC[C@]2(C(=O)[O-])CC[C@]3(C)[C@@H](CC[C@H]4[C@@]5(C)CCC(=O)C(C)(C)[C@H]5CC[C@@]43C)[C@H]12
REMARK SMILES IDX 7 1 6 2 33 3 11 4 5 5 15 6 4 7 12 8 16 9 13 10 17 11 31 12
REMARK SMILES IDX 14 13 18 14 30 15 32 16 19 17 29 18 21 19 20 20 28 21 22 22
REMARK SMILES IDX 25 23 23 24 26 25 27 26 24 27 8 28 9 29 10 30 2 31 3 32 1 33
REMARK H PARENT
REMARK Flexibility Score: inf
ROOT
ATOM      1  C   UNL     1      40.329  23.744  25.779  1.00  0.00     0.014 C 
ATOM      2  C   UNL     1      38.976  24.179  26.394  1.00  0.00     0.014 C 
ATOM      3  C   UNL     1      40.155  24.032  24.232  1.00  0.00     0.012 C 
ATOM      4  C   UNL     1      41.485  24.489  26.520  1.00  0.00     0.014 C 
ATOM      5  C   UNL     1      37.950  24.028  25.295  1.00  0.00     0.009 C 
ATOM      6  C   UNL     1      41.208  24.981  23.510  1.00  0.00     0.000 C 
ATOM      7  C   UNL     1      38.667  24.442  24.005  1.00  0.00     0.018 C 
ATOM      8  C   UNL     1      42.598  25.003  25.609  1.00  0.00     0.008 C 
ATOM      9  C   UNL     1      42.069  24.105  22.548  1.00  0.00     0.005 C 
ATOM     10  C   UNL     1      42.071  25.916  24.458  1.00  0.00    -0.024 C 
ATOM     11  C   UNL     1      43.198  24.841  21.819  1.00  0.00     0.005 C 
ATOM     12  C   UNL     1      43.271  26.643  23.629  1.00  0.00    -0.024 C 
ATOM     13  C   UNL     1      41.147  27.010  25.102  1.00  0.00     0.012 C 
ATOM     14  C   UNL     1      44.104  25.551  22.848  1.00  0.00     0.002 C 
ATOM     15  C   UNL     1      44.247  27.453  24.569  1.00  0.00     0.008 C 
ATOM     16  C   UNL     1      42.635  27.668  22.610  1.00  0.00     0.012 C 
ATOM     17  C   UNL     1      45.590  25.937  22.389  1.00  0.00    -0.025 C 
ATOM     18  C   UNL     1      45.549  26.715  24.893  1.00  0.00     0.006 C 
ATOM     19  C   UNL     1      45.619  26.932  21.177  1.00  0.00     0.015 C 
ATOM     20  C   UNL     1      46.277  24.624  21.888  1.00  0.00     0.012 C 
ATOM     21  C   UNL     1      46.444  26.455  23.639  1.00  0.00     0.008 C 
ATOM     22  C   UNL     1      45.785  28.423  21.514  1.00  0.00     0.077 C 
ATOM     23  C   UNL     1      47.516  27.585  23.316  1.00  0.00     0.027 C 
ATOM     24  C   UNL     1      46.900  28.686  22.476  1.00  0.00     0.138 C 
ATOM     25  C   UNL     1      48.117  28.198  24.615  1.00  0.00     0.020 C 
ATOM     26  C   UNL     1      48.718  26.997  22.529  1.00  0.00     0.020 C 
ATOM     27  O   UNL     1      47.350  29.823  22.534  1.00  0.00    -0.299 OA
ENDROOT
BRANCH   1  28
ATOM     28  C   UNL     1      40.554  22.244  25.979  1.00  0.00     0.048 C 
ATOM     29  O   UNL     1      41.245  21.599  25.143  1.00  0.00    -0.550 OA
ATOM     30  O   UNL     1      40.039  21.566  27.079  1.00  0.00    -0.550 OA
ENDBRANCH   1  28
BRANCH   7  31
ATOM     31  C   UNL     1      38.028  23.840  22.736  1.00  0.00    -0.077 C 
ATOM     32  C   UNL     1      37.863  22.344  22.558  1.00  0.00     0.039 C 
ATOM     33  C   UNL     1      37.548  24.641  21.767  1.00  0.00     0.008 C 
ENDBRANCH   7  31
TORSDOF 2
ENDMDL
MODEL 3
REMARK VINA RESULT:    -6.411      7.897     10.755
REMARK INTER + INTRA:          -7.828
REMARK INTER:                  -7.217
REMARK INTRA:                  -0.611
REMARK UNBOUND:                -0.668
REMARK SMILES C=C(C)[C@H]1CC[C@]2(C(=O)[O-])CC[C@]3(C)[C@@H](CC[C@H]4[C@@]5(C)CCC(=O)C(C)(C)[C@H]5CC[C@@]43C)[C@H]12
REMARK SMILES IDX 7 1 6 2 33 3 11 4 5 5 15 6 4 7 12 8 16 9 13 10 17 11 31 12
REMARK SMILES IDX 14 13 18 14 30 15 32 16 19 17 29 18 21 19 20 20 28 21 22 22
REMARK SMILES IDX 25 23 23 24 26 25 27 26 24 27 8 28 9 29 10 30 2 31 3 32 1 33
REMARK H PARENT
REMARK Flexibility Score: inf
ROOT
ATOM      1  C   UNL     1      50.653  26.760  19.906  1.00  0.00     0.014 C 
ATOM      2  C   UNL     1      51.366  25.532  19.285  1.00  0.00     0.014 C 
ATOM      3  C   UNL     1      49.929  26.173  21.186  1.00  0.00     0.012 C 
ATOM      4  C   UNL     1      51.704  27.892  20.136  1.00  0.00     0.014 C 
ATOM      5  C   UNL     1      50.565  24.325  19.711  1.00  0.00     0.009 C 
ATOM      6  C   UNL     1      50.242  26.823  22.604  1.00  0.00     0.000 C 
ATOM      7  C   UNL     1      50.103  24.623  21.142  1.00  0.00     0.018 C 
ATOM      8  C   UNL     1      51.557  28.638  21.460  1.00  0.00     0.008 C 
ATOM      9  C   UNL     1      48.964  27.583  23.079  1.00  0.00     0.005 C 
ATOM     10  C   UNL     1      51.567  27.689  22.699  1.00  0.00    -0.024 C 
ATOM     11  C   UNL     1      49.105  28.345  24.401  1.00  0.00     0.005 C 
ATOM     12  C   UNL     1      51.639  28.496  24.112  1.00  0.00    -0.024 C 
ATOM     13  C   UNL     1      52.821  26.751  22.571  1.00  0.00     0.012 C 
ATOM     14  C   UNL     1      50.304  29.315  24.316  1.00  0.00     0.002 C 
ATOM     15  C   UNL     1      52.862  29.493  24.174  1.00  0.00     0.008 C 
ATOM     16  C   UNL     1      51.818  27.453  25.284  1.00  0.00     0.012 C 
ATOM     17  C   UNL     1      50.336  30.548  25.340  1.00  0.00    -0.025 C 
ATOM     18  C   UNL     1      52.488  30.951  23.896  1.00  0.00     0.006 C 
ATOM     19  C   UNL     1      50.377  30.098  26.842  1.00  0.00     0.015 C 
ATOM     20  C   UNL     1      48.997  31.335  25.160  1.00  0.00     0.012 C 
ATOM     21  C   UNL     1      51.518  31.557  24.961  1.00  0.00     0.008 C 
ATOM     22  C   UNL     1      51.761  30.049  27.509  1.00  0.00     0.077 C 
ATOM     23  C   UNL     1      52.219  32.284  26.190  1.00  0.00     0.027 C 
ATOM     24  C   UNL     1      52.566  31.288  27.278  1.00  0.00     0.138 C 
ATOM     25  C   UNL     1      53.504  33.047  25.753  1.00  0.00     0.020 C 
ATOM     26  C   UNL     1      51.279  33.356  26.806  1.00  0.00     0.020 C 
ATOM     27  O   UNL     1      53.503  31.512  28.035  1.00  0.00    -0.299 OA
ENDROOT
BRANCH   1  28
ATOM     28  C   UNL     1      49.595  27.309  18.948  1.00  0.00     0.048 C 
ATOM     29  O   UNL     1      48.547  27.838  19.413  1.00  0.00    -0.550 OA
ATOM     30  O   UNL     1      49.763  27.268  17.568  1.00  0.00    -0.550 OA
ENDBRANCH   1  28
BRANCH   7  31
ATOM     31  C   UNL     1      48.844  23.829  21.552  1.00  0.00    -0.077 C 
ATOM     32  C   UNL     1      47.548  24.523  21.919  1.00  0.00     0.039 C 
ATOM     33  C   UNL     1      48.852  22.484  21.543  1.00  0.00     0.008 C 
ENDBRANCH   7  31
TORSDOF 2
ENDMDL
MODEL 4
REMARK VINA RESULT:    -6.342      2.238      8.101
REMARK INTER + INTRA:          -7.752
REMARK INTER:                  -7.342
REMARK INTRA:                  -0.410
REMARK UNBOUND:                -0.668
REMARK SMILES C=C(C)[C@H]1CC[C@]2(C(=O)[O-])CC[C@]3(C)[C@@H](CC[C@H]4[C@@]5(C)CCC(=O)C(C)(C)[C@H]5CC[C@@]43C)[C@H]12
REMARK SMILES IDX 7 1 6 2 33 3 11 4 5 5 15 6 4 7 12 8 16 9 13 10 17 11 31 12
REMARK SMILES IDX 14 13 18 14 30 15 32 16 19 17 29 18 21 19 20 20 28 21 22 22
REMARK SMILES IDX 25 23 23 24 26 25 27 26 24 27 8 28 9 29 10 30 2 31 3 32 1 33
REMARK H PARENT
REMARK Flexibility Score: inf
ROOT
ATOM      1  C   UNL     1      40.178  32.534  22.037  1.00  0.00     0.014 C 
ATOM      2  C   UNL     1      40.513  33.870  22.746  1.00  0.00     0.014 C 
ATOM      3  C   UNL     1      41.595  31.887  21.756  1.00  0.00     0.012 C 
ATOM      4  C   UNL     1      39.186  31.723  22.930  1.00  0.00     0.014 C 
ATOM      5  C   UNL     1      41.891  34.262  22.270  1.00  0.00     0.009 C 
ATOM      6  C   UNL     1      41.891  30.427  22.314  1.00  0.00     0.000 C 
ATOM      7  C   UNL     1      42.671  32.948  22.145  1.00  0.00     0.018 C 
ATOM      8  C   UNL     1      39.480  30.226  23.010  1.00  0.00     0.008 C 
ATOM      9  C   UNL     1      41.971  29.452  21.099  1.00  0.00     0.005 C 
ATOM     10  C   UNL     1      40.938  29.916  23.475  1.00  0.00    -0.024 C 
ATOM     11  C   UNL     1      42.172  27.974  21.451  1.00  0.00     0.005 C 
ATOM     12  C   UNL     1      41.180  28.334  23.779  1.00  0.00    -0.024 C 
ATOM     13  C   UNL     1      41.208  30.744  24.782  1.00  0.00     0.012 C 
ATOM     14  C   UNL     1      41.068  27.519  22.430  1.00  0.00     0.002 C 
ATOM     15  C   UNL     1      40.139  27.753  24.814  1.00  0.00     0.008 C 
ATOM     16  C   UNL     1      42.620  28.152  24.402  1.00  0.00     0.012 C 
ATOM     17  C   UNL     1      40.768  25.947  22.534  1.00  0.00    -0.025 C 
ATOM     18  C   UNL     1      38.991  26.974  24.167  1.00  0.00     0.006 C 
ATOM     19  C   UNL     1      42.007  25.116  23.019  1.00  0.00     0.015 C 
ATOM     20  C   UNL     1      40.445  25.441  21.090  1.00  0.00     0.012 C 
ATOM     21  C   UNL     1      39.460  25.686  23.417  1.00  0.00     0.008 C 
ATOM     22  C   UNL     1      42.065  24.779  24.518  1.00  0.00     0.077 C 
ATOM     23  C   UNL     1      39.475  24.354  24.287  1.00  0.00     0.027 C 
ATOM     24  C   UNL     1      40.782  24.221  25.043  1.00  0.00     0.138 C 
ATOM     25  C   UNL     1      38.286  24.308  25.291  1.00  0.00     0.020 C 
ATOM     26  C   UNL     1      39.316  23.102  23.383  1.00  0.00     0.020 C 
ATOM     27  O   UNL     1      40.817  23.596  26.095  1.00  0.00    -0.299 OA
ENDROOT
BRANCH   1  28
ATOM     28  C   UNL     1      39.480  32.794  20.701  1.00  0.00     0.048 C 
ATOM     29  O   UNL     1      40.005  32.378  19.632  1.00  0.00    -0.550 OA
ATOM     30  O   UNL     1      38.259  33.457  20.629  1.00  0.00    -0.550 OA
ENDBRANCH   1  28
BRANCH   7  31
ATOM     31  C   UNL     1      43.859  33.038  21.163  1.00  0.00    -0.077 C 
ATOM     32  C   UNL     1      44.738  34.270  21.086  1.00  0.00     0.039 C 
ATOM     33  C   UNL     1      44.178  31.993  20.380  1.00  0.00     0.008 C 
ENDBRANCH   7  31
TORSDOF 2
ENDMDL
MODEL 5
REMARK VINA RESULT:    -6.318      4.744      7.629
REMARK INTER + INTRA:          -7.725
REMARK INTER:                  -7.056
REMARK INTRA:                  -0.669
REMARK UNBOUND:                -0.668
REMARK SMILES C=C(C)[C@H]1CC[C@]2(C(=O)[O-])CC[C@]3(C)[C@@H](CC[C@H]4[C@@]5(C)CCC(=O)C(C)(C)[C@H]5CC[C@@]43C)[C@H]12
REMARK SMILES IDX 7 1 6 2 33 3 11 4 5 5 15 6 4 7 12 8 16 9 13 10 17 11 31 12
REMARK SMILES IDX 14 13 18 14 30 15 32 16 19 17 29 18 21 19 20 20 28 21 22 22
REMARK SMILES IDX 25 23 23 24 26 25 27 26 24 27 8 28 9 29 10 30 2 31 3 32 1 33
REMARK H PARENT
REMARK Flexibility Score: inf
ROOT
ATOM      1  C   UNL     1      40.834  30.654  23.001  1.00  0.00     0.014 C 
ATOM      2  C   UNL     1      39.831  29.814  23.831  1.00  0.00     0.014 C 
ATOM      3  C   UNL     1      39.978  31.891  22.507  1.00  0.00     0.012 C 
ATOM      4  C   UNL     1      42.088  30.958  23.881  1.00  0.00     0.014 C 
ATOM      5  C   UNL     1      38.463  30.127  23.274  1.00  0.00     0.009 C 
ATOM      6  C   UNL     1      40.487  33.357  22.853  1.00  0.00     0.000 C 
ATOM      7  C   UNL     1      38.497  31.617  22.915  1.00  0.00     0.018 C 
ATOM      8  C   UNL     1      42.627  32.381  23.751  1.00  0.00     0.008 C 
ATOM      9  C   UNL     1      40.957  34.031  21.527  1.00  0.00     0.005 C 
ATOM     10  C   UNL     1      41.544  33.471  24.030  1.00  0.00    -0.024 C 
ATOM     11  C   UNL     1      41.559  35.433  21.677  1.00  0.00     0.005 C 
ATOM     12  C   UNL     1      42.168  34.973  24.116  1.00  0.00    -0.024 C 
ATOM     13  C   UNL     1      40.853  33.116  25.396  1.00  0.00     0.012 C 
ATOM     14  C   UNL     1      42.719  35.393  22.696  1.00  0.00     0.002 C 
ATOM     15  C   UNL     1      43.339  35.080  25.169  1.00  0.00     0.008 C 
ATOM     16  C   UNL     1      41.030  35.970  24.570  1.00  0.00     0.012 C 
ATOM     17  C   UNL     1      43.801  36.574  22.637  1.00  0.00    -0.025 C 
ATOM     18  C   UNL     1      44.738  35.039  24.547  1.00  0.00     0.006 C 
ATOM     19  C   UNL     1      43.179  37.990  22.896  1.00  0.00     0.015 C 
ATOM     20  C   UNL     1      44.370  36.609  21.181  1.00  0.00     0.012 C 
ATOM     21  C   UNL     1      45.034  36.250  23.605  1.00  0.00     0.008 C 
ATOM     22  C   UNL     1      43.280  38.534  24.330  1.00  0.00     0.077 C 
ATOM     23  C   UNL     1      45.708  37.511  24.301  1.00  0.00     0.027 C 
ATOM     24  C   UNL     1      44.655  38.418  24.906  1.00  0.00     0.138 C 
ATOM     25  C   UNL     1      46.723  37.087  25.403  1.00  0.00     0.020 C 
ATOM     26  C   UNL     1      46.521  38.341  23.272  1.00  0.00     0.020 C 
ATOM     27  O   UNL     1      44.935  39.124  25.866  1.00  0.00    -0.299 OA
ENDROOT
BRANCH   1  28
ATOM     28  C   UNL     1      41.315  29.867  21.780  1.00  0.00     0.048 C 
ATOM     29  O   UNL     1      41.719  30.487  20.758  1.00  0.00    -0.550 OA
ATOM     30  O   UNL     1      41.346  28.477  21.770  1.00  0.00    -0.550 OA
ENDBRANCH   1  28
BRANCH   7  31
ATOM     31  C   UNL     1      37.459  32.007  21.842  1.00  0.00    -0.077 C 
ATOM     32  C   UNL     1      37.868  32.356  20.425  1.00  0.00     0.039 C 
ATOM     33  C   UNL     1      36.144  31.997  22.128  1.00  0.00     0.008 C 
ENDBRANCH   7  31
TORSDOF 2
ENDMDL
MODEL 6
REMARK VINA RESULT:    -6.312      2.861      7.767
REMARK INTER + INTRA:          -7.718
REMARK INTER:                  -7.097
REMARK INTRA:                  -0.621
REMARK UNBOUND:                -0.668
REMARK SMILES C=C(C)[C@H]1CC[C@]2(C(=O)[O-])CC[C@]3(C)[C@@H](CC[C@H]4[C@@]5(C)CCC(=O)C(C)(C)[C@H]5CC[C@@]43C)[C@H]12
REMARK SMILES IDX 7 1 6 2 33 3 11 4 5 5 15 6 4 7 12 8 16 9 13 10 17 11 31 12
REMARK SMILES IDX 14 13 18 14 30 15 32 16 19 17 29 18 21 19 20 20 28 21 22 22
REMARK SMILES IDX 25 23 23 24 26 25 27 26 24 27 8 28 9 29 10 30 2 31 3 32 1 33
REMARK H PARENT
REMARK Flexibility Score: inf
ROOT
ATOM      1  C   UNL     1      46.944  26.905  23.117  1.00  0.00     0.014 C 
ATOM      2  C   UNL     1      48.119  26.402  22.240  1.00  0.00     0.014 C 
ATOM      3  C   UNL     1      46.019  27.691  22.101  1.00  0.00     0.012 C 
ATOM      4  C   UNL     1      46.313  25.686  23.864  1.00  0.00     0.014 C 
ATOM      5  C   UNL     1      48.226  27.374  21.090  1.00  0.00     0.009 C 
ATOM      6  C   UNL     1      44.495  27.258  21.967  1.00  0.00     0.000 C 
ATOM      7  C   UNL     1      46.784  27.761  20.743  1.00  0.00     0.018 C 
ATOM      8  C   UNL     1      44.787  25.694  23.918  1.00  0.00     0.008 C 
ATOM      9  C   UNL     1      43.615  28.393  22.577  1.00  0.00     0.005 C 
ATOM     10  C   UNL     1      44.128  25.813  22.508  1.00  0.00    -0.024 C 
ATOM     11  C   UNL     1      42.108  28.115  22.609  1.00  0.00     0.005 C 
ATOM     12  C   UNL     1      42.514  25.593  22.545  1.00  0.00    -0.024 C 
ATOM     13  C   UNL     1      44.780  24.723  21.584  1.00  0.00     0.012 C 
ATOM     14  C   UNL     1      41.842  26.781  23.340  1.00  0.00     0.002 C 
ATOM     15  C   UNL     1      42.108  24.228  23.228  1.00  0.00     0.008 C 
ATOM     16  C   UNL     1      41.972  25.560  21.062  1.00  0.00     0.012 C 
ATOM     17  C   UNL     1      40.373  26.540  23.937  1.00  0.00    -0.025 C 
ATOM     18  C   UNL     1      41.652  24.375  24.683  1.00  0.00     0.006 C 
ATOM     19  C   UNL     1      39.255  26.546  22.837  1.00  0.00     0.015 C 
ATOM     20  C   UNL     1      40.056  27.743  24.884  1.00  0.00     0.012 C 
ATOM     21  C   UNL     1      40.348  25.222  24.842  1.00  0.00     0.008 C 
ATOM     22  C   UNL     1      38.808  25.176  22.303  1.00  0.00     0.077 C 
ATOM     23  C   UNL     1      38.988  24.397  24.813  1.00  0.00     0.027 C 
ATOM     24  C   UNL     1      38.514  24.191  23.389  1.00  0.00     0.138 C 
ATOM     25  C   UNL     1      39.137  23.016  25.517  1.00  0.00     0.020 C 
ATOM     26  C   UNL     1      37.871  25.148  25.586  1.00  0.00     0.020 C 
ATOM     27  O   UNL     1      37.823  23.220  23.109  1.00  0.00    -0.299 OA
ENDROOT
BRANCH   1  28
ATOM     28  C   UNL     1      47.447  27.880  24.183  1.00  0.00     0.048 C 
ATOM     29  O   UNL     1      46.620  28.588  24.821  1.00  0.00    -0.550 OA
ATOM     30  O   UNL     1      48.799  27.994  24.494  1.00  0.00    -0.550 OA
ENDBRANCH   1  28
BRANCH   7  31
ATOM     31  C   UNL     1      46.677  29.121  20.022  1.00  0.00    -0.077 C 
ATOM     32  C   UNL     1      47.778  30.158  20.107  1.00  0.00     0.039 C 
ATOM     33  C   UNL     1      45.613  29.402  19.249  1.00  0.00     0.008 C 
ENDBRANCH   7  31
TORSDOF 2
ENDMDL
MODEL 7
REMARK VINA RESULT:    -6.281      7.037      9.258
REMARK INTER + INTRA:          -7.683
REMARK INTER:                  -7.336
REMARK INTRA:                  -0.347
REMARK UNBOUND:                -0.668
REMARK SMILES C=C(C)[C@H]1CC[C@]2(C(=O)[O-])CC[C@]3(C)[C@@H](CC[C@H]4[C@@]5(C)CCC(=O)C(C)(C)[C@H]5CC[C@@]43C)[C@H]12
REMARK SMILES IDX 7 1 6 2 33 3 11 4 5 5 15 6 4 7 12 8 16 9 13 10 17 11 31 12
REMARK SMILES IDX 14 13 18 14 30 15 32 16 19 17 29 18 21 19 20 20 28 21 22 22
REMARK SMILES IDX 25 23 23 24 26 25 27 26 24 27 8 28 9 29 10 30 2 31 3 32 1 33
REMARK H PARENT
REMARK Flexibility Score: inf
ROOT
ATOM      1  C   UNL     1      50.869  26.402  21.846  1.00  0.00     0.014 C 
ATOM      2  C   UNL     1      50.802  24.859  21.968  1.00  0.00     0.014 C 
ATOM      3  C   UNL     1      50.383  26.689  20.367  1.00  0.00     0.012 C 
ATOM      4  C   UNL     1      50.040  27.038  23.007  1.00  0.00     0.014 C 
ATOM      5  C   UNL     1      50.975  24.322  20.567  1.00  0.00     0.009 C 
ATOM      6  C   UNL     1      49.150  27.669  20.147  1.00  0.00     0.000 C 
ATOM      7  C   UNL     1      50.236  25.308  19.656  1.00  0.00     0.018 C 
ATOM      8  C   UNL     1      49.188  28.237  22.598  1.00  0.00     0.008 C 
ATOM      9  C   UNL     1      49.685  28.980  19.490  1.00  0.00     0.005 C 
ATOM     10  C   UNL     1      48.225  27.924  21.410  1.00  0.00    -0.024 C 
ATOM     11  C   UNL     1      48.642  30.081  19.274  1.00  0.00     0.005 C 
ATOM     12  C   UNL     1      47.162  29.126  21.126  1.00  0.00    -0.024 C 
ATOM     13  C   UNL     1      47.442  26.610  21.765  1.00  0.00     0.012 C 
ATOM     14  C   UNL     1      47.940  30.402  20.612  1.00  0.00     0.002 C 
ATOM     15  C   UNL     1      46.336  29.516  22.413  1.00  0.00     0.008 C 
ATOM     16  C   UNL     1      46.132  28.643  20.030  1.00  0.00     0.012 C 
ATOM     17  C   UNL     1      47.209  31.822  20.747  1.00  0.00    -0.025 C 
ATOM     18  C   UNL     1      46.852  30.771  23.123  1.00  0.00     0.006 C 
ATOM     19  C   UNL     1      46.051  32.018  19.707  1.00  0.00     0.015 C 
ATOM     20  C   UNL     1      48.272  32.922  20.424  1.00  0.00     0.012 C 
ATOM     21  C   UNL     1      46.737  32.066  22.256  1.00  0.00     0.008 C 
ATOM     22  C   UNL     1      44.627  31.709  20.197  1.00  0.00     0.077 C 
ATOM     23  C   UNL     1      45.387  32.888  22.427  1.00  0.00     0.027 C 
ATOM     24  C   UNL     1      44.307  32.347  21.511  1.00  0.00     0.138 C 
ATOM     25  C   UNL     1      44.879  32.863  23.899  1.00  0.00     0.020 C 
ATOM     26  C   UNL     1      45.604  34.385  22.079  1.00  0.00     0.020 C 
ATOM     27  O   UNL     1      43.128  32.473  21.815  1.00  0.00    -0.299 OA
ENDROOT
BRANCH   1  28
ATOM     28  C   UNL     1      52.311  26.892  21.996  1.00  0.00     0.048 C 
ATOM     29  O   UNL     1      52.562  28.126  21.913  1.00  0.00    -0.550 OA
ATOM     30  O   UNL     1      53.360  26.015  22.250  1.00  0.00    -0.550 OA
ENDBRANCH   1  28
BRANCH   7  31
ATOM     31  C   UNL     1      50.745  25.286  18.199  1.00  0.00    -0.077 C 
ATOM     32  C   UNL     1      50.605  26.487  17.286  1.00  0.00     0.039 C 
ATOM     33  C   UNL     1      51.380  24.204  17.714  1.00  0.00     0.008 C 
ENDBRANCH   7  31
TORSDOF 2
ENDMDL
MODEL 8
REMARK VINA RESULT:    -6.161      1.962      2.709
REMARK INTER + INTRA:          -7.550
REMARK INTER:                  -6.840
REMARK INTRA:                  -0.710
REMARK UNBOUND:                -0.668
REMARK SMILES C=C(C)[C@H]1CC[C@]2(C(=O)[O-])CC[C@]3(C)[C@@H](CC[C@H]4[C@@]5(C)CCC(=O)C(C)(C)[C@H]5CC[C@@]43C)[C@H]12
REMARK SMILES IDX 7 1 6 2 33 3 11 4 5 5 15 6 4 7 12 8 16 9 13 10 17 11 31 12
REMARK SMILES IDX 14 13 18 14 30 15 32 16 19 17 29 18 21 19 20 20 28 21 22 22
REMARK SMILES IDX 25 23 23 24 26 25 27 26 24 27 8 28 9 29 10 30 2 31 3 32 1 33
REMARK H PARENT
REMARK Flexibility Score: inf
ROOT
ATOM      1  C   UNL     1      40.273  26.034  25.880  1.00  0.00     0.014 C 
ATOM      2  C   UNL     1      39.044  25.523  26.672  1.00  0.00     0.014 C 
ATOM      3  C   UNL     1      39.776  26.056  24.378  1.00  0.00     0.012 C 
ATOM      4  C   UNL     1      40.744  27.389  26.498  1.00  0.00     0.014 C 
ATOM      5  C   UNL     1      38.243  24.685  25.705  1.00  0.00     0.009 C 
ATOM      6  C   UNL     1      39.869  27.420  23.564  1.00  0.00     0.000 C 
ATOM      7  C   UNL     1      38.364  25.393  24.351  1.00  0.00     0.018 C 
ATOM      8  C   UNL     1      41.144  28.450  25.474  1.00  0.00     0.008 C 
ATOM      9  C   UNL     1      40.973  27.258  22.473  1.00  0.00     0.005 C 
ATOM     10  C   UNL     1      40.022  28.741  24.429  1.00  0.00    -0.024 C 
ATOM     11  C   UNL     1      41.261  28.508  21.636  1.00  0.00     0.005 C 
ATOM     12  C   UNL     1      40.357  30.025  23.483  1.00  0.00    -0.024 C 
ATOM     13  C   UNL     1      38.691  29.011  25.219  1.00  0.00     0.012 C 
ATOM     14  C   UNL     1      41.601  29.691  22.569  1.00  0.00     0.002 C 
ATOM     15  C   UNL     1      40.675  31.324  24.323  1.00  0.00     0.008 C 
ATOM     16  C   UNL     1      39.096  30.338  22.586  1.00  0.00     0.012 C 
ATOM     17  C   UNL     1      42.416  30.922  21.943  1.00  0.00    -0.025 C 
ATOM     18  C   UNL     1      42.171  31.623  24.458  1.00  0.00     0.006 C 
ATOM     19  C   UNL     1      41.652  31.631  20.771  1.00  0.00     0.015 C 
ATOM     20  C   UNL     1      43.726  30.340  21.318  1.00  0.00     0.012 C 
ATOM     21  C   UNL     1      42.867  31.936  23.095  1.00  0.00     0.008 C 
ATOM     22  C   UNL     1      40.849  32.890  21.136  1.00  0.00     0.077 C 
ATOM     23  C   UNL     1      42.903  33.472  22.681  1.00  0.00     0.027 C 
ATOM     24  C   UNL     1      41.629  33.864  21.960  1.00  0.00     0.138 C 
ATOM     25  C   UNL     1      43.109  34.397  23.916  1.00  0.00     0.020 C 
ATOM     26  C   UNL     1      44.097  33.759  21.732  1.00  0.00     0.020 C 
ATOM     27  O   UNL     1      41.236  35.023  22.002  1.00  0.00    -0.299 OA
ENDROOT
BRANCH   1  28
ATOM     28  C   UNL     1      41.438  25.050  26.001  1.00  0.00     0.048 C 
ATOM     29  O   UNL     1      41.888  24.486  24.966  1.00  0.00    -0.550 OA
ATOM     30  O   UNL     1      42.042  24.775  27.224  1.00  0.00    -0.550 OA
ENDBRANCH   1  28
BRANCH   7  31
ATOM     31  C   UNL     1      38.127  24.452  23.150  1.00  0.00    -0.077 C 
ATOM     32  C   UNL     1      37.471  24.937  21.873  1.00  0.00     0.039 C 
ATOM     33  C   UNL     1      38.548  23.175  23.190  1.00  0.00     0.008 C 
ENDBRANCH   7  31
TORSDOF 2
ENDMDL
MODEL 9
REMARK VINA RESULT:    -6.088      1.969      4.010
REMARK INTER + INTRA:          -7.469
REMARK INTER:                  -6.847
REMARK INTRA:                  -0.622
REMARK UNBOUND:                -0.668
REMARK SMILES C=C(C)[C@H]1CC[C@]2(C(=O)[O-])CC[C@]3(C)[C@@H](CC[C@H]4[C@@]5(C)CCC(=O)C(C)(C)[C@H]5CC[C@@]43C)[C@H]12
REMARK SMILES IDX 7 1 6 2 33 3 11 4 5 5 15 6 4 7 12 8 16 9 13 10 17 11 31 12
REMARK SMILES IDX 14 13 18 14 30 15 32 16 19 17 29 18 21 19 20 20 28 21 22 22
REMARK SMILES IDX 25 23 23 24 26 25 27 26 24 27 8 28 9 29 10 30 2 31 3 32 1 33
REMARK H PARENT
REMARK Flexibility Score: inf
ROOT
ATOM      1  C   UNL     1      39.990  23.460  23.666  1.00  0.00     0.014 C 
ATOM      2  C   UNL     1      40.927  22.237  23.832  1.00  0.00     0.014 C 
ATOM      3  C   UNL     1      40.018  24.158  25.087  1.00  0.00     0.012 C 
ATOM      4  C   UNL     1      40.474  24.305  22.444  1.00  0.00     0.014 C 
ATOM      5  C   UNL     1      40.890  21.880  25.299  1.00  0.00     0.009 C 
ATOM      6  C   UNL     1      40.445  25.687  25.176  1.00  0.00     0.000 C 
ATOM      7  C   UNL     1      40.812  23.217  26.045  1.00  0.00     0.018 C 
ATOM      8  C   UNL     1      40.439  25.816  22.663  1.00  0.00     0.008 C 
ATOM      9  C   UNL     1      39.181  26.520  25.557  1.00  0.00     0.005 C 
ATOM     10  C   UNL     1      41.233  26.267  23.928  1.00  0.00    -0.024 C 
ATOM     11  C   UNL     1      39.385  28.038  25.613  1.00  0.00     0.005 C 
ATOM     12  C   UNL     1      41.388  27.886  24.033  1.00  0.00    -0.024 C 
ATOM     13  C   UNL     1      42.660  25.613  23.855  1.00  0.00     0.012 C 
ATOM     14  C   UNL     1      39.966  28.533  24.270  1.00  0.00     0.002 C 
ATOM     15  C   UNL     1      42.024  28.516  22.733  1.00  0.00     0.008 C 
ATOM     16  C   UNL     1      42.345  28.227  25.242  1.00  0.00     0.012 C 
ATOM     17  C   UNL     1      39.785  30.084  23.909  1.00  0.00    -0.025 C 
ATOM     18  C   UNL     1      41.000  29.143  21.783  1.00  0.00     0.006 C 
ATOM     19  C   UNL     1      40.475  31.040  24.944  1.00  0.00     0.015 C 
ATOM     20  C   UNL     1      38.256  30.401  23.978  1.00  0.00     0.012 C 
ATOM     21  C   UNL     1      40.245  30.363  22.402  1.00  0.00     0.008 C 
ATOM     22  C   UNL     1      41.879  31.550  24.580  1.00  0.00     0.077 C 
ATOM     23  C   UNL     1      40.911  31.784  22.141  1.00  0.00     0.027 C 
ATOM     24  C   UNL     1      41.966  32.084  23.186  1.00  0.00     0.138 C 
ATOM     25  C   UNL     1      41.546  31.871  20.722  1.00  0.00     0.020 C 
ATOM     26  C   UNL     1      39.846  32.912  22.198  1.00  0.00     0.020 C 
ATOM     27  O   UNL     1      42.901  32.827  22.915  1.00  0.00    -0.299 OA
ENDROOT
BRANCH   1  28
ATOM     28  C   UNL     1      38.560  23.006  23.367  1.00  0.00     0.048 C 
ATOM     29  O   UNL     1      37.587  23.679  23.806  1.00  0.00    -0.550 OA
ATOM     30  O   UNL     1      38.295  21.879  22.596  1.00  0.00    -0.550 OA
ENDBRANCH   1  28
BRANCH   7  31
ATOM     31  C   UNL     1      40.205  23.088  27.458  1.00  0.00    -0.077 C 
ATOM     32  C   UNL     1      40.079  24.281  28.384  1.00  0.00     0.039 C 
ATOM     33  C   UNL     1      39.719  21.910  27.888  1.00  0.00     0.008 C 
ENDBRANCH   7  31
TORSDOF 2
ENDMDL
