MODEL 1
REMARK VINA RESULT:    -6.101      0.000      0.000
REMARK INTER + INTRA:          -7.689
REMARK INTER:                  -7.528
REMARK INTRA:                  -0.162
REMARK UNBOUND:                -0.162
REMARK SMILES O=c1c(O)c(-c2cc(O)c(O)c(O)c2)oc2cc(O)cc(O)c12
REMARK SMILES IDX 5 1 3 2 2 3 1 4 23 5 21 6 20 7 18 8 17 9 16 10 15 11 6 12
REMARK SMILES IDX 7 13 8 14 14 15 10 16 12 17 9 18 11 20 13 22 4 24 22 26
REMARK SMILES IDX 19 28
REMARK H PARENT 9 19 11 21 13 23 4 25 22 27 19 29
REMARK Flexibility Score: inf
ROOT
ATOM      1  C   UNL     1      30.174  11.947   2.631  1.00  0.00     0.180 A 
ATOM      2  C   UNL     1      29.151  12.656   3.284  1.00  0.00     0.208 A 
ATOM      3  C   UNL     1      29.227  12.833   4.675  1.00  0.00     0.238 A 
ATOM      4  O   UNL     1      28.336  13.515   5.246  1.00  0.00    -0.285 OA
ATOM      5  C   UNL     1      30.315  12.287   5.396  1.00  0.00     0.111 A 
ATOM      6  C   UNL     1      30.472  12.371   6.813  1.00  0.00     0.134 A 
ATOM      7  C   UNL     1      31.653  11.908   7.406  1.00  0.00     0.093 A 
ATOM      8  C   UNL     1      32.654  11.305   6.640  1.00  0.00     0.123 A 
ATOM      9  C   UNL     1      32.484  11.164   5.266  1.00  0.00     0.094 A 
ATOM     10  C   UNL     1      31.332  11.649   4.641  1.00  0.00     0.146 A 
ATOM     11  O   UNL     1      31.216  11.503   3.327  1.00  0.00    -0.452 OA
ENDROOT
BRANCH   1  12
ATOM     12  C   UNL     1      30.152  11.698   1.171  1.00  0.00     0.029 A 
ATOM     13  C   UNL     1      30.122  10.392   0.652  1.00  0.00     0.062 A 
ATOM     14  C   UNL     1      30.125  10.175  -0.732  1.00  0.00     0.162 A 
ATOM     15  C   UNL     1      30.223  12.782   0.284  1.00  0.00     0.062 A 
ATOM     16  C   UNL     1      30.173  11.268  -1.613  1.00  0.00     0.200 A 
ATOM     17  C   UNL     1      30.226  12.575  -1.099  1.00  0.00     0.162 A 
BRANCH  14  18
ATOM     18  O   UNL     1      30.088   8.875  -1.234  1.00  0.00    -0.504 OA
ATOM     19  H   UNL     1      30.676   8.142  -0.856  1.00  0.00     0.293 HD
ENDBRANCH  14  18
BRANCH  16  20
ATOM     20  O   UNL     1      30.172  11.070  -2.995  1.00  0.00    -0.502 OA
ATOM     21  H   UNL     1      31.022  10.889  -3.515  1.00  0.00     0.293 HD
ENDBRANCH  16  20
BRANCH  17  22
ATOM     22  O   UNL     1      30.281  13.681  -1.947  1.00  0.00    -0.504 OA
ATOM     23  H   UNL     1      29.821  14.556  -1.723  1.00  0.00     0.293 HD
ENDBRANCH  17  22
ENDBRANCH   1  12
BRANCH   2  24
ATOM     24  O   UNL     1      28.097  13.205   2.548  1.00  0.00    -0.502 OA
ATOM     25  H   UNL     1      27.356  12.637   2.154  1.00  0.00     0.293 HD
ENDBRANCH   2  24
BRANCH   6  26
ATOM     26  O   UNL     1      29.494  12.872   7.677  1.00  0.00    -0.507 OA
ATOM     27  H   UNL     1      29.438  12.665   8.663  1.00  0.00     0.293 HD
ENDBRANCH   6  26
BRANCH   8  28
ATOM     28  O   UNL     1      33.819  10.833   7.241  1.00  0.00    -0.508 OA
ATOM     29  H   UNL     1      33.791  10.147   7.987  1.00  0.00     0.293 HD
ENDBRANCH   8  28
TORSDOF 7
ENDMDL
MODEL 2
REMARK VINA RESULT:    -5.866      8.893     13.070
REMARK INTER + INTRA:          -7.400
REMARK INTER:                  -7.238
REMARK INTRA:                  -0.162
REMARK UNBOUND:                -0.162
REMARK SMILES O=c1c(O)c(-c2cc(O)c(O)c(O)c2)oc2cc(O)cc(O)c12
REMARK SMILES IDX 5 1 3 2 2 3 1 4 23 5 21 6 20 7 18 8 17 9 16 10 15 11 6 12
REMARK SMILES IDX 7 13 8 14 14 15 10 16 12 17 9 18 11 20 13 22 4 24 22 26
REMARK SMILES IDX 19 28
REMARK H PARENT 9 19 11 21 13 23 4 25 22 27 19 29
REMARK Flexibility Score: inf
ROOT
ATOM      1  C   UNL     1      26.264  19.781  -2.777  1.00  0.00     0.180 A 
ATOM      2  C   UNL     1      26.584  18.594  -3.459  1.00  0.00     0.208 A 
ATOM      3  C   UNL     1      26.785  18.641  -4.848  1.00  0.00     0.238 A 
ATOM      4  O   UNL     1      27.125  17.586  -5.445  1.00  0.00    -0.285 OA
ATOM      5  C   UNL     1      26.649  19.868  -5.539  1.00  0.00     0.111 A 
ATOM      6  C   UNL     1      26.790  20.024  -6.950  1.00  0.00     0.134 A 
ATOM      7  C   UNL     1      26.762  21.308  -7.511  1.00  0.00     0.093 A 
ATOM      8  C   UNL     1      26.533  22.434  -6.717  1.00  0.00     0.123 A 
ATOM      9  C   UNL     1      26.334  22.287  -5.347  1.00  0.00     0.094 A 
ATOM     10  C   UNL     1      26.392  21.023  -4.754  1.00  0.00     0.146 A 
ATOM     11  O   UNL     1      26.207  20.929  -3.443  1.00  0.00    -0.452 OA
ENDROOT
BRANCH   1  12
ATOM     12  C   UNL     1      26.013  19.807  -1.318  1.00  0.00     0.029 A 
ATOM     13  C   UNL     1      24.772  20.210  -0.796  1.00  0.00     0.062 A 
ATOM     14  C   UNL     1      24.561  20.252   0.589  1.00  0.00     0.162 A 
ATOM     15  C   UNL     1      27.051  19.480  -0.432  1.00  0.00     0.062 A 
ATOM     16  C   UNL     1      25.600  19.900   1.468  1.00  0.00     0.200 A 
ATOM     17  C   UNL     1      26.849  19.518   0.951  1.00  0.00     0.162 A 
BRANCH  14  18
ATOM     18  O   UNL     1      23.323  20.646   1.094  1.00  0.00    -0.504 OA
ATOM     19  H   UNL     1      23.105  20.576   2.081  1.00  0.00     0.293 HD
ENDBRANCH  14  18
BRANCH  16  20
ATOM     20  O   UNL     1      25.404  19.932   2.849  1.00  0.00    -0.502 OA
ATOM     21  H   UNL     1      24.509  19.719   3.273  1.00  0.00     0.293 HD
ENDBRANCH  16  20
BRANCH  17  22
ATOM     22  O   UNL     1      27.902  19.170   1.797  1.00  0.00    -0.504 OA
ATOM     23  H   UNL     1      27.802  19.155   2.805  1.00  0.00     0.293 HD
ENDBRANCH  17  22
ENDBRANCH   1  12
BRANCH   2  24
ATOM     24  O   UNL     1      26.736  17.397  -2.754  1.00  0.00    -0.502 OA
ATOM     25  H   UNL     1      27.439  17.276  -2.034  1.00  0.00     0.293 HD
ENDBRANCH   2  24
BRANCH   6  26
ATOM     26  O   UNL     1      26.932  18.957  -7.843  1.00  0.00    -0.507 OA
ATOM     27  H   UNL     1      26.844  19.030  -8.845  1.00  0.00     0.293 HD
ENDBRANCH   6  26
BRANCH   8  28
ATOM     28  O   UNL     1      26.491  23.706  -7.285  1.00  0.00    -0.508 OA
ATOM     29  H   UNL     1      27.331  24.170  -7.609  1.00  0.00     0.293 HD
ENDBRANCH   8  28
TORSDOF 7
ENDMDL
MODEL 3
REMARK VINA RESULT:    -5.838      8.827     12.973
REMARK INTER + INTRA:          -7.365
REMARK INTER:                  -7.196
REMARK INTRA:                  -0.169
REMARK UNBOUND:                -0.162
REMARK SMILES O=c1c(O)c(-c2cc(O)c(O)c(O)c2)oc2cc(O)cc(O)c12
REMARK SMILES IDX 5 1 3 2 2 3 1 4 23 5 21 6 20 7 18 8 17 9 16 10 15 11 6 12
REMARK SMILES IDX 7 13 8 14 14 15 10 16 12 17 9 18 11 20 13 22 4 24 22 26
REMARK SMILES IDX 19 28
REMARK H PARENT 9 19 11 21 13 23 4 25 22 27 19 29
REMARK Flexibility Score: inf
ROOT
ATOM      1  C   UNL     1      26.332  19.759  -2.716  1.00  0.00     0.180 A 
ATOM      2  C   UNL     1      26.597  18.568  -3.414  1.00  0.00     0.208 A 
ATOM      3  C   UNL     1      26.743  18.615  -4.809  1.00  0.00     0.238 A 
ATOM      4  O   UNL     1      27.034  17.555  -5.422  1.00  0.00    -0.285 OA
ATOM      5  C   UNL     1      26.607  19.847  -5.491  1.00  0.00     0.111 A 
ATOM      6  C   UNL     1      26.695  20.005  -6.907  1.00  0.00     0.134 A 
ATOM      7  C   UNL     1      26.675  21.291  -7.462  1.00  0.00     0.093 A 
ATOM      8  C   UNL     1      26.504  22.419  -6.657  1.00  0.00     0.123 A 
ATOM      9  C   UNL     1      26.357  22.272  -5.280  1.00  0.00     0.094 A 
ATOM     10  C   UNL     1      26.410  21.005  -4.694  1.00  0.00     0.146 A 
ATOM     11  O   UNL     1      26.276  20.910  -3.377  1.00  0.00    -0.452 OA
ENDROOT
BRANCH   1  12
ATOM     12  C   UNL     1      26.141  19.786  -1.248  1.00  0.00     0.029 A 
ATOM     13  C   UNL     1      27.172  19.410  -0.369  1.00  0.00     0.062 A 
ATOM     14  C   UNL     1      26.965  19.420   1.017  1.00  0.00     0.162 A 
ATOM     15  C   UNL     1      24.890  20.137  -0.720  1.00  0.00     0.062 A 
ATOM     16  C   UNL     1      25.715  19.794   1.537  1.00  0.00     0.200 A 
ATOM     17  C   UNL     1      24.675  20.150   0.661  1.00  0.00     0.162 A 
BRANCH  14  18
ATOM     18  O   UNL     1      27.997  19.051   1.878  1.00  0.00    -0.504 OA
ATOM     19  H   UNL     1      27.828  18.860   2.859  1.00  0.00     0.293 HD
ENDBRANCH  14  18
BRANCH  16  20
ATOM     20  O   UNL     1      25.494  19.813   2.915  1.00  0.00    -0.502 OA
ATOM     21  H   UNL     1      25.596  18.986   3.490  1.00  0.00     0.293 HD
ENDBRANCH  16  20
BRANCH  17  22
ATOM     22  O   UNL     1      23.420  20.520   1.146  1.00  0.00    -0.504 OA
ATOM     23  H   UNL     1      23.126  21.488   1.196  1.00  0.00     0.293 HD
ENDBRANCH  17  22
ENDBRANCH   1  12
BRANCH   2  24
ATOM     24  O   UNL     1      26.749  17.365  -2.718  1.00  0.00    -0.502 OA
ATOM     25  H   UNL     1      25.959  16.798  -2.435  1.00  0.00     0.293 HD
ENDBRANCH   2  24
BRANCH   6  26
ATOM     26  O   UNL     1      26.777  18.938  -7.807  1.00  0.00    -0.507 OA
ATOM     27  H   UNL     1      27.322  18.102  -7.660  1.00  0.00     0.293 HD
ENDBRANCH   6  26
BRANCH   8  28
ATOM     28  O   UNL     1      26.469  23.694  -7.219  1.00  0.00    -0.508 OA
ATOM     29  H   UNL     1      26.888  23.887  -8.122  1.00  0.00     0.293 HD
ENDBRANCH   8  28
TORSDOF 7
ENDMDL
MODEL 4
REMARK VINA RESULT:    -5.822      4.010      8.075
REMARK INTER + INTRA:          -7.345
REMARK INTER:                  -6.989
REMARK INTRA:                  -0.356
REMARK UNBOUND:                -0.162
REMARK SMILES O=c1c(O)c(-c2cc(O)c(O)c(O)c2)oc2cc(O)cc(O)c12
REMARK SMILES IDX 5 1 3 2 2 3 1 4 23 5 21 6 20 7 18 8 17 9 16 10 15 11 6 12
REMARK SMILES IDX 7 13 8 14 14 15 10 16 12 17 9 18 11 20 13 22 4 24 22 26
REMARK SMILES IDX 19 28
REMARK H PARENT 9 19 11 21 13 23 4 25 22 27 19 29
REMARK Flexibility Score: inf
ROOT
ATOM      1  C   UNL     1      28.584  15.569   1.762  1.00  0.00     0.180 A 
ATOM      2  C   UNL     1      28.737  14.173   1.821  1.00  0.00     0.208 A 
ATOM      3  C   UNL     1      29.428  13.520   0.788  1.00  0.00     0.238 A 
ATOM      4  O   UNL     1      29.609  12.277   0.874  1.00  0.00    -0.285 OA
ATOM      5  C   UNL     1      29.942  14.267  -0.298  1.00  0.00     0.111 A 
ATOM      6  C   UNL     1      30.623  13.704  -1.419  1.00  0.00     0.134 A 
ATOM      7  C   UNL     1      31.204  14.551  -2.371  1.00  0.00     0.093 A 
ATOM      8  C   UNL     1      31.072  15.938  -2.276  1.00  0.00     0.123 A 
ATOM      9  C   UNL     1      30.358  16.495  -1.219  1.00  0.00     0.094 A 
ATOM     10  C   UNL     1      29.798  15.677  -0.233  1.00  0.00     0.146 A 
ATOM     11  O   UNL     1      29.135  16.250   0.763  1.00  0.00    -0.452 OA
ENDROOT
BRANCH   1  12
ATOM     12  C   UNL     1      27.847  16.325   2.800  1.00  0.00     0.029 A 
ATOM     13  C   UNL     1      28.505  16.859   3.922  1.00  0.00     0.062 A 
ATOM     14  C   UNL     1      27.788  17.552   4.907  1.00  0.00     0.162 A 
ATOM     15  C   UNL     1      26.455  16.464   2.697  1.00  0.00     0.062 A 
ATOM     16  C   UNL     1      26.397  17.705   4.783  1.00  0.00     0.200 A 
ATOM     17  C   UNL     1      25.731  17.154   3.675  1.00  0.00     0.162 A 
BRANCH  14  18
ATOM     18  O   UNL     1      28.454  18.082   6.011  1.00  0.00    -0.504 OA
ATOM     19  H   UNL     1      29.079  18.875   5.924  1.00  0.00     0.293 HD
ENDBRANCH  14  18
BRANCH  16  20
ATOM     20  O   UNL     1      25.669  18.396   5.752  1.00  0.00    -0.502 OA
ATOM     21  H   UNL     1      25.982  19.280   6.136  1.00  0.00     0.293 HD
ENDBRANCH  16  20
BRANCH  17  22
ATOM     22  O   UNL     1      24.351  17.284   3.527  1.00  0.00    -0.504 OA
ATOM     23  H   UNL     1      23.713  17.185   4.308  1.00  0.00     0.293 HD
ENDBRANCH  17  22
ENDBRANCH   1  12
BRANCH   2  24
ATOM     24  O   UNL     1      28.240  13.457   2.914  1.00  0.00    -0.502 OA
ATOM     25  H   UNL     1      27.894  13.914   3.751  1.00  0.00     0.293 HD
ENDBRANCH   2  24
BRANCH   6  26
ATOM     26  O   UNL     1      30.733  12.331  -1.655  1.00  0.00    -0.507 OA
ATOM     27  H   UNL     1      30.931  11.916  -2.553  1.00  0.00     0.293 HD
ENDBRANCH   6  26
BRANCH   8  28
ATOM     28  O   UNL     1      31.639  16.773  -3.237  1.00  0.00    -0.508 OA
ATOM     29  H   UNL     1      31.069  17.264  -3.916  1.00  0.00     0.293 HD
ENDBRANCH   8  28
TORSDOF 7
ENDMDL
MODEL 5
REMARK VINA RESULT:    -5.700      5.552     10.358
REMARK INTER + INTRA:          -7.195
REMARK INTER:                  -6.949
REMARK INTRA:                  -0.246
REMARK UNBOUND:                -0.162
REMARK SMILES O=c1c(O)c(-c2cc(O)c(O)c(O)c2)oc2cc(O)cc(O)c12
REMARK SMILES IDX 5 1 3 2 2 3 1 4 23 5 21 6 20 7 18 8 17 9 16 10 15 11 6 12
REMARK SMILES IDX 7 13 8 14 14 15 10 16 12 17 9 18 11 20 13 22 4 24 22 26
REMARK SMILES IDX 19 28
REMARK H PARENT 9 19 11 21 13 23 4 25 22 27 19 29
REMARK Flexibility Score: inf
ROOT
ATOM      1  C   UNL     1      28.932  17.150  -1.621  1.00  0.00     0.180 A 
ATOM      2  C   UNL     1      29.958  16.447  -2.275  1.00  0.00     0.208 A 
ATOM      3  C   UNL     1      29.900  16.299  -3.670  1.00  0.00     0.238 A 
ATOM      4  O   UNL     1      30.849  15.716  -4.256  1.00  0.00    -0.285 OA
ATOM      5  C   UNL     1      28.809  16.840  -4.391  1.00  0.00     0.111 A 
ATOM      6  C   UNL     1      28.626  16.714  -5.801  1.00  0.00     0.134 A 
ATOM      7  C   UNL     1      27.578  17.402  -6.427  1.00  0.00     0.093 A 
ATOM      8  C   UNL     1      26.668  18.157  -5.683  1.00  0.00     0.123 A 
ATOM      9  C   UNL     1      26.802  18.236  -4.299  1.00  0.00     0.094 A 
ATOM     10  C   UNL     1      27.859  17.592  -3.651  1.00  0.00     0.146 A 
ATOM     11  O   UNL     1      27.955  17.703  -2.332  1.00  0.00    -0.452 OA
ENDROOT
BRANCH   1  12
ATOM     12  C   UNL     1      28.911  17.327  -0.151  1.00  0.00     0.029 A 
ATOM     13  C   UNL     1      28.729  16.235   0.715  1.00  0.00     0.062 A 
ATOM     14  C   UNL     1      28.688  16.424   2.103  1.00  0.00     0.162 A 
ATOM     15  C   UNL     1      29.016  18.616   0.392  1.00  0.00     0.062 A 
ATOM     16  C   UNL     1      28.817  17.717   2.638  1.00  0.00     0.200 A 
ATOM     17  C   UNL     1      28.978  18.815   1.775  1.00  0.00     0.162 A 
BRANCH  14  18
ATOM     18  O   UNL     1      28.514  15.332   2.951  1.00  0.00    -0.504 OA
ATOM     19  H   UNL     1      28.679  15.402   3.949  1.00  0.00     0.293 HD
ENDBRANCH  14  18
BRANCH  16  20
ATOM     20  O   UNL     1      28.784  17.923   4.018  1.00  0.00    -0.502 OA
ATOM     21  H   UNL     1      27.965  18.284   4.491  1.00  0.00     0.293 HD
ENDBRANCH  16  20
BRANCH  17  22
ATOM     22  O   UNL     1      29.102  20.111   2.275  1.00  0.00    -0.504 OA
ATOM     23  H   UNL     1      28.324  20.760   2.291  1.00  0.00     0.293 HD
ENDBRANCH  17  22
ENDBRANCH   1  12
BRANCH   2  24
ATOM     24  O   UNL     1      31.037  15.940  -1.546  1.00  0.00    -0.502 OA
ATOM     25  H   UNL     1      31.700  15.283  -1.941  1.00  0.00     0.293 HD
ENDBRANCH   2  24
BRANCH   6  26
ATOM     26  O   UNL     1      29.425  15.912  -6.622  1.00  0.00    -0.507 OA
ATOM     27  H   UNL     1      29.074  15.222  -7.268  1.00  0.00     0.293 HD
ENDBRANCH   6  26
BRANCH   8  28
ATOM     28  O   UNL     1      25.619  18.824  -6.311  1.00  0.00    -0.508 OA
ATOM     29  H   UNL     1      25.249  19.694  -5.946  1.00  0.00     0.293 HD
ENDBRANCH   8  28
TORSDOF 7
ENDMDL
MODEL 6
REMARK VINA RESULT:    -5.659      5.049      6.042
REMARK INTER + INTRA:          -7.144
REMARK INTER:                  -6.837
REMARK INTRA:                  -0.307
REMARK UNBOUND:                -0.162
REMARK SMILES O=c1c(O)c(-c2cc(O)c(O)c(O)c2)oc2cc(O)cc(O)c12
REMARK SMILES IDX 5 1 3 2 2 3 1 4 23 5 21 6 20 7 18 8 17 9 16 10 15 11 6 12
REMARK SMILES IDX 7 13 8 14 14 15 10 16 12 17 9 18 11 20 13 22 4 24 22 26
REMARK SMILES IDX 19 28
REMARK H PARENT 9 19 11 21 13 23 4 25 22 27 19 29
REMARK Flexibility Score: inf
ROOT
ATOM      1  C   UNL     1      29.377  14.886   6.654  1.00  0.00     0.180 A 
ATOM      2  C   UNL     1      29.152  14.804   8.039  1.00  0.00     0.208 A 
ATOM      3  C   UNL     1      29.855  13.846   8.787  1.00  0.00     0.238 A 
ATOM      4  O   UNL     1      29.690  13.814  10.034  1.00  0.00    -0.285 OA
ATOM      5  C   UNL     1      30.761  12.973   8.140  1.00  0.00     0.111 A 
ATOM      6  C   UNL     1      31.496  11.938   8.793  1.00  0.00     0.134 A 
ATOM      7  C   UNL     1      32.462  11.219   8.077  1.00  0.00     0.093 A 
ATOM      8  C   UNL     1      32.672  11.454   6.716  1.00  0.00     0.123 A 
ATOM      9  C   UNL     1      31.917  12.420   6.056  1.00  0.00     0.094 A 
ATOM     10  C   UNL     1      30.972  13.178   6.752  1.00  0.00     0.146 A 
ATOM     11  O   UNL     1      30.282  14.096   6.086  1.00  0.00    -0.452 OA
ENDROOT
BRANCH   1  12
ATOM     12  C   UNL     1      28.656  15.852   5.794  1.00  0.00     0.029 A 
ATOM     13  C   UNL     1      27.306  15.664   5.454  1.00  0.00     0.062 A 
ATOM     14  C   UNL     1      26.646  16.577   4.620  1.00  0.00     0.162 A 
ATOM     15  C   UNL     1      29.347  16.950   5.258  1.00  0.00     0.062 A 
ATOM     16  C   UNL     1      27.341  17.685   4.107  1.00  0.00     0.200 A 
ATOM     17  C   UNL     1      28.697  17.866   4.426  1.00  0.00     0.162 A 
BRANCH  14  18
ATOM     18  O   UNL     1      25.305  16.382   4.296  1.00  0.00    -0.504 OA
ATOM     19  H   UNL     1      24.989  16.355   3.333  1.00  0.00     0.293 HD
ENDBRANCH  14  18
BRANCH  16  20
ATOM     20  O   UNL     1      26.698  18.606   3.279  1.00  0.00    -0.502 OA
ATOM     21  H   UNL     1      26.670  19.596   3.490  1.00  0.00     0.293 HD
ENDBRANCH  16  20
BRANCH  17  22
ATOM     22  O   UNL     1      29.416  18.952   3.927  1.00  0.00    -0.504 OA
ATOM     23  H   UNL     1      30.163  18.840   3.252  1.00  0.00     0.293 HD
ENDBRANCH  17  22
ENDBRANCH   1  12
BRANCH   2  24
ATOM     24  O   UNL     1      28.269  15.691   8.661  1.00  0.00    -0.502 OA
ATOM     25  H   UNL     1      28.459  16.100   9.568  1.00  0.00     0.293 HD
ENDBRANCH   2  24
BRANCH   6  26
ATOM     26  O   UNL     1      31.299  11.562  10.125  1.00  0.00    -0.507 OA
ATOM     27  H   UNL     1      31.439  12.167  10.920  1.00  0.00     0.293 HD
ENDBRANCH   6  26
BRANCH   8  28
ATOM     28  O   UNL     1      33.624  10.723   6.008  1.00  0.00    -0.508 OA
ATOM     29  H   UNL     1      33.728   9.723   6.138  1.00  0.00     0.293 HD
ENDBRANCH   8  28
TORSDOF 7
ENDMDL
MODEL 7
REMARK VINA RESULT:    -5.638      8.985     11.326
REMARK INTER + INTRA:          -7.118
REMARK INTER:                  -7.053
REMARK INTRA:                  -0.065
REMARK UNBOUND:                -0.162
REMARK SMILES O=c1c(O)c(-c2cc(O)c(O)c(O)c2)oc2cc(O)cc(O)c12
REMARK SMILES IDX 5 1 3 2 2 3 1 4 23 5 21 6 20 7 18 8 17 9 16 10 15 11 6 12
REMARK SMILES IDX 7 13 8 14 14 15 10 16 12 17 9 18 11 20 13 22 4 24 22 26
REMARK SMILES IDX 19 28
REMARK H PARENT 9 19 11 21 13 23 4 25 22 27 19 29
REMARK Flexibility Score: inf
ROOT
ATOM      1  C   UNL     1      25.878  20.018  -2.333  1.00  0.00     0.180 A 
ATOM      2  C   UNL     1      26.834  19.170  -1.748  1.00  0.00     0.208 A 
ATOM      3  C   UNL     1      26.706  18.834  -0.391  1.00  0.00     0.238 A 
ATOM      4  O   UNL     1      27.534  18.032   0.114  1.00  0.00    -0.285 OA
ATOM      5  C   UNL     1      25.634  19.361   0.368  1.00  0.00     0.111 A 
ATOM      6  C   UNL     1      25.430  19.121   1.760  1.00  0.00     0.134 A 
ATOM      7  C   UNL     1      24.263  19.587   2.379  1.00  0.00     0.093 A 
ATOM      8  C   UNL     1      23.326  20.342   1.669  1.00  0.00     0.123 A 
ATOM      9  C   UNL     1      23.545  20.634   0.326  1.00  0.00     0.094 A 
ATOM     10  C   UNL     1      24.682  20.151  -0.328  1.00  0.00     0.146 A 
ATOM     11  O   UNL     1      24.846  20.444  -1.612  1.00  0.00    -0.452 OA
ENDROOT
BRANCH   1  12
ATOM     12  C   UNL     1      25.958  20.436  -3.751  1.00  0.00     0.029 A 
ATOM     13  C   UNL     1      25.930  21.793  -4.116  1.00  0.00     0.062 A 
ATOM     14  C   UNL     1      25.984  22.170  -5.465  1.00  0.00     0.162 A 
ATOM     15  C   UNL     1      26.006  19.461  -4.758  1.00  0.00     0.062 A 
ATOM     16  C   UNL     1      26.054  21.186  -6.465  1.00  0.00     0.200 A 
ATOM     17  C   UNL     1      26.060  19.827  -6.106  1.00  0.00     0.162 A 
BRANCH  14  18
ATOM     18  O   UNL     1      25.962  23.519  -5.813  1.00  0.00    -0.504 OA
ATOM     19  H   UNL     1      25.749  24.241  -5.134  1.00  0.00     0.293 HD
ENDBRANCH  14  18
BRANCH  16  20
ATOM     20  O   UNL     1      26.113  21.544  -7.813  1.00  0.00    -0.502 OA
ATOM     21  H   UNL     1      26.978  21.819  -8.262  1.00  0.00     0.293 HD
ENDBRANCH  16  20
BRANCH  17  22
ATOM     22  O   UNL     1      26.122  18.826  -7.076  1.00  0.00    -0.504 OA
ATOM     23  H   UNL     1      26.085  19.033  -8.067  1.00  0.00     0.293 HD
ENDBRANCH  17  22
ENDBRANCH   1  12
BRANCH   2  24
ATOM     24  O   UNL     1      27.873  18.643  -2.521  1.00  0.00    -0.502 OA
ATOM     25  H   UNL     1      28.606  19.223  -2.913  1.00  0.00     0.293 HD
ENDBRANCH   2  24
BRANCH   6  26
ATOM     26  O   UNL     1      26.348  18.457   2.579  1.00  0.00    -0.507 OA
ATOM     27  H   UNL     1      26.935  17.692   2.283  1.00  0.00     0.293 HD
ENDBRANCH   6  26
BRANCH   8  28
ATOM     28  O   UNL     1      22.175  20.816   2.297  1.00  0.00    -0.508 OA
ATOM     29  H   UNL     1      22.132  21.749   2.691  1.00  0.00     0.293 HD
ENDBRANCH   8  28
TORSDOF 7
ENDMDL
MODEL 8
REMARK VINA RESULT:    -5.629      8.330     12.845
REMARK INTER + INTRA:          -7.107
REMARK INTER:                  -6.762
REMARK INTRA:                  -0.346
REMARK UNBOUND:                -0.162
REMARK SMILES O=c1c(O)c(-c2cc(O)c(O)c(O)c2)oc2cc(O)cc(O)c12
REMARK SMILES IDX 5 1 3 2 2 3 1 4 23 5 21 6 20 7 18 8 17 9 16 10 15 11 6 12
REMARK SMILES IDX 7 13 8 14 14 15 10 16 12 17 9 18 11 20 13 22 4 24 22 26
REMARK SMILES IDX 19 28
REMARK H PARENT 9 19 11 21 13 23 4 25 22 27 19 29
REMARK Flexibility Score: inf
ROOT
ATOM      1  C   UNL     1      27.671  17.794  -6.062  1.00  0.00     0.180 A 
ATOM      2  C   UNL     1      27.475  17.506  -7.424  1.00  0.00     0.208 A 
ATOM      3  C   UNL     1      26.967  18.507  -8.265  1.00  0.00     0.238 A 
ATOM      4  O   UNL     1      26.845  18.260  -9.493  1.00  0.00    -0.285 OA
ATOM      5  C   UNL     1      26.645  19.778  -7.733  1.00  0.00     0.111 A 
ATOM      6  C   UNL     1      26.086  20.854  -8.486  1.00  0.00     0.134 A 
ATOM      7  C   UNL     1      25.929  22.110  -7.886  1.00  0.00     0.093 A 
ATOM      8  C   UNL     1      26.251  22.310  -6.541  1.00  0.00     0.123 A 
ATOM      9  C   UNL     1      26.741  21.251  -5.782  1.00  0.00     0.094 A 
ATOM     10  C   UNL     1      26.943  19.996  -6.363  1.00  0.00     0.146 A 
ATOM     11  O   UNL     1      27.421  19.017  -5.605  1.00  0.00    -0.452 OA
ENDROOT
BRANCH   1  12
ATOM     12  C   UNL     1      28.180  16.783  -5.107  1.00  0.00     0.029 A 
ATOM     13  C   UNL     1      27.334  15.806  -4.556  1.00  0.00     0.062 A 
ATOM     14  C   UNL     1      27.828  14.871  -3.636  1.00  0.00     0.162 A 
ATOM     15  C   UNL     1      29.521  16.834  -4.697  1.00  0.00     0.062 A 
ATOM     16  C   UNL     1      29.178  14.916  -3.248  1.00  0.00     0.200 A 
ATOM     17  C   UNL     1      30.023  15.905  -3.780  1.00  0.00     0.162 A 
BRANCH  14  18
ATOM     18  O   UNL     1      26.980  13.902  -3.102  1.00  0.00    -0.504 OA
ATOM     19  H   UNL     1      26.870  12.994  -3.537  1.00  0.00     0.293 HD
ENDBRANCH  14  18
BRANCH  16  20
ATOM     20  O   UNL     1      29.687  13.990  -2.337  1.00  0.00    -0.502 OA
ATOM     21  H   UNL     1      30.398  13.315  -2.591  1.00  0.00     0.293 HD
ENDBRANCH  16  20
BRANCH  17  22
ATOM     22  O   UNL     1      31.366  15.980  -3.410  1.00  0.00    -0.504 OA
ATOM     23  H   UNL     1      31.781  16.835  -3.057  1.00  0.00     0.293 HD
ENDBRANCH  17  22
ENDBRANCH   1  12
BRANCH   2  24
ATOM     24  O   UNL     1      27.820  16.250  -7.932  1.00  0.00    -0.502 OA
ATOM     25  H   UNL     1      28.321  16.136  -8.806  1.00  0.00     0.293 HD
ENDBRANCH   2  24
BRANCH   6  26
ATOM     26  O   UNL     1      25.646  20.736  -9.808  1.00  0.00    -0.507 OA
ATOM     27  H   UNL     1      25.826  19.943 -10.405  1.00  0.00     0.293 HD
ENDBRANCH   6  26
BRANCH   8  28
ATOM     28  O   UNL     1      26.077  23.558  -5.947  1.00  0.00    -0.508 OA
ATOM     29  H   UNL     1      26.853  24.199  -5.823  1.00  0.00     0.293 HD
ENDBRANCH   8  28
TORSDOF 7
ENDMDL
MODEL 9
REMARK VINA RESULT:    -5.614      5.897     10.273
REMARK INTER + INTRA:          -7.089
REMARK INTER:                  -6.784
REMARK INTRA:                  -0.304
REMARK UNBOUND:                -0.162
REMARK SMILES O=c1c(O)c(-c2cc(O)c(O)c(O)c2)oc2cc(O)cc(O)c12
REMARK SMILES IDX 5 1 3 2 2 3 1 4 23 5 21 6 20 7 18 8 17 9 16 10 15 11 6 12
REMARK SMILES IDX 7 13 8 14 14 15 10 16 12 17 9 18 11 20 13 22 4 24 22 26
REMARK SMILES IDX 19 28
REMARK H PARENT 9 19 11 21 13 23 4 25 22 27 19 29
REMARK Flexibility Score: inf
ROOT
ATOM      1  C   UNL     1      28.012  17.820  -1.224  1.00  0.00     0.180 A 
ATOM      2  C   UNL     1      26.964  18.628  -1.698  1.00  0.00     0.208 A 
ATOM      3  C   UNL     1      26.709  18.673  -3.077  1.00  0.00     0.238 A 
ATOM      4  O   UNL     1      25.736  19.355  -3.491  1.00  0.00    -0.285 OA
ATOM      5  C   UNL     1      27.514  17.922  -3.967  1.00  0.00     0.111 A 
ATOM      6  C   UNL     1      27.372  17.924  -5.387  1.00  0.00     0.134 A 
ATOM      7  C   UNL     1      28.138  17.042  -6.160  1.00  0.00     0.093 A 
ATOM      8  C   UNL     1      29.088  16.206  -5.568  1.00  0.00     0.123 A 
ATOM      9  C   UNL     1      29.277  16.240  -4.189  1.00  0.00     0.094 A 
ATOM     10  C   UNL     1      28.501  17.083  -3.388  1.00  0.00     0.146 A 
ATOM     11  O   UNL     1      28.707  17.076  -2.077  1.00  0.00    -0.452 OA
ENDROOT
BRANCH   1  12
ATOM     12  C   UNL     1      28.356  17.740   0.214  1.00  0.00     0.029 A 
ATOM     13  C   UNL     1      29.012  18.797   0.869  1.00  0.00     0.062 A 
ATOM     14  C   UNL     1      29.352  18.694   2.224  1.00  0.00     0.162 A 
ATOM     15  C   UNL     1      28.078  16.565   0.928  1.00  0.00     0.062 A 
ATOM     16  C   UNL     1      29.048  17.521   2.937  1.00  0.00     0.200 A 
ATOM     17  C   UNL     1      28.412  16.454   2.281  1.00  0.00     0.162 A 
BRANCH  14  18
ATOM     18  O   UNL     1      29.996  19.752   2.864  1.00  0.00    -0.504 OA
ATOM     19  H   UNL     1      30.125  19.766   3.870  1.00  0.00     0.293 HD
ENDBRANCH  14  18
BRANCH  16  20
ATOM     20  O   UNL     1      29.375  17.405   4.288  1.00  0.00    -0.502 OA
ATOM     21  H   UNL     1      29.088  18.091   4.975  1.00  0.00     0.293 HD
ENDBRANCH  16  20
BRANCH  17  22
ATOM     22  O   UNL     1      28.103  15.274   2.958  1.00  0.00    -0.504 OA
ATOM     23  H   UNL     1      28.596  14.406   2.781  1.00  0.00     0.293 HD
ENDBRANCH  17  22
ENDBRANCH   1  12
BRANCH   2  24
ATOM     24  O   UNL     1      26.168  19.345  -0.799  1.00  0.00    -0.502 OA
ATOM     25  H   UNL     1      25.433  18.907  -0.255  1.00  0.00     0.293 HD
ENDBRANCH   2  24
BRANCH   6  26
ATOM     26  O   UNL     1      26.517  18.783  -6.084  1.00  0.00    -0.507 OA
ATOM     27  H   UNL     1      26.031  19.567  -5.676  1.00  0.00     0.293 HD
ENDBRANCH   6  26
BRANCH   8  28
ATOM     28  O   UNL     1      29.857  15.344  -6.346  1.00  0.00    -0.508 OA
ATOM     29  H   UNL     1      30.348  15.669  -7.171  1.00  0.00     0.293 HD
ENDBRANCH   8  28
TORSDOF 7
ENDMDL
