MODEL 1
REMARK VINA RESULT:    -5.012      0.000      0.000
REMARK INTER + INTRA:          -7.268
REMARK INTER:                  -6.771
REMARK INTRA:                  -0.497
REMARK UNBOUND:                -0.497
REMARK SMILES CCCCCCCC(=O)[O-]
REMARK SMILES IDX 5 1 6 2 7 3 8 4 9 5 10 6 4 7 3 8 2 9 1 10
REMARK H PARENT
REMARK Flexibility Score: inf
ROOT
ATOM      1  C   UNL     1      52.446  49.713   4.185  1.00  0.00     0.000 C 
ENDROOT
BRANCH   1   2
ATOM      2  C   UNL     1      51.286  50.347   4.975  1.00  0.00     0.006 C 
BRANCH   2   3
ATOM      3  C   UNL     1      51.706  51.004   6.299  1.00  0.00     0.053 C 
BRANCH   3   4
ATOM      4  C   UNL     1      51.373  52.464   6.333  1.00  0.00     0.041 C 
ATOM      5  O   UNL     1      51.212  53.101   5.259  1.00  0.00    -0.550 OA
ATOM      6  O   UNL     1      51.208  53.113   7.550  1.00  0.00    -0.550 OA
ENDBRANCH   3   4
ENDBRANCH   2   3
ENDBRANCH   1   2
BRANCH   1   7
ATOM      7  C   UNL     1      53.803  49.872   4.887  1.00  0.00     0.000 C 
BRANCH   7   8
ATOM      8  C   UNL     1      54.901  50.237   3.879  1.00  0.00    -0.000 C 
BRANCH   8   9
ATOM      9  C   UNL     1      55.675  51.503   4.279  1.00  0.00    -0.003 C 
ATOM     10  C   UNL     1      54.762  52.612   4.804  1.00  0.00     0.004 C 
ENDBRANCH   8   9
ENDBRANCH   7   8
ENDBRANCH   1   7
TORSDOF 6
ENDMDL
MODEL 2
REMARK VINA RESULT:    -4.993      2.025      3.770
REMARK INTER + INTRA:          -7.242
REMARK INTER:                  -6.845
REMARK INTRA:                  -0.397
REMARK UNBOUND:                -0.497
REMARK SMILES CCCCCCCC(=O)[O-]
REMARK SMILES IDX 5 1 6 2 7 3 8 4 9 5 10 6 4 7 3 8 2 9 1 10
REMARK H PARENT
REMARK Flexibility Score: inf
ROOT
ATOM      1  C   UNL     1      54.426  50.543   4.260  1.00  0.00     0.000 C 
ENDROOT
BRANCH   1   2
ATOM      2  C   UNL     1      54.226  51.901   4.958  1.00  0.00     0.006 C 
BRANCH   2   3
ATOM      3  C   UNL     1      55.081  52.096   6.220  1.00  0.00     0.053 C 
BRANCH   3   4
ATOM      4  C   UNL     1      54.313  51.797   7.472  1.00  0.00     0.041 C 
ATOM      5  O   UNL     1      53.906  52.737   8.204  1.00  0.00    -0.550 OA
ATOM      6  O   UNL     1      54.019  50.483   7.811  1.00  0.00    -0.550 OA
ENDBRANCH   3   4
ENDBRANCH   2   3
ENDBRANCH   1   2
BRANCH   1   7
ATOM      7  C   UNL     1      53.145  49.696   4.223  1.00  0.00     0.000 C 
BRANCH   7   8
ATOM      8  C   UNL     1      51.969  50.454   4.855  1.00  0.00    -0.000 C 
BRANCH   8   9
ATOM      9  C   UNL     1      50.623  49.743   4.641  1.00  0.00    -0.003 C 
ATOM     10  C   UNL     1      50.606  48.876   3.381  1.00  0.00     0.004 C 
ENDBRANCH   8   9
ENDBRANCH   7   8
ENDBRANCH   1   7
TORSDOF 6
ENDMDL
MODEL 3
REMARK VINA RESULT:    -4.960      2.189      3.953
REMARK INTER + INTRA:          -7.197
REMARK INTER:                  -6.976
REMARK INTRA:                  -0.221
REMARK UNBOUND:                -0.497
REMARK SMILES CCCCCCCC(=O)[O-]
REMARK SMILES IDX 5 1 6 2 7 3 8 4 9 5 10 6 4 7 3 8 2 9 1 10
REMARK H PARENT
REMARK Flexibility Score: inf
ROOT
ATOM      1  C   UNL     1      53.572  49.765   4.314  1.00  0.00     0.000 C 
ENDROOT
BRANCH   1   2
ATOM      2  C   UNL     1      54.472  51.008   4.437  1.00  0.00     0.006 C 
BRANCH   2   3
ATOM      3  C   UNL     1      53.762  52.251   4.997  1.00  0.00     0.053 C 
BRANCH   3   4
ATOM      4  C   UNL     1      54.076  52.473   6.446  1.00  0.00     0.041 C 
ATOM      5  O   UNL     1      55.100  53.125   6.778  1.00  0.00    -0.550 OA
ATOM      6  O   UNL     1      53.219  51.989   7.426  1.00  0.00    -0.550 OA
ENDBRANCH   3   4
ENDBRANCH   2   3
ENDBRANCH   1   2
BRANCH   1   7
ATOM      7  C   UNL     1      52.095  50.065   4.616  1.00  0.00     0.000 C 
BRANCH   7   8
ATOM      8  C   UNL     1      51.174  49.124   3.827  1.00  0.00    -0.000 C 
BRANCH   8   9
ATOM      9  C   UNL     1      49.895  49.823   3.337  1.00  0.00    -0.003 C 
ATOM     10  C   UNL     1      49.110  48.981   2.330  1.00  0.00     0.004 C 
ENDBRANCH   8   9
ENDBRANCH   7   8
ENDBRANCH   1   7
TORSDOF 6
ENDMDL
MODEL 4
REMARK VINA RESULT:    -4.931      2.988      4.831
REMARK INTER + INTRA:          -7.157
REMARK INTER:                  -6.970
REMARK INTRA:                  -0.188
REMARK UNBOUND:                -0.497
REMARK SMILES CCCCCCCC(=O)[O-]
REMARK SMILES IDX 5 1 6 2 7 3 8 4 9 5 10 6 4 7 3 8 2 9 1 10
REMARK H PARENT
REMARK Flexibility Score: inf
ROOT
ATOM      1  C   UNL     1      51.467  50.328   4.630  1.00  0.00     0.000 C 
ENDROOT
BRANCH   1   2
ATOM      2  C   UNL     1      52.838  50.725   5.208  1.00  0.00     0.006 C 
BRANCH   2   3
ATOM      3  C   UNL     1      54.037  50.298   4.346  1.00  0.00     0.053 C 
BRANCH   3   4
ATOM      4  C   UNL     1      55.089  51.363   4.281  1.00  0.00     0.041 C 
ATOM      5  O   UNL     1      56.232  51.095   3.827  1.00  0.00    -0.550 OA
ATOM      6  O   UNL     1      54.796  52.657   4.689  1.00  0.00    -0.550 OA
ENDBRANCH   3   4
ENDBRANCH   2   3
ENDBRANCH   1   2
BRANCH   1   7
ATOM      7  C   UNL     1      51.516  49.022   3.822  1.00  0.00     0.000 C 
BRANCH   7   8
ATOM      8  C   UNL     1      50.100  48.537   3.479  1.00  0.00    -0.000 C 
BRANCH   8   9
ATOM      9  C   UNL     1      49.454  49.353   2.348  1.00  0.00    -0.003 C 
ATOM     10  C   UNL     1      48.139  48.746   1.858  1.00  0.00     0.004 C 
ENDBRANCH   8   9
ENDBRANCH   7   8
ENDBRANCH   1   7
TORSDOF 6
ENDMDL
MODEL 5
REMARK VINA RESULT:    -4.926      3.324      4.074
REMARK INTER + INTRA:          -7.151
REMARK INTER:                  -6.861
REMARK INTRA:                  -0.290
REMARK UNBOUND:                -0.497
REMARK SMILES CCCCCCCC(=O)[O-]
REMARK SMILES IDX 5 1 6 2 7 3 8 4 9 5 10 6 4 7 3 8 2 9 1 10
REMARK H PARENT
REMARK Flexibility Score: inf
ROOT
ATOM      1  C   UNL     1      51.182  50.197   4.661  1.00  0.00     0.000 C 
ENDROOT
BRANCH   1   2
ATOM      2  C   UNL     1      51.009  48.979   3.735  1.00  0.00     0.006 C 
BRANCH   2   3
ATOM      3  C   UNL     1      49.931  49.155   2.653  1.00  0.00     0.053 C 
BRANCH   3   4
ATOM      4  C   UNL     1      48.670  48.421   2.994  1.00  0.00     0.041 C 
ATOM      5  O   UNL     1      47.808  48.957   3.739  1.00  0.00    -0.550 OA
ATOM      6  O   UNL     1      48.432  47.161   2.461  1.00  0.00    -0.550 OA
ENDBRANCH   3   4
ENDBRANCH   2   3
ENDBRANCH   1   2
BRANCH   1   7
ATOM      7  C   UNL     1      52.621  50.354   5.177  1.00  0.00     0.000 C 
BRANCH   7   8
ATOM      8  C   UNL     1      53.624  49.726   4.201  1.00  0.00    -0.000 C 
BRANCH   8   9
ATOM      9  C   UNL     1      54.912  50.553   4.062  1.00  0.00    -0.003 C 
ATOM     10  C   UNL     1      54.757  51.981   4.584  1.00  0.00     0.004 C 
ENDBRANCH   8   9
ENDBRANCH   7   8
ENDBRANCH   1   7
TORSDOF 6
ENDMDL
MODEL 6
REMARK VINA RESULT:    -4.888      2.495      2.981
REMARK INTER + INTRA:          -7.099
REMARK INTER:                  -6.886
REMARK INTRA:                  -0.214
REMARK UNBOUND:                -0.497
REMARK SMILES CCCCCCCC(=O)[O-]
REMARK SMILES IDX 5 1 6 2 7 3 8 4 9 5 10 6 4 7 3 8 2 9 1 10
REMARK H PARENT
REMARK Flexibility Score: inf
ROOT
ATOM      1  C   UNL     1      51.478  49.118   3.833  1.00  0.00     0.000 C 
ENDROOT
BRANCH   1   2
ATOM      2  C   UNL     1      50.109  49.680   3.405  1.00  0.00     0.006 C 
BRANCH   2   3
ATOM      3  C   UNL     1      49.508  50.698   4.387  1.00  0.00     0.053 C 
BRANCH   3   4
ATOM      4  C   UNL     1      48.616  50.044   5.399  1.00  0.00     0.041 C 
ATOM      5  O   UNL     1      48.855  50.171   6.628  1.00  0.00    -0.550 OA
ATOM      6  O   UNL     1      47.504  49.324   4.984  1.00  0.00    -0.550 OA
ENDBRANCH   3   4
ENDBRANCH   2   3
ENDBRANCH   1   2
BRANCH   1   7
ATOM      7  C   UNL     1      52.334  50.144   4.591  1.00  0.00     0.000 C 
BRANCH   7   8
ATOM      8  C   UNL     1      53.823  49.963   4.265  1.00  0.00    -0.000 C 
BRANCH   8   9
ATOM      9  C   UNL     1      54.626  51.263   4.426  1.00  0.00    -0.003 C 
ATOM     10  C   UNL     1      56.044  51.156   3.864  1.00  0.00     0.004 C 
ENDBRANCH   8   9
ENDBRANCH   7   8
ENDBRANCH   1   7
TORSDOF 6
ENDMDL
MODEL 7
REMARK VINA RESULT:    -4.875      2.638      3.434
REMARK INTER + INTRA:          -7.082
REMARK INTER:                  -6.800
REMARK INTRA:                  -0.282
REMARK UNBOUND:                -0.497
REMARK SMILES CCCCCCCC(=O)[O-]
REMARK SMILES IDX 5 1 6 2 7 3 8 4 9 5 10 6 4 7 3 8 2 9 1 10
REMARK H PARENT
REMARK Flexibility Score: inf
ROOT
ATOM      1  C   UNL     1      51.791  49.327   3.872  1.00  0.00     0.000 C 
ENDROOT
BRANCH   1   2
ATOM      2  C   UNL     1      50.405  48.690   3.662  1.00  0.00     0.006 C 
BRANCH   2   3
ATOM      3  C   UNL     1      49.565  49.350   2.556  1.00  0.00     0.053 C 
BRANCH   3   4
ATOM      4  C   UNL     1      48.600  50.354   3.107  1.00  0.00     0.041 C 
ATOM      5  O   UNL     1      48.881  51.581   3.084  1.00  0.00    -0.550 OA
ATOM      6  O   UNL     1      47.376  49.938   3.615  1.00  0.00    -0.550 OA
ENDBRANCH   3   4
ENDBRANCH   2   3
ENDBRANCH   1   2
BRANCH   1   7
ATOM      7  C   UNL     1      51.800  50.383   4.987  1.00  0.00     0.000 C 
BRANCH   7   8
ATOM      8  C   UNL     1      53.085  51.221   4.938  1.00  0.00    -0.000 C 
BRANCH   8   9
ATOM      9  C   UNL     1      54.245  50.484   4.250  1.00  0.00    -0.003 C 
ATOM     10  C   UNL     1      55.530  51.313   4.208  1.00  0.00     0.004 C 
ENDBRANCH   8   9
ENDBRANCH   7   8
ENDBRANCH   1   7
TORSDOF 6
ENDMDL
MODEL 8
REMARK VINA RESULT:    -4.749      2.463      3.351
REMARK INTER + INTRA:          -6.912
REMARK INTER:                  -6.423
REMARK INTRA:                  -0.488
REMARK UNBOUND:                -0.497
REMARK SMILES CCCCCCCC(=O)[O-]
REMARK SMILES IDX 5 1 6 2 7 3 8 4 9 5 10 6 4 7 3 8 2 9 1 10
REMARK H PARENT
REMARK Flexibility Score: inf
ROOT
ATOM      1  C   UNL     1      54.460  50.723   4.215  1.00  0.00     0.000 C 
ENDROOT
BRANCH   1   2
ATOM      2  C   UNL     1      53.306  49.724   4.416  1.00  0.00     0.006 C 
BRANCH   2   3
ATOM      3  C   UNL     1      51.954  50.376   4.747  1.00  0.00     0.053 C 
BRANCH   3   4
ATOM      4  C   UNL     1      50.799  49.510   4.345  1.00  0.00     0.041 C 
ATOM      5  O   UNL     1      50.788  48.957   3.214  1.00  0.00    -0.550 OA
ATOM      6  O   UNL     1      49.754  49.288   5.231  1.00  0.00    -0.550 OA
ENDBRANCH   3   4
ENDBRANCH   2   3
ENDBRANCH   1   2
BRANCH   1   7
ATOM      7  C   UNL     1      54.250  52.039   4.979  1.00  0.00     0.000 C 
BRANCH   7   8
ATOM      8  C   UNL     1      55.015  52.028   6.309  1.00  0.00    -0.000 C 
BRANCH   8   9
ATOM      9  C   UNL     1      54.084  51.908   7.526  1.00  0.00    -0.003 C 
ATOM     10  C   UNL     1      53.949  50.470   8.028  1.00  0.00     0.004 C 
ENDBRANCH   8   9
ENDBRANCH   7   8
ENDBRANCH   1   7
TORSDOF 6
ENDMDL
MODEL 9
REMARK VINA RESULT:    -4.667      2.742      3.669
REMARK INTER + INTRA:          -6.801
REMARK INTER:                  -6.366
REMARK INTRA:                  -0.435
REMARK UNBOUND:                -0.497
REMARK SMILES CCCCCCCC(=O)[O-]
REMARK SMILES IDX 5 1 6 2 7 3 8 4 9 5 10 6 4 7 3 8 2 9 1 10
REMARK H PARENT
REMARK Flexibility Score: inf
ROOT
ATOM      1  C   UNL     1      51.825  50.513   6.099  1.00  0.00     0.000 C 
ENDROOT
BRANCH   1   2
ATOM      2  C   UNL     1      51.322  50.529   4.644  1.00  0.00     0.006 C 
BRANCH   2   3
ATOM      3  C   UNL     1      51.525  49.205   3.889  1.00  0.00     0.053 C 
BRANCH   3   4
ATOM      4  C   UNL     1      50.258  48.723   3.251  1.00  0.00     0.041 C 
ATOM      5  O   UNL     1      49.819  47.571   3.508  1.00  0.00    -0.550 OA
ATOM      6  O   UNL     1      49.545  49.557   2.400  1.00  0.00    -0.550 OA
ENDBRANCH   3   4
ENDBRANCH   2   3
ENDBRANCH   1   2
BRANCH   1   7
ATOM      7  C   UNL     1      52.991  51.485   6.337  1.00  0.00     0.000 C 
BRANCH   7   8
ATOM      8  C   UNL     1      53.485  52.083   5.012  1.00  0.00    -0.000 C 
BRANCH   8   9
ATOM      9  C   UNL     1      54.952  51.731   4.715  1.00  0.00    -0.003 C 
ATOM     10  C   UNL     1      55.100  50.424   3.935  1.00  0.00     0.004 C 
ENDBRANCH   8   9
ENDBRANCH   7   8
ENDBRANCH   1   7
TORSDOF 6
ENDMDL
