MODEL 1
REMARK VINA RESULT:     1.329      0.000      0.000
REMARK INTER + INTRA:           1.535
REMARK INTER:                   3.348
REMARK INTRA:                  -1.813
REMARK UNBOUND:                -1.813
REMARK SMILES CCCCCCCCCCCCCCCCCCCCCCCCCCCC(=O)[O-]
REMARK SMILES IDX 15 1 16 2 17 3 18 4 19 5 20 6 21 7 22 8 23 9 24 10 25 11
REMARK SMILES IDX 26 12 27 13 28 14 29 15 30 16 14 17 13 18 12 19 11 20 10 21
REMARK SMILES IDX 9 22 8 23 7 24 6 25 5 26 4 27 3 28 2 29 1 30
REMARK H PARENT
REMARK Flexibility Score: inf
ROOT
ATOM      1  C   UNL     1     -22.525   2.140   8.990  1.00  0.00     0.000 C 
ENDROOT
BRANCH   1   2
ATOM      2  C   UNL     1     -22.862   1.887  10.469  1.00  0.00     0.000 C 
BRANCH   2   3
ATOM      3  C   UNL     1     -21.583   1.794  11.312  1.00  0.00     0.000 C 
BRANCH   3   4
ATOM      4  C   UNL     1     -21.904   1.423  12.770  1.00  0.00     0.000 C 
BRANCH   4   5
ATOM      5  C   UNL     1     -22.254  -0.067  12.930  1.00  0.00     0.000 C 
BRANCH   5   6
ATOM      6  C   UNL     1     -21.432  -0.745  14.039  1.00  0.00     0.000 C 
BRANCH   6   7
ATOM      7  C   UNL     1     -20.749  -2.034  13.560  1.00  0.00     0.000 C 
BRANCH   7   8
ATOM      8  C   UNL     1     -21.108  -2.397  12.108  1.00  0.00     0.000 C 
BRANCH   8   9
ATOM      9  C   UNL     1     -20.095  -1.810  11.109  1.00  0.00     0.000 C 
BRANCH   9  10
ATOM     10  C   UNL     1     -20.713  -1.583   9.715  1.00  0.00     0.000 C 
BRANCH  10  11
ATOM     11  C   UNL     1     -20.362  -2.720   8.735  1.00  0.00     0.000 C 
BRANCH  11  12
ATOM     12  C   UNL     1     -20.719  -2.344   7.282  1.00  0.00     0.006 C 
BRANCH  12  13
ATOM     13  C   UNL     1     -21.611  -1.094   7.205  1.00  0.00     0.053 C 
BRANCH  13  14
ATOM     14  C   UNL     1     -20.947   0.010   6.440  1.00  0.00     0.041 C 
ATOM     15  O   UNL     1     -19.744  -0.099   6.077  1.00  0.00    -0.550 OA
ATOM     16  O   UNL     1     -21.661   1.151   6.105  1.00  0.00    -0.550 OA
ENDBRANCH  13  14
ENDBRANCH  12  13
ENDBRANCH  11  12
ENDBRANCH  10  11
ENDBRANCH   9  10
ENDBRANCH   8   9
ENDBRANCH   7   8
ENDBRANCH   6   7
ENDBRANCH   5   6
ENDBRANCH   4   5
ENDBRANCH   3   4
ENDBRANCH   2   3
ENDBRANCH   1   2
BRANCH   1  17
ATOM     17  C   UNL     1     -21.746   3.446   8.769  1.00  0.00     0.000 C 
BRANCH  17  18
ATOM     18  C   UNL     1     -22.671   4.645   8.495  1.00  0.00     0.000 C 
BRANCH  18  19
ATOM     19  C   UNL     1     -21.974   5.998   8.732  1.00  0.00     0.000 C 
BRANCH  19  20
ATOM     20  C   UNL     1     -20.431   5.949   8.727  1.00  0.00     0.000 C 
BRANCH  20  21
ATOM     21  C   UNL     1     -19.755   6.437  10.025  1.00  0.00     0.000 C 
BRANCH  21  22
ATOM     22  C   UNL     1     -18.757   7.598   9.843  1.00  0.00    -0.000 C 
BRANCH  22  23
ATOM     23  C   UNL     1     -17.310   7.175   9.530  1.00  0.00    -0.000 C 
BRANCH  23  24
ATOM     24  C   UNL     1     -16.445   8.333   9.006  1.00  0.00    -0.000 C 
BRANCH  24  25
ATOM     25  C   UNL     1     -16.478   9.566   9.926  1.00  0.00    -0.000 C 
BRANCH  25  26
ATOM     26  C   UNL     1     -15.104  10.010  10.472  1.00  0.00    -0.000 C 
BRANCH  26  27
ATOM     27  C   UNL     1     -14.890   9.774  11.981  1.00  0.00    -0.000 C 
BRANCH  27  28
ATOM     28  C   UNL     1     -13.482  10.124  12.503  1.00  0.00    -0.000 C 
BRANCH  28  29
ATOM     29  C   UNL     1     -13.153   9.556  13.896  1.00  0.00    -0.003 C 
ATOM     30  C   UNL     1     -11.652   9.465  14.162  1.00  0.00     0.004 C 
ENDBRANCH  28  29
ENDBRANCH  27  28
ENDBRANCH  26  27
ENDBRANCH  25  26
ENDBRANCH  24  25
ENDBRANCH  23  24
ENDBRANCH  22  23
ENDBRANCH  21  22
ENDBRANCH  20  21
ENDBRANCH  19  20
ENDBRANCH  18  19
ENDBRANCH  17  18
ENDBRANCH   1  17
TORSDOF 26
ENDMDL
MODEL 2
REMARK VINA RESULT:     1.563      3.797      4.903
REMARK INTER + INTRA:           2.127
REMARK INTER:                   3.541
REMARK INTRA:                  -1.414
REMARK UNBOUND:                -1.813
REMARK SMILES CCCCCCCCCCCCCCCCCCCCCCCCCCCC(=O)[O-]
REMARK SMILES IDX 15 1 16 2 17 3 18 4 19 5 20 6 21 7 22 8 23 9 24 10 25 11
REMARK SMILES IDX 26 12 27 13 28 14 29 15 30 16 14 17 13 18 12 19 11 20 10 21
REMARK SMILES IDX 9 22 8 23 7 24 6 25 5 26 4 27 3 28 2 29 1 30
REMARK H PARENT
REMARK Flexibility Score: inf
ROOT
ATOM      1  C   UNL     1     -21.184   2.135   7.414  1.00  0.00     0.000 C 
ENDROOT
BRANCH   1   2
ATOM      2  C   UNL     1     -21.673   1.062   6.427  1.00  0.00     0.000 C 
BRANCH   2   3
ATOM      3  C   UNL     1     -20.645  -0.068   6.297  1.00  0.00     0.000 C 
BRANCH   3   4
ATOM      4  C   UNL     1     -21.114  -1.334   7.034  1.00  0.00     0.000 C 
BRANCH   4   5
ATOM      5  C   UNL     1     -20.875  -1.251   8.551  1.00  0.00     0.000 C 
BRANCH   5   6
ATOM      6  C   UNL     1     -20.435  -2.598   9.149  1.00  0.00     0.000 C 
BRANCH   6   7
ATOM      7  C   UNL     1     -20.170  -3.661   8.072  1.00  0.00     0.000 C 
BRANCH   7   8
ATOM      8  C   UNL     1     -19.698  -5.002   8.661  1.00  0.00     0.000 C 
BRANCH   8   9
ATOM      9  C   UNL     1     -20.098  -6.188   7.763  1.00  0.00     0.000 C 
BRANCH   9  10
ATOM     10  C   UNL     1     -21.627  -6.349   7.655  1.00  0.00     0.000 C 
BRANCH  10  11
ATOM     11  C   UNL     1     -22.271  -6.674   9.017  1.00  0.00     0.000 C 
BRANCH  11  12
ATOM     12  C   UNL     1     -23.786  -6.933   8.878  1.00  0.00     0.006 C 
BRANCH  12  13
ATOM     13  C   UNL     1     -24.088  -8.247   8.139  1.00  0.00     0.053 C 
BRANCH  13  14
ATOM     14  C   UNL     1     -25.535  -8.349   7.766  1.00  0.00     0.041 C 
ATOM     15  O   UNL     1     -25.965  -7.794   6.718  1.00  0.00    -0.550 OA
ATOM     16  O   UNL     1     -26.408  -9.079   8.559  1.00  0.00    -0.550 OA
ENDBRANCH  13  14
ENDBRANCH  12  13
ENDBRANCH  11  12
ENDBRANCH  10  11
ENDBRANCH   9  10
ENDBRANCH   8   9
ENDBRANCH   7   8
ENDBRANCH   6   7
ENDBRANCH   5   6
ENDBRANCH   4   5
ENDBRANCH   3   4
ENDBRANCH   2   3
ENDBRANCH   1   2
BRANCH   1  17
ATOM     17  C   UNL     1     -21.938   2.106   8.752  1.00  0.00     0.000 C 
BRANCH  17  18
ATOM     18  C   UNL     1     -21.952   3.476   9.453  1.00  0.00     0.000 C 
BRANCH  18  19
ATOM     19  C   UNL     1     -22.786   4.523   8.693  1.00  0.00     0.000 C 
BRANCH  19  20
ATOM     20  C   UNL     1     -22.145   5.924   8.593  1.00  0.00     0.000 C 
BRANCH  20  21
ATOM     21  C   UNL     1     -20.602   5.940   8.600  1.00  0.00     0.000 C 
BRANCH  21  22
ATOM     22  C   UNL     1     -19.962   6.470   9.900  1.00  0.00    -0.000 C 
BRANCH  22  23
ATOM     23  C   UNL     1     -18.437   6.671   9.843  1.00  0.00    -0.000 C 
BRANCH  23  24
ATOM     24  C   UNL     1     -18.027   8.153   9.821  1.00  0.00    -0.000 C 
BRANCH  24  25
ATOM     25  C   UNL     1     -16.510   8.350   9.644  1.00  0.00    -0.000 C 
BRANCH  25  26
ATOM     26  C   UNL     1     -15.995   9.769   9.961  1.00  0.00    -0.000 C 
BRANCH  26  27
ATOM     27  C   UNL     1     -14.715   9.826  10.819  1.00  0.00    -0.000 C 
BRANCH  27  28
ATOM     28  C   UNL     1     -14.944  10.124  12.314  1.00  0.00    -0.000 C 
BRANCH  28  29
ATOM     29  C   UNL     1     -13.963   9.419  13.268  1.00  0.00    -0.003 C 
ATOM     30  C   UNL     1     -12.554  10.007  13.215  1.00  0.00     0.004 C 
ENDBRANCH  28  29
ENDBRANCH  27  28
ENDBRANCH  26  27
ENDBRANCH  25  26
ENDBRANCH  24  25
ENDBRANCH  23  24
ENDBRANCH  22  23
ENDBRANCH  21  22
ENDBRANCH  20  21
ENDBRANCH  19  20
ENDBRANCH  18  19
ENDBRANCH  17  18
ENDBRANCH   1  17
TORSDOF 26
ENDMDL
MODEL 3
REMARK VINA RESULT:     1.642      4.512     12.544
REMARK INTER + INTRA:           2.325
REMARK INTER:                   3.917
REMARK INTRA:                  -1.592
REMARK UNBOUND:                -1.813
REMARK SMILES CCCCCCCCCCCCCCCCCCCCCCCCCCCC(=O)[O-]
REMARK SMILES IDX 15 1 16 2 17 3 18 4 19 5 20 6 21 7 22 8 23 9 24 10 25 11
REMARK SMILES IDX 26 12 27 13 28 14 29 15 30 16 14 17 13 18 12 19 11 20 10 21
REMARK SMILES IDX 9 22 8 23 7 24 6 25 5 26 4 27 3 28 2 29 1 30
REMARK H PARENT
REMARK Flexibility Score: inf
ROOT
ATOM      1  C   UNL     1     -21.172  -0.501  13.619  1.00  0.00     0.000 C 
ENDROOT
BRANCH   1   2
ATOM      2  C   UNL     1     -22.150   0.635  13.275  1.00  0.00     0.000 C 
BRANCH   2   3
ATOM      3  C   UNL     1     -21.622   1.473  12.104  1.00  0.00     0.000 C 
BRANCH   3   4
ATOM      4  C   UNL     1     -22.475   1.264  10.842  1.00  0.00     0.000 C 
BRANCH   4   5
ATOM      5  C   UNL     1     -21.872   1.958   9.608  1.00  0.00     0.000 C 
BRANCH   5   6
ATOM      6  C   UNL     1     -22.739   3.129   9.114  1.00  0.00     0.000 C 
BRANCH   6   7
ATOM      7  C   UNL     1     -21.937   4.147   8.289  1.00  0.00     0.000 C 
BRANCH   7   8
ATOM      8  C   UNL     1     -22.018   5.574   8.860  1.00  0.00     0.000 C 
BRANCH   8   9
ATOM      9  C   UNL     1     -20.853   5.867   9.822  1.00  0.00     0.000 C 
BRANCH   9  10
ATOM     10  C   UNL     1     -19.645   6.496   9.102  1.00  0.00     0.000 C 
BRANCH  10  11
ATOM     11  C   UNL     1     -18.675   7.178  10.087  1.00  0.00     0.000 C 
BRANCH  11  12
ATOM     12  C   UNL     1     -17.285   7.393   9.454  1.00  0.00     0.006 C 
BRANCH  12  13
ATOM     13  C   UNL     1     -17.000   8.875   9.161  1.00  0.00     0.053 C 
BRANCH  13  14
ATOM     14  C   UNL     1     -15.778   9.355   9.883  1.00  0.00     0.041 C 
ATOM     15  O   UNL     1     -14.881   9.992   9.265  1.00  0.00    -0.550 OA
ATOM     16  O   UNL     1     -15.638   9.124  11.243  1.00  0.00    -0.550 OA
ENDBRANCH  13  14
ENDBRANCH  12  13
ENDBRANCH  11  12
ENDBRANCH  10  11
ENDBRANCH   9  10
ENDBRANCH   8   9
ENDBRANCH   7   8
ENDBRANCH   6   7
ENDBRANCH   5   6
ENDBRANCH   4   5
ENDBRANCH   3   4
ENDBRANCH   2   3
ENDBRANCH   1   2
BRANCH   1  17
ATOM     17  C   UNL     1     -21.355  -1.738  12.726  1.00  0.00     0.000 C 
BRANCH  17  18
ATOM     18  C   UNL     1     -20.487  -1.685  11.457  1.00  0.00     0.000 C 
BRANCH  18  19
ATOM     19  C   UNL     1     -21.126  -2.428  10.269  1.00  0.00     0.000 C 
BRANCH  19  20
ATOM     20  C   UNL     1     -20.837  -1.814   8.882  1.00  0.00     0.000 C 
BRANCH  20  21
ATOM     21  C   UNL     1     -20.328  -2.809   7.818  1.00  0.00     0.000 C 
BRANCH  21  22
ATOM     22  C   UNL     1     -19.787  -4.140   8.377  1.00  0.00    -0.000 C 
BRANCH  22  23
ATOM     23  C   UNL     1     -20.364  -5.408   7.722  1.00  0.00    -0.000 C 
BRANCH  23  24
ATOM     24  C   UNL     1     -20.889  -6.428   8.746  1.00  0.00    -0.000 C 
BRANCH  24  25
ATOM     25  C   UNL     1     -22.406  -6.310   8.982  1.00  0.00    -0.000 C 
BRANCH  25  26
ATOM     26  C   UNL     1     -23.275  -7.255   8.126  1.00  0.00    -0.000 C 
BRANCH  26  27
ATOM     27  C   UNL     1     -24.788  -7.198   8.419  1.00  0.00    -0.000 C 
BRANCH  27  28
ATOM     28  C   UNL     1     -25.670  -8.025   7.461  1.00  0.00    -0.000 C 
BRANCH  28  29
ATOM     29  C   UNL     1     -25.914  -9.478   7.904  1.00  0.00    -0.003 C 
ATOM     30  C   UNL     1     -27.085  -9.616   8.876  1.00  0.00     0.004 C 
ENDBRANCH  28  29
ENDBRANCH  27  28
ENDBRANCH  26  27
ENDBRANCH  25  26
ENDBRANCH  24  25
ENDBRANCH  23  24
ENDBRANCH  22  23
ENDBRANCH  21  22
ENDBRANCH  20  21
ENDBRANCH  19  20
ENDBRANCH  18  19
ENDBRANCH  17  18
ENDBRANCH   1  17
TORSDOF 26
ENDMDL
MODEL 4
REMARK VINA RESULT:     1.671      6.313      9.743
REMARK INTER + INTRA:           2.398
REMARK INTER:                   4.799
REMARK INTRA:                  -2.401
REMARK UNBOUND:                -1.813
REMARK SMILES CCCCCCCCCCCCCCCCCCCCCCCCCCCC(=O)[O-]
REMARK SMILES IDX 15 1 16 2 17 3 18 4 19 5 20 6 21 7 22 8 23 9 24 10 25 11
REMARK SMILES IDX 26 12 27 13 28 14 29 15 30 16 14 17 13 18 12 19 11 20 10 21
REMARK SMILES IDX 9 22 8 23 7 24 6 25 5 26 4 27 3 28 2 29 1 30
REMARK H PARENT
REMARK Flexibility Score: inf
ROOT
ATOM      1  C   UNL     1     -19.744  -2.750   9.487  1.00  0.00     0.000 C 
ENDROOT
BRANCH   1   2
ATOM      2  C   UNL     1     -20.352  -3.512   8.298  1.00  0.00     0.000 C 
BRANCH   2   3
ATOM      3  C   UNL     1     -19.498  -4.735   7.940  1.00  0.00     0.000 C 
BRANCH   3   4
ATOM      4  C   UNL     1     -20.214  -6.042   8.319  1.00  0.00     0.000 C 
BRANCH   4   5
ATOM      5  C   UNL     1     -21.710  -6.015   7.962  1.00  0.00     0.000 C 
BRANCH   5   6
ATOM      6  C   UNL     1     -22.568  -6.781   8.983  1.00  0.00     0.000 C 
BRANCH   6   7
ATOM      7  C   UNL     1     -24.031  -6.920   8.535  1.00  0.00     0.000 C 
BRANCH   7   8
ATOM      8  C   UNL     1     -24.348  -8.310   7.954  1.00  0.00     0.000 C 
BRANCH   8   9
ATOM      9  C   UNL     1     -25.820  -8.419   7.517  1.00  0.00     0.000 C 
BRANCH   9  10
ATOM     10  C   UNL     1     -26.409  -9.817   7.793  1.00  0.00     0.000 C 
BRANCH  10  11
ATOM     11  C   UNL     1     -27.278  -9.837   9.066  1.00  0.00     0.000 C 
BRANCH  11  12
ATOM     12  C   UNL     1     -27.244  -8.479   9.796  1.00  0.00     0.006 C 
BRANCH  12  13
ATOM     13  C   UNL     1     -28.013  -8.512  11.126  1.00  0.00     0.053 C 
BRANCH  13  14
ATOM     14  C   UNL     1     -28.062  -7.159  11.769  1.00  0.00     0.041 C 
ATOM     15  O   UNL     1     -27.335  -6.222  11.338  1.00  0.00    -0.550 OA
ATOM     16  O   UNL     1     -28.928  -6.922  12.825  1.00  0.00    -0.550 OA
ENDBRANCH  13  14
ENDBRANCH  12  13
ENDBRANCH  11  12
ENDBRANCH  10  11
ENDBRANCH   9  10
ENDBRANCH   8   9
ENDBRANCH   7   8
ENDBRANCH   6   7
ENDBRANCH   5   6
ENDBRANCH   4   5
ENDBRANCH   3   4
ENDBRANCH   2   3
ENDBRANCH   1   2
BRANCH   1  17
ATOM     17  C   UNL     1     -20.747  -1.807  10.170  1.00  0.00     0.000 C 
BRANCH  17  18
ATOM     18  C   UNL     1     -21.047  -2.215  11.623  1.00  0.00     0.000 C 
BRANCH  18  19
ATOM     19  C   UNL     1     -20.291  -1.350  12.649  1.00  0.00     0.000 C 
BRANCH  19  20
ATOM     20  C   UNL     1     -21.017  -1.154  13.998  1.00  0.00     0.000 C 
BRANCH  20  21
ATOM     21  C   UNL     1     -22.083  -0.038  14.013  1.00  0.00     0.000 C 
BRANCH  21  22
ATOM     22  C   UNL     1     -21.747   1.195  13.150  1.00  0.00    -0.000 C 
BRANCH  22  23
ATOM     23  C   UNL     1     -22.518   1.293  11.821  1.00  0.00    -0.000 C 
BRANCH  23  24
ATOM     24  C   UNL     1     -21.713   1.989  10.710  1.00  0.00    -0.000 C 
BRANCH  24  25
ATOM     25  C   UNL     1     -22.087   1.492   9.302  1.00  0.00    -0.000 C 
BRANCH  25  26
ATOM     26  C   UNL     1     -21.813   2.494   8.161  1.00  0.00    -0.000 C 
BRANCH  26  27
ATOM     27  C   UNL     1     -21.306   1.868   6.846  1.00  0.00    -0.000 C 
BRANCH  27  28
ATOM     28  C   UNL     1     -20.202   0.804   7.012  1.00  0.00    -0.000 C 
BRANCH  28  29
ATOM     29  C   UNL     1     -20.570  -0.592   6.480  1.00  0.00    -0.003 C 
ATOM     30  C   UNL     1     -22.078  -0.819   6.393  1.00  0.00     0.004 C 
ENDBRANCH  28  29
ENDBRANCH  27  28
ENDBRANCH  26  27
ENDBRANCH  25  26
ENDBRANCH  24  25
ENDBRANCH  23  24
ENDBRANCH  22  23
ENDBRANCH  21  22
ENDBRANCH  20  21
ENDBRANCH  19  20
ENDBRANCH  18  19
ENDBRANCH  17  18
ENDBRANCH   1  17
TORSDOF 26
ENDMDL
MODEL 5
REMARK VINA RESULT:     1.715      4.526      6.922
REMARK INTER + INTRA:           2.508
REMARK INTER:                   4.107
REMARK INTRA:                  -1.599
REMARK UNBOUND:                -1.813
REMARK SMILES CCCCCCCCCCCCCCCCCCCCCCCCCCCC(=O)[O-]
REMARK SMILES IDX 15 1 16 2 17 3 18 4 19 5 20 6 21 7 22 8 23 9 24 10 25 11
REMARK SMILES IDX 26 12 27 13 28 14 29 15 30 16 14 17 13 18 12 19 11 20 10 21
REMARK SMILES IDX 9 22 8 23 7 24 6 25 5 26 4 27 3 28 2 29 1 30
REMARK H PARENT
REMARK Flexibility Score: inf
ROOT
ATOM      1  C   UNL     1     -20.697  -0.949  13.026  1.00  0.00     0.000 C 
ENDROOT
BRANCH   1   2
ATOM      2  C   UNL     1     -21.208  -1.901  11.933  1.00  0.00     0.000 C 
BRANCH   2   3
ATOM      3  C   UNL     1     -20.259  -1.909  10.728  1.00  0.00     0.000 C 
BRANCH   3   4
ATOM      4  C   UNL     1     -21.020  -1.643   9.419  1.00  0.00     0.000 C 
BRANCH   4   5
ATOM      5  C   UNL     1     -20.484  -2.487   8.250  1.00  0.00     0.000 C 
BRANCH   5   6
ATOM      6  C   UNL     1     -19.741  -3.745   8.729  1.00  0.00     0.000 C 
BRANCH   6   7
ATOM      7  C   UNL     1     -19.682  -4.840   7.653  1.00  0.00     0.000 C 
BRANCH   7   8
ATOM      8  C   UNL     1     -20.287  -6.174   8.125  1.00  0.00     0.000 C 
BRANCH   8   9
ATOM      9  C   UNL     1     -21.699  -5.982   8.707  1.00  0.00     0.000 C 
BRANCH   9  10
ATOM     10  C   UNL     1     -22.743  -6.884   8.017  1.00  0.00     0.000 C 
BRANCH  10  11
ATOM     11  C   UNL     1     -24.024  -7.034   8.860  1.00  0.00     0.000 C 
BRANCH  11  12
ATOM     12  C   UNL     1     -25.204  -7.546   8.009  1.00  0.00     0.006 C 
BRANCH  12  13
ATOM     13  C   UNL     1     -25.224  -9.080   7.902  1.00  0.00     0.053 C 
BRANCH  13  14
ATOM     14  C   UNL     1     -26.623  -9.617   7.935  1.00  0.00     0.041 C 
ATOM     15  O   UNL     1     -27.232  -9.875   6.861  1.00  0.00    -0.550 OA
ATOM     16  O   UNL     1     -27.246  -9.858   9.149  1.00  0.00    -0.550 OA
ENDBRANCH  13  14
ENDBRANCH  12  13
ENDBRANCH  11  12
ENDBRANCH  10  11
ENDBRANCH   9  10
ENDBRANCH   8   9
ENDBRANCH   7   8
ENDBRANCH   6   7
ENDBRANCH   5   6
ENDBRANCH   4   5
ENDBRANCH   3   4
ENDBRANCH   2   3
ENDBRANCH   1   2
BRANCH   1  17
ATOM     17  C   UNL     1     -21.772   0.036  13.514  1.00  0.00     0.000 C 
BRANCH  17  18
ATOM     18  C   UNL     1     -21.644   1.422  12.859  1.00  0.00     0.000 C 
BRANCH  18  19
ATOM     19  C   UNL     1     -22.407   1.521  11.525  1.00  0.00     0.000 C 
BRANCH  19  20
ATOM     20  C   UNL     1     -21.525   1.772  10.283  1.00  0.00     0.000 C 
BRANCH  20  21
ATOM     21  C   UNL     1     -22.125   1.293   8.945  1.00  0.00     0.000 C 
BRANCH  21  22
ATOM     22  C   UNL     1     -21.524   1.954   7.688  1.00  0.00    -0.000 C 
BRANCH  22  23
ATOM     23  C   UNL     1     -21.302   3.474   7.791  1.00  0.00    -0.000 C 
BRANCH  23  24
ATOM     24  C   UNL     1     -22.485   4.212   8.439  1.00  0.00    -0.000 C 
BRANCH  24  25
ATOM     25  C   UNL     1     -22.129   5.644   8.875  1.00  0.00    -0.000 C 
BRANCH  25  26
ATOM     26  C   UNL     1     -20.827   5.773   9.693  1.00  0.00    -0.000 C 
BRANCH  26  27
ATOM     27  C   UNL     1     -19.806   6.791   9.145  1.00  0.00    -0.000 C 
BRANCH  27  28
ATOM     28  C   UNL     1     -18.457   6.829   9.890  1.00  0.00    -0.000 C 
BRANCH  28  29
ATOM     29  C   UNL     1     -17.342   7.603   9.165  1.00  0.00    -0.003 C 
ATOM     30  C   UNL     1     -16.646   8.626  10.061  1.00  0.00     0.004 C 
ENDBRANCH  28  29
ENDBRANCH  27  28
ENDBRANCH  26  27
ENDBRANCH  25  26
ENDBRANCH  24  25
ENDBRANCH  23  24
ENDBRANCH  22  23
ENDBRANCH  21  22
ENDBRANCH  20  21
ENDBRANCH  19  20
ENDBRANCH  18  19
ENDBRANCH  17  18
ENDBRANCH   1  17
TORSDOF 26
ENDMDL
MODEL 6
REMARK VINA RESULT:     1.830      6.103     13.472
REMARK INTER + INTRA:           2.799
REMARK INTER:                   3.589
REMARK INTRA:                  -0.790
REMARK UNBOUND:                -1.813
REMARK SMILES CCCCCCCCCCCCCCCCCCCCCCCCCCCC(=O)[O-]
REMARK SMILES IDX 15 1 16 2 17 3 18 4 19 5 20 6 21 7 22 8 23 9 24 10 25 11
REMARK SMILES IDX 26 12 27 13 28 14 29 15 30 16 14 17 13 18 12 19 11 20 10 21
REMARK SMILES IDX 9 22 8 23 7 24 6 25 5 26 4 27 3 28 2 29 1 30
REMARK H PARENT
REMARK Flexibility Score: inf
ROOT
ATOM      1  C   UNL     1     -19.445  -4.980   8.312  1.00  0.00     0.000 C 
ENDROOT
BRANCH   1   2
ATOM      2  C   UNL     1     -20.143  -3.705   7.811  1.00  0.00     0.000 C 
BRANCH   2   3
ATOM      3  C   UNL     1     -20.107  -2.607   8.881  1.00  0.00     0.000 C 
BRANCH   3   4
ATOM      4  C   UNL     1     -21.018  -1.428   8.499  1.00  0.00     0.000 C 
BRANCH   4   5
ATOM      5  C   UNL     1     -21.305  -1.376   6.989  1.00  0.00     0.000 C 
BRANCH   5   6
ATOM      6  C   UNL     1     -20.597  -0.197   6.299  1.00  0.00     0.000 C 
BRANCH   6   7
ATOM      7  C   UNL     1     -21.076   1.165   6.825  1.00  0.00     0.000 C 
BRANCH   7   8
ATOM      8  C   UNL     1     -21.227   1.194   8.357  1.00  0.00     0.000 C 
BRANCH   8   9
ATOM      9  C   UNL     1     -22.175   2.318   8.812  1.00  0.00     0.000 C 
BRANCH   9  10
ATOM     10  C   UNL     1     -22.829   2.015  10.174  1.00  0.00     0.000 C 
BRANCH  10  11
ATOM     11  C   UNL     1     -21.983   1.040  11.017  1.00  0.00     0.000 C 
BRANCH  11  12
ATOM     12  C   UNL     1     -21.841   1.528  12.474  1.00  0.00     0.006 C 
BRANCH  12  13
ATOM     13  C   UNL     1     -22.352   0.493  13.488  1.00  0.00     0.053 C 
BRANCH  13  14
ATOM     14  C   UNL     1     -21.361  -0.612  13.696  1.00  0.00     0.041 C 
ATOM     15  O   UNL     1     -20.436  -0.487  14.544  1.00  0.00    -0.550 OA
ATOM     16  O   UNL     1     -21.472  -1.790  12.973  1.00  0.00    -0.550 OA
ENDBRANCH  13  14
ENDBRANCH  12  13
ENDBRANCH  11  12
ENDBRANCH  10  11
ENDBRANCH   9  10
ENDBRANCH   8   9
ENDBRANCH   7   8
ENDBRANCH   6   7
ENDBRANCH   5   6
ENDBRANCH   4   5
ENDBRANCH   3   4
ENDBRANCH   2   3
ENDBRANCH   1   2
BRANCH   1  17
ATOM     17  C   UNL     1     -20.272  -6.251   8.065  1.00  0.00     0.000 C 
BRANCH  17  18
ATOM     18  C   UNL     1     -21.779  -5.964   7.954  1.00  0.00     0.000 C 
BRANCH  18  19
ATOM     19  C   UNL     1     -22.594  -6.621   9.083  1.00  0.00     0.000 C 
BRANCH  19  20
ATOM     20  C   UNL     1     -24.072  -6.909   8.742  1.00  0.00     0.000 C 
BRANCH  20  21
ATOM     21  C   UNL     1     -24.315  -8.185   7.910  1.00  0.00     0.000 C 
BRANCH  21  22
ATOM     22  C   UNL     1     -25.764  -8.374   7.416  1.00  0.00    -0.000 C 
BRANCH  22  23
ATOM     23  C   UNL     1     -26.364  -9.770   7.664  1.00  0.00    -0.000 C 
BRANCH  23  24
ATOM     24  C   UNL     1     -27.444  -9.773   8.759  1.00  0.00    -0.000 C 
BRANCH  24  25
ATOM     25  C   UNL     1     -27.072  -8.894   9.967  1.00  0.00    -0.000 C 
BRANCH  25  26
ATOM     26  C   UNL     1     -28.183  -8.733  11.025  1.00  0.00    -0.000 C 
BRANCH  26  27
ATOM     27  C   UNL     1     -27.976  -7.576  12.023  1.00  0.00    -0.000 C 
BRANCH  27  28
ATOM     28  C   UNL     1     -27.732  -6.196  11.382  1.00  0.00    -0.000 C 
BRANCH  28  29
ATOM     29  C   UNL     1     -28.428  -5.023  12.095  1.00  0.00    -0.003 C 
ATOM     30  C   UNL     1     -28.817  -3.893  11.142  1.00  0.00     0.004 C 
ENDBRANCH  28  29
ENDBRANCH  27  28
ENDBRANCH  26  27
ENDBRANCH  25  26
ENDBRANCH  24  25
ENDBRANCH  23  24
ENDBRANCH  22  23
ENDBRANCH  21  22
ENDBRANCH  20  21
ENDBRANCH  19  20
ENDBRANCH  18  19
ENDBRANCH  17  18
ENDBRANCH   1  17
TORSDOF 26
ENDMDL
MODEL 7
REMARK VINA RESULT:     1.937      5.758     12.779
REMARK INTER + INTRA:           3.069
REMARK INTER:                   4.822
REMARK INTRA:                  -1.753
REMARK UNBOUND:                -1.813
REMARK SMILES CCCCCCCCCCCCCCCCCCCCCCCCCCCC(=O)[O-]
REMARK SMILES IDX 15 1 16 2 17 3 18 4 19 5 20 6 21 7 22 8 23 9 24 10 25 11
REMARK SMILES IDX 26 12 27 13 28 14 29 15 30 16 14 17 13 18 12 19 11 20 10 21
REMARK SMILES IDX 9 22 8 23 7 24 6 25 5 26 4 27 3 28 2 29 1 30
REMARK H PARENT
REMARK Flexibility Score: inf
ROOT
ATOM      1  C   UNL     1     -19.717  -3.194   9.344  1.00  0.00     0.000 C 
ENDROOT
BRANCH   1   2
ATOM      2  C   UNL     1     -20.681  -2.048   9.692  1.00  0.00     0.000 C 
BRANCH   2   3
ATOM      3  C   UNL     1     -20.470  -1.578  11.136  1.00  0.00     0.000 C 
BRANCH   3   4
ATOM      4  C   UNL     1     -21.340  -2.385  12.116  1.00  0.00     0.000 C 
BRANCH   4   5
ATOM      5  C   UNL     1     -21.316  -1.798  13.538  1.00  0.00     0.000 C 
BRANCH   5   6
ATOM      6  C   UNL     1     -22.242  -0.578  13.683  1.00  0.00     0.000 C 
BRANCH   6   7
ATOM      7  C   UNL     1     -21.497   0.669  14.182  1.00  0.00     0.000 C 
BRANCH   7   8
ATOM      8  C   UNL     1     -21.728   1.900  13.288  1.00  0.00     0.000 C 
BRANCH   8   9
ATOM      9  C   UNL     1     -21.319   1.628  11.830  1.00  0.00     0.000 C 
BRANCH   9  10
ATOM     10  C   UNL     1     -22.535   1.542  10.888  1.00  0.00     0.000 C 
BRANCH  10  11
ATOM     11  C   UNL     1     -22.174   1.925   9.439  1.00  0.00     0.000 C 
BRANCH  11  12
ATOM     12  C   UNL     1     -21.445   0.775   8.715  1.00  0.00     0.006 C 
BRANCH  12  13
ATOM     13  C   UNL     1     -21.200   1.083   7.229  1.00  0.00     0.053 C 
BRANCH  13  14
ATOM     14  C   UNL     1     -21.072  -0.172   6.420  1.00  0.00     0.041 C 
ATOM     15  O   UNL     1     -21.940  -1.082   6.512  1.00  0.00    -0.550 OA
ATOM     16  O   UNL     1     -20.009  -0.328   5.542  1.00  0.00    -0.550 OA
ENDBRANCH  13  14
ENDBRANCH  12  13
ENDBRANCH  11  12
ENDBRANCH  10  11
ENDBRANCH   9  10
ENDBRANCH   8   9
ENDBRANCH   7   8
ENDBRANCH   6   7
ENDBRANCH   5   6
ENDBRANCH   4   5
ENDBRANCH   3   4
ENDBRANCH   2   3
ENDBRANCH   1   2
BRANCH   1  17
ATOM     17  C   UNL     1     -20.028  -3.847   7.988  1.00  0.00     0.000 C 
BRANCH  17  18
ATOM     18  C   UNL     1     -19.889  -5.379   8.024  1.00  0.00     0.000 C 
BRANCH  18  19
ATOM     19  C   UNL     1     -21.247  -6.101   7.940  1.00  0.00     0.000 C 
BRANCH  19  20
ATOM     20  C   UNL     1     -22.112  -6.017   9.217  1.00  0.00     0.000 C 
BRANCH  20  21
ATOM     21  C   UNL     1     -23.468  -6.748   9.139  1.00  0.00     0.000 C 
BRANCH  21  22
ATOM     22  C   UNL     1     -23.621  -7.710   7.943  1.00  0.00    -0.000 C 
BRANCH  22  23
ATOM     23  C   UNL     1     -24.621  -8.863   8.155  1.00  0.00    -0.000 C 
BRANCH  23  24
ATOM     24  C   UNL     1     -25.875  -8.739   7.273  1.00  0.00    -0.000 C 
BRANCH  24  25
ATOM     25  C   UNL     1     -26.987  -9.722   7.678  1.00  0.00    -0.000 C 
BRANCH  25  26
ATOM     26  C   UNL     1     -27.047 -10.058   9.183  1.00  0.00    -0.000 C 
BRANCH  26  27
ATOM     27  C   UNL     1     -27.758  -9.009  10.062  1.00  0.00    -0.000 C 
BRANCH  27  28
ATOM     28  C   UNL     1     -26.966  -7.707  10.296  1.00  0.00    -0.000 C 
BRANCH  28  29
ATOM     29  C   UNL     1     -27.675  -6.674  11.190  1.00  0.00    -0.003 C 
ATOM     30  C   UNL     1     -28.055  -7.233  12.560  1.00  0.00     0.004 C 
ENDBRANCH  28  29
ENDBRANCH  27  28
ENDBRANCH  26  27
ENDBRANCH  25  26
ENDBRANCH  24  25
ENDBRANCH  23  24
ENDBRANCH  22  23
ENDBRANCH  21  22
ENDBRANCH  20  21
ENDBRANCH  19  20
ENDBRANCH  18  19
ENDBRANCH  17  18
ENDBRANCH   1  17
TORSDOF 26
ENDMDL
MODEL 8
REMARK VINA RESULT:     2.055      1.389      2.118
REMARK INTER + INTRA:           3.366
REMARK INTER:                   5.163
REMARK INTRA:                  -1.797
REMARK UNBOUND:                -1.813
REMARK SMILES CCCCCCCCCCCCCCCCCCCCCCCCCCCC(=O)[O-]
REMARK SMILES IDX 15 1 16 2 17 3 18 4 19 5 20 6 21 7 22 8 23 9 24 10 25 11
REMARK SMILES IDX 26 12 27 13 28 14 29 15 30 16 14 17 13 18 12 19 11 20 10 21
REMARK SMILES IDX 9 22 8 23 7 24 6 25 5 26 4 27 3 28 2 29 1 30
REMARK H PARENT
REMARK Flexibility Score: inf
ROOT
ATOM      1  C   UNL     1     -22.894   3.909   9.058  1.00  0.00     0.000 C 
ENDROOT
BRANCH   1   2
ATOM      2  C   UNL     1     -21.900   2.797   8.684  1.00  0.00     0.000 C 
BRANCH   2   3
ATOM      3  C   UNL     1     -22.154   1.535   9.518  1.00  0.00     0.000 C 
BRANCH   3   4
ATOM      4  C   UNL     1     -22.293   1.875  11.012  1.00  0.00     0.000 C 
BRANCH   4   5
ATOM      5  C   UNL     1     -21.368   1.019  11.894  1.00  0.00     0.000 C 
BRANCH   5   6
ATOM      6  C   UNL     1     -22.125   0.342  13.050  1.00  0.00     0.000 C 
BRANCH   6   7
ATOM      7  C   UNL     1     -21.698  -1.119  13.257  1.00  0.00     0.000 C 
BRANCH   7   8
ATOM      8  C   UNL     1     -20.516  -1.529  12.360  1.00  0.00     0.000 C 
BRANCH   8   9
ATOM      9  C   UNL     1     -20.986  -2.336  11.136  1.00  0.00     0.000 C 
BRANCH   9  10
ATOM     10  C   UNL     1     -20.655  -1.629   9.807  1.00  0.00     0.000 C 
BRANCH  10  11
ATOM     11  C   UNL     1     -20.261  -2.629   8.702  1.00  0.00     0.000 C 
BRANCH  11  12
ATOM     12  C   UNL     1     -20.846  -2.219   7.335  1.00  0.00     0.006 C 
BRANCH  12  13
ATOM     13  C   UNL     1     -21.509  -0.833   7.375  1.00  0.00     0.053 C 
BRANCH  13  14
ATOM     14  C   UNL     1     -20.990   0.058   6.288  1.00  0.00     0.041 C 
ATOM     15  O   UNL     1     -21.754   0.888   5.724  1.00  0.00    -0.550 OA
ATOM     16  O   UNL     1     -19.656  -0.006   5.914  1.00  0.00    -0.550 OA
ENDBRANCH  13  14
ENDBRANCH  12  13
ENDBRANCH  11  12
ENDBRANCH  10  11
ENDBRANCH   9  10
ENDBRANCH   8   9
ENDBRANCH   7   8
ENDBRANCH   6   7
ENDBRANCH   5   6
ENDBRANCH   4   5
ENDBRANCH   3   4
ENDBRANCH   2   3
ENDBRANCH   1   2
BRANCH   1  17
ATOM     17  C   UNL     1     -22.493   5.283   8.499  1.00  0.00     0.000 C 
BRANCH  17  18
ATOM     18  C   UNL     1     -20.981   5.546   8.605  1.00  0.00     0.000 C 
BRANCH  18  19
ATOM     19  C   UNL     1     -20.605   6.357   9.859  1.00  0.00     0.000 C 
BRANCH  19  20
ATOM     20  C   UNL     1     -19.094   6.417  10.171  1.00  0.00     0.000 C 
BRANCH  20  21
ATOM     21  C   UNL     1     -18.342   7.607   9.541  1.00  0.00     0.000 C 
BRANCH  21  22
ATOM     22  C   UNL     1     -16.823   7.631   9.805  1.00  0.00    -0.000 C 
BRANCH  22  23
ATOM     23  C   UNL     1     -16.114   8.946   9.432  1.00  0.00    -0.000 C 
BRANCH  23  24
ATOM     24  C   UNL     1     -16.090   9.963  10.585  1.00  0.00    -0.000 C 
BRANCH  24  25
ATOM     25  C   UNL     1     -14.705  10.080  11.248  1.00  0.00    -0.000 C 
BRANCH  25  26
ATOM     26  C   UNL     1     -14.721  10.122  12.790  1.00  0.00    -0.000 C 
BRANCH  26  27
ATOM     27  C   UNL     1     -14.263   8.824  13.486  1.00  0.00    -0.000 C 
BRANCH  27  28
ATOM     28  C   UNL     1     -14.915   7.532  12.954  1.00  0.00    -0.000 C 
BRANCH  28  29
ATOM     29  C   UNL     1     -15.125   6.435  14.012  1.00  0.00    -0.003 C 
ATOM     30  C   UNL     1     -14.768   5.039  13.502  1.00  0.00     0.004 C 
ENDBRANCH  28  29
ENDBRANCH  27  28
ENDBRANCH  26  27
ENDBRANCH  25  26
ENDBRANCH  24  25
ENDBRANCH  23  24
ENDBRANCH  22  23
ENDBRANCH  21  22
ENDBRANCH  20  21
ENDBRANCH  19  20
ENDBRANCH  18  19
ENDBRANCH  17  18
ENDBRANCH   1  17
TORSDOF 26
ENDMDL
MODEL 9
REMARK VINA RESULT:     2.065      1.539      3.991
REMARK INTER + INTRA:           3.392
REMARK INTER:                   4.097
REMARK INTRA:                  -0.705
REMARK UNBOUND:                -1.813
REMARK SMILES CCCCCCCCCCCCCCCCCCCCCCCCCCCC(=O)[O-]
REMARK SMILES IDX 15 1 16 2 17 3 18 4 19 5 20 6 21 7 22 8 23 9 24 10 25 11
REMARK SMILES IDX 26 12 27 13 28 14 29 15 30 16 14 17 13 18 12 19 11 20 10 21
REMARK SMILES IDX 9 22 8 23 7 24 6 25 5 26 4 27 3 28 2 29 1 30
REMARK H PARENT
REMARK Flexibility Score: inf
ROOT
ATOM      1  C   UNL     1     -21.311   0.958   6.072  1.00  0.00     0.000 C 
ENDROOT
BRANCH   1   2
ATOM      2  C   UNL     1     -21.852  -0.406   6.532  1.00  0.00     0.000 C 
BRANCH   2   3
ATOM      3  C   UNL     1     -20.907  -1.051   7.554  1.00  0.00     0.000 C 
BRANCH   3   4
ATOM      4  C   UNL     1     -20.667  -2.535   7.231  1.00  0.00     0.000 C 
BRANCH   4   5
ATOM      5  C   UNL     1     -20.122  -3.316   8.439  1.00  0.00     0.000 C 
BRANCH   5   6
ATOM      6  C   UNL     1     -19.926  -2.420   9.674  1.00  0.00     0.000 C 
BRANCH   6   7
ATOM      7  C   UNL     1     -21.027  -2.618  10.726  1.00  0.00     0.000 C 
BRANCH   7   8
ATOM      8  C   UNL     1     -20.778  -1.809  12.011  1.00  0.00     0.000 C 
BRANCH   8   9
ATOM      9  C   UNL     1     -21.740  -2.225  13.139  1.00  0.00     0.000 C 
BRANCH   9  10
ATOM     10  C   UNL     1     -22.060  -1.057  14.094  1.00  0.00     0.000 C 
BRANCH  10  11
ATOM     11  C   UNL     1     -21.067   0.110  13.933  1.00  0.00     0.000 C 
BRANCH  11  12
ATOM     12  C   UNL     1     -21.795   1.433  13.619  1.00  0.00     0.006 C 
BRANCH  12  13
ATOM     13  C   UNL     1     -21.400   2.006  12.248  1.00  0.00     0.053 C 
BRANCH  13  14
ATOM     14  C   UNL     1     -22.169   1.358  11.137  1.00  0.00     0.041 C 
ATOM     15  O   UNL     1     -21.582   0.621  10.299  1.00  0.00    -0.550 OA
ATOM     16  O   UNL     1     -23.540   1.545  11.040  1.00  0.00    -0.550 OA
ENDBRANCH  13  14
ENDBRANCH  12  13
ENDBRANCH  11  12
ENDBRANCH  10  11
ENDBRANCH   9  10
ENDBRANCH   8   9
ENDBRANCH   7   8
ENDBRANCH   6   7
ENDBRANCH   5   6
ENDBRANCH   4   5
ENDBRANCH   3   4
ENDBRANCH   2   3
ENDBRANCH   1   2
BRANCH   1  17
ATOM     17  C   UNL     1     -20.896   1.863   7.243  1.00  0.00     0.000 C 
BRANCH  17  18
ATOM     18  C   UNL     1     -22.091   2.284   8.116  1.00  0.00     0.000 C 
BRANCH  18  19
ATOM     19  C   UNL     1     -22.362   3.799   8.059  1.00  0.00     0.000 C 
BRANCH  19  20
ATOM     20  C   UNL     1     -21.984   4.579   9.337  1.00  0.00     0.000 C 
BRANCH  20  21
ATOM     21  C   UNL     1     -21.722   6.086   9.131  1.00  0.00     0.000 C 
BRANCH  21  22
ATOM     22  C   UNL     1     -20.280   6.446   8.722  1.00  0.00    -0.000 C 
BRANCH  22  23
ATOM     23  C   UNL     1     -19.323   6.744   9.890  1.00  0.00    -0.000 C 
BRANCH  23  24
ATOM     24  C   UNL     1     -17.863   6.923   9.440  1.00  0.00    -0.000 C 
BRANCH  24  25
ATOM     25  C   UNL     1     -17.350   8.361   9.638  1.00  0.00    -0.000 C 
BRANCH  25  26
ATOM     26  C   UNL     1     -15.972   8.655   9.008  1.00  0.00    -0.000 C 
BRANCH  26  27
ATOM     27  C   UNL     1     -15.393  10.050   9.319  1.00  0.00    -0.000 C 
BRANCH  27  28
ATOM     28  C   UNL     1     -14.509  10.124  10.580  1.00  0.00    -0.000 C 
BRANCH  28  29
ATOM     29  C   UNL     1     -15.270   9.968  11.909  1.00  0.00    -0.003 C 
ATOM     30  C   UNL     1     -14.341   9.813  13.112  1.00  0.00     0.004 C 
ENDBRANCH  28  29
ENDBRANCH  27  28
ENDBRANCH  26  27
ENDBRANCH  25  26
ENDBRANCH  24  25
ENDBRANCH  23  24
ENDBRANCH  22  23
ENDBRANCH  21  22
ENDBRANCH  20  21
ENDBRANCH  19  20
ENDBRANCH  18  19
ENDBRANCH  17  18
ENDBRANCH   1  17
TORSDOF 26
ENDMDL
