MODEL 1
REMARK VINA RESULT:    -5.945      0.000      0.000
REMARK INTER + INTRA:          -5.945
REMARK INTER:                  -5.945
REMARK INTRA:                   0.000
REMARK UNBOUND:                 0.000
REMARK SMILES CC(C)=C1CC[C@H](C)CC1=O
REMARK SMILES IDX 8 1 7 2 6 3 5 4 4 5 2 6 1 7 3 8 10 9 11 10 9 11
REMARK H PARENT
REMARK Flexibility Score: inf
ROOT
ATOM      1  C   UNL     1      19.986 199.075  15.843  1.00  0.00     0.008 C 
ATOM      2  C   UNL     1      20.242 200.474  15.270  1.00  0.00    -0.006 C 
ATOM      3  C   UNL     1      19.118 200.874  14.301  1.00  0.00     0.008 C 
ATOM      4  C   UNL     1      19.407 202.228  13.640  1.00  0.00     0.039 C 
ATOM      5  C   UNL     1      19.720 203.318  14.656  1.00  0.00    -0.006 C 
ATOM      6  C   UNL     1      19.388 204.622  14.422  1.00  0.00    -0.070 C 
ATOM      7  C   UNL     1      18.710 205.040  13.137  1.00  0.00     0.039 C 
ATOM      8  C   UNL     1      19.640 205.704  15.447  1.00  0.00     0.039 C 
ATOM      9  C   UNL     1      20.506 202.895  15.852  1.00  0.00     0.159 C 
ATOM     10  O   UNL     1      21.314 203.681  16.417  1.00  0.00    -0.295 OA
ATOM     11  C   UNL     1      20.351 201.507  16.402  1.00  0.00     0.084 C 
ENDROOT
TORSDOF 0
ENDMDL
MODEL 2
REMARK VINA RESULT:    -5.637      1.716      2.690
REMARK INTER + INTRA:          -5.637
REMARK INTER:                  -5.637
REMARK INTRA:                   0.000
REMARK UNBOUND:                 0.000
REMARK SMILES CC(C)=C1CC[C@H](C)CC1=O
REMARK SMILES IDX 8 1 7 2 6 3 5 4 4 5 2 6 1 7 3 8 10 9 11 10 9 11
REMARK H PARENT
REMARK Flexibility Score: inf
ROOT
ATOM      1  C   UNL     1      19.653 200.095  15.069  1.00  0.00     0.008 C 
ATOM      2  C   UNL     1      19.524 201.606  15.300  1.00  0.00    -0.006 C 
ATOM      3  C   UNL     1      20.733 202.136  16.088  1.00  0.00     0.008 C 
ATOM      4  C   UNL     1      20.574 203.627  16.417  1.00  0.00     0.039 C 
ATOM      5  C   UNL     1      20.263 204.466  15.185  1.00  0.00    -0.006 C 
ATOM      6  C   UNL     1      20.691 205.759  15.081  1.00  0.00    -0.070 C 
ATOM      7  C   UNL     1      21.477 206.416  16.194  1.00  0.00     0.039 C 
ATOM      8  C   UNL     1      20.439 206.584  13.840  1.00  0.00     0.039 C 
ATOM      9  C   UNL     1      19.374 203.833  14.167  1.00  0.00     0.159 C 
ATOM     10  O   UNL     1      18.581 204.523  13.470  1.00  0.00    -0.295 OA
ATOM     11  C   UNL     1      19.405 202.347  13.960  1.00  0.00     0.084 C 
ENDROOT
TORSDOF 0
ENDMDL
MODEL 3
REMARK VINA RESULT:    -5.569      1.909      2.541
REMARK INTER + INTRA:          -5.569
REMARK INTER:                  -5.569
REMARK INTRA:                   0.000
REMARK UNBOUND:                 0.000
REMARK SMILES CC(C)=C1CC[C@H](C)CC1=O
REMARK SMILES IDX 8 1 7 2 6 3 5 4 4 5 2 6 1 7 3 8 10 9 11 10 9 11
REMARK H PARENT
REMARK Flexibility Score: inf
ROOT
ATOM      1  C   UNL     1      19.739 200.767  15.957  1.00  0.00     0.008 C 
ATOM      2  C   UNL     1      20.303 202.193  15.976  1.00  0.00    -0.006 C 
ATOM      3  C   UNL     1      21.327 202.384  14.846  1.00  0.00     0.008 C 
ATOM      4  C   UNL     1      21.977 203.772  14.911  1.00  0.00     0.039 C 
ATOM      5  C   UNL     1      20.950 204.895  14.966  1.00  0.00    -0.006 C 
ATOM      6  C   UNL     1      21.204 206.116  14.410  1.00  0.00    -0.070 C 
ATOM      7  C   UNL     1      22.522 206.410  13.730  1.00  0.00     0.039 C 
ATOM      8  C   UNL     1      20.171 207.220  14.408  1.00  0.00     0.039 C 
ATOM      9  C   UNL     1      19.716 204.617  15.759  1.00  0.00     0.159 C 
ATOM     10  O   UNL     1      19.115 205.536  16.379  1.00  0.00    -0.295 OA
ATOM     11  C   UNL     1      19.170 203.221  15.838  1.00  0.00     0.084 C 
ENDROOT
TORSDOF 0
ENDMDL
MODEL 4
REMARK VINA RESULT:    -5.399      1.785      2.866
REMARK INTER + INTRA:          -5.399
REMARK INTER:                  -5.399
REMARK INTRA:                   0.000
REMARK UNBOUND:                 0.000
REMARK SMILES CC(C)=C1CC[C@H](C)CC1=O
REMARK SMILES IDX 8 1 7 2 6 3 5 4 4 5 2 6 1 7 3 8 10 9 11 10 9 11
REMARK H PARENT
REMARK Flexibility Score: inf
ROOT
ATOM      1  C   UNL     1      19.762 200.897  15.587  1.00  0.00     0.008 C 
ATOM      2  C   UNL     1      19.817 202.413  15.362  1.00  0.00    -0.006 C 
ATOM      3  C   UNL     1      19.145 203.156  16.527  1.00  0.00     0.008 C 
ATOM      4  C   UNL     1      19.100 204.668  16.272  1.00  0.00     0.039 C 
ATOM      5  C   UNL     1      20.466 205.242  15.923  1.00  0.00    -0.006 C 
ATOM      6  C   UNL     1      20.811 206.517  16.270  1.00  0.00    -0.070 C 
ATOM      7  C   UNL     1      19.842 207.418  17.003  1.00  0.00     0.039 C 
ATOM      8  C   UNL     1      22.184 207.078  15.980  1.00  0.00     0.039 C 
ATOM      9  C   UNL     1      21.347 204.375  15.085  1.00  0.00     0.159 C 
ATOM     10  O   UNL     1      22.159 204.871  14.258  1.00  0.00    -0.295 OA
ATOM     11  C   UNL     1      21.272 202.881  15.210  1.00  0.00     0.084 C 
ENDROOT
TORSDOF 0
ENDMDL
MODEL 5
REMARK VINA RESULT:    -5.050      2.240      3.272
REMARK INTER + INTRA:          -5.050
REMARK INTER:                  -5.050
REMARK INTRA:                   0.000
REMARK UNBOUND:                 0.000
REMARK SMILES CC(C)=C1CC[C@H](C)CC1=O
REMARK SMILES IDX 8 1 7 2 6 3 5 4 4 5 2 6 1 7 3 8 10 9 11 10 9 11
REMARK H PARENT
REMARK Flexibility Score: inf
ROOT
ATOM      1  C   UNL     1      20.031 202.629  16.398  1.00  0.00     0.008 C 
ATOM      2  C   UNL     1      20.259 203.588  15.223  1.00  0.00    -0.006 C 
ATOM      3  C   UNL     1      18.928 204.206  14.765  1.00  0.00     0.008 C 
ATOM      4  C   UNL     1      19.121 205.090  13.526  1.00  0.00     0.039 C 
ATOM      5  C   UNL     1      20.216 206.132  13.717  1.00  0.00    -0.006 C 
ATOM      6  C   UNL     1      20.151 207.351  13.104  1.00  0.00    -0.070 C 
ATOM      7  C   UNL     1      18.996 207.711  12.197  1.00  0.00     0.039 C 
ATOM      8  C   UNL     1      21.201 208.413  13.332  1.00  0.00     0.039 C 
ATOM      9  C   UNL     1      21.404 205.697  14.509  1.00  0.00     0.159 C 
ATOM     10  O   UNL     1      22.556 206.148  14.265  1.00  0.00    -0.295 OA
ATOM     11  C   UNL     1      21.245 204.697  15.618  1.00  0.00     0.084 C 
ENDROOT
TORSDOF 0
ENDMDL
MODEL 6
REMARK VINA RESULT:    -5.017      1.275      4.264
REMARK INTER + INTRA:          -5.017
REMARK INTER:                  -5.017
REMARK INTRA:                   0.000
REMARK UNBOUND:                 0.000
REMARK SMILES CC(C)=C1CC[C@H](C)CC1=O
REMARK SMILES IDX 8 1 7 2 6 3 5 4 4 5 2 6 1 7 3 8 10 9 11 10 9 11
REMARK H PARENT
REMARK Flexibility Score: inf
ROOT
ATOM      1  C   UNL     1      20.047 207.633  15.514  1.00  0.00     0.008 C 
ATOM      2  C   UNL     1      19.433 206.241  15.321  1.00  0.00    -0.006 C 
ATOM      3  C   UNL     1      19.731 205.711  13.909  1.00  0.00     0.008 C 
ATOM      4  C   UNL     1      19.040 204.363  13.662  1.00  0.00     0.039 C 
ATOM      5  C   UNL     1      19.347 203.342  14.748  1.00  0.00    -0.006 C 
ATOM      6  C   UNL     1      19.410 202.006  14.469  1.00  0.00    -0.070 C 
ATOM      7  C   UNL     1      19.161 201.485  13.072  1.00  0.00     0.039 C 
ATOM      8  C   UNL     1      19.770 200.988  15.526  1.00  0.00     0.039 C 
ATOM      9  C   UNL     1      19.455 203.875  16.138  1.00  0.00     0.159 C 
ATOM     10  O   UNL     1      19.110 203.183  17.134  1.00  0.00    -0.295 OA
ATOM     11  C   UNL     1      19.974 205.263  16.374  1.00  0.00     0.084 C 
ENDROOT
TORSDOF 0
ENDMDL
MODEL 7
REMARK VINA RESULT:    -5.013      2.273      5.151
REMARK INTER + INTRA:          -5.013
REMARK INTER:                  -5.013
REMARK INTRA:                   0.000
REMARK UNBOUND:                 0.000
REMARK SMILES CC(C)=C1CC[C@H](C)CC1=O
REMARK SMILES IDX 8 1 7 2 6 3 5 4 4 5 2 6 1 7 3 8 10 9 11 10 9 11
REMARK H PARENT
REMARK Flexibility Score: inf
ROOT
ATOM      1  C   UNL     1      20.236 208.985  16.207  1.00  0.00     0.008 C 
ATOM      2  C   UNL     1      20.135 207.549  15.677  1.00  0.00    -0.006 C 
ATOM      3  C   UNL     1      21.513 207.044  15.222  1.00  0.00     0.008 C 
ATOM      4  C   UNL     1      21.416 205.646  14.595  1.00  0.00     0.039 C 
ATOM      5  C   UNL     1      20.696 204.652  15.496  1.00  0.00    -0.006 C 
ATOM      6  C   UNL     1      21.022 203.326  15.492  1.00  0.00    -0.070 C 
ATOM      7  C   UNL     1      22.101 202.787  14.579  1.00  0.00     0.039 C 
ATOM      8  C   UNL     1      20.355 202.339  16.422  1.00  0.00     0.039 C 
ATOM      9  C   UNL     1      19.550 205.192  16.284  1.00  0.00     0.159 C 
ATOM     10  O   UNL     1      18.551 204.474  16.564  1.00  0.00    -0.295 OA
ATOM     11  C   UNL     1      19.564 206.617  16.756  1.00  0.00     0.084 C 
ENDROOT
TORSDOF 0
ENDMDL
MODEL 8
REMARK VINA RESULT:    -4.807      2.005      5.025
REMARK INTER + INTRA:          -4.807
REMARK INTER:                  -4.807
REMARK INTRA:                   0.000
REMARK UNBOUND:                 0.000
REMARK SMILES CC(C)=C1CC[C@H](C)CC1=O
REMARK SMILES IDX 8 1 7 2 6 3 5 4 4 5 2 6 1 7 3 8 10 9 11 10 9 11
REMARK H PARENT
REMARK Flexibility Score: inf
ROOT
ATOM      1  C   UNL     1      20.482 208.770  12.516  1.00  0.00     0.008 C 
ATOM      2  C   UNL     1      20.129 207.604  13.448  1.00  0.00    -0.006 C 
ATOM      3  C   UNL     1      19.409 206.491  12.670  1.00  0.00     0.008 C 
ATOM      4  C   UNL     1      18.958 205.360  13.604  1.00  0.00     0.039 C 
ATOM      5  C   UNL     1      20.094 204.830  14.469  1.00  0.00    -0.006 C 
ATOM      6  C   UNL     1      20.137 203.522  14.859  1.00  0.00    -0.070 C 
ATOM      7  C   UNL     1      19.049 202.549  14.463  1.00  0.00     0.039 C 
ATOM      8  C   UNL     1      21.288 202.970  15.669  1.00  0.00     0.039 C 
ATOM      9  C   UNL     1      21.078 205.843  14.953  1.00  0.00     0.159 C 
ATOM     10  O   UNL     1      21.653 205.717  16.068  1.00  0.00    -0.295 OA
ATOM     11  C   UNL     1      21.396 207.045  14.113  1.00  0.00     0.084 C 
ENDROOT
TORSDOF 0
ENDMDL
MODEL 9
REMARK VINA RESULT:    -4.754      2.869      5.284
REMARK INTER + INTRA:          -4.754
REMARK INTER:                  -4.754
REMARK INTRA:                   0.000
REMARK UNBOUND:                 0.000
REMARK SMILES CC(C)=C1CC[C@H](C)CC1=O
REMARK SMILES IDX 8 1 7 2 6 3 5 4 4 5 2 6 1 7 3 8 10 9 11 10 9 11
REMARK H PARENT
REMARK Flexibility Score: inf
ROOT
ATOM      1  C   UNL     1      23.498 208.653  14.819  1.00  0.00     0.008 C 
ATOM      2  C   UNL     1      22.117 207.988  14.840  1.00  0.00    -0.006 C 
ATOM      3  C   UNL     1      22.060 206.830  13.831  1.00  0.00     0.008 C 
ATOM      4  C   UNL     1      20.654 206.217  13.764  1.00  0.00     0.039 C 
ATOM      5  C   UNL     1      20.124 205.824  15.136  1.00  0.00    -0.006 C 
ATOM      6  C   UNL     1      19.282 204.760  15.294  1.00  0.00    -0.070 C 
ATOM      7  C   UNL     1      18.829 203.937  14.109  1.00  0.00     0.039 C 
ATOM      8  C   UNL     1      18.794 204.326  16.656  1.00  0.00     0.039 C 
ATOM      9  C   UNL     1      20.482 206.735  16.263  1.00  0.00     0.159 C 
ATOM     10  O   UNL     1      19.701 206.910  17.238  1.00  0.00    -0.295 OA
ATOM     11  C   UNL     1      21.789 207.473  16.249  1.00  0.00     0.084 C 
ENDROOT
TORSDOF 0
ENDMDL
