MODEL 1
REMARK VINA RESULT:    -3.715      0.000      0.000
REMARK INTER + INTRA:          -8.017
REMARK INTER:                  -6.322
REMARK INTRA:                  -1.695
REMARK UNBOUND:                -1.695
REMARK SMILES CCCCCCCCCCCCCC(=O)[O-]
REMARK SMILES IDX 8 1 9 2 10 3 11 4 12 5 13 6 14 7 15 8 16 9 7 10 6 11 5 12
REMARK SMILES IDX 4 13 3 14 2 15 1 16
REMARK H PARENT
REMARK Flexibility Score: inf
ROOT
ATOM      1  C   UNL     1       0.457   8.216  -7.825  1.00  0.00     0.000 C 
ENDROOT
BRANCH   1   2
ATOM      2  C   UNL     1      -0.974   8.010  -8.341  1.00  0.00     0.000 C 
BRANCH   2   3
ATOM      3  C   UNL     1      -1.049   6.802  -9.283  1.00  0.00     0.000 C 
BRANCH   3   4
ATOM      4  C   UNL     1      -1.939   7.104 -10.497  1.00  0.00     0.000 C 
BRANCH   4   5
ATOM      5  C   UNL     1      -2.527   8.527 -10.473  1.00  0.00     0.006 C 
BRANCH   5   6
ATOM      6  C   UNL     1      -4.016   8.593 -10.855  1.00  0.00     0.053 C 
BRANCH   6   7
ATOM      7  C   UNL     1      -4.604   9.955 -10.644  1.00  0.00     0.041 C 
ATOM      8  O   UNL     1      -3.852  10.960 -10.537  1.00  0.00    -0.550 OA
ATOM      9  O   UNL     1      -5.982  10.123 -10.599  1.00  0.00    -0.550 OA
ENDBRANCH   6   7
ENDBRANCH   5   6
ENDBRANCH   4   5
ENDBRANCH   3   4
ENDBRANCH   2   3
ENDBRANCH   1   2
BRANCH   1  10
ATOM     10  C   UNL     1       1.497   7.389  -8.602  1.00  0.00     0.000 C 
BRANCH  10  11
ATOM     11  C   UNL     1       2.283   8.168  -9.678  1.00  0.00    -0.000 C 
BRANCH  11  12
ATOM     12  C   UNL     1       2.031   7.723 -11.130  1.00  0.00    -0.000 C 
BRANCH  12  13
ATOM     13  C   UNL     1       1.294   8.785 -11.962  1.00  0.00    -0.000 C 
BRANCH  13  14
ATOM     14  C   UNL     1       0.867  10.003 -11.127  1.00  0.00    -0.000 C 
BRANCH  14  15
ATOM     15  C   UNL     1      -0.117  10.941 -11.859  1.00  0.00    -0.003 C 
ATOM     16  C   UNL     1      -0.032  12.381 -11.352  1.00  0.00     0.004 C 
ENDBRANCH  14  15
ENDBRANCH  13  14
ENDBRANCH  12  13
ENDBRANCH  11  12
ENDBRANCH  10  11
ENDBRANCH   1  10
TORSDOF 12
ENDMDL
MODEL 2
REMARK VINA RESULT:    -3.618      3.311      5.323
REMARK INTER + INTRA:          -7.851
REMARK INTER:                  -5.999
REMARK INTRA:                  -1.853
REMARK UNBOUND:                -1.695
REMARK SMILES CCCCCCCCCCCCCC(=O)[O-]
REMARK SMILES IDX 8 1 9 2 10 3 11 4 12 5 13 6 14 7 15 8 16 9 7 10 6 11 5 12
REMARK SMILES IDX 4 13 3 14 2 15 1 16
REMARK H PARENT
REMARK Flexibility Score: inf
ROOT
ATOM      1  C   UNL     1       2.515   8.180  -9.750  1.00  0.00     0.000 C 
ENDROOT
BRANCH   1   2
ATOM      2  C   UNL     1       2.057   7.740 -11.148  1.00  0.00     0.000 C 
BRANCH   2   3
ATOM      3  C   UNL     1       1.696   8.954 -12.014  1.00  0.00     0.000 C 
BRANCH   3   4
ATOM      4  C   UNL     1       0.769   9.914 -11.257  1.00  0.00     0.000 C 
BRANCH   4   5
ATOM      5  C   UNL     1       1.287  11.364 -11.240  1.00  0.00     0.006 C 
BRANCH   5   6
ATOM      6  C   UNL     1       1.727  11.855  -9.850  1.00  0.00     0.053 C 
BRANCH   6   7
ATOM      7  C   UNL     1       3.214  11.824  -9.674  1.00  0.00     0.041 C 
ATOM      8  O   UNL     1       3.736  12.268  -8.616  1.00  0.00    -0.550 OA
ATOM      9  O   UNL     1       4.025  11.276 -10.659  1.00  0.00    -0.550 OA
ENDBRANCH   6   7
ENDBRANCH   5   6
ENDBRANCH   4   5
ENDBRANCH   3   4
ENDBRANCH   2   3
ENDBRANCH   1   2
BRANCH   1  10
ATOM     10  C   UNL     1       1.779   7.439  -8.620  1.00  0.00     0.000 C 
BRANCH  10  11
ATOM     11  C   UNL     1       0.701   8.264  -7.887  1.00  0.00    -0.000 C 
BRANCH  11  12
ATOM     12  C   UNL     1      -0.743   8.039  -8.370  1.00  0.00    -0.000 C 
BRANCH  12  13
ATOM     13  C   UNL     1      -0.909   6.741  -9.178  1.00  0.00    -0.000 C 
BRANCH  13  14
ATOM     14  C   UNL     1      -1.443   6.990 -10.598  1.00  0.00    -0.000 C 
BRANCH  14  15
ATOM     15  C   UNL     1      -2.904   7.488 -10.633  1.00  0.00    -0.003 C 
ATOM     16  C   UNL     1      -3.020   8.908 -11.187  1.00  0.00     0.004 C 
ENDBRANCH  14  15
ENDBRANCH  13  14
ENDBRANCH  12  13
ENDBRANCH  11  12
ENDBRANCH  10  11
ENDBRANCH   1  10
TORSDOF 12
ENDMDL
MODEL 3
REMARK VINA RESULT:    -3.563      1.181      2.659
REMARK INTER + INTRA:          -7.757
REMARK INTER:                  -6.506
REMARK INTRA:                  -1.251
REMARK UNBOUND:                -1.695
REMARK SMILES CCCCCCCCCCCCCC(=O)[O-]
REMARK SMILES IDX 8 1 9 2 10 3 11 4 12 5 13 6 14 7 15 8 16 9 7 10 6 11 5 12
REMARK SMILES IDX 4 13 3 14 2 15 1 16
REMARK H PARENT
REMARK Flexibility Score: inf
ROOT
ATOM      1  C   UNL     1      -1.914   7.348 -10.070  1.00  0.00     0.000 C 
ENDROOT
BRANCH   1   2
ATOM      2  C   UNL     1      -2.169   6.560 -11.362  1.00  0.00     0.000 C 
BRANCH   2   3
ATOM      3  C   UNL     1      -3.474   7.011 -12.031  1.00  0.00     0.000 C 
BRANCH   3   4
ATOM      4  C   UNL     1      -4.149   8.127 -11.224  1.00  0.00     0.000 C 
BRANCH   4   5
ATOM      5  C   UNL     1      -4.329   9.428 -12.027  1.00  0.00     0.006 C 
BRANCH   5   6
ATOM      6  C   UNL     1      -4.225  10.707 -11.178  1.00  0.00     0.053 C 
BRANCH   6   7
ATOM      7  C   UNL     1      -5.565  11.236 -10.767  1.00  0.00     0.041 C 
ATOM      8  O   UNL     1      -6.593  10.519 -10.888  1.00  0.00    -0.550 OA
ATOM      9  O   UNL     1      -5.677  12.507 -10.217  1.00  0.00    -0.550 OA
ENDBRANCH   6   7
ENDBRANCH   5   6
ENDBRANCH   4   5
ENDBRANCH   3   4
ENDBRANCH   2   3
ENDBRANCH   1   2
BRANCH   1  10
ATOM     10  C   UNL     1      -0.810   6.724  -9.198  1.00  0.00     0.000 C 
BRANCH  10  11
ATOM     11  C   UNL     1      -0.048   7.717  -8.296  1.00  0.00    -0.000 C 
BRANCH  11  12
ATOM     12  C   UNL     1       1.474   7.503  -8.220  1.00  0.00    -0.000 C 
BRANCH  12  13
ATOM     13  C   UNL     1       2.224   8.098  -9.423  1.00  0.00    -0.000 C 
BRANCH  13  14
ATOM     14  C   UNL     1       1.783   9.535  -9.746  1.00  0.00    -0.000 C 
BRANCH  14  15
ATOM     15  C   UNL     1       1.313   9.727 -11.203  1.00  0.00    -0.003 C 
ATOM     16  C   UNL     1      -0.120  10.255 -11.286  1.00  0.00     0.004 C 
ENDBRANCH  14  15
ENDBRANCH  13  14
ENDBRANCH  12  13
ENDBRANCH  11  12
ENDBRANCH  10  11
ENDBRANCH   1  10
TORSDOF 12
ENDMDL
MODEL 4
REMARK VINA RESULT:    -3.544      1.235      1.597
REMARK INTER + INTRA:          -7.725
REMARK INTER:                  -6.241
REMARK INTRA:                  -1.485
REMARK UNBOUND:                -1.695
REMARK SMILES CCCCCCCCCCCCCC(=O)[O-]
REMARK SMILES IDX 8 1 9 2 10 3 11 4 12 5 13 6 14 7 15 8 16 9 7 10 6 11 5 12
REMARK SMILES IDX 4 13 3 14 2 15 1 16
REMARK H PARENT
REMARK Flexibility Score: inf
ROOT
ATOM      1  C   UNL     1       1.129   7.926  -8.328  1.00  0.00     0.000 C 
ENDROOT
BRANCH   1   2
ATOM      2  C   UNL     1       0.002   6.962  -8.725  1.00  0.00     0.000 C 
BRANCH   2   3
ATOM      3  C   UNL     1      -1.345   7.692  -8.798  1.00  0.00     0.000 C 
BRANCH   3   4
ATOM      4  C   UNL     1      -2.265   7.047  -9.843  1.00  0.00     0.000 C 
BRANCH   4   5
ATOM      5  C   UNL     1      -2.546   7.965 -11.047  1.00  0.00     0.006 C 
BRANCH   5   6
ATOM      6  C   UNL     1      -4.038   8.275 -11.262  1.00  0.00     0.053 C 
BRANCH   6   7
ATOM      7  C   UNL     1      -4.457   9.560 -10.617  1.00  0.00     0.041 C 
ATOM      8  O   UNL     1      -3.589  10.371 -10.198  1.00  0.00    -0.550 OA
ATOM      9  O   UNL     1      -5.804   9.881 -10.506  1.00  0.00    -0.550 OA
ENDBRANCH   6   7
ENDBRANCH   5   6
ENDBRANCH   4   5
ENDBRANCH   3   4
ENDBRANCH   2   3
ENDBRANCH   1   2
BRANCH   1  10
ATOM     10  C   UNL     1       2.216   8.051  -9.410  1.00  0.00     0.000 C 
BRANCH  10  11
ATOM     11  C   UNL     1       1.737   7.794 -10.854  1.00  0.00    -0.000 C 
BRANCH  11  12
ATOM     12  C   UNL     1       1.514   9.054 -11.709  1.00  0.00    -0.000 C 
BRANCH  12  13
ATOM     13  C   UNL     1       0.552  10.060 -11.055  1.00  0.00    -0.000 C 
BRANCH  13  14
ATOM     14  C   UNL     1       1.160  11.466 -10.926  1.00  0.00    -0.000 C 
BRANCH  14  15
ATOM     15  C   UNL     1       2.536  11.484 -10.226  1.00  0.00    -0.003 C 
ATOM     16  C   UNL     1       2.419  11.725  -8.720  1.00  0.00     0.004 C 
ENDBRANCH  14  15
ENDBRANCH  13  14
ENDBRANCH  12  13
ENDBRANCH  11  12
ENDBRANCH  10  11
ENDBRANCH   1  10
TORSDOF 12
ENDMDL
MODEL 5
REMARK VINA RESULT:    -3.443     15.779     17.623
REMARK INTER + INTRA:          -7.553
REMARK INTER:                  -6.527
REMARK INTRA:                  -1.026
REMARK UNBOUND:                -1.695
REMARK SMILES CCCCCCCCCCCCCC(=O)[O-]
REMARK SMILES IDX 8 1 9 2 10 3 11 4 12 5 13 6 14 7 15 8 16 9 7 10 6 11 5 12
REMARK SMILES IDX 4 13 3 14 2 15 1 16
REMARK H PARENT
REMARK Flexibility Score: inf
ROOT
ATOM      1  C   UNL     1       0.297  12.003   5.091  1.00  0.00     0.000 C 
ENDROOT
BRANCH   1   2
ATOM      2  C   UNL     1       1.570  12.471   5.809  1.00  0.00     0.000 C 
BRANCH   2   3
ATOM      3  C   UNL     1       2.386  13.416   4.919  1.00  0.00     0.000 C 
BRANCH   3   4
ATOM      4  C   UNL     1       3.778  13.670   5.515  1.00  0.00     0.000 C 
BRANCH   4   5
ATOM      5  C   UNL     1       4.225  12.568   6.493  1.00  0.00     0.006 C 
BRANCH   5   6
ATOM      6  C   UNL     1       5.722  12.225   6.406  1.00  0.00     0.053 C 
BRANCH   6   7
ATOM      7  C   UNL     1       5.965  10.786   6.069  1.00  0.00     0.041 C 
ATOM      8  O   UNL     1       5.028   9.948   6.156  1.00  0.00    -0.550 OA
ATOM      9  O   UNL     1       7.214  10.372   5.624  1.00  0.00    -0.550 OA
ENDBRANCH   6   7
ENDBRANCH   5   6
ENDBRANCH   4   5
ENDBRANCH   3   4
ENDBRANCH   2   3
ENDBRANCH   1   2
BRANCH   1  10
ATOM     10  C   UNL     1      -0.186  12.999   4.022  1.00  0.00     0.000 C 
BRANCH  10  11
ATOM     11  C   UNL     1      -1.436  13.818   4.407  1.00  0.00    -0.000 C 
BRANCH  11  12
ATOM     12  C   UNL     1      -2.229  13.283   5.613  1.00  0.00    -0.000 C 
BRANCH  12  13
ATOM     13  C   UNL     1      -3.614  12.738   5.225  1.00  0.00    -0.000 C 
BRANCH  13  14
ATOM     14  C   UNL     1      -3.919  11.377   5.871  1.00  0.00    -0.000 C 
BRANCH  14  15
ATOM     15  C   UNL     1      -3.279  10.183   5.130  1.00  0.00    -0.003 C 
ATOM     16  C   UNL     1      -2.210   9.483   5.971  1.00  0.00     0.004 C 
ENDBRANCH  14  15
ENDBRANCH  13  14
ENDBRANCH  12  13
ENDBRANCH  11  12
ENDBRANCH  10  11
ENDBRANCH   1  10
TORSDOF 12
ENDMDL
MODEL 6
REMARK VINA RESULT:    -3.437      3.085      5.183
REMARK INTER + INTRA:          -7.544
REMARK INTER:                  -5.968
REMARK INTRA:                  -1.576
REMARK UNBOUND:                -1.695
REMARK SMILES CCCCCCCCCCCCCC(=O)[O-]
REMARK SMILES IDX 8 1 9 2 10 3 11 4 12 5 13 6 14 7 15 8 16 9 7 10 6 11 5 12
REMARK SMILES IDX 4 13 3 14 2 15 1 16
REMARK H PARENT
REMARK Flexibility Score: inf
ROOT
ATOM      1  C   UNL     1       1.429   7.252  -8.510  1.00  0.00     0.000 C 
ENDROOT
BRANCH   1   2
ATOM      2  C   UNL     1       2.329   8.059  -9.456  1.00  0.00     0.000 C 
BRANCH   2   3
ATOM      3  C   UNL     1       2.007   7.743 -10.922  1.00  0.00     0.000 C 
BRANCH   3   4
ATOM      4  C   UNL     1       1.002   8.753 -11.494  1.00  0.00     0.000 C 
BRANCH   4   5
ATOM      5  C   UNL     1       1.170  10.168 -10.911  1.00  0.00     0.006 C 
BRANCH   5   6
ATOM      6  C   UNL     1       2.247  11.011 -11.616  1.00  0.00     0.053 C 
BRANCH   6   7
ATOM      7  C   UNL     1       3.048  11.838 -10.659  1.00  0.00     0.041 C 
ATOM      8  O   UNL     1       3.305  11.402  -9.505  1.00  0.00    -0.550 OA
ATOM      9  O   UNL     1       3.542  13.077 -11.047  1.00  0.00    -0.550 OA
ENDBRANCH   6   7
ENDBRANCH   5   6
ENDBRANCH   4   5
ENDBRANCH   3   4
ENDBRANCH   2   3
ENDBRANCH   1   2
BRANCH   1  10
ATOM     10  C   UNL     1       0.337   8.111  -7.848  1.00  0.00     0.000 C 
BRANCH  10  11
ATOM     11  C   UNL     1      -1.070   7.973  -8.465  1.00  0.00    -0.000 C 
BRANCH  11  12
ATOM     12  C   UNL     1      -1.294   6.715  -9.322  1.00  0.00    -0.000 C 
BRANCH  12  13
ATOM     13  C   UNL     1      -2.168   6.980 -10.559  1.00  0.00    -0.000 C 
BRANCH  13  14
ATOM     14  C   UNL     1      -2.627   8.443 -10.659  1.00  0.00    -0.000 C 
BRANCH  14  15
ATOM     15  C   UNL     1      -4.059   8.607 -11.214  1.00  0.00    -0.003 C 
ATOM     16  C   UNL     1      -4.778   9.816 -10.617  1.00  0.00     0.004 C 
ENDBRANCH  14  15
ENDBRANCH  13  14
ENDBRANCH  12  13
ENDBRANCH  11  12
ENDBRANCH  10  11
ENDBRANCH   1  10
TORSDOF 12
ENDMDL
MODEL 7
REMARK VINA RESULT:    -3.365      1.640      4.188
REMARK INTER + INTRA:          -7.420
REMARK INTER:                  -5.869
REMARK INTRA:                  -1.551
REMARK UNBOUND:                -1.695
REMARK SMILES CCCCCCCCCCCCCC(=O)[O-]
REMARK SMILES IDX 8 1 9 2 10 3 11 4 12 5 13 6 14 7 15 8 16 9 7 10 6 11 5 12
REMARK SMILES IDX 4 13 3 14 2 15 1 16
REMARK H PARENT
REMARK Flexibility Score: inf
ROOT
ATOM      1  C   UNL     1       0.555   8.311  -7.891  1.00  0.00     0.000 C 
ENDROOT
BRANCH   1   2
ATOM      2  C   UNL     1       1.552   7.369  -8.580  1.00  0.00     0.000 C 
BRANCH   2   3
ATOM      3  C   UNL     1       2.385   8.121  -9.626  1.00  0.00     0.000 C 
BRANCH   3   4
ATOM      4  C   UNL     1       1.888   7.819 -11.046  1.00  0.00     0.000 C 
BRANCH   4   5
ATOM      5  C   UNL     1       1.134   9.000 -11.686  1.00  0.00     0.006 C 
BRANCH   5   6
ATOM      6  C   UNL     1       1.283  10.325 -10.918  1.00  0.00     0.053 C 
BRANCH   6   7
ATOM      7  C   UNL     1       0.216  11.316 -11.269  1.00  0.00     0.041 C 
ATOM      8  O   UNL     1       0.296  12.505 -10.861  1.00  0.00    -0.550 OA
ATOM      9  O   UNL     1      -0.852  10.939 -12.075  1.00  0.00    -0.550 OA
ENDBRANCH   6   7
ENDBRANCH   5   6
ENDBRANCH   4   5
ENDBRANCH   3   4
ENDBRANCH   2   3
ENDBRANCH   1   2
BRANCH   1  10
ATOM     10  C   UNL     1      -0.908   8.000  -8.251  1.00  0.00     0.000 C 
BRANCH  10  11
ATOM     11  C   UNL     1      -1.105   6.841  -9.252  1.00  0.00    -0.000 C 
BRANCH  11  12
ATOM     12  C   UNL     1      -1.928   7.187 -10.506  1.00  0.00    -0.000 C 
BRANCH  12  13
ATOM     13  C   UNL     1      -2.644   8.543 -10.398  1.00  0.00    -0.000 C 
BRANCH  13  14
ATOM     14  C   UNL     1      -4.062   8.515 -10.991  1.00  0.00    -0.000 C 
BRANCH  14  15
ATOM     15  C   UNL     1      -4.869   9.805 -10.728  1.00  0.00    -0.003 C 
ATOM     16  C   UNL     1      -3.969  10.993 -10.388  1.00  0.00     0.004 C 
ENDBRANCH  14  15
ENDBRANCH  13  14
ENDBRANCH  12  13
ENDBRANCH  11  12
ENDBRANCH  10  11
ENDBRANCH   1  10
TORSDOF 12
ENDMDL
MODEL 8
REMARK VINA RESULT:    -3.309     15.181     16.721
REMARK INTER + INTRA:          -7.325
REMARK INTER:                  -6.438
REMARK INTRA:                  -0.887
REMARK UNBOUND:                -1.695
REMARK SMILES CCCCCCCCCCCCCC(=O)[O-]
REMARK SMILES IDX 8 1 9 2 10 3 11 4 12 5 13 6 14 7 15 8 16 9 7 10 6 11 5 12
REMARK SMILES IDX 4 13 3 14 2 15 1 16
REMARK H PARENT
REMARK Flexibility Score: inf
ROOT
ATOM      1  C   UNL     1       0.889  12.645   4.697  1.00  0.00     0.000 C 
ENDROOT
BRANCH   1   2
ATOM      2  C   UNL     1      -0.375  13.104   3.956  1.00  0.00     0.000 C 
BRANCH   2   3
ATOM      3  C   UNL     1      -1.322  13.856   4.899  1.00  0.00     0.000 C 
BRANCH   3   4
ATOM      4  C   UNL     1      -2.666  13.126   5.026  1.00  0.00     0.000 C 
BRANCH   4   5
ATOM      5  C   UNL     1      -2.658  12.031   6.109  1.00  0.00     0.006 C 
BRANCH   5   6
ATOM      6  C   UNL     1      -3.193  10.671   5.626  1.00  0.00     0.053 C 
BRANCH   6   7
ATOM      7  C   UNL     1      -2.099   9.679   5.377  1.00  0.00     0.041 C 
ATOM      8  O   UNL     1      -1.294   9.850   4.424  1.00  0.00    -0.550 OA
ATOM      9  O   UNL     1      -1.944   8.582   6.216  1.00  0.00    -0.550 OA
ENDBRANCH   6   7
ENDBRANCH   5   6
ENDBRANCH   4   5
ENDBRANCH   3   4
ENDBRANCH   2   3
ENDBRANCH   1   2
BRANCH   1  10
ATOM     10  C   UNL     1       1.998  13.712   4.703  1.00  0.00     0.000 C 
BRANCH  10  11
ATOM     11  C   UNL     1       3.074  13.533   5.795  1.00  0.00    -0.000 C 
BRANCH  11  12
ATOM     12  C   UNL     1       2.991  12.219   6.592  1.00  0.00    -0.000 C 
BRANCH  12  13
ATOM     13  C   UNL     1       4.346  11.787   7.176  1.00  0.00    -0.000 C 
BRANCH  13  14
ATOM     14  C   UNL     1       5.540  12.386   6.415  1.00  0.00    -0.000 C 
BRANCH  14  15
ATOM     15  C   UNL     1       6.492  11.325   5.821  1.00  0.00    -0.003 C 
ATOM     16  C   UNL     1       5.846   9.941   5.750  1.00  0.00     0.004 C 
ENDBRANCH  14  15
ENDBRANCH  13  14
ENDBRANCH  12  13
ENDBRANCH  11  12
ENDBRANCH  10  11
ENDBRANCH   1  10
TORSDOF 12
ENDMDL
MODEL 9
REMARK VINA RESULT:    -3.196     15.317     16.463
REMARK INTER + INTRA:          -7.133
REMARK INTER:                  -5.434
REMARK INTRA:                  -1.699
REMARK UNBOUND:                -1.695
REMARK SMILES CCCCCCCCCCCCCC(=O)[O-]
REMARK SMILES IDX 8 1 9 2 10 3 11 4 12 5 13 6 14 7 15 8 16 9 7 10 6 11 5 12
REMARK SMILES IDX 4 13 3 14 2 15 1 16
REMARK H PARENT
REMARK Flexibility Score: inf
ROOT
ATOM      1  C   UNL     1      -1.489  10.548   5.175  1.00  0.00     0.000 C 
ENDROOT
BRANCH   1   2
ATOM      2  C   UNL     1      -1.717  10.534   6.692  1.00  0.00     0.000 C 
BRANCH   2   3
ATOM      3  C   UNL     1      -3.192  10.274   7.023  1.00  0.00     0.000 C 
BRANCH   3   4
ATOM      4  C   UNL     1      -3.812   9.282   6.030  1.00  0.00     0.000 C 
BRANCH   4   5
ATOM      5  C   UNL     1      -5.244   8.863   6.411  1.00  0.00     0.006 C 
BRANCH   5   6
ATOM      6  C   UNL     1      -6.130   8.499   5.207  1.00  0.00     0.053 C 
BRANCH   6   7
ATOM      7  C   UNL     1      -6.432   7.033   5.137  1.00  0.00     0.041 C 
ATOM      8  O   UNL     1      -6.665   6.487   4.026  1.00  0.00    -0.550 OA
ATOM      9  O   UNL     1      -6.423   6.261   6.292  1.00  0.00    -0.550 OA
ENDBRANCH   6   7
ENDBRANCH   5   6
ENDBRANCH   4   5
ENDBRANCH   3   4
ENDBRANCH   2   3
ENDBRANCH   1   2
BRANCH   1  10
ATOM     10  C   UNL     1      -0.416  11.563   4.741  1.00  0.00     0.000 C 
BRANCH  10  11
ATOM     11  C   UNL     1      -0.950  12.957   4.353  1.00  0.00    -0.000 C 
BRANCH  11  12
ATOM     12  C   UNL     1      -1.075  13.961   5.513  1.00  0.00    -0.000 C 
BRANCH  12  13
ATOM     13  C   UNL     1      -2.520  14.124   6.011  1.00  0.00    -0.000 C 
BRANCH  13  14
ATOM     14  C   UNL     1      -3.560  13.911   4.899  1.00  0.00    -0.000 C 
BRANCH  14  15
ATOM     15  C   UNL     1      -4.772  13.062   5.338  1.00  0.00    -0.003 C 
ATOM     16  C   UNL     1      -5.228  12.092   4.248  1.00  0.00     0.004 C 
ENDBRANCH  14  15
ENDBRANCH  13  14
ENDBRANCH  12  13
ENDBRANCH  11  12
ENDBRANCH  10  11
ENDBRANCH   1  10
TORSDOF 12
ENDMDL
