MODEL 1
REMARK VINA RESULT:    -0.891      0.000      0.000
REMARK INTER + INTRA:          -0.629
REMARK INTER:                  -1.308
REMARK INTRA:                   0.680
REMARK UNBOUND:                 0.680
REMARK SMILES O=c1c(O[C@H]2O[C@@H](CO)[C@H](O)[C@H](O)[C@@H]2O)c(-c2ccc(O)c(O)c2)oc2cc(O)cc(O)c12
REMARK SMILES IDX 4 1 3 2 16 3 25 4 2 5 26 6 1 7 33 8 27 9 31 10 28 11 30 12
REMARK SMILES IDX 17 13 18 14 19 15 20 16 24 17 22 18 21 19 23 21 32 23 29 25
REMARK SMILES IDX 5 27 14 28 6 29 12 30 7 31 10 32 15 33 13 35 8 37 9 38 11 40
REMARK H PARENT 21 20 23 22 32 24 29 26 15 34 13 36 9 39 11 41
REMARK Flexibility Score: inf
ROOT
ATOM      1  O   UNL     1     -12.625  30.664  12.112  1.00  0.00    -0.454 OA
ENDROOT
BRANCH   1   2
ATOM      2  C   UNL     1     -13.591  30.920  11.134  1.00  0.00     0.214 A 
ATOM      3  C   UNL     1     -14.915  30.535  11.348  1.00  0.00     0.180 A 
ATOM      4  O   UNL     1     -15.840  30.811  10.436  1.00  0.00    -0.452 OA
ATOM      5  C   UNL     1     -13.245  31.560   9.938  1.00  0.00     0.239 A 
ATOM      6  C   UNL     1     -15.578  31.462   9.307  1.00  0.00     0.146 A 
ATOM      7  O   UNL     1     -12.029  31.795   9.709  1.00  0.00    -0.285 OA
ATOM      8  C   UNL     1     -14.257  31.895   9.005  1.00  0.00     0.111 A 
ATOM      9  C   UNL     1     -16.631  31.717   8.425  1.00  0.00     0.094 A 
ATOM     10  C   UNL     1     -14.043  32.635   7.798  1.00  0.00     0.134 A 
ATOM     11  C   UNL     1     -16.404  32.418   7.248  1.00  0.00     0.123 A 
ATOM     12  C   UNL     1     -15.121  32.865   6.931  1.00  0.00     0.093 A 
BRANCH   3  13
ATOM     13  C   UNL     1     -15.324  29.826  12.556  1.00  0.00     0.025 A 
ATOM     14  C   UNL     1     -16.151  30.456  13.491  1.00  0.00     0.016 A 
ATOM     15  C   UNL     1     -16.579  29.761  14.630  1.00  0.00     0.051 A 
ATOM     16  C   UNL     1     -16.210  28.423  14.826  1.00  0.00     0.157 A 
ATOM     17  C   UNL     1     -14.911  28.502  12.775  1.00  0.00     0.062 A 
ATOM     18  C   UNL     1     -15.334  27.799  13.911  1.00  0.00     0.158 A 
BRANCH  16  19
ATOM     19  O   UNL     1     -16.760  27.731  15.897  1.00  0.00    -0.504 OA
ATOM     20  H   UNL     1     -17.123  28.195  16.720  1.00  0.00     0.293 HD
ENDBRANCH  16  19
BRANCH  18  21
ATOM     21  O   UNL     1     -14.874  26.496  14.096  1.00  0.00    -0.504 OA
ATOM     22  H   UNL     1     -15.495  25.699  14.090  1.00  0.00     0.293 HD
ENDBRANCH  18  21
ENDBRANCH   3  13
BRANCH  10  23
ATOM     23  O   UNL     1     -12.819  33.181   7.404  1.00  0.00    -0.507 OA
ATOM     24  H   UNL     1     -12.276  33.858   7.924  1.00  0.00     0.293 HD
ENDBRANCH  10  23
BRANCH  11  25
ATOM     25  O   UNL     1     -17.468  32.687   6.400  1.00  0.00    -0.508 OA
ATOM     26  H   UNL     1     -18.077  31.952   6.062  1.00  0.00     0.293 HD
ENDBRANCH  11  25
ENDBRANCH   1   2
BRANCH   1  27
ATOM     27  C   UNL     1     -12.372  31.562  13.187  1.00  0.00     0.339 C 
ATOM     28  C   UNL     1     -13.330  31.232  14.344  1.00  0.00     0.214 C 
ATOM     29  O   UNL     1     -12.600  32.881  12.731  1.00  0.00    -0.332 OA
ATOM     30  C   UNL     1     -13.116  32.220  15.510  1.00  0.00     0.180 C 
ATOM     31  C   UNL     1     -12.247  33.827  13.732  1.00  0.00     0.179 C 
ATOM     32  C   UNL     1     -13.174  33.664  14.972  1.00  0.00     0.177 C 
BRANCH  28  33
ATOM     33  O   UNL     1     -13.176  29.897  14.762  1.00  0.00    -0.384 OA
ATOM     34  H   UNL     1     -12.296  29.579  14.455  1.00  0.00     0.211 HD
ENDBRANCH  28  33
BRANCH  30  35
ATOM     35  O   UNL     1     -11.876  31.979  16.124  1.00  0.00    -0.387 OA
ATOM     36  H   UNL     1     -11.232  31.766  15.399  1.00  0.00     0.211 HD
ENDBRANCH  30  35
BRANCH  31  37
ATOM     37  C   UNL     1     -12.373  35.231  13.124  1.00  0.00     0.191 C 
BRANCH  37  38
ATOM     38  O   UNL     1     -13.363  35.972  13.772  1.00  0.00    -0.394 OA
ATOM     39  H   UNL     1     -13.587  35.478  14.603  1.00  0.00     0.210 HD
ENDBRANCH  37  38
ENDBRANCH  31  37
BRANCH  32  40
ATOM     40  O   UNL     1     -12.871  34.592  15.984  1.00  0.00    -0.387 OA
ATOM     41  H   UNL     1     -13.736  34.908  16.370  1.00  0.00     0.211 HD
ENDBRANCH  32  40
ENDBRANCH   1  27
TORSDOF 12
ENDMDL
MODEL 2
REMARK VINA RESULT:    -0.348      3.631      6.868
REMARK INTER + INTRA:           0.169
REMARK INTER:                  -0.770
REMARK INTRA:                   0.939
REMARK UNBOUND:                 0.680
REMARK SMILES O=c1c(O[C@H]2O[C@@H](CO)[C@H](O)[C@H](O)[C@@H]2O)c(-c2ccc(O)c(O)c2)oc2cc(O)cc(O)c12
REMARK SMILES IDX 4 1 3 2 16 3 25 4 2 5 26 6 1 7 33 8 27 9 31 10 28 11 30 12
REMARK SMILES IDX 17 13 18 14 19 15 20 16 24 17 22 18 21 19 23 21 32 23 29 25
REMARK SMILES IDX 5 27 14 28 6 29 12 30 7 31 10 32 15 33 13 35 8 37 9 38 11 40
REMARK H PARENT 21 20 23 22 32 24 29 26 15 34 13 36 9 39 11 41
REMARK Flexibility Score: inf
ROOT
ATOM      1  O   UNL     1     -15.898  27.114  15.458  1.00  0.00    -0.454 OA
ENDROOT
BRANCH   1   2
ATOM      2  C   UNL     1     -17.169  27.696  15.419  1.00  0.00     0.214 A 
ATOM      3  C   UNL     1     -18.296  26.893  15.238  1.00  0.00     0.180 A 
ATOM      4  O   UNL     1     -19.505  27.441  15.238  1.00  0.00    -0.452 OA
ATOM      5  C   UNL     1     -17.326  29.081  15.559  1.00  0.00     0.239 A 
ATOM      6  C   UNL     1     -19.717  28.741  15.418  1.00  0.00     0.146 A 
ATOM      7  O   UNL     1     -16.295  29.803  15.603  1.00  0.00    -0.285 OA
ATOM      8  C   UNL     1     -18.628  29.636  15.612  1.00  0.00     0.111 A 
ATOM      9  C   UNL     1     -21.033  29.208  15.419  1.00  0.00     0.094 A 
ATOM     10  C   UNL     1     -18.918  31.018  15.851  1.00  0.00     0.134 A 
ATOM     11  C   UNL     1     -21.297  30.556  15.632  1.00  0.00     0.123 A 
ATOM     12  C   UNL     1     -20.250  31.454  15.836  1.00  0.00     0.093 A 
BRANCH   3  13
ATOM     13  C   UNL     1     -18.189  25.451  15.043  1.00  0.00     0.025 A 
ATOM     14  C   UNL     1     -18.842  24.577  15.918  1.00  0.00     0.016 A 
ATOM     15  C   UNL     1     -18.774  23.194  15.706  1.00  0.00     0.051 A 
ATOM     16  C   UNL     1     -18.083  22.676  14.602  1.00  0.00     0.157 A 
ATOM     17  C   UNL     1     -17.453  24.934  13.965  1.00  0.00     0.062 A 
ATOM     18  C   UNL     1     -17.381  23.552  13.745  1.00  0.00     0.158 A 
BRANCH  16  19
ATOM     19  O   UNL     1     -18.150  21.312  14.354  1.00  0.00    -0.504 OA
ATOM     20  H   UNL     1     -18.986  20.860  14.005  1.00  0.00     0.293 HD
ENDBRANCH  16  19
BRANCH  18  21
ATOM     21  O   UNL     1     -16.615  23.088  12.677  1.00  0.00    -0.504 OA
ATOM     22  H   UNL     1     -15.609  23.018  12.726  1.00  0.00     0.293 HD
ENDBRANCH  18  21
ENDBRANCH   3  13
BRANCH  10  23
ATOM     23  O   UNL     1     -17.960  31.997  16.124  1.00  0.00    -0.507 OA
ATOM     24  H   UNL     1     -17.906  32.557  16.966  1.00  0.00     0.293 HD
ENDBRANCH  10  23
BRANCH  11  25
ATOM     25  O   UNL     1     -22.612  30.995  15.658  1.00  0.00    -0.508 OA
ATOM     26  H   UNL     1     -23.367  30.435  15.283  1.00  0.00     0.293 HD
ENDBRANCH  11  25
ENDBRANCH   1   2
BRANCH   1  27
ATOM     27  C   UNL     1     -14.861  27.487  14.557  1.00  0.00     0.339 C 
ATOM     28  C   UNL     1     -13.583  27.774  15.363  1.00  0.00     0.214 C 
ATOM     29  O   UNL     1     -15.269  28.651  13.863  1.00  0.00    -0.332 OA
ATOM     30  C   UNL     1     -12.451  28.230  14.419  1.00  0.00     0.180 C 
ATOM     31  C   UNL     1     -14.319  28.998  12.864  1.00  0.00     0.179 C 
ATOM     32  C   UNL     1     -12.963  29.378  13.526  1.00  0.00     0.177 C 
BRANCH  28  33
ATOM     33  O   UNL     1     -13.204  26.654  16.124  1.00  0.00    -0.384 OA
ATOM     34  H   UNL     1     -12.384  26.278  15.730  1.00  0.00     0.211 HD
ENDBRANCH  28  33
BRANCH  30  35
ATOM     35  O   UNL     1     -12.021  27.152  13.627  1.00  0.00    -0.387 OA
ATOM     36  H   UNL     1     -11.895  27.504  12.707  1.00  0.00     0.211 HD
ENDBRANCH  30  35
BRANCH  31  37
ATOM     37  C   UNL     1     -14.891  30.171  12.054  1.00  0.00     0.191 C 
BRANCH  37  38
ATOM     38  O   UNL     1     -14.830  29.911  10.684  1.00  0.00    -0.394 OA
ATOM     39  H   UNL     1     -13.910  30.139  10.393  1.00  0.00     0.210 HD
ENDBRANCH  37  38
ENDBRANCH  31  37
BRANCH  32  40
ATOM     40  O   UNL     1     -11.994  29.745  12.573  1.00  0.00    -0.387 OA
ATOM     41  H   UNL     1     -12.425  30.388  11.941  1.00  0.00     0.211 HD
ENDBRANCH  32  40
ENDBRANCH   1  27
TORSDOF 12
ENDMDL
MODEL 3
REMARK VINA RESULT:     1.455      1.682      7.113
REMARK INTER + INTRA:           2.815
REMARK INTER:                   2.461
REMARK INTRA:                   0.355
REMARK UNBOUND:                 0.680
REMARK SMILES O=c1c(O[C@H]2O[C@@H](CO)[C@H](O)[C@H](O)[C@@H]2O)c(-c2ccc(O)c(O)c2)oc2cc(O)cc(O)c12
REMARK SMILES IDX 4 1 3 2 16 3 25 4 2 5 26 6 1 7 33 8 27 9 31 10 28 11 30 12
REMARK SMILES IDX 17 13 18 14 19 15 20 16 24 17 22 18 21 19 23 21 32 23 29 25
REMARK SMILES IDX 5 27 14 28 6 29 12 30 7 31 10 32 15 33 13 35 8 37 9 38 11 40
REMARK H PARENT 21 20 23 22 32 24 29 26 15 34 13 36 9 39 11 41
REMARK Flexibility Score: inf
ROOT
ATOM      1  O   UNL     1     -14.841  31.626  11.777  1.00  0.00    -0.454 OA
ENDROOT
BRANCH   1   2
ATOM      2  C   UNL     1     -14.205  30.687  12.594  1.00  0.00     0.214 A 
ATOM      3  C   UNL     1     -13.300  31.112  13.567  1.00  0.00     0.180 A 
ATOM      4  O   UNL     1     -12.724  30.223  14.368  1.00  0.00    -0.452 OA
ATOM      5  C   UNL     1     -14.465  29.318  12.447  1.00  0.00     0.239 A 
ATOM      6  C   UNL     1     -12.973  28.918  14.308  1.00  0.00     0.146 A 
ATOM      7  O   UNL     1     -15.191  28.942  11.489  1.00  0.00    -0.285 OA
ATOM      8  C   UNL     1     -13.882  28.394  13.349  1.00  0.00     0.111 A 
ATOM      9  C   UNL     1     -12.324  28.074  15.212  1.00  0.00     0.094 A 
ATOM     10  C   UNL     1     -14.149  26.987  13.362  1.00  0.00     0.134 A 
ATOM     11  C   UNL     1     -12.578  26.708  15.199  1.00  0.00     0.123 A 
ATOM     12  C   UNL     1     -13.474  26.167  14.277  1.00  0.00     0.093 A 
BRANCH   3  13
ATOM     13  C   UNL     1     -12.958  32.520  13.737  1.00  0.00     0.025 A 
ATOM     14  C   UNL     1     -12.168  33.168  12.781  1.00  0.00     0.016 A 
ATOM     15  C   UNL     1     -11.875  34.531  12.923  1.00  0.00     0.051 A 
ATOM     16  C   UNL     1     -12.394  35.262  14.000  1.00  0.00     0.157 A 
ATOM     17  C   UNL     1     -13.437  33.238  14.845  1.00  0.00     0.062 A 
ATOM     18  C   UNL     1     -13.149  34.601  14.993  1.00  0.00     0.158 A 
BRANCH  16  19
ATOM     19  O   UNL     1     -12.190  36.635  14.033  1.00  0.00    -0.504 OA
ATOM     20  H   UNL     1     -11.280  37.049  14.191  1.00  0.00     0.293 HD
ENDBRANCH  16  19
BRANCH  18  21
ATOM     21  O   UNL     1     -13.626  35.261  16.124  1.00  0.00    -0.504 OA
ATOM     22  H   UNL     1     -13.861  36.243  16.116  1.00  0.00     0.293 HD
ENDBRANCH  18  21
ENDBRANCH   3  13
BRANCH  10  23
ATOM     23  O   UNL     1     -15.066  26.342  12.528  1.00  0.00    -0.507 OA
ATOM     24  H   UNL     1     -15.996  26.040  12.790  1.00  0.00     0.293 HD
ENDBRANCH  10  23
BRANCH  11  25
ATOM     25  O   UNL     1     -11.947  25.890  16.125  1.00  0.00    -0.508 OA
ATOM     26  H   UNL     1     -10.939  25.867  16.212  1.00  0.00     0.293 HD
ENDBRANCH  11  25
ENDBRANCH   1   2
BRANCH   1  27
ATOM     27  C   UNL     1     -14.712  31.614  10.360  1.00  0.00     0.339 C 
ATOM     28  C   UNL     1     -13.283  32.043   9.987  1.00  0.00     0.214 C 
ATOM     29  O   UNL     1     -15.649  32.525   9.818  1.00  0.00    -0.332 OA
ATOM     30  C   UNL     1     -13.124  32.089   8.454  1.00  0.00     0.180 C 
ATOM     31  C   UNL     1     -15.645  32.464   8.397  1.00  0.00     0.179 C 
ATOM     32  C   UNL     1     -14.266  32.929   7.847  1.00  0.00     0.177 C 
BRANCH  28  33
ATOM     33  O   UNL     1     -12.331  31.197  10.583  1.00  0.00    -0.384 OA
ATOM     34  H   UNL     1     -11.752  30.839   9.872  1.00  0.00     0.211 HD
ENDBRANCH  28  33
BRANCH  30  35
ATOM     35  O   UNL     1     -13.148  30.786   7.928  1.00  0.00    -0.387 OA
ATOM     36  H   UNL     1     -14.101  30.558   7.766  1.00  0.00     0.211 HD
ENDBRANCH  30  35
BRANCH  31  37
ATOM     37  C   UNL     1     -16.781  33.359   7.881  1.00  0.00     0.191 C 
BRANCH  37  38
ATOM     38  O   UNL     1     -17.337  32.839   6.711  1.00  0.00    -0.394 OA
ATOM     39  H   UNL     1     -18.064  33.458   6.444  1.00  0.00     0.210 HD
ENDBRANCH  37  38
ENDBRANCH  31  37
BRANCH  32  40
ATOM     40  O   UNL     1     -14.221  32.901   6.441  1.00  0.00    -0.387 OA
ATOM     41  H   UNL     1     -15.138  32.679   6.116  1.00  0.00     0.211 HD
ENDBRANCH  32  40
ENDBRANCH   1  27
TORSDOF 12
ENDMDL
