MODEL 1
REMARK VINA RESULT:    -3.861      0.000      0.000
REMARK INTER + INTRA:          -6.132
REMARK INTER:                  -5.892
REMARK INTRA:                  -0.240
REMARK UNBOUND:                -0.240
REMARK SMILES CC1=CCC[C@@H](C)C(=O)C[C@H](C(C)C)C(=O)C1
REMARK SMILES IDX 8 1 9 2 6 3 7 4 5 5 4 6 3 7 2 8 1 9 10 11 11 12 15 13 16 14
REMARK SMILES IDX 17 15 12 17 13 18 14 19
REMARK H PARENT
REMARK Flexibility Score: 70.00
ROOT
ATOM      1  C   UNL     1       4.158   5.094 108.622  1.00  0.00     0.136 C 
ATOM      2  O   UNL     1       3.513   5.172 109.658  1.00  0.00    -0.299 OA
ENDROOT
BRANCH   1   3
ATOM      3  C   UNL     1       3.715   5.865 107.395  1.00  0.00     0.053 C 
ATOM      4  C   UNL     1       3.471   7.329 107.776  1.00  0.00     0.016 C 
BRANCH   3   5
ATOM      5  C   UNL     1       2.442   5.257 106.762  1.00  0.00     0.015 C 
BRANCH   5   6
ATOM      6  C   UNL     1       2.734   4.072 105.829  1.00  0.00     0.028 C 
BRANCH   6   7
ATOM      7  C   UNL     1       3.838   4.400 104.854  1.00  0.00    -0.028 C 
ATOM      8  C   UNL     1       4.959   3.670 104.653  1.00  0.00    -0.070 CG0
ATOM      9  C   UNL     1       5.954   4.169 103.635  1.00  0.00     0.039 C 
ATOM     10  G   UNL     1       5.281   2.405 105.425  1.00  0.00     0.000 G0
ENDBRANCH   6   7
ENDBRANCH   5   6
ENDBRANCH   3   5
ENDBRANCH   1   3
BRANCH   1  11
ATOM     11  C   UNL     1       5.413   4.260 108.605  1.00  0.00     0.087 C 
BRANCH  11  12
ATOM     12  C   UNL     1       5.160   2.850 108.010  1.00  0.00     0.066 C 
BRANCH  12  13
ATOM     13  C   UNL     1       5.962   2.699 106.727  1.00  0.00     0.140 C 
ATOM     14  O   UNL     1       7.184   2.754 106.773  1.00  0.00    -0.299 OA
BRANCH  13  15
ATOM     15  C   UNL     1       5.294   2.390 105.412  1.00  0.00     0.106 CG0
ATOM     16  G   UNL     1       4.962   3.663 104.656  1.00  0.00     0.000 G0
ENDBRANCH  13  15
ENDBRANCH  12  13
BRANCH  12  17
ATOM     17  C   UNL     1       5.520   1.707 109.015  1.00  0.00    -0.006 C 
ATOM     18  C   UNL     1       5.135   2.064 110.465  1.00  0.00     0.008 C 
ATOM     19  C   UNL     1       4.824   0.384 108.638  1.00  0.00     0.008 C 
ENDBRANCH  12  17
ENDBRANCH  11  12
ENDBRANCH   1  11
TORSDOF 1
ENDMDL
MODEL 2
REMARK VINA RESULT:    -3.770      2.306      4.160
REMARK INTER + INTRA:          -5.993
REMARK INTER:                  -5.827
REMARK INTRA:                  -0.166
REMARK UNBOUND:                -0.240
REMARK SMILES CC1=CCC[C@@H](C)C(=O)C[C@H](C(C)C)C(=O)C1
REMARK SMILES IDX 8 1 9 2 6 3 7 4 5 5 4 6 3 7 2 8 1 9 10 11 11 12 15 13 16 14
REMARK SMILES IDX 17 15 12 17 13 18 14 19
REMARK H PARENT
REMARK Flexibility Score: 70.00
ROOT
ATOM      1  C   UNL     1       3.289   4.191 106.310  1.00  0.00     0.136 C 
ATOM      2  O   UNL     1       3.291   4.697 105.196  1.00  0.00    -0.299 OA
ENDROOT
BRANCH   1   3
ATOM      3  C   UNL     1       3.538   5.050 107.532  1.00  0.00     0.053 C 
ATOM      4  C   UNL     1       3.223   6.512 107.196  1.00  0.00     0.016 C 
BRANCH   3   5
ATOM      5  C   UNL     1       4.991   4.920 108.043  1.00  0.00     0.015 C 
BRANCH   5   6
ATOM      6  C   UNL     1       5.094   4.236 109.415  1.00  0.00     0.028 C 
BRANCH   6   7
ATOM      7  C   UNL     1       6.124   3.134 109.404  1.00  0.00    -0.028 C 
ATOM      8  C   UNL     1       5.907   1.851 109.038  1.00  0.00    -0.070 CG0
ATOM      9  C   UNL     1       7.068   0.891 109.102  1.00  0.00     0.039 C 
ATOM     10  G   UNL     1       4.551   1.324 108.606  1.00  0.00     0.000 G0
ENDBRANCH   6   7
ENDBRANCH   5   6
ENDBRANCH   3   5
ENDBRANCH   1   3
BRANCH   1  11
ATOM     11  C   UNL     1       2.995   2.719 106.441  1.00  0.00     0.087 C 
BRANCH  11  12
ATOM     12  C   UNL     1       4.217   1.848 106.046  1.00  0.00     0.066 C 
BRANCH  12  13
ATOM     13  C   UNL     1       4.527   0.881 107.177  1.00  0.00     0.140 C 
ATOM     14  O   UNL     1       4.856  -0.267 106.912  1.00  0.00    -0.299 OA
BRANCH  13  15
ATOM     15  C   UNL     1       4.533   1.329 108.617  1.00  0.00     0.106 CG0
ATOM     16  G   UNL     1       5.897   1.860 109.016  1.00  0.00     0.000 G0
ENDBRANCH  13  15
ENDBRANCH  12  13
BRANCH  12  17
ATOM     17  C   UNL     1       3.984   1.068 104.710  1.00  0.00    -0.006 C 
ATOM     18  C   UNL     1       2.488   0.809 104.441  1.00  0.00     0.008 C 
ATOM     19  C   UNL     1       4.572   1.825 103.504  1.00  0.00     0.008 C 
ENDBRANCH  12  17
ENDBRANCH  11  12
ENDBRANCH   1  11
TORSDOF 1
ENDMDL
MODEL 3
REMARK VINA RESULT:    -3.533      2.721      4.911
REMARK INTER + INTRA:          -5.632
REMARK INTER:                  -5.436
REMARK INTRA:                  -0.196
REMARK UNBOUND:                -0.240
REMARK SMILES CC1=CCC[C@@H](C)C(=O)C[C@H](C(C)C)C(=O)C1
REMARK SMILES IDX 8 1 9 2 6 3 7 4 5 5 4 6 3 7 2 8 1 9 10 11 11 12 15 13 16 14
REMARK SMILES IDX 17 15 12 17 13 18 14 19
REMARK H PARENT
REMARK Flexibility Score: 70.00
ROOT
ATOM      1  C   UNL     1       6.008   3.439 106.685  1.00  0.00     0.136 C 
ATOM      2  O   UNL     1       6.303   4.590 106.396  1.00  0.00    -0.299 OA
ENDROOT
BRANCH   1   3
ATOM      3  C   UNL     1       4.912   3.170 107.695  1.00  0.00     0.053 C 
ATOM      4  C   UNL     1       3.589   3.738 107.172  1.00  0.00     0.016 C 
BRANCH   3   5
ATOM      5  C   UNL     1       5.243   3.775 109.079  1.00  0.00     0.015 C 
BRANCH   5   6
ATOM      6  C   UNL     1       5.993   2.803 110.003  1.00  0.00     0.028 C 
BRANCH   6   7
ATOM      7  C   UNL     1       5.486   1.391 109.844  1.00  0.00    -0.028 C 
ATOM      8  C   UNL     1       6.204   0.338 109.392  1.00  0.00    -0.070 CG0
ATOM      9  C   UNL     1       5.513  -0.999 109.297  1.00  0.00     0.039 C 
ATOM     10  G   UNL     1       7.649   0.444 108.942  1.00  0.00     0.000 G0
ENDBRANCH   6   7
ENDBRANCH   5   6
ENDBRANCH   3   5
ENDBRANCH   1   3
BRANCH   1  11
ATOM     11  C   UNL     1       6.720   2.307 105.990  1.00  0.00     0.087 C 
BRANCH  11  12
ATOM     12  C   UNL     1       8.006   1.883 106.747  1.00  0.00     0.066 C 
BRANCH  12  13
ATOM     13  C   UNL     1       7.763   0.547 107.432  1.00  0.00     0.140 C 
ATOM     14  O   UNL     1       7.719  -0.474 106.758  1.00  0.00    -0.299 OA
BRANCH  13  15
ATOM     15  C   UNL     1       7.670   0.436 108.932  1.00  0.00     0.106 CG0
ATOM     16  G   UNL     1       6.224   0.334 109.382  1.00  0.00     0.000 G0
ENDBRANCH  13  15
ENDBRANCH  12  13
BRANCH  12  17
ATOM     17  C   UNL     1       9.250   1.793 105.803  1.00  0.00    -0.006 C 
ATOM     18  C   UNL     1       9.574   3.146 105.138  1.00  0.00     0.008 C 
ATOM     19  C   UNL     1      10.501   1.311 106.563  1.00  0.00     0.008 C 
ENDBRANCH  12  17
ENDBRANCH  11  12
ENDBRANCH   1  11
TORSDOF 1
ENDMDL
MODEL 4
REMARK VINA RESULT:    -3.456      2.110      4.460
REMARK INTER + INTRA:          -5.515
REMARK INTER:                  -5.526
REMARK INTRA:                   0.012
REMARK UNBOUND:                -0.240
REMARK SMILES CC1=CCC[C@@H](C)C(=O)C[C@H](C(C)C)C(=O)C1
REMARK SMILES IDX 8 1 9 2 6 3 7 4 5 5 4 6 3 7 2 8 1 9 10 11 11 12 15 13 16 14
REMARK SMILES IDX 17 15 12 17 13 18 14 19
REMARK H PARENT
REMARK Flexibility Score: 70.00
ROOT
ATOM      1  C   UNL     1       3.090   4.738 105.880  1.00  0.00     0.136 C 
ATOM      2  O   UNL     1       2.262   5.598 105.611  1.00  0.00    -0.299 OA
ENDROOT
BRANCH   1   3
ATOM      3  C   UNL     1       3.575   4.576 107.306  1.00  0.00     0.053 C 
ATOM      4  C   UNL     1       4.558   5.704 107.638  1.00  0.00     0.016 C 
BRANCH   3   5
ATOM      5  C   UNL     1       4.243   3.200 107.534  1.00  0.00     0.015 C 
BRANCH   5   6
ATOM      6  C   UNL     1       5.714   3.303 107.966  1.00  0.00     0.028 C 
BRANCH   6   7
ATOM      7  C   UNL     1       6.589   2.376 107.159  1.00  0.00    -0.028 C 
ATOM      8  C   UNL     1       7.124   2.648 105.947  1.00  0.00    -0.070 CG0
ATOM      9  C   UNL     1       7.971   1.585 105.294  1.00  0.00     0.039 C 
ATOM     10  G   UNL     1       6.882   3.947 105.200  1.00  0.00     0.000 G0
ENDBRANCH   6   7
ENDBRANCH   5   6
ENDBRANCH   3   5
ENDBRANCH   1   3
BRANCH   1  11
ATOM     11  C   UNL     1       3.577   3.827 104.784  1.00  0.00     0.087 C 
BRANCH  11  12
ATOM     12  C   UNL     1       4.652   4.512 103.899  1.00  0.00     0.066 C 
BRANCH  12  13
ATOM     13  C   UNL     1       5.960   3.745 104.020  1.00  0.00     0.140 C 
ATOM     14  O   UNL     1       6.306   3.003 103.110  1.00  0.00    -0.299 OA
BRANCH  13  15
ATOM     15  C   UNL     1       6.887   3.949 105.190  1.00  0.00     0.106 CG0
ATOM     16  G   UNL     1       7.133   2.645 105.924  1.00  0.00     0.000 G0
ENDBRANCH  13  15
ENDBRANCH  12  13
BRANCH  12  17
ATOM     17  C   UNL     1       4.214   4.610 102.401  1.00  0.00    -0.006 C 
ATOM     18  C   UNL     1       3.145   3.559 102.037  1.00  0.00     0.008 C 
ATOM     19  C   UNL     1       3.657   6.008 102.066  1.00  0.00     0.008 C 
ENDBRANCH  12  17
ENDBRANCH  11  12
ENDBRANCH   1  11
TORSDOF 1
ENDMDL
MODEL 5
REMARK VINA RESULT:    -3.436      1.982      4.015
REMARK INTER + INTRA:          -5.484
REMARK INTER:                  -5.235
REMARK INTRA:                  -0.248
REMARK UNBOUND:                -0.240
REMARK SMILES CC1=CCC[C@@H](C)C(=O)C[C@H](C(C)C)C(=O)C1
REMARK SMILES IDX 8 1 9 2 6 3 7 4 5 5 4 6 3 7 2 8 1 9 10 11 11 12 15 13 16 14
REMARK SMILES IDX 17 15 12 17 13 18 14 19
REMARK H PARENT
REMARK Flexibility Score: 70.00
ROOT
ATOM      1  C   UNL     1       6.506   2.286 107.556  1.00  0.00     0.136 C 
ATOM      2  O   UNL     1       7.161   1.277 107.774  1.00  0.00    -0.299 OA
ENDROOT
BRANCH   1   3
ATOM      3  C   UNL     1       5.335   2.636 108.452  1.00  0.00     0.053 C 
ATOM      4  C   UNL     1       5.792   2.617 109.914  1.00  0.00     0.016 C 
BRANCH   3   5
ATOM      5  C   UNL     1       4.146   1.668 108.251  1.00  0.00     0.015 C 
BRANCH   5   6
ATOM      6  C   UNL     1       3.415   1.874 106.915  1.00  0.00     0.028 C 
BRANCH   6   7
ATOM      7  C   UNL     1       2.963   3.304 106.751  1.00  0.00    -0.028 C 
ATOM      8  C   UNL     1       3.147   4.071 105.652  1.00  0.00    -0.070 CG0
ATOM      9  C   UNL     1       2.627   5.486 105.684  1.00  0.00     0.039 C 
ATOM     10  G   UNL     1       3.882   3.593 104.414  1.00  0.00     0.000 G0
ENDBRANCH   6   7
ENDBRANCH   5   6
ENDBRANCH   3   5
ENDBRANCH   1   3
BRANCH   1  11
ATOM     11  C   UNL     1       6.910   3.186 106.418  1.00  0.00     0.087 C 
BRANCH  11  12
ATOM     12  C   UNL     1       6.299   2.721 105.069  1.00  0.00     0.066 C 
BRANCH  12  13
ATOM     13  C   UNL     1       5.381   3.810 104.535  1.00  0.00     0.140 C 
ATOM     14  O   UNL     1       5.866   4.857 104.127  1.00  0.00    -0.299 OA
BRANCH  13  15
ATOM     15  C   UNL     1       3.895   3.594 104.407  1.00  0.00     0.106 CG0
ATOM     16  G   UNL     1       3.166   4.081 105.646  1.00  0.00     0.000 G0
ENDBRANCH  13  15
ENDBRANCH  12  13
BRANCH  12  17
ATOM     17  C   UNL     1       7.395   2.364 104.012  1.00  0.00    -0.006 C 
ATOM     18  C   UNL     1       8.759   2.065 104.665  1.00  0.00     0.008 C 
ATOM     19  C   UNL     1       6.984   1.145 103.162  1.00  0.00     0.008 C 
ENDBRANCH  12  17
ENDBRANCH  11  12
ENDBRANCH   1  11
TORSDOF 1
ENDMDL
MODEL 6
REMARK VINA RESULT:    -3.420      1.926      4.034
REMARK INTER + INTRA:          -5.460
REMARK INTER:                  -5.147
REMARK INTRA:                  -0.312
REMARK UNBOUND:                -0.240
REMARK SMILES CC1=CCC[C@@H](C)C(=O)C[C@H](C(C)C)C(=O)C1
REMARK SMILES IDX 8 1 9 2 6 3 7 4 5 5 4 6 3 7 2 8 1 9 10 11 11 12 15 13 16 14
REMARK SMILES IDX 17 15 12 17 13 18 14 19
REMARK H PARENT
REMARK Flexibility Score: 70.00
ROOT
ATOM      1  C   UNL     1       7.638   1.766 107.130  1.00  0.00     0.136 C 
ATOM      2  O   UNL     1       8.603   1.854 107.876  1.00  0.00    -0.299 OA
ENDROOT
BRANCH   1   3
ATOM      3  C   UNL     1       7.829   1.864 105.630  1.00  0.00     0.053 C 
ATOM      4  C   UNL     1       8.779   0.755 105.166  1.00  0.00     0.016 C 
BRANCH   3   5
ATOM      5  C   UNL     1       8.377   3.248 105.209  1.00  0.00     0.015 C 
BRANCH   5   6
ATOM      6  C   UNL     1       7.313   4.355 105.236  1.00  0.00     0.028 C 
BRANCH   6   7
ATOM      7  C   UNL     1       6.128   4.001 104.372  1.00  0.00    -0.028 C 
ATOM      8  C   UNL     1       4.835   3.983 104.769  1.00  0.00    -0.070 CG0
ATOM      9  C   UNL     1       3.789   3.593 103.755  1.00  0.00     0.039 C 
ATOM     10  G   UNL     1       4.393   4.297 106.186  1.00  0.00     0.000 G0
ENDBRANCH   6   7
ENDBRANCH   5   6
ENDBRANCH   3   5
ENDBRANCH   1   3
BRANCH   1  11
ATOM     11  C   UNL     1       6.277   1.516 107.725  1.00  0.00     0.087 C 
BRANCH  11  12
ATOM     12  C   UNL     1       5.546   2.841 108.070  1.00  0.00     0.066 C 
BRANCH  12  13
ATOM     13  C   UNL     1       4.419   3.063 107.073  1.00  0.00     0.140 C 
ATOM     14  O   UNL     1       3.490   2.268 107.032  1.00  0.00    -0.299 OA
BRANCH  13  15
ATOM     15  C   UNL     1       4.370   4.291 106.201  1.00  0.00     0.106 CG0
ATOM     16  G   UNL     1       4.831   3.975 104.790  1.00  0.00     0.000 G0
ENDBRANCH  13  15
ENDBRANCH  12  13
BRANCH  12  17
ATOM     17  C   UNL     1       4.991   2.851 109.532  1.00  0.00    -0.006 C 
ATOM     18  C   UNL     1       5.703   1.822 110.432  1.00  0.00     0.008 C 
ATOM     19  C   UNL     1       5.131   4.244 110.179  1.00  0.00     0.008 C 
ENDBRANCH  12  17
ENDBRANCH  11  12
ENDBRANCH   1  11
TORSDOF 1
ENDMDL
MODEL 7
REMARK VINA RESULT:    -3.389      2.216      3.960
REMARK INTER + INTRA:          -5.412
REMARK INTER:                  -5.090
REMARK INTRA:                  -0.322
REMARK UNBOUND:                -0.240
REMARK SMILES CC1=CCC[C@@H](C)C(=O)C[C@H](C(C)C)C(=O)C1
REMARK SMILES IDX 8 1 9 2 6 3 7 4 5 5 4 6 3 7 2 8 1 9 10 11 11 12 15 13 16 14
REMARK SMILES IDX 17 15 12 17 13 18 14 19
REMARK H PARENT
REMARK Flexibility Score: 70.00
ROOT
ATOM      1  C   UNL     1       6.752   1.235 109.059  1.00  0.00     0.136 C 
ATOM      2  O   UNL     1       7.124   0.169 109.531  1.00  0.00    -0.299 OA
ENDROOT
BRANCH   1   3
ATOM      3  C   UNL     1       5.400   1.800 109.441  1.00  0.00     0.053 C 
ATOM      4  C   UNL     1       5.332   1.969 110.963  1.00  0.00     0.016 C 
BRANCH   3   5
ATOM      5  C   UNL     1       4.240   0.902 108.951  1.00  0.00     0.015 C 
BRANCH   5   6
ATOM      6  C   UNL     1       3.809   1.202 107.507  1.00  0.00     0.028 C 
BRANCH   6   7
ATOM      7  C   UNL     1       3.850   2.682 107.218  1.00  0.00    -0.028 C 
ATOM      8  C   UNL     1       4.589   3.280 106.256  1.00  0.00    -0.070 CG0
ATOM      9  C   UNL     1       4.500   4.780 106.127  1.00  0.00     0.039 C 
ATOM     10  G   UNL     1       5.526   2.525 105.332  1.00  0.00     0.000 G0
ENDBRANCH   6   7
ENDBRANCH   5   6
ENDBRANCH   3   5
ENDBRANCH   1   3
BRANCH   1  11
ATOM     11  C   UNL     1       7.675   1.984 108.134  1.00  0.00     0.087 C 
BRANCH  11  12
ATOM     12  C   UNL     1       7.552   1.488 106.669  1.00  0.00     0.066 C 
BRANCH  12  13
ATOM     13  C   UNL     1       6.957   2.597 105.816  1.00  0.00     0.140 C 
ATOM     14  O   UNL     1       7.671   3.524 105.454  1.00  0.00    -0.299 OA
BRANCH  13  15
ATOM     15  C   UNL     1       5.534   2.536 105.324  1.00  0.00     0.106 CG0
ATOM     16  G   UNL     1       4.600   3.269 106.268  1.00  0.00     0.000 G0
ENDBRANCH  13  15
ENDBRANCH  12  13
BRANCH  12  17
ATOM     17  C   UNL     1       8.925   1.024 106.081  1.00  0.00    -0.006 C 
ATOM     18  C   UNL     1       9.847   0.421 107.160  1.00  0.00     0.008 C 
ATOM     19  C   UNL     1       8.735  -0.021 104.963  1.00  0.00     0.008 C 
ENDBRANCH  12  17
ENDBRANCH  11  12
ENDBRANCH   1  11
TORSDOF 1
ENDMDL
MODEL 8
REMARK VINA RESULT:    -3.355      2.269      3.249
REMARK INTER + INTRA:          -5.360
REMARK INTER:                  -5.158
REMARK INTRA:                  -0.202
REMARK UNBOUND:                -0.240
REMARK SMILES CC1=CCC[C@@H](C)C(=O)C[C@H](C(C)C)C(=O)C1
REMARK SMILES IDX 8 1 9 2 6 3 7 4 5 5 4 6 3 7 2 8 1 9 10 11 11 12 15 13 16 14
REMARK SMILES IDX 17 15 12 17 13 18 14 19
REMARK H PARENT
REMARK Flexibility Score: 70.00
ROOT
ATOM      1  C   UNL     1       5.163   3.707 107.053  1.00  0.00     0.136 C 
ATOM      2  O   UNL     1       4.081   4.179 107.372  1.00  0.00    -0.299 OA
ENDROOT
BRANCH   1   3
ATOM      3  C   UNL     1       5.552   3.625 105.592  1.00  0.00     0.053 C 
ATOM      4  C   UNL     1       4.899   4.781 104.827  1.00  0.00     0.016 C 
BRANCH   3   5
ATOM      5  C   UNL     1       5.148   2.271 104.963  1.00  0.00     0.015 C 
BRANCH   5   6
ATOM      6  C   UNL     1       6.324   1.530 104.309  1.00  0.00     0.028 C 
BRANCH   6   7
ATOM      7  C   UNL     1       7.638   2.203 104.620  1.00  0.00    -0.028 C 
ATOM      8  C   UNL     1       8.476   1.874 105.630  1.00  0.00    -0.070 CG0
ATOM      9  C   UNL     1       9.746   2.673 105.783  1.00  0.00     0.039 C 
ATOM     10  G   UNL     1       8.183   0.773 106.633  1.00  0.00     0.000 G0
ENDBRANCH   6   7
ENDBRANCH   5   6
ENDBRANCH   3   5
ENDBRANCH   1   3
BRANCH   1  11
ATOM     11  C   UNL     1       6.108   3.254 108.136  1.00  0.00     0.087 C 
BRANCH  11  12
ATOM     12  C   UNL     1       6.247   1.709 108.171  1.00  0.00     0.066 C 
BRANCH  12  13
ATOM     13  C   UNL     1       7.706   1.335 107.960  1.00  0.00     0.140 C 
ATOM     14  O   UNL     1       8.489   1.421 108.897  1.00  0.00    -0.299 OA
BRANCH  13  15
ATOM     15  C   UNL     1       8.193   0.769 106.651  1.00  0.00     0.106 CG0
ATOM     16  G   UNL     1       8.470   1.874 105.649  1.00  0.00     0.000 G0
ENDBRANCH  13  15
ENDBRANCH  12  13
BRANCH  12  17
ATOM     17  C   UNL     1       5.714   1.093 109.506  1.00  0.00    -0.006 C 
ATOM     18  C   UNL     1       5.281   2.176 110.514  1.00  0.00     0.008 C 
ATOM     19  C   UNL     1       4.518   0.153 109.256  1.00  0.00     0.008 C 
ENDBRANCH  12  17
ENDBRANCH  11  12
ENDBRANCH   1  11
TORSDOF 1
ENDMDL
MODEL 9
REMARK VINA RESULT:    -3.290      2.118      4.471
REMARK INTER + INTRA:          -5.260
REMARK INTER:                  -5.021
REMARK INTRA:                  -0.239
REMARK UNBOUND:                -0.240
REMARK SMILES CC1=CCC[C@@H](C)C(=O)C[C@H](C(C)C)C(=O)C1
REMARK SMILES IDX 8 1 9 2 6 3 7 4 5 5 4 6 3 7 2 8 1 9 10 11 11 12 15 13 16 14
REMARK SMILES IDX 17 15 12 17 13 18 14 19
REMARK H PARENT
REMARK Flexibility Score: 70.00
ROOT
ATOM      1  C   UNL     1       4.623   1.268 108.088  1.00  0.00     0.136 C 
ATOM      2  O   UNL     1       3.928   1.116 109.083  1.00  0.00    -0.299 OA
ENDROOT
BRANCH   1   3
ATOM      3  C   UNL     1       5.934   0.520 107.959  1.00  0.00     0.053 C 
ATOM      4  C   UNL     1       5.710  -0.958 108.296  1.00  0.00     0.016 C 
BRANCH   3   5
ATOM      5  C   UNL     1       7.029   1.117 108.873  1.00  0.00     0.015 C 
BRANCH   5   6
ATOM      6  C   UNL     1       7.967   2.089 108.141  1.00  0.00     0.028 C 
BRANCH   6   7
ATOM      7  C   UNL     1       8.149   1.694 106.696  1.00  0.00    -0.028 C 
ATOM      8  C   UNL     1       7.811   2.443 105.622  1.00  0.00    -0.070 CG0
ATOM      9  C   UNL     1       8.066   1.868 104.251  1.00  0.00     0.039 C 
ATOM     10  G   UNL     1       7.156   3.807 105.729  1.00  0.00     0.000 G0
ENDBRANCH   6   7
ENDBRANCH   5   6
ENDBRANCH   3   5
ENDBRANCH   1   3
BRANCH   1  11
ATOM     11  C   UNL     1       4.130   2.169 106.986  1.00  0.00     0.087 C 
BRANCH  11  12
ATOM     12  C   UNL     1       4.856   3.540 106.995  1.00  0.00     0.066 C 
BRANCH  12  13
ATOM     13  C   UNL     1       5.654   3.691 105.709  1.00  0.00     0.140 C 
ATOM     14  O   UNL     1       5.060   3.792 104.643  1.00  0.00    -0.299 OA
BRANCH  13  15
ATOM     15  C   UNL     1       7.155   3.815 105.723  1.00  0.00     0.106 CG0
ATOM     16  G   UNL     1       7.816   2.452 105.622  1.00  0.00     0.000 G0
ENDBRANCH  13  15
ENDBRANCH  12  13
BRANCH  12  17
ATOM     17  C   UNL     1       3.864   4.738 107.164  1.00  0.00    -0.006 C 
ATOM     18  C   UNL     1       2.421   4.358 106.772  1.00  0.00     0.008 C 
ATOM     19  C   UNL     1       3.853   5.262 108.613  1.00  0.00     0.008 C 
ENDBRANCH  12  17
ENDBRANCH  11  12
ENDBRANCH   1  11
TORSDOF 1
ENDMDL
