MODEL 1
REMARK VINA RESULT:    -5.535      0.000      0.000
REMARK INTER + INTRA:          -6.436
REMARK INTER:                  -6.344
REMARK INTRA:                  -0.092
REMARK UNBOUND:                -0.092
REMARK SMILES COc1cc(C(=O)[O-])ccc1O
REMARK SMILES IDX 5 1 9 2 4 3 10 4 3 5 11 6 6 7 7 8 8 9 2 10 1 11 12 12
REMARK H PARENT 12 13
REMARK Flexibility Score: inf
ROOT
ATOM      1  C   UNL     1     -19.731  32.933 -22.034  1.00  0.00     0.001 A 
ATOM      2  C   UNL     1     -21.007  33.299 -22.495  1.00  0.00     0.014 A 
ATOM      3  C   UNL     1     -18.698  33.886 -22.051  1.00  0.00     0.060 A 
ATOM      4  C   UNL     1     -21.243  34.592 -22.965  1.00  0.00     0.051 A 
ATOM      5  C   UNL     1     -18.933  35.193 -22.524  1.00  0.00     0.161 A 
ATOM      6  C   UNL     1     -20.212  35.539 -22.980  1.00  0.00     0.157 A 
ENDROOT
BRANCH   1   7
ATOM      7  C   UNL     1     -19.476  31.562 -21.535  1.00  0.00     0.072 C 
ATOM      8  O   UNL     1     -20.425  30.845 -21.120  1.00  0.00    -0.545 OA
ATOM      9  O   UNL     1     -18.185  31.048 -21.517  1.00  0.00    -0.545 OA
ENDBRANCH   1   7
BRANCH   5  10
ATOM     10  O   UNL     1     -17.927  36.171 -22.556  1.00  0.00    -0.493 OA
ATOM     11  C   UNL     1     -17.088  36.502 -21.454  1.00  0.00     0.278 C 
ENDBRANCH   5  10
BRANCH   6  12
ATOM     12  O   UNL     1     -20.451  36.830 -23.450  1.00  0.00    -0.504 OA
ATOM     13  H   UNL     1     -20.162  37.119 -24.377  1.00  0.00     0.293 HD
ENDBRANCH   6  12
TORSDOF 3
ENDMDL
MODEL 2
REMARK VINA RESULT:    -5.344      1.902      4.116
REMARK INTER + INTRA:          -6.217
REMARK INTER:                  -6.132
REMARK INTRA:                  -0.085
REMARK UNBOUND:                -0.092
REMARK SMILES COc1cc(C(=O)[O-])ccc1O
REMARK SMILES IDX 5 1 9 2 4 3 10 4 3 5 11 6 6 7 7 8 8 9 2 10 1 11 12 12
REMARK H PARENT 12 13
REMARK Flexibility Score: inf
ROOT
ATOM      1  C   UNL     1     -17.738  35.100 -21.476  1.00  0.00     0.001 A 
ATOM      2  C   UNL     1     -18.237  35.816 -22.577  1.00  0.00     0.014 A 
ATOM      3  C   UNL     1     -18.248  33.818 -21.206  1.00  0.00     0.060 A 
ATOM      4  C   UNL     1     -19.227  35.261 -23.390  1.00  0.00     0.051 A 
ATOM      5  C   UNL     1     -19.247  33.254 -22.026  1.00  0.00     0.161 A 
ATOM      6  C   UNL     1     -19.732  33.984 -23.119  1.00  0.00     0.157 A 
ENDROOT
BRANCH   1   7
ATOM      7  C   UNL     1     -16.689  35.685 -20.611  1.00  0.00     0.072 C 
ATOM      8  O   UNL     1     -17.000  36.342 -19.582  1.00  0.00    -0.545 OA
ATOM      9  O   UNL     1     -15.344  35.517 -20.921  1.00  0.00    -0.545 OA
ENDBRANCH   1   7
BRANCH   5  10
ATOM     10  O   UNL     1     -19.779  31.977 -21.787  1.00  0.00    -0.493 OA
ATOM     11  C   UNL     1     -18.999  30.803 -21.579  1.00  0.00     0.278 C 
ENDBRANCH   5  10
BRANCH   6  12
ATOM     12  O   UNL     1     -20.720  33.432 -23.933  1.00  0.00    -0.504 OA
ATOM     13  H   UNL     1     -21.588  33.077 -23.547  1.00  0.00     0.293 HD
ENDBRANCH   6  12
TORSDOF 3
ENDMDL
MODEL 3
REMARK VINA RESULT:    -5.327      1.178      1.623
REMARK INTER + INTRA:          -6.197
REMARK INTER:                  -6.099
REMARK INTRA:                  -0.098
REMARK UNBOUND:                -0.092
REMARK SMILES COc1cc(C(=O)[O-])ccc1O
REMARK SMILES IDX 5 1 9 2 4 3 10 4 3 5 11 6 6 7 7 8 8 9 2 10 1 11 12 12
REMARK H PARENT 12 13
REMARK Flexibility Score: inf
ROOT
ATOM      1  C   UNL     1     -19.403  32.675 -21.932  1.00  0.00     0.001 A 
ATOM      2  C   UNL     1     -20.089  33.273 -23.004  1.00  0.00     0.014 A 
ATOM      3  C   UNL     1     -18.323  33.358 -21.345  1.00  0.00     0.060 A 
ATOM      4  C   UNL     1     -19.701  34.527 -23.478  1.00  0.00     0.051 A 
ATOM      5  C   UNL     1     -17.929  34.625 -21.821  1.00  0.00     0.161 A 
ATOM      6  C   UNL     1     -18.625  35.204 -22.891  1.00  0.00     0.157 A 
ENDROOT
BRANCH   1   7
ATOM      7  C   UNL     1     -19.811  31.346 -21.426  1.00  0.00     0.072 C 
ATOM      8  O   UNL     1     -18.987  30.393 -21.391  1.00  0.00    -0.545 OA
ATOM      9  O   UNL     1     -21.110  31.128 -20.982  1.00  0.00    -0.545 OA
ENDBRANCH   1   7
BRANCH   5  10
ATOM     10  O   UNL     1     -16.857  35.335 -21.260  1.00  0.00    -0.493 OA
ATOM     11  C   UNL     1     -16.906  36.018 -20.012  1.00  0.00     0.278 C 
ENDBRANCH   5  10
BRANCH   6  12
ATOM     12  O   UNL     1     -18.240  36.457 -23.367  1.00  0.00    -0.504 OA
ATOM     13  H   UNL     1     -18.213  37.269 -22.760  1.00  0.00     0.293 HD
ENDBRANCH   6  12
TORSDOF 3
ENDMDL
MODEL 4
REMARK VINA RESULT:    -5.245      2.184      2.230
REMARK INTER + INTRA:          -6.104
REMARK INTER:                  -6.014
REMARK INTRA:                  -0.090
REMARK UNBOUND:                -0.092
REMARK SMILES COc1cc(C(=O)[O-])ccc1O
REMARK SMILES IDX 5 1 9 2 4 3 10 4 3 5 11 6 6 7 7 8 8 9 2 10 1 11 12 12
REMARK H PARENT 12 13
REMARK Flexibility Score: inf
ROOT
ATOM      1  C   UNL     1     -18.372  33.135 -24.048  1.00  0.00     0.001 A 
ATOM      2  C   UNL     1     -19.686  33.322 -24.509  1.00  0.00     0.014 A 
ATOM      3  C   UNL     1     -17.763  34.151 -23.289  1.00  0.00     0.060 A 
ATOM      4  C   UNL     1     -20.375  34.500 -24.219  1.00  0.00     0.051 A 
ATOM      5  C   UNL     1     -18.455  35.342 -22.994  1.00  0.00     0.161 A 
ATOM      6  C   UNL     1     -19.765  35.509 -23.463  1.00  0.00     0.157 A 
ENDROOT
BRANCH   1   7
ATOM      7  C   UNL     1     -17.637  31.887 -24.353  1.00  0.00     0.072 C 
ATOM      8  O   UNL     1     -18.098  31.060 -25.185  1.00  0.00    -0.545 OA
ATOM      9  O   UNL     1     -16.428  31.609 -23.726  1.00  0.00    -0.545 OA
ENDBRANCH   1   7
BRANCH   5  10
ATOM     10  O   UNL     1     -17.879  36.376 -22.240  1.00  0.00    -0.493 OA
ATOM     11  C   UNL     1     -17.141  36.184 -21.038  1.00  0.00     0.278 C 
ENDBRANCH   5  10
BRANCH   6  12
ATOM     12  O   UNL     1     -20.456  36.686 -23.174  1.00  0.00    -0.504 OA
ATOM     13  H   UNL     1     -19.973  37.569 -23.058  1.00  0.00     0.293 HD
ENDBRANCH   6  12
TORSDOF 3
ENDMDL
MODEL 5
REMARK VINA RESULT:    -5.217      2.103      3.502
REMARK INTER + INTRA:          -6.071
REMARK INTER:                  -5.984
REMARK INTRA:                  -0.087
REMARK UNBOUND:                -0.092
REMARK SMILES COc1cc(C(=O)[O-])ccc1O
REMARK SMILES IDX 5 1 9 2 4 3 10 4 3 5 11 6 6 7 7 8 8 9 2 10 1 11 12 12
REMARK H PARENT 12 13
REMARK Flexibility Score: inf
ROOT
ATOM      1  C   UNL     1     -19.512  33.930 -22.924  1.00  0.00     0.001 A 
ATOM      2  C   UNL     1     -19.432  35.282 -23.299  1.00  0.00     0.014 A 
ATOM      3  C   UNL     1     -20.762  33.393 -22.568  1.00  0.00     0.060 A 
ATOM      4  C   UNL     1     -20.577  36.079 -23.317  1.00  0.00     0.051 A 
ATOM      5  C   UNL     1     -21.921  34.194 -22.586  1.00  0.00     0.161 A 
ATOM      6  C   UNL     1     -21.820  35.540 -22.963  1.00  0.00     0.157 A 
ENDROOT
BRANCH   1   7
ATOM      7  C   UNL     1     -18.300  33.081 -22.902  1.00  0.00     0.072 C 
ATOM      8  O   UNL     1     -17.925  32.527 -21.835  1.00  0.00    -0.545 OA
ATOM      9  O   UNL     1     -17.557  32.883 -24.061  1.00  0.00    -0.545 OA
ENDBRANCH   1   7
BRANCH   5  10
ATOM     10  O   UNL     1     -23.185  33.692 -22.238  1.00  0.00    -0.493 OA
ATOM     11  C   UNL     1     -23.686  33.618 -20.907  1.00  0.00     0.278 C 
ENDBRANCH   5  10
BRANCH   6  12
ATOM     12  O   UNL     1     -22.963  36.338 -22.982  1.00  0.00    -0.504 OA
ATOM     13  H   UNL     1     -22.991  37.236 -22.513  1.00  0.00     0.293 HD
ENDBRANCH   6  12
TORSDOF 3
ENDMDL
MODEL 6
REMARK VINA RESULT:    -5.190      1.668      2.465
REMARK INTER + INTRA:          -6.041
REMARK INTER:                  -5.940
REMARK INTRA:                  -0.100
REMARK UNBOUND:                -0.092
REMARK SMILES COc1cc(C(=O)[O-])ccc1O
REMARK SMILES IDX 5 1 9 2 4 3 10 4 3 5 11 6 6 7 7 8 8 9 2 10 1 11 12 12
REMARK H PARENT 12 13
REMARK Flexibility Score: inf
ROOT
ATOM      1  C   UNL     1     -21.283  33.433 -22.297  1.00  0.00     0.001 A 
ATOM      2  C   UNL     1     -21.678  34.647 -22.885  1.00  0.00     0.014 A 
ATOM      3  C   UNL     1     -19.911  33.164 -22.141  1.00  0.00     0.060 A 
ATOM      4  C   UNL     1     -20.722  35.571 -23.309  1.00  0.00     0.051 A 
ATOM      5  C   UNL     1     -18.943  34.095 -22.567  1.00  0.00     0.161 A 
ATOM      6  C   UNL     1     -19.357  35.300 -23.152  1.00  0.00     0.157 A 
ENDROOT
BRANCH   1   7
ATOM      7  C   UNL     1     -22.294  32.451 -21.846  1.00  0.00     0.072 C 
ATOM      8  O   UNL     1     -23.466  32.480 -22.308  1.00  0.00    -0.545 OA
ATOM      9  O   UNL     1     -21.964  31.480 -20.907  1.00  0.00    -0.545 OA
ENDBRANCH   1   7
BRANCH   5  10
ATOM     10  O   UNL     1     -17.566  33.861 -22.428  1.00  0.00    -0.493 OA
ATOM     11  C   UNL     1     -16.785  33.078 -23.325  1.00  0.00     0.278 C 
ENDBRANCH   5  10
BRANCH   6  12
ATOM     12  O   UNL     1     -18.404  36.224 -23.576  1.00  0.00    -0.504 OA
ATOM     13  H   UNL     1     -17.558  35.933 -24.052  1.00  0.00     0.293 HD
ENDBRANCH   6  12
TORSDOF 3
ENDMDL
MODEL 7
REMARK VINA RESULT:    -5.164      2.529      4.200
REMARK INTER + INTRA:          -6.011
REMARK INTER:                  -5.923
REMARK INTRA:                  -0.088
REMARK UNBOUND:                -0.092
REMARK SMILES COc1cc(C(=O)[O-])ccc1O
REMARK SMILES IDX 5 1 9 2 4 3 10 4 3 5 11 6 6 7 7 8 8 9 2 10 1 11 12 12
REMARK H PARENT 12 13
REMARK Flexibility Score: inf
ROOT
ATOM      1  C   UNL     1     -17.204  35.029 -22.639  1.00  0.00     0.001 A 
ATOM      2  C   UNL     1     -16.999  33.750 -23.183  1.00  0.00     0.014 A 
ATOM      3  C   UNL     1     -18.445  35.662 -22.828  1.00  0.00     0.060 A 
ATOM      4  C   UNL     1     -18.016  33.118 -23.901  1.00  0.00     0.051 A 
ATOM      5  C   UNL     1     -19.474  35.026 -23.552  1.00  0.00     0.161 A 
ATOM      6  C   UNL     1     -19.251  33.750 -24.087  1.00  0.00     0.157 A 
ENDROOT
BRANCH   1   7
ATOM      7  C   UNL     1     -16.129  35.704 -21.877  1.00  0.00     0.072 C 
ATOM      8  O   UNL     1     -16.111  35.657 -20.618  1.00  0.00    -0.545 OA
ATOM      9  O   UNL     1     -15.124  36.399 -22.540  1.00  0.00    -0.545 OA
ENDBRANCH   1   7
BRANCH   5  10
ATOM     10  O   UNL     1     -20.726  35.627 -23.760  1.00  0.00    -0.493 OA
ATOM     11  C   UNL     1     -21.808  35.578 -22.836  1.00  0.00     0.278 C 
ENDBRANCH   5  10
BRANCH   6  12
ATOM     12  O   UNL     1     -20.264  33.116 -24.804  1.00  0.00    -0.504 OA
ATOM     13  H   UNL     1     -21.240  33.221 -24.549  1.00  0.00     0.293 HD
ENDBRANCH   6  12
TORSDOF 3
ENDMDL
MODEL 8
REMARK VINA RESULT:    -5.148      1.646      4.525
REMARK INTER + INTRA:          -5.992
REMARK INTER:                  -5.908
REMARK INTRA:                  -0.084
REMARK UNBOUND:                -0.092
REMARK SMILES COc1cc(C(=O)[O-])ccc1O
REMARK SMILES IDX 5 1 9 2 4 3 10 4 3 5 11 6 6 7 7 8 8 9 2 10 1 11 12 12
REMARK H PARENT 12 13
REMARK Flexibility Score: inf
ROOT
ATOM      1  C   UNL     1     -20.768  33.861 -22.621  1.00  0.00     0.001 A 
ATOM      2  C   UNL     1     -22.107  33.688 -22.234  1.00  0.00     0.014 A 
ATOM      3  C   UNL     1     -19.823  32.878 -22.276  1.00  0.00     0.060 A 
ATOM      4  C   UNL     1     -22.493  32.555 -21.515  1.00  0.00     0.051 A 
ATOM      5  C   UNL     1     -20.210  31.733 -21.551  1.00  0.00     0.161 A 
ATOM      6  C   UNL     1     -21.551  31.578 -21.173  1.00  0.00     0.157 A 
ENDROOT
BRANCH   1   7
ATOM      7  C   UNL     1     -20.354  35.061 -23.383  1.00  0.00     0.072 C 
ATOM      8  O   UNL     1     -21.097  36.077 -23.431  1.00  0.00    -0.545 OA
ATOM      9  O   UNL     1     -19.138  35.083 -24.057  1.00  0.00    -0.545 OA
ENDBRANCH   1   7
BRANCH   5  10
ATOM     10  O   UNL     1     -19.295  30.732 -21.189  1.00  0.00    -0.493 OA
ATOM     11  C   UNL     1     -18.099  30.435 -21.902  1.00  0.00     0.278 C 
ENDBRANCH   5  10
BRANCH   6  12
ATOM     12  O   UNL     1     -21.939  30.448 -20.456  1.00  0.00    -0.504 OA
ATOM     13  H   UNL     1     -22.020  30.463 -19.445  1.00  0.00     0.293 HD
ENDBRANCH   6  12
TORSDOF 3
ENDMDL
MODEL 9
REMARK VINA RESULT:    -5.045      2.576      4.206
REMARK INTER + INTRA:          -5.874
REMARK INTER:                  -5.797
REMARK INTRA:                  -0.077
REMARK UNBOUND:                -0.092
REMARK SMILES COc1cc(C(=O)[O-])ccc1O
REMARK SMILES IDX 5 1 9 2 4 3 10 4 3 5 11 6 6 7 7 8 8 9 2 10 1 11 12 12
REMARK H PARENT 12 13
REMARK Flexibility Score: inf
ROOT
ATOM      1  C   UNL     1     -17.380  35.266 -22.594  1.00  0.00     0.001 A 
ATOM      2  C   UNL     1     -18.553  36.037 -22.536  1.00  0.00     0.014 A 
ATOM      3  C   UNL     1     -17.389  34.063 -23.323  1.00  0.00     0.060 A 
ATOM      4  C   UNL     1     -19.710  35.614 -23.193  1.00  0.00     0.051 A 
ATOM      5  C   UNL     1     -18.555  33.632 -23.987  1.00  0.00     0.161 A 
ATOM      6  C   UNL     1     -19.715  34.416 -23.917  1.00  0.00     0.157 A 
ENDROOT
BRANCH   1   7
ATOM      7  C   UNL     1     -16.151  35.711 -21.900  1.00  0.00     0.072 C 
ATOM      8  O   UNL     1     -16.017  35.534 -20.659  1.00  0.00    -0.545 OA
ATOM      9  O   UNL     1     -15.127  36.330 -22.606  1.00  0.00    -0.545 OA
ENDBRANCH   1   7
BRANCH   5  10
ATOM     10  O   UNL     1     -18.600  32.438 -24.724  1.00  0.00    -0.493 OA
ATOM     11  C   UNL     1     -17.734  31.327 -24.513  1.00  0.00     0.278 C 
ENDBRANCH   5  10
BRANCH   6  12
ATOM     12  O   UNL     1     -20.871  33.995 -24.572  1.00  0.00    -0.504 OA
ATOM     13  H   UNL     1     -21.708  34.567 -24.589  1.00  0.00     0.293 HD
ENDBRANCH   6  12
TORSDOF 3
ENDMDL
