MODEL 1
REMARK VINA RESULT:     9.775      0.000      0.000
REMARK INTER + INTRA:          18.181
REMARK INTER:                  18.347
REMARK INTRA:                  -0.166
REMARK UNBOUND:                -0.166
REMARK SMILES O=C([O-])CCCCCCCCCCCCCCC(=O)[O-]
REMARK SMILES IDX 10 1 9 2 8 3 7 4 6 5 5 6 4 7 2 8 1 9 3 10 11 11 12 12 13 13
REMARK SMILES IDX 14 14 15 15 16 16 17 17 18 18 19 19 20 20
REMARK H PARENT
REMARK Flexibility Score: inf
ROOT
ATOM      1  C   UNL     1      28.778  44.399   3.623  1.00  0.00     0.000 C 
ENDROOT
BRANCH   1   2
ATOM      2  C   UNL     1      29.367  44.650   2.223  1.00  0.00     0.000 C 
BRANCH   2   3
ATOM      3  C   UNL     1      29.714  43.347   1.487  1.00  0.00     0.000 C 
BRANCH   3   4
ATOM      4  C   UNL     1      30.470  43.595   0.173  1.00  0.00     0.000 C 
BRANCH   4   5
ATOM      5  C   UNL     1      30.133  42.516  -0.867  1.00  0.00     0.000 C 
BRANCH   5   6
ATOM      6  C   UNL     1      30.488  42.942  -2.301  1.00  0.00     0.006 C 
BRANCH   6   7
ATOM      7  C   UNL     1      29.249  43.120  -3.189  1.00  0.00     0.053 C 
BRANCH   7   8
ATOM      8  C   UNL     1      28.708  41.788  -3.602  1.00  0.00     0.041 C 
ATOM      9  O   UNL     1      29.010  41.300  -4.723  1.00  0.00    -0.550 OA
ATOM     10  O   UNL     1      27.829  41.107  -2.768  1.00  0.00    -0.550 OA
ENDBRANCH   7   8
ENDBRANCH   6   7
ENDBRANCH   5   6
ENDBRANCH   4   5
ENDBRANCH   3   4
ENDBRANCH   2   3
ENDBRANCH   1   2
BRANCH   1  11
ATOM     11  C   UNL     1      27.690  45.430   3.998  1.00  0.00     0.000 C 
BRANCH  11  12
ATOM     12  C   UNL     1      26.972  45.114   5.324  1.00  0.00     0.000 C 
BRANCH  12  13
ATOM     13  C   UNL     1      26.407  43.686   5.429  1.00  0.00     0.000 C 
BRANCH  13  14
ATOM     14  C   UNL     1      25.451  43.273   4.289  1.00  0.00     0.000 C 
BRANCH  14  15
ATOM     15  C   UNL     1      24.651  41.983   4.545  1.00  0.00     0.000 C 
BRANCH  15  16
ATOM     16  C   UNL     1      23.135  42.226   4.630  1.00  0.00     0.006 C 
BRANCH  16  17
ATOM     17  C   UNL     1      22.576  42.852   3.346  1.00  0.00     0.053 C 
BRANCH  17  18
ATOM     18  C   UNL     1      22.939  42.049   2.134  1.00  0.00     0.041 C 
ATOM     19  O   UNL     1      22.108  41.247   1.633  1.00  0.00    -0.550 OA
ATOM     20  O   UNL     1      24.181  42.216   1.536  1.00  0.00    -0.550 OA
ENDBRANCH  17  18
ENDBRANCH  16  17
ENDBRANCH  15  16
ENDBRANCH  14  15
ENDBRANCH  13  14
ENDBRANCH  12  13
ENDBRANCH  11  12
ENDBRANCH   1  11
TORSDOF 15
ENDMDL
MODEL 2
REMARK VINA RESULT:     9.846      0.672      7.031
REMARK INTER + INTRA:          18.314
REMARK INTER:                  17.736
REMARK INTRA:                   0.578
REMARK UNBOUND:                -0.166
REMARK SMILES O=C([O-])CCCCCCCCCCCCCCC(=O)[O-]
REMARK SMILES IDX 10 1 9 2 8 3 7 4 6 5 5 6 4 7 2 8 1 9 3 10 11 11 12 12 13 13
REMARK SMILES IDX 14 14 15 15 16 16 17 17 18 18 19 19 20 20
REMARK H PARENT
REMARK Flexibility Score: inf
ROOT
ATOM      1  C   UNL     1      27.519  45.423   4.436  1.00  0.00     0.000 C 
ENDROOT
BRANCH   1   2
ATOM      2  C   UNL     1      26.742  44.783   5.600  1.00  0.00     0.000 C 
BRANCH   2   3
ATOM      3  C   UNL     1      26.444  43.294   5.360  1.00  0.00     0.000 C 
BRANCH   3   4
ATOM      4  C   UNL     1      25.513  43.066   4.160  1.00  0.00     0.000 C 
BRANCH   4   5
ATOM      5  C   UNL     1      24.443  42.013   4.487  1.00  0.00     0.000 C 
BRANCH   5   6
ATOM      6  C   UNL     1      23.027  42.608   4.556  1.00  0.00     0.006 C 
BRANCH   6   7
ATOM      7  C   UNL     1      22.289  42.537   3.212  1.00  0.00     0.053 C 
BRANCH   7   8
ATOM      8  C   UNL     1      23.234  42.156   2.117  1.00  0.00     0.041 C 
ATOM      9  O   UNL     1      23.142  41.029   1.563  1.00  0.00    -0.550 OA
ATOM     10  O   UNL     1      24.248  43.028   1.740  1.00  0.00    -0.550 OA
ENDBRANCH   7   8
ENDBRANCH   6   7
ENDBRANCH   5   6
ENDBRANCH   4   5
ENDBRANCH   3   4
ENDBRANCH   2   3
ENDBRANCH   1   2
BRANCH   1  11
ATOM     11  C   UNL     1      28.769  44.607   4.041  1.00  0.00     0.000 C 
BRANCH  11  12
ATOM     12  C   UNL     1      28.787  44.182   2.561  1.00  0.00     0.000 C 
BRANCH  12  13
ATOM     13  C   UNL     1      29.686  45.041   1.652  1.00  0.00     0.000 C 
BRANCH  13  14
ATOM     14  C   UNL     1      30.485  44.256   0.590  1.00  0.00     0.000 C 
BRANCH  14  15
ATOM     15  C   UNL     1      29.765  43.024   0.012  1.00  0.00     0.000 C 
BRANCH  15  16
ATOM     16  C   UNL     1      30.447  42.470  -1.251  1.00  0.00     0.006 C 
BRANCH  16  17
ATOM     17  C   UNL     1      29.780  42.973  -2.537  1.00  0.00     0.053 C 
BRANCH  17  18
ATOM     18  C   UNL     1      28.822  41.967  -3.097  1.00  0.00     0.041 C 
ATOM     19  O   UNL     1      27.987  41.400  -2.345  1.00  0.00    -0.550 OA
ATOM     20  O   UNL     1      28.829  41.682  -4.456  1.00  0.00    -0.550 OA
ENDBRANCH  17  18
ENDBRANCH  16  17
ENDBRANCH  15  16
ENDBRANCH  14  15
ENDBRANCH  13  14
ENDBRANCH  12  13
ENDBRANCH  11  12
ENDBRANCH   1  11
TORSDOF 15
ENDMDL
MODEL 3
REMARK VINA RESULT:     9.957      2.624      3.529
REMARK INTER + INTRA:          18.522
REMARK INTER:                  18.930
REMARK INTRA:                  -0.408
REMARK UNBOUND:                -0.166
REMARK SMILES O=C([O-])CCCCCCCCCCCCCCC(=O)[O-]
REMARK SMILES IDX 10 1 9 2 8 3 7 4 6 5 5 6 4 7 2 8 1 9 3 10 11 11 12 12 13 13
REMARK SMILES IDX 14 14 15 15 16 16 17 17 18 18 19 19 20 20
REMARK H PARENT
REMARK Flexibility Score: inf
ROOT
ATOM      1  C   UNL     1      26.995  44.513   4.978  1.00  0.00     0.000 C 
ENDROOT
BRANCH   1   2
ATOM      2  C   UNL     1      27.639  45.134   3.727  1.00  0.00     0.000 C 
BRANCH   2   3
ATOM      3  C   UNL     1      28.989  44.488   3.375  1.00  0.00     0.000 C 
BRANCH   3   4
ATOM      4  C   UNL     1      29.361  44.668   1.896  1.00  0.00     0.000 C 
BRANCH   4   5
ATOM      5  C   UNL     1      29.763  43.327   1.264  1.00  0.00     0.000 C 
BRANCH   5   6
ATOM      6  C   UNL     1      30.330  43.487  -0.156  1.00  0.00     0.006 C 
BRANCH   6   7
ATOM      7  C   UNL     1      30.122  42.237  -1.022  1.00  0.00     0.053 C 
BRANCH   7   8
ATOM      8  C   UNL     1      29.412  42.592  -2.289  1.00  0.00     0.041 C 
ATOM      9  O   UNL     1      29.630  43.699  -2.850  1.00  0.00    -0.550 OA
ATOM     10  O   UNL     1      28.473  41.721  -2.827  1.00  0.00    -0.550 OA
ENDBRANCH   7   8
ENDBRANCH   6   7
ENDBRANCH   5   6
ENDBRANCH   4   5
ENDBRANCH   3   4
ENDBRANCH   2   3
ENDBRANCH   1   2
BRANCH   1  11
ATOM     11  C   UNL     1      26.116  43.288   4.643  1.00  0.00     0.000 C 
BRANCH  11  12
ATOM     12  C   UNL     1      25.548  43.309   3.211  1.00  0.00     0.000 C 
BRANCH  12  13
ATOM     13  C   UNL     1      24.466  42.249   2.930  1.00  0.00     0.000 C 
BRANCH  13  14
ATOM     14  C   UNL     1      23.231  42.310   3.854  1.00  0.00     0.000 C 
BRANCH  14  15
ATOM     15  C   UNL     1      23.409  41.632   5.224  1.00  0.00     0.000 C 
BRANCH  15  16
ATOM     16  C   UNL     1      24.449  40.499   5.201  1.00  0.00     0.006 C 
BRANCH  16  17
ATOM     17  C   UNL     1      24.504  39.738   6.532  1.00  0.00     0.053 C 
BRANCH  17  18
ATOM     18  C   UNL     1      25.611  38.728   6.549  1.00  0.00     0.041 C 
ATOM     19  O   UNL     1      25.710  37.881   5.623  1.00  0.00    -0.550 OA
ATOM     20  O   UNL     1      26.554  38.747   7.568  1.00  0.00    -0.550 OA
ENDBRANCH  17  18
ENDBRANCH  16  17
ENDBRANCH  15  16
ENDBRANCH  14  15
ENDBRANCH  13  14
ENDBRANCH  12  13
ENDBRANCH  11  12
ENDBRANCH   1  11
TORSDOF 15
ENDMDL
MODEL 4
REMARK VINA RESULT:    10.005      2.636      7.878
REMARK INTER + INTRA:          18.611
REMARK INTER:                  19.411
REMARK INTRA:                  -0.799
REMARK UNBOUND:                -0.166
REMARK SMILES O=C([O-])CCCCCCCCCCCCCCC(=O)[O-]
REMARK SMILES IDX 10 1 9 2 8 3 7 4 6 5 5 6 4 7 2 8 1 9 3 10 11 11 12 12 13 13
REMARK SMILES IDX 14 14 15 15 16 16 17 17 18 18 19 19 20 20
REMARK H PARENT
REMARK Flexibility Score: inf
ROOT
ATOM      1  C   UNL     1      25.882  43.701   4.721  1.00  0.00     0.000 C 
ENDROOT
BRANCH   1   2
ATOM      2  C   UNL     1      25.602  43.282   3.268  1.00  0.00     0.000 C 
BRANCH   2   3
ATOM      3  C   UNL     1      24.476  42.241   3.161  1.00  0.00     0.000 C 
BRANCH   3   4
ATOM      4  C   UNL     1      23.332  42.507   4.152  1.00  0.00     0.000 C 
BRANCH   4   5
ATOM      5  C   UNL     1      23.174  41.336   5.133  1.00  0.00     0.000 C 
BRANCH   5   6
ATOM      6  C   UNL     1      24.464  40.516   5.292  1.00  0.00     0.006 C 
BRANCH   6   7
ATOM      7  C   UNL     1      24.559  39.817   6.655  1.00  0.00     0.053 C 
BRANCH   7   8
ATOM      8  C   UNL     1      25.598  38.742   6.620  1.00  0.00     0.041 C 
ATOM      9  O   UNL     1      26.447  38.650   7.545  1.00  0.00    -0.550 OA
ATOM     10  O   UNL     1      25.659  37.871   5.539  1.00  0.00    -0.550 OA
ENDBRANCH   7   8
ENDBRANCH   6   7
ENDBRANCH   5   6
ENDBRANCH   4   5
ENDBRANCH   3   4
ENDBRANCH   2   3
ENDBRANCH   1   2
BRANCH   1  11
ATOM     11  C   UNL     1      27.186  44.517   4.859  1.00  0.00     0.000 C 
BRANCH  11  12
ATOM     12  C   UNL     1      27.770  44.981   3.510  1.00  0.00     0.000 C 
BRANCH  12  13
ATOM     13  C   UNL     1      29.140  44.372   3.156  1.00  0.00     0.000 C 
BRANCH  13  14
ATOM     14  C   UNL     1      29.533  44.466   1.666  1.00  0.00     0.000 C 
BRANCH  14  15
ATOM     15  C   UNL     1      29.757  43.114   0.965  1.00  0.00     0.000 C 
BRANCH  15  16
ATOM     16  C   UNL     1      30.361  43.262  -0.442  1.00  0.00     0.006 C 
BRANCH  16  17
ATOM     17  C   UNL     1      29.918  42.135  -1.383  1.00  0.00     0.053 C 
BRANCH  17  18
ATOM     18  C   UNL     1      29.262  42.669  -2.620  1.00  0.00     0.041 C 
ATOM     19  O   UNL     1      29.321  43.898  -2.888  1.00  0.00    -0.550 OA
ATOM     20  O   UNL     1      28.618  41.803  -3.495  1.00  0.00    -0.550 OA
ENDBRANCH  17  18
ENDBRANCH  16  17
ENDBRANCH  15  16
ENDBRANCH  14  15
ENDBRANCH  13  14
ENDBRANCH  12  13
ENDBRANCH  11  12
ENDBRANCH   1  11
TORSDOF 15
ENDMDL
MODEL 5
REMARK VINA RESULT:    10.060      5.048      7.745
REMARK INTER + INTRA:          18.716
REMARK INTER:                  19.798
REMARK INTRA:                  -1.082
REMARK UNBOUND:                -0.166
REMARK SMILES O=C([O-])CCCCCCCCCCCCCCC(=O)[O-]
REMARK SMILES IDX 10 1 9 2 8 3 7 4 6 5 5 6 4 7 2 8 1 9 3 10 11 11 12 12 13 13
REMARK SMILES IDX 14 14 15 15 16 16 17 17 18 18 19 19 20 20
REMARK H PARENT
REMARK Flexibility Score: inf
ROOT
ATOM      1  C   UNL     1      26.388  43.476   4.000  1.00  0.00     0.000 C 
ENDROOT
BRANCH   1   2
ATOM      2  C   UNL     1      27.740  44.015   3.501  1.00  0.00     0.000 C 
BRANCH   2   3
ATOM      3  C   UNL     1      28.079  45.393   4.090  1.00  0.00     0.000 C 
BRANCH   3   4
ATOM      4  C   UNL     1      27.147  45.785   5.247  1.00  0.00     0.000 C 
BRANCH   4   5
ATOM      5  C   UNL     1      27.521  47.164   5.811  1.00  0.00     0.000 C 
BRANCH   5   6
ATOM      6  C   UNL     1      26.944  47.407   7.215  1.00  0.00     0.006 C 
BRANCH   6   7
ATOM      7  C   UNL     1      26.021  46.273   7.680  1.00  0.00     0.053 C 
BRANCH   7   8
ATOM      8  C   UNL     1      24.671  46.812   8.035  1.00  0.00     0.041 C 
ATOM      9  O   UNL     1      24.303  47.936   7.601  1.00  0.00    -0.550 OA
ATOM     10  O   UNL     1      23.838  46.096   8.885  1.00  0.00    -0.550 OA
ENDBRANCH   7   8
ENDBRANCH   6   7
ENDBRANCH   5   6
ENDBRANCH   4   5
ENDBRANCH   3   4
ENDBRANCH   2   3
ENDBRANCH   1   2
BRANCH   1  11
ATOM     11  C   UNL     1      25.240  43.746   3.003  1.00  0.00     0.000 C 
BRANCH  11  12
ATOM     12  C   UNL     1      24.641  42.467   2.388  1.00  0.00     0.000 C 
BRANCH  12  13
ATOM     13  C   UNL     1      23.268  42.060   2.954  1.00  0.00     0.000 C 
BRANCH  13  14
ATOM     14  C   UNL     1      23.018  42.464   4.423  1.00  0.00     0.000 C 
BRANCH  14  15
ATOM     15  C   UNL     1      23.023  41.299   5.429  1.00  0.00     0.000 C 
BRANCH  15  16
ATOM     16  C   UNL     1      24.384  40.589   5.516  1.00  0.00     0.006 C 
BRANCH  16  17
ATOM     17  C   UNL     1      24.457  39.623   6.705  1.00  0.00     0.053 C 
BRANCH  17  18
ATOM     18  C   UNL     1      25.607  38.671   6.577  1.00  0.00     0.041 C 
ATOM     19  O   UNL     1      26.579  38.740   7.375  1.00  0.00    -0.550 OA
ATOM     20  O   UNL     1      25.588  37.684   5.600  1.00  0.00    -0.550 OA
ENDBRANCH  17  18
ENDBRANCH  16  17
ENDBRANCH  15  16
ENDBRANCH  14  15
ENDBRANCH  13  14
ENDBRANCH  12  13
ENDBRANCH  11  12
ENDBRANCH   1  11
TORSDOF 15
ENDMDL
MODEL 6
REMARK VINA RESULT:    10.340      5.054      7.883
REMARK INTER + INTRA:          19.242
REMARK INTER:                  19.064
REMARK INTRA:                   0.177
REMARK UNBOUND:                -0.166
REMARK SMILES O=C([O-])CCCCCCCCCCCCCCC(=O)[O-]
REMARK SMILES IDX 10 1 9 2 8 3 7 4 6 5 5 6 4 7 2 8 1 9 3 10 11 11 12 12 13 13
REMARK SMILES IDX 14 14 15 15 16 16 17 17 18 18 19 19 20 20
REMARK H PARENT
REMARK Flexibility Score: inf
ROOT
ATOM      1  C   UNL     1      24.905  42.546   2.253  1.00  0.00     0.000 C 
ENDROOT
BRANCH   1   2
ATOM      2  C   UNL     1      23.413  42.176   2.334  1.00  0.00     0.000 C 
BRANCH   2   3
ATOM      3  C   UNL     1      22.708  42.831   3.532  1.00  0.00     0.000 C 
BRANCH   3   4
ATOM      4  C   UNL     1      22.754  41.955   4.794  1.00  0.00     0.000 C 
BRANCH   4   5
ATOM      5  C   UNL     1      24.205  41.687   5.222  1.00  0.00     0.000 C 
BRANCH   5   6
ATOM      6  C   UNL     1      24.505  40.189   5.395  1.00  0.00     0.006 C 
BRANCH   6   7
ATOM      7  C   UNL     1      25.103  39.860   6.770  1.00  0.00     0.053 C 
BRANCH   7   8
ATOM      8  C   UNL     1      25.847  38.563   6.718  1.00  0.00     0.041 C 
ATOM      9  O   UNL     1      26.701  38.286   7.601  1.00  0.00    -0.550 OA
ATOM     10  O   UNL     1      25.632  37.681   5.666  1.00  0.00    -0.550 OA
ENDBRANCH   7   8
ENDBRANCH   6   7
ENDBRANCH   5   6
ENDBRANCH   4   5
ENDBRANCH   3   4
ENDBRANCH   2   3
ENDBRANCH   1   2
BRANCH   1  11
ATOM     11  C   UNL     1      25.244  43.812   3.071  1.00  0.00     0.000 C 
BRANCH  11  12
ATOM     12  C   UNL     1      26.416  43.618   4.051  1.00  0.00     0.000 C 
BRANCH  12  13
ATOM     13  C   UNL     1      27.757  44.211   3.579  1.00  0.00     0.000 C 
BRANCH  13  14
ATOM     14  C   UNL     1      28.094  45.606   4.147  1.00  0.00     0.000 C 
BRANCH  14  15
ATOM     15  C   UNL     1      27.202  46.067   5.314  1.00  0.00     0.000 C 
BRANCH  15  16
ATOM     16  C   UNL     1      27.629  47.426   5.893  1.00  0.00     0.006 C 
BRANCH  16  17
ATOM     17  C   UNL     1      27.069  47.655   7.303  1.00  0.00     0.053 C 
BRANCH  17  18
ATOM     18  C   UNL     1      26.080  46.597   7.687  1.00  0.00     0.041 C 
ATOM     19  O   UNL     1      26.479  45.472   8.085  1.00  0.00    -0.550 OA
ATOM     20  O   UNL     1      24.719  46.868   7.640  1.00  0.00    -0.550 OA
ENDBRANCH  17  18
ENDBRANCH  16  17
ENDBRANCH  15  16
ENDBRANCH  14  15
ENDBRANCH  13  14
ENDBRANCH  12  13
ENDBRANCH  11  12
ENDBRANCH   1  11
TORSDOF 15
ENDMDL
MODEL 7
REMARK VINA RESULT:    10.616     12.743     13.936
REMARK INTER + INTRA:          19.758
REMARK INTER:                  20.312
REMARK INTRA:                  -0.554
REMARK UNBOUND:                -0.166
REMARK SMILES O=C([O-])CCCCCCCCCCCCCCC(=O)[O-]
REMARK SMILES IDX 10 1 9 2 8 3 7 4 6 5 5 6 4 7 2 8 1 9 3 10 11 11 12 12 13 13
REMARK SMILES IDX 14 14 15 15 16 16 17 17 18 18 19 19 20 20
REMARK H PARENT
REMARK Flexibility Score: inf
ROOT
ATOM      1  C   UNL     1      26.446  31.137  -1.742  1.00  0.00     0.000 C 
ENDROOT
BRANCH   1   2
ATOM      2  C   UNL     1      27.365  31.414  -2.944  1.00  0.00     0.000 C 
BRANCH   2   3
ATOM      3  C   UNL     1      26.920  30.668  -4.212  1.00  0.00     0.000 C 
BRANCH   3   4
ATOM      4  C   UNL     1      25.828  31.422  -4.987  1.00  0.00     0.000 C 
BRANCH   4   5
ATOM      5  C   UNL     1      25.549  30.747  -6.338  1.00  0.00     0.000 C 
BRANCH   5   6
ATOM      6  C   UNL     1      25.497  31.749  -7.502  1.00  0.00     0.006 C 
BRANCH   6   7
ATOM      7  C   UNL     1      24.093  31.880  -8.108  1.00  0.00     0.053 C 
BRANCH   7   8
ATOM      8  C   UNL     1      23.650  33.309  -8.093  1.00  0.00     0.041 C 
ATOM      9  O   UNL     1      22.423  33.593  -8.124  1.00  0.00    -0.550 OA
ATOM     10  O   UNL     1      24.593  34.329  -8.093  1.00  0.00    -0.550 OA
ENDBRANCH   7   8
ENDBRANCH   6   7
ENDBRANCH   5   6
ENDBRANCH   4   5
ENDBRANCH   3   4
ENDBRANCH   2   3
ENDBRANCH   1   2
BRANCH   1  11
ATOM     11  C   UNL     1      26.715  29.758  -1.100  1.00  0.00     0.000 C 
BRANCH  11  12
ATOM     12  C   UNL     1      26.979  29.824   0.417  1.00  0.00     0.000 C 
BRANCH  12  13
ATOM     13  C   UNL     1      26.871  28.474   1.150  1.00  0.00     0.000 C 
BRANCH  13  14
ATOM     14  C   UNL     1      28.209  27.892   1.652  1.00  0.00     0.000 C 
BRANCH  14  15
ATOM     15  C   UNL     1      28.479  28.082   3.156  1.00  0.00     0.000 C 
BRANCH  15  16
ATOM     16  C   UNL     1      27.369  28.873   3.868  1.00  0.00     0.006 C 
BRANCH  16  17
ATOM     17  C   UNL     1      27.933  29.947   4.806  1.00  0.00     0.053 C 
BRANCH  17  18
ATOM     18  C   UNL     1      27.520  29.717   6.227  1.00  0.00     0.041 C 
ATOM     19  O   UNL     1      26.573  28.931   6.493  1.00  0.00    -0.550 OA
ATOM     20  O   UNL     1      28.204  30.344   7.261  1.00  0.00    -0.550 OA
ENDBRANCH  17  18
ENDBRANCH  16  17
ENDBRANCH  15  16
ENDBRANCH  14  15
ENDBRANCH  13  14
ENDBRANCH  12  13
ENDBRANCH  11  12
ENDBRANCH   1  11
TORSDOF 15
ENDMDL
MODEL 8
REMARK VINA RESULT:    10.651     12.638     13.906
REMARK INTER + INTRA:          19.825
REMARK INTER:                  20.226
REMARK INTRA:                  -0.401
REMARK UNBOUND:                -0.166
REMARK SMILES O=C([O-])CCCCCCCCCCCCCCC(=O)[O-]
REMARK SMILES IDX 10 1 9 2 8 3 7 4 6 5 5 6 4 7 2 8 1 9 3 10 11 11 12 12 13 13
REMARK SMILES IDX 14 14 15 15 16 16 17 17 18 18 19 19 20 20
REMARK H PARENT
REMARK Flexibility Score: inf
ROOT
ATOM      1  C   UNL     1      27.342  30.288  -0.505  1.00  0.00     0.000 C 
ENDROOT
BRANCH   1   2
ATOM      2  C   UNL     1      26.417  30.527  -1.712  1.00  0.00     0.000 C 
BRANCH   2   3
ATOM      3  C   UNL     1      27.160  31.135  -2.912  1.00  0.00     0.000 C 
BRANCH   3   4
ATOM      4  C   UNL     1      26.773  30.471  -4.243  1.00  0.00     0.000 C 
BRANCH   4   5
ATOM      5  C   UNL     1      26.061  31.469  -5.168  1.00  0.00     0.000 C 
BRANCH   5   6
ATOM      6  C   UNL     1      25.662  30.848  -6.516  1.00  0.00     0.006 C 
BRANCH   6   7
ATOM      7  C   UNL     1      25.123  31.886  -7.510  1.00  0.00     0.053 C 
BRANCH   7   8
ATOM      8  C   UNL     1      23.743  31.518  -7.951  1.00  0.00     0.041 C 
ATOM      9  O   UNL     1      22.872  32.412  -8.124  1.00  0.00    -0.550 OA
ATOM     10  O   UNL     1      23.401  30.182  -8.125  1.00  0.00    -0.550 OA
ENDBRANCH   7   8
ENDBRANCH   6   7
ENDBRANCH   5   6
ENDBRANCH   4   5
ENDBRANCH   3   4
ENDBRANCH   2   3
ENDBRANCH   1   2
BRANCH   1  11
ATOM     11  C   UNL     1      26.682  29.405   0.577  1.00  0.00     0.000 C 
BRANCH  11  12
ATOM     12  C   UNL     1      27.528  28.181   0.976  1.00  0.00     0.000 C 
BRANCH  12  13
ATOM     13  C   UNL     1      28.095  28.226   2.407  1.00  0.00     0.000 C 
BRANCH  13  14
ATOM     14  C   UNL     1      27.418  29.244   3.349  1.00  0.00     0.000 C 
BRANCH  14  15
ATOM     15  C   UNL     1      27.786  29.100   4.837  1.00  0.00     0.000 C 
BRANCH  15  16
ATOM     16  C   UNL     1      28.149  30.441   5.496  1.00  0.00     0.006 C 
BRANCH  16  17
ATOM     17  C   UNL     1      28.489  30.282   6.983  1.00  0.00     0.053 C 
BRANCH  17  18
ATOM     18  C   UNL     1      29.007  31.557   7.575  1.00  0.00     0.041 C 
ATOM     19  O   UNL     1      30.172  31.608   8.048  1.00  0.00    -0.550 OA
ATOM     20  O   UNL     1      28.215  32.698   7.570  1.00  0.00    -0.550 OA
ENDBRANCH  17  18
ENDBRANCH  16  17
ENDBRANCH  15  16
ENDBRANCH  14  15
ENDBRANCH  13  14
ENDBRANCH  12  13
ENDBRANCH  11  12
ENDBRANCH   1  11
TORSDOF 15
ENDMDL
