MODEL 1
REMARK VINA RESULT:    -6.249      0.000      0.000
REMARK INTER + INTRA:          -6.249
REMARK INTER:                  -6.249
REMARK INTRA:                   0.000
REMARK UNBOUND:                 0.000
REMARK SMILES C=C1CCC[C@@]2(C)CC(=O)C(=C(C)C)C[C@H]12
REMARK SMILES IDX 13 1 12 2 11 3 15 4 16 5 2 6 1 7 3 8 4 9 5 10 6 11 8 12 9 13
REMARK SMILES IDX 10 14 7 15 14 16
REMARK H PARENT
REMARK Flexibility Score: inf
ROOT
ATOM      1  C   UNL     1      27.114 -13.253  32.951  1.00  0.00     0.039 C 
ATOM      2  C   UNL     1      26.978 -13.742  31.527  1.00  0.00    -0.070 C 
ATOM      3  C   UNL     1      27.682 -13.175  30.502  1.00  0.00    -0.006 C 
ATOM      4  C   UNL     1      27.490 -13.639  29.064  1.00  0.00     0.047 C 
ATOM      5  C   UNL     1      27.728 -12.507  28.033  1.00  0.00     0.025 C 
ATOM      6  C   UNL     1      27.588 -12.925  26.568  1.00  0.00    -0.073 C 
ATOM      7  C   UNL     1      27.292 -14.175  26.164  1.00  0.00     0.008 C 
ATOM      8  C   UNL     1      27.757 -11.828  25.543  1.00  0.00     0.031 C 
ATOM      9  C   UNL     1      29.080 -11.089  25.765  1.00  0.00     0.005 C 
ATOM     10  C   UNL     1      29.228 -10.618  27.223  1.00  0.00     0.008 C 
ATOM     11  C   UNL     1      29.089 -11.777  28.256  1.00  0.00    -0.018 C 
ATOM     12  C   UNL     1      29.091 -11.158  29.676  1.00  0.00     0.088 C 
ATOM     13  C   UNL     1      28.760 -12.171  30.735  1.00  0.00     0.159 C 
ATOM     14  O   UNL     1      29.419 -12.156  31.809  1.00  0.00    -0.295 OA
ATOM     15  C   UNL     1      30.296 -12.746  28.117  1.00  0.00     0.012 C 
ATOM     16  C   UNL     1      25.997 -14.864  31.279  1.00  0.00     0.039 C 
ENDROOT
TORSDOF 0
ENDMDL
MODEL 2
REMARK VINA RESULT:    -5.548      1.807      3.522
REMARK INTER + INTRA:          -5.548
REMARK INTER:                  -5.548
REMARK INTRA:                   0.000
REMARK UNBOUND:                 0.000
REMARK SMILES C=C1CCC[C@@]2(C)CC(=O)C(=C(C)C)C[C@H]12
REMARK SMILES IDX 13 1 12 2 11 3 15 4 16 5 2 6 1 7 3 8 4 9 5 10 6 11 8 12 9 13
REMARK SMILES IDX 10 14 7 15 14 16
REMARK H PARENT
REMARK Flexibility Score: inf
ROOT
ATOM      1  C   UNL     1      24.292 -15.499  29.501  1.00  0.00     0.039 C 
ATOM      2  C   UNL     1      25.340 -14.741  28.720  1.00  0.00    -0.070 C 
ATOM      3  C   UNL     1      26.323 -14.024  29.342  1.00  0.00    -0.006 C 
ATOM      4  C   UNL     1      27.336 -13.217  28.541  1.00  0.00     0.047 C 
ATOM      5  C   UNL     1      27.839 -11.964  29.302  1.00  0.00     0.025 C 
ATOM      6  C   UNL     1      28.890 -11.135  28.562  1.00  0.00    -0.073 C 
ATOM      7  C   UNL     1      29.375 -11.443  27.344  1.00  0.00     0.008 C 
ATOM      8  C   UNL     1      29.355  -9.875  29.255  1.00  0.00     0.031 C 
ATOM      9  C   UNL     1      29.826 -10.192  30.677  1.00  0.00     0.005 C 
ATOM     10  C   UNL     1      28.769 -10.989  31.461  1.00  0.00     0.008 C 
ATOM     11  C   UNL     1      28.337 -12.303  30.741  1.00  0.00    -0.018 C 
ATOM     12  C   UNL     1      27.163 -12.924  31.537  1.00  0.00     0.088 C 
ATOM     13  C   UNL     1      26.542 -14.086  30.816  1.00  0.00     0.159 C 
ATOM     14  O   UNL     1      26.227 -15.109  31.481  1.00  0.00    -0.295 OA
ATOM     15  C   UNL     1      29.529 -13.301  30.722  1.00  0.00     0.012 C 
ATOM     16  C   UNL     1      25.231 -14.779  27.213  1.00  0.00     0.039 C 
ENDROOT
TORSDOF 0
ENDMDL
MODEL 3
REMARK VINA RESULT:    -5.478      2.155      4.441
REMARK INTER + INTRA:          -5.478
REMARK INTER:                  -5.478
REMARK INTRA:                   0.000
REMARK UNBOUND:                 0.000
REMARK SMILES C=C1CCC[C@@]2(C)CC(=O)C(=C(C)C)C[C@H]12
REMARK SMILES IDX 13 1 12 2 11 3 15 4 16 5 2 6 1 7 3 8 4 9 5 10 6 11 8 12 9 13
REMARK SMILES IDX 10 14 7 15 14 16
REMARK H PARENT
REMARK Flexibility Score: inf
ROOT
ATOM      1  C   UNL     1      25.943 -14.691  25.928  1.00  0.00     0.039 C 
ATOM      2  C   UNL     1      26.036 -14.255  27.371  1.00  0.00    -0.070 C 
ATOM      3  C   UNL     1      27.126 -13.586  27.852  1.00  0.00    -0.006 C 
ATOM      4  C   UNL     1      27.231 -13.206  29.323  1.00  0.00     0.047 C 
ATOM      5  C   UNL     1      28.695 -13.165  29.829  1.00  0.00     0.025 C 
ATOM      6  C   UNL     1      28.866 -12.750  31.291  1.00  0.00    -0.073 C 
ATOM      7  C   UNL     1      27.845 -12.426  32.108  1.00  0.00     0.008 C 
ATOM      8  C   UNL     1      30.278 -12.759  31.826  1.00  0.00     0.031 C 
ATOM      9  C   UNL     1      31.196 -11.930  30.923  1.00  0.00     0.005 C 
ATOM     10  C   UNL     1      31.078 -12.356  29.449  1.00  0.00     0.008 C 
ATOM     11  C   UNL     1      29.616 -12.299  28.913  1.00  0.00    -0.018 C 
ATOM     12  C   UNL     1      29.603 -12.903  27.486  1.00  0.00     0.088 C 
ATOM     13  C   UNL     1      28.208 -13.079  26.958  1.00  0.00     0.159 C 
ATOM     14  O   UNL     1      27.976 -12.778  25.757  1.00  0.00    -0.295 OA
ATOM     15  C   UNL     1      29.142 -10.820  28.848  1.00  0.00     0.012 C 
ATOM     16  C   UNL     1      24.883 -14.627  28.275  1.00  0.00     0.039 C 
ENDROOT
TORSDOF 0
ENDMDL
MODEL 4
REMARK VINA RESULT:    -5.351      1.616      3.658
REMARK INTER + INTRA:          -5.351
REMARK INTER:                  -5.351
REMARK INTRA:                   0.000
REMARK UNBOUND:                 0.000
REMARK SMILES C=C1CCC[C@@]2(C)CC(=O)C(=C(C)C)C[C@H]12
REMARK SMILES IDX 13 1 12 2 11 3 15 4 16 5 2 6 1 7 3 8 4 9 5 10 6 11 8 12 9 13
REMARK SMILES IDX 10 14 7 15 14 16
REMARK H PARENT
REMARK Flexibility Score: inf
ROOT
ATOM      1  C   UNL     1      31.970 -12.647  31.295  1.00  0.00     0.039 C 
ATOM      2  C   UNL     1      31.381 -12.778  29.909  1.00  0.00    -0.070 C 
ATOM      3  C   UNL     1      30.032 -12.825  29.703  1.00  0.00    -0.006 C 
ATOM      4  C   UNL     1      29.455 -13.017  28.306  1.00  0.00     0.047 C 
ATOM      5  C   UNL     1      28.097 -13.764  28.316  1.00  0.00     0.025 C 
ATOM      6  C   UNL     1      27.450 -13.951  26.943  1.00  0.00    -0.073 C 
ATOM      7  C   UNL     1      27.983 -13.506  25.789  1.00  0.00     0.008 C 
ATOM      8  C   UNL     1      26.154 -14.727  26.917  1.00  0.00     0.031 C 
ATOM      9  C   UNL     1      25.151 -14.124  27.905  1.00  0.00     0.005 C 
ATOM     10  C   UNL     1      25.762 -13.965  29.308  1.00  0.00     0.008 C 
ATOM     11  C   UNL     1      27.076 -13.127  29.310  1.00  0.00    -0.018 C 
ATOM     12  C   UNL     1      27.678 -13.178  30.736  1.00  0.00     0.088 C 
ATOM     13  C   UNL     1      29.049 -12.567  30.795  1.00  0.00     0.159 C 
ATOM     14  O   UNL     1      29.339 -11.830  31.775  1.00  0.00    -0.295 OA
ATOM     15  C   UNL     1      26.753 -11.651  28.941  1.00  0.00     0.012 C 
ATOM     16  C   UNL     1      32.356 -12.893  28.759  1.00  0.00     0.039 C 
ENDROOT
TORSDOF 0
ENDMDL
MODEL 5
REMARK VINA RESULT:    -5.056      2.460      4.013
REMARK INTER + INTRA:          -5.056
REMARK INTER:                  -5.056
REMARK INTRA:                   0.000
REMARK UNBOUND:                 0.000
REMARK SMILES C=C1CCC[C@@]2(C)CC(=O)C(=C(C)C)C[C@H]12
REMARK SMILES IDX 13 1 12 2 11 3 15 4 16 5 2 6 1 7 3 8 4 9 5 10 6 11 8 12 9 13
REMARK SMILES IDX 10 14 7 15 14 16
REMARK H PARENT
REMARK Flexibility Score: inf
ROOT
ATOM      1  C   UNL     1      25.824 -12.267  35.230  1.00  0.00     0.039 C 
ATOM      2  C   UNL     1      26.365 -11.442  34.086  1.00  0.00    -0.070 C 
ATOM      3  C   UNL     1      26.936 -12.021  32.988  1.00  0.00    -0.006 C 
ATOM      4  C   UNL     1      27.531 -11.173  31.871  1.00  0.00     0.047 C 
ATOM      5  C   UNL     1      28.715 -11.871  31.155  1.00  0.00     0.025 C 
ATOM      6  C   UNL     1      29.327 -11.084  29.996  1.00  0.00    -0.073 C 
ATOM      7  C   UNL     1      28.892  -9.875  29.590  1.00  0.00     0.008 C 
ATOM      8  C   UNL     1      30.521 -11.714  29.319  1.00  0.00     0.031 C 
ATOM      9  C   UNL     1      30.192 -13.144  28.880  1.00  0.00     0.005 C 
ATOM     10  C   UNL     1      29.614 -13.974  30.039  1.00  0.00     0.008 C 
ATOM     11  C   UNL     1      28.360 -13.319  30.694  1.00  0.00    -0.018 C 
ATOM     12  C   UNL     1      27.975 -14.155  31.939  1.00  0.00     0.088 C 
ATOM     13  C   UNL     1      26.901 -13.494  32.755  1.00  0.00     0.159 C 
ATOM     14  O   UNL     1      25.973 -14.207  33.221  1.00  0.00    -0.295 OA
ATOM     15  C   UNL     1      27.179 -13.331  29.683  1.00  0.00     0.012 C 
ATOM     16  C   UNL     1      26.282  -9.939  34.227  1.00  0.00     0.039 C 
ENDROOT
TORSDOF 0
ENDMDL
MODEL 6
REMARK VINA RESULT:    -4.250      1.480      4.868
REMARK INTER + INTRA:          -4.250
REMARK INTER:                  -4.250
REMARK INTRA:                   0.000
REMARK UNBOUND:                 0.000
REMARK SMILES C=C1CCC[C@@]2(C)CC(=O)C(=C(C)C)C[C@H]12
REMARK SMILES IDX 13 1 12 2 11 3 15 4 16 5 2 6 1 7 3 8 4 9 5 10 6 11 8 12 9 13
REMARK SMILES IDX 10 14 7 15 14 16
REMARK H PARENT
REMARK Flexibility Score: inf
ROOT
ATOM      1  C   UNL     1      29.310 -11.366  25.750  1.00  0.00     0.039 C 
ATOM      2  C   UNL     1      28.275 -12.230  26.431  1.00  0.00    -0.070 C 
ATOM      3  C   UNL     1      28.073 -12.182  27.781  1.00  0.00    -0.006 C 
ATOM      4  C   UNL     1      27.068 -13.102  28.461  1.00  0.00     0.047 C 
ATOM      5  C   UNL     1      27.468 -13.458  29.915  1.00  0.00     0.025 C 
ATOM      6  C   UNL     1      26.474 -14.349  30.662  1.00  0.00    -0.073 C 
ATOM      7  C   UNL     1      25.321 -14.802  30.134  1.00  0.00     0.008 C 
ATOM      8  C   UNL     1      26.868 -14.760  32.061  1.00  0.00     0.031 C 
ATOM      9  C   UNL     1      27.219 -13.527  32.901  1.00  0.00     0.005 C 
ATOM     10  C   UNL     1      28.252 -12.634  32.191  1.00  0.00     0.008 C 
ATOM     11  C   UNL     1      27.802 -12.193  30.766  1.00  0.00    -0.018 C 
ATOM     12  C   UNL     1      28.983 -11.446  30.098  1.00  0.00     0.088 C 
ATOM     13  C   UNL     1      28.721 -11.155  28.648  1.00  0.00     0.159 C 
ATOM     14  O   UNL     1      29.049 -10.027  28.191  1.00  0.00    -0.295 OA
ATOM     15  C   UNL     1      26.585 -11.233  30.878  1.00  0.00     0.012 C 
ATOM     16  C   UNL     1      27.494 -13.182  25.555  1.00  0.00     0.039 C 
ENDROOT
TORSDOF 0
ENDMDL
MODEL 7
REMARK VINA RESULT:    -4.238      2.098      3.682
REMARK INTER + INTRA:          -4.238
REMARK INTER:                  -4.238
REMARK INTRA:                   0.000
REMARK UNBOUND:                 0.000
REMARK SMILES C=C1CCC[C@@]2(C)CC(=O)C(=C(C)C)C[C@H]12
REMARK SMILES IDX 13 1 12 2 11 3 15 4 16 5 2 6 1 7 3 8 4 9 5 10 6 11 8 12 9 13
REMARK SMILES IDX 10 14 7 15 14 16
REMARK H PARENT
REMARK Flexibility Score: inf
ROOT
ATOM      1  C   UNL     1      25.265 -16.123  30.237  1.00  0.00     0.039 C 
ATOM      2  C   UNL     1      25.978 -14.962  30.891  1.00  0.00    -0.070 C 
ATOM      3  C   UNL     1      26.424 -13.892  30.167  1.00  0.00    -0.006 C 
ATOM      4  C   UNL     1      27.194 -12.758  30.831  1.00  0.00     0.047 C 
ATOM      5  C   UNL     1      28.212 -12.084  29.876  1.00  0.00     0.025 C 
ATOM      6  C   UNL     1      28.986 -10.911  30.478  1.00  0.00    -0.073 C 
ATOM      7  C   UNL     1      28.818 -10.459  31.735  1.00  0.00     0.008 C 
ATOM      8  C   UNL     1      30.027 -10.273  29.588  1.00  0.00     0.031 C 
ATOM      9  C   UNL     1      29.409  -9.875  28.244  1.00  0.00     0.005 C 
ATOM     10  C   UNL     1      28.659 -11.051  27.594  1.00  0.00     0.008 C 
ATOM     11  C   UNL     1      27.565 -11.664  28.520  1.00  0.00    -0.018 C 
ATOM     12  C   UNL     1      27.002 -12.930  27.827  1.00  0.00     0.088 C 
ATOM     13  C   UNL     1      26.083 -13.706  28.727  1.00  0.00     0.159 C 
ATOM     14  O   UNL     1      25.022 -14.180  28.240  1.00  0.00    -0.295 OA
ATOM     15  C   UNL     1      26.417 -10.635  28.720  1.00  0.00     0.012 C 
ATOM     16  C   UNL     1      26.211 -15.053  32.381  1.00  0.00     0.039 C 
ENDROOT
TORSDOF 0
ENDMDL
MODEL 8
REMARK VINA RESULT:    -4.097      1.456      2.501
REMARK INTER + INTRA:          -4.097
REMARK INTER:                  -4.097
REMARK INTRA:                   0.000
REMARK UNBOUND:                 0.000
REMARK SMILES C=C1CCC[C@@]2(C)CC(=O)C(=C(C)C)C[C@H]12
REMARK SMILES IDX 13 1 12 2 11 3 15 4 16 5 2 6 1 7 3 8 4 9 5 10 6 11 8 12 9 13
REMARK SMILES IDX 10 14 7 15 14 16
REMARK H PARENT
REMARK Flexibility Score: inf
ROOT
ATOM      1  C   UNL     1      28.925  -9.876  32.099  1.00  0.00     0.039 C 
ATOM      2  C   UNL     1      28.093 -11.064  31.676  1.00  0.00    -0.070 C 
ATOM      3  C   UNL     1      28.261 -11.663  30.459  1.00  0.00    -0.006 C 
ATOM      4  C   UNL     1      27.374 -12.821  30.023  1.00  0.00     0.047 C 
ATOM      5  C   UNL     1      27.171 -12.875  28.488  1.00  0.00     0.025 C 
ATOM      6  C   UNL     1      26.320 -14.043  27.987  1.00  0.00    -0.073 C 
ATOM      7  C   UNL     1      25.779 -14.982  28.787  1.00  0.00     0.008 C 
ATOM      8  C   UNL     1      26.057 -14.087  26.500  1.00  0.00     0.031 C 
ATOM      9  C   UNL     1      27.374 -14.011  25.722  1.00  0.00     0.005 C 
ATOM     10  C   UNL     1      28.232 -12.817  26.176  1.00  0.00     0.008 C 
ATOM     11  C   UNL     1      28.521 -12.819  27.707  1.00  0.00    -0.018 C 
ATOM     12  C   UNL     1      29.243 -11.496  28.063  1.00  0.00     0.088 C 
ATOM     13  C   UNL     1      29.387 -11.311  29.547  1.00  0.00     0.159 C 
ATOM     14  O   UNL     1      30.478 -10.867  29.995  1.00  0.00    -0.295 OA
ATOM     15  C   UNL     1      29.444 -14.019  28.061  1.00  0.00     0.012 C 
ATOM     16  C   UNL     1      27.036 -11.540  32.645  1.00  0.00     0.039 C 
ENDROOT
TORSDOF 0
ENDMDL
MODEL 9
REMARK VINA RESULT:    -3.466      2.046      3.805
REMARK INTER + INTRA:          -3.466
REMARK INTER:                  -3.466
REMARK INTRA:                   0.000
REMARK UNBOUND:                 0.000
REMARK SMILES C=C1CCC[C@@]2(C)CC(=O)C(=C(C)C)C[C@H]12
REMARK SMILES IDX 13 1 12 2 11 3 15 4 16 5 2 6 1 7 3 8 4 9 5 10 6 11 8 12 9 13
REMARK SMILES IDX 10 14 7 15 14 16
REMARK H PARENT
REMARK Flexibility Score: inf
ROOT
ATOM      1  C   UNL     1      24.809 -14.999  30.136  1.00  0.00     0.039 C 
ATOM      2  C   UNL     1      26.022 -14.440  30.842  1.00  0.00    -0.070 C 
ATOM      3  C   UNL     1      27.080 -13.921  30.151  1.00  0.00    -0.006 C 
ATOM      4  C   UNL     1      28.322 -13.417  30.875  1.00  0.00     0.047 C 
ATOM      5  C   UNL     1      29.613 -13.574  30.032  1.00  0.00     0.025 C 
ATOM      6  C   UNL     1      30.887 -13.048  30.693  1.00  0.00    -0.073 C 
ATOM      7  C   UNL     1      30.926 -12.474  31.910  1.00  0.00     0.008 C 
ATOM      8  C   UNL     1      32.170 -13.242  29.918  1.00  0.00     0.031 C 
ATOM      9  C   UNL     1      32.028 -12.677  28.501  1.00  0.00     0.005 C 
ATOM     10  C   UNL     1      30.775 -13.225  27.795  1.00  0.00     0.008 C 
ATOM     11  C   UNL     1      29.463 -12.975  28.599  1.00  0.00    -0.018 C 
ATOM     12  C   UNL     1      28.308 -13.710  27.874  1.00  0.00     0.088 C 
ATOM     13  C   UNL     1      27.038 -13.698  28.677  1.00  0.00     0.159 C 
ATOM     14  O   UNL     1      25.949 -13.486  28.079  1.00  0.00    -0.295 OA
ATOM     15  C   UNL     1      29.158 -11.451  28.637  1.00  0.00     0.012 C 
ATOM     16  C   UNL     1      26.032 -14.517  32.351  1.00  0.00     0.039 C 
ENDROOT
TORSDOF 0
ENDMDL
