MODEL 1
REMARK VINA RESULT:    -2.495      0.000      0.000
REMARK INTER + INTRA:          -2.667
REMARK INTER:                  -2.640
REMARK INTRA:                  -0.026
REMARK UNBOUND:                -0.026
REMARK SMILES O=C([O-])[C@@H]1CCC[NH2+]1
REMARK SMILES IDX 4 1 8 2 7 3 5 4 6 5 2 8 1 9 3 10
REMARK H PARENT 8 6 8 7
REMARK Flexibility Score: inf
ROOT
ATOM      1  C   UNL     1      17.247  19.935  51.116  1.00  0.00     0.229 C 
ATOM      2  N   UNL     1      17.700  20.642  49.916  1.00  0.00    -0.339 N 
ATOM      3  C   UNL     1      19.127  20.333  49.779  1.00  0.00     0.261 C 
ATOM      4  C   UNL     1      18.437  19.887  52.062  1.00  0.00     0.077 C 
ATOM      5  C   UNL     1      19.643  19.876  51.143  1.00  0.00     0.068 C 
ATOM      6  H   UNL     1      17.586  21.678  50.023  1.00  0.00     0.346 HD
ATOM      7  H   UNL     1      17.169  20.317  49.074  1.00  0.00     0.346 HD
ENDROOT
BRANCH   1   8
ATOM      8  C   UNL     1      16.047  20.595  51.740  1.00  0.00     0.099 C 
ATOM      9  O   UNL     1      15.643  21.706  51.309  1.00  0.00    -0.544 OA
ATOM     10  O   UNL     1      15.376  19.986  52.795  1.00  0.00    -0.544 OA
ENDBRANCH   1   8
TORSDOF 1
ENDMDL
MODEL 2
REMARK VINA RESULT:    -2.008      2.288      3.161
REMARK INTER + INTRA:          -2.151
REMARK INTER:                  -2.122
REMARK INTRA:                  -0.029
REMARK UNBOUND:                -0.026
REMARK SMILES O=C([O-])[C@@H]1CCC[NH2+]1
REMARK SMILES IDX 4 1 8 2 7 3 5 4 6 5 2 8 1 9 3 10
REMARK H PARENT 8 6 8 7
REMARK Flexibility Score: inf
ROOT
ATOM      1  C   UNL     1      17.994  19.879  50.313  1.00  0.00     0.229 C 
ATOM      2  N   UNL     1      19.144  20.164  51.175  1.00  0.00    -0.339 N 
ATOM      3  C   UNL     1      18.705  19.875  52.543  1.00  0.00     0.261 C 
ATOM      4  C   UNL     1      16.752  20.186  51.137  1.00  0.00     0.077 C 
ATOM      5  C   UNL     1      17.178  19.911  52.566  1.00  0.00     0.068 C 
ATOM      6  H   UNL     1      19.420  21.173  51.113  1.00  0.00     0.346 HD
ATOM      7  H   UNL     1      19.959  19.562  50.912  1.00  0.00     0.346 HD
ENDROOT
BRANCH   1   8
ATOM      8  C   UNL     1      18.039  20.669  49.032  1.00  0.00     0.099 C 
ATOM      9  O   UNL     1      17.563  21.833  48.992  1.00  0.00    -0.544 OA
ATOM     10  O   UNL     1      18.605  20.122  47.886  1.00  0.00    -0.544 OA
ENDBRANCH   1   8
TORSDOF 1
ENDMDL
MODEL 3
REMARK VINA RESULT:    -1.947      2.860      3.576
REMARK INTER + INTRA:          -2.088
REMARK INTER:                  -2.066
REMARK INTRA:                  -0.022
REMARK UNBOUND:                -0.026
REMARK SMILES O=C([O-])[C@@H]1CCC[NH2+]1
REMARK SMILES IDX 4 1 8 2 7 3 5 4 6 5 2 8 1 9 3 10
REMARK H PARENT 8 6 8 7
REMARK Flexibility Score: inf
ROOT
ATOM      1  C   UNL     1      19.505  19.876  51.077  1.00  0.00     0.229 C 
ATOM      2  N   UNL     1      18.103  20.146  51.401  1.00  0.00    -0.339 N 
ATOM      3  C   UNL     1      17.417  20.317  50.116  1.00  0.00     0.261 C 
ATOM      4  C   UNL     1      19.801  20.623  49.785  1.00  0.00     0.077 C 
ATOM      5  C   UNL     1      18.469  20.654  49.061  1.00  0.00     0.068 C 
ATOM      6  H   UNL     1      18.008  21.030  51.956  1.00  0.00     0.346 HD
ATOM      7  H   UNL     1      17.688  19.350  51.939  1.00  0.00     0.346 HD
ENDROOT
BRANCH   1   8
ATOM      8  C   UNL     1      20.430  20.278  52.194  1.00  0.00     0.099 C 
ATOM      9  O   UNL     1      21.444  20.984  51.951  1.00  0.00    -0.544 OA
ATOM     10  O   UNL     1      20.176  19.875  53.500  1.00  0.00    -0.544 OA
ENDBRANCH   1   8
TORSDOF 1
ENDMDL
MODEL 4
REMARK VINA RESULT:    -1.884      1.245      1.623
REMARK INTER + INTRA:          -2.021
REMARK INTER:                  -2.000
REMARK INTRA:                  -0.020
REMARK UNBOUND:                -0.026
REMARK SMILES O=C([O-])[C@@H]1CCC[NH2+]1
REMARK SMILES IDX 4 1 8 2 7 3 5 4 6 5 2 8 1 9 3 10
REMARK H PARENT 8 6 8 7
REMARK Flexibility Score: inf
ROOT
ATOM      1  C   UNL     1      17.426  20.530  51.237  1.00  0.00     0.229 C 
ATOM      2  N   UNL     1      18.556  19.876  51.902  1.00  0.00    -0.339 N 
ATOM      3  C   UNL     1      19.654  19.881  50.931  1.00  0.00     0.261 C 
ATOM      4  C   UNL     1      17.559  20.216  49.755  1.00  0.00     0.077 C 
ATOM      5  C   UNL     1      19.052  20.066  49.539  1.00  0.00     0.068 C 
ATOM      6  H   UNL     1      18.325  18.884  52.149  1.00  0.00     0.346 HD
ATOM      7  H   UNL     1      18.825  20.398  52.769  1.00  0.00     0.346 HD
ENDROOT
BRANCH   1   8
ATOM      8  C   UNL     1      16.104  20.081  51.800  1.00  0.00     0.099 C 
ATOM      9  O   UNL     1      15.128  19.875  51.032  1.00  0.00    -0.544 OA
ATOM     10  O   UNL     1      15.947  19.892  53.169  1.00  0.00    -0.544 OA
ENDBRANCH   1   8
TORSDOF 1
ENDMDL
MODEL 5
REMARK VINA RESULT:    -1.176     18.318     18.999
REMARK INTER + INTRA:          -1.271
REMARK INTER:                  -1.239
REMARK INTRA:                  -0.032
REMARK UNBOUND:                -0.026
REMARK SMILES O=C([O-])[C@@H]1CCC[NH2+]1
REMARK SMILES IDX 4 1 8 2 7 3 5 4 6 5 2 8 1 9 3 10
REMARK H PARENT 8 6 8 7
REMARK Flexibility Score: inf
ROOT
ATOM      1  C   UNL     1      16.402  38.887  46.946  1.00  0.00     0.229 C 
ATOM      2  N   UNL     1      15.596  39.097  45.741  1.00  0.00    -0.339 N 
ATOM      3  C   UNL     1      14.197  39.005  46.170  1.00  0.00     0.261 C 
ATOM      4  C   UNL     1      15.606  37.947  47.838  1.00  0.00     0.077 C 
ATOM      5  C   UNL     1      14.159  38.246  47.495  1.00  0.00     0.068 C 
ATOM      6  H   UNL     1      15.782  38.352  45.028  1.00  0.00     0.346 HD
ATOM      7  H   UNL     1      15.794  40.037  45.324  1.00  0.00     0.346 HD
ENDROOT
BRANCH   1   8
ATOM      8  C   UNL     1      17.769  38.346  46.622  1.00  0.00     0.099 C 
ATOM      9  O   UNL     1      17.889  37.213  46.087  1.00  0.00    -0.544 OA
ATOM     10  O   UNL     1      18.909  39.090  46.910  1.00  0.00    -0.544 OA
ENDBRANCH   1   8
TORSDOF 1
ENDMDL
MODEL 6
REMARK VINA RESULT:     0.403     17.776     18.422
REMARK INTER + INTRA:           0.401
REMARK INTER:                   0.422
REMARK INTRA:                  -0.021
REMARK UNBOUND:                -0.026
REMARK SMILES O=C([O-])[C@@H]1CCC[NH2+]1
REMARK SMILES IDX 4 1 8 2 7 3 5 4 6 5 2 8 1 9 3 10
REMARK H PARENT 8 6 8 7
REMARK Flexibility Score: inf
ROOT
ATOM      1  C   UNL     1      14.393  37.763  47.139  1.00  0.00     0.229 C 
ATOM      2  N   UNL     1      13.173  38.415  46.657  1.00  0.00    -0.339 N 
ATOM      3  C   UNL     1      13.529  39.819  46.429  1.00  0.00     0.261 C 
ATOM      4  C   UNL     1      15.170  38.818  47.910  1.00  0.00     0.077 C 
ATOM      5  C   UNL     1      14.787  40.124  47.241  1.00  0.00     0.068 C 
ATOM      6  H   UNL     1      12.412  38.370  47.376  1.00  0.00     0.346 HD
ATOM      7  H   UNL     1      12.842  37.968  45.770  1.00  0.00     0.346 HD
ENDROOT
BRANCH   1   8
ATOM      8  C   UNL     1      14.090  36.550  47.978  1.00  0.00     0.099 C 
ATOM      9  O   UNL     1      12.988  35.955  47.852  1.00  0.00    -0.544 OA
ATOM     10  O   UNL     1      15.021  36.077  48.896  1.00  0.00    -0.544 OA
ENDBRANCH   1   8
TORSDOF 1
ENDMDL
MODEL 7
REMARK VINA RESULT:     0.487     18.155     18.866
REMARK INTER + INTRA:           0.489
REMARK INTER:                   0.510
REMARK INTRA:                  -0.021
REMARK UNBOUND:                -0.026
REMARK SMILES O=C([O-])[C@@H]1CCC[NH2+]1
REMARK SMILES IDX 4 1 8 2 7 3 5 4 6 5 2 8 1 9 3 10
REMARK H PARENT 8 6 8 7
REMARK Flexibility Score: inf
ROOT
ATOM      1  C   UNL     1      13.976  38.548  47.472  1.00  0.00     0.229 C 
ATOM      2  N   UNL     1      13.002  37.512  47.119  1.00  0.00    -0.339 N 
ATOM      3  C   UNL     1      13.377  36.325  47.894  1.00  0.00     0.261 C 
ATOM      4  C   UNL     1      15.279  37.827  47.780  1.00  0.00     0.077 C 
ATOM      5  C   UNL     1      14.839  36.475  48.309  1.00  0.00     0.068 C 
ATOM      6  H   UNL     1      13.051  37.280  46.099  1.00  0.00     0.346 HD
ATOM      7  H   UNL     1      12.031  37.821  47.362  1.00  0.00     0.346 HD
ENDROOT
BRANCH   1   8
ATOM      8  C   UNL     1      14.133  39.570  46.377  1.00  0.00     0.099 C 
ATOM      9  O   UNL     1      15.283  39.928  46.010  1.00  0.00    -0.544 OA
ATOM     10  O   UNL     1      13.016  40.125  45.764  1.00  0.00    -0.544 OA
ENDBRANCH   1   8
TORSDOF 1
ENDMDL
