MODEL 1
REMARK VINA RESULT:    -4.737      0.000      0.000
REMARK INTER + INTRA:          -6.474
REMARK INTER:                  -6.398
REMARK INTRA:                  -0.076
REMARK UNBOUND:                -0.076
REMARK SMILES [NH3+]CCCC[C@H]([NH3+])C(=O)[O-]
REMARK SMILES IDX 4 1 3 2 2 3 1 4 5 8 6 9 7 10 8 14 9 15 10 16
REMARK H PARENT 1 5 1 6 1 7 7 11 7 12 7 13
REMARK Flexibility Score: inf
ROOT
ATOM      1  C   UNL     1     -10.509 -40.738  -7.775  1.00  0.00     0.012 C 
ENDROOT
BRANCH   1   2
ATOM      2  C   UNL     1     -11.405 -41.985  -7.858  1.00  0.00     0.061 C 
BRANCH   2   3
ATOM      3  C   UNL     1     -12.903 -41.640  -7.899  1.00  0.00     0.258 C 
BRANCH   3   4
ATOM      4  N   UNL     1     -13.714 -42.855  -7.976  1.00  0.00    -0.358 N 
ATOM      5  H   UNL     1     -14.628 -42.708  -7.488  1.00  0.00     0.344 HD
ATOM      6  H   UNL     1     -13.899 -43.079  -8.980  1.00  0.00     0.344 HD
ATOM      7  H   UNL     1     -13.204 -43.656  -7.539  1.00  0.00     0.344 HD
ENDBRANCH   3   4
ENDBRANCH   2   3
ENDBRANCH   1   2
BRANCH   1   8
ATOM      8  C   UNL     1      -9.601 -40.580  -9.007  1.00  0.00     0.072 C 
BRANCH   8   9
ATOM      9  C   UNL     1      -8.523 -39.489  -8.815  1.00  0.00     0.227 C 
BRANCH   9  10
ATOM     10  N   UNL     1      -8.877 -38.241  -9.507  1.00  0.00    -0.350 N 
ATOM     11  H   UNL     1      -8.251 -37.458  -9.206  1.00  0.00     0.345 HD
ATOM     12  H   UNL     1      -9.869 -37.984  -9.294  1.00  0.00     0.345 HD
ATOM     13  H   UNL     1      -8.803 -38.367 -10.541  1.00  0.00     0.345 HD
ENDBRANCH   9  10
BRANCH   9  14
ATOM     14  C   UNL     1      -7.195 -39.997  -9.312  1.00  0.00     0.099 C 
ATOM     15  O   UNL     1      -6.570 -39.377 -10.213  1.00  0.00    -0.544 OA
ATOM     16  O   UNL     1      -6.661 -41.167  -8.789  1.00  0.00    -0.544 OA
ENDBRANCH   9  14
ENDBRANCH   8   9
ENDBRANCH   1   8
TORSDOF 7
ENDMDL
MODEL 2
REMARK VINA RESULT:    -4.634      2.054      2.329
REMARK INTER + INTRA:          -6.335
REMARK INTER:                  -5.865
REMARK INTRA:                  -0.471
REMARK UNBOUND:                -0.076
REMARK SMILES [NH3+]CCCC[C@H]([NH3+])C(=O)[O-]
REMARK SMILES IDX 4 1 3 2 2 3 1 4 5 8 6 9 7 10 8 14 9 15 10 16
REMARK H PARENT 1 5 1 6 1 7 7 11 7 12 7 13
REMARK Flexibility Score: inf
ROOT
ATOM      1  C   UNL     1     -10.216 -40.157  -7.693  1.00  0.00     0.012 C 
ENDROOT
BRANCH   1   2
ATOM      2  C   UNL     1      -9.978 -41.547  -7.080  1.00  0.00     0.061 C 
BRANCH   2   3
ATOM      3  C   UNL     1      -9.755 -42.635  -8.143  1.00  0.00     0.258 C 
BRANCH   3   4
ATOM      4  N   UNL     1      -8.399 -43.177  -8.056  1.00  0.00    -0.358 N 
ATOM      5  H   UNL     1      -7.701 -42.398  -8.064  1.00  0.00     0.344 HD
ATOM      6  H   UNL     1      -8.301 -43.711  -7.163  1.00  0.00     0.344 HD
ATOM      7  H   UNL     1      -8.219 -43.824  -8.858  1.00  0.00     0.344 HD
ENDBRANCH   3   4
ENDBRANCH   2   3
ENDBRANCH   1   2
BRANCH   1   8
ATOM      8  C   UNL     1      -9.506 -39.979  -9.046  1.00  0.00     0.072 C 
BRANCH   8   9
ATOM      9  C   UNL     1      -8.239 -39.100  -8.942  1.00  0.00     0.227 C 
BRANCH   9  10
ATOM     10  N   UNL     1      -8.388 -37.835  -9.677  1.00  0.00    -0.350 N 
ATOM     11  H   UNL     1      -7.930 -37.895 -10.617  1.00  0.00     0.345 HD
ATOM     12  H   UNL     1      -7.951 -37.054  -9.135  1.00  0.00     0.345 HD
ATOM     13  H   UNL     1      -9.399 -37.604  -9.798  1.00  0.00     0.345 HD
ENDBRANCH   9  10
BRANCH   9  14
ATOM     14  C   UNL     1      -7.049 -39.864  -9.461  1.00  0.00     0.099 C 
ATOM     15  O   UNL     1      -6.717 -40.961  -8.939  1.00  0.00    -0.544 OA
ATOM     16  O   UNL     1      -6.297 -39.348 -10.509  1.00  0.00    -0.544 OA
ENDBRANCH   9  14
ENDBRANCH   8   9
ENDBRANCH   1   8
TORSDOF 7
ENDMDL
MODEL 3
REMARK VINA RESULT:    -4.618      1.978      2.062
REMARK INTER + INTRA:          -6.314
REMARK INTER:                  -6.183
REMARK INTRA:                  -0.131
REMARK UNBOUND:                -0.076
REMARK SMILES [NH3+]CCCC[C@H]([NH3+])C(=O)[O-]
REMARK SMILES IDX 4 1 3 2 2 3 1 4 5 8 6 9 7 10 8 14 9 15 10 16
REMARK H PARENT 1 5 1 6 1 7 7 11 7 12 7 13
REMARK Flexibility Score: inf
ROOT
ATOM      1  C   UNL     1     -10.316 -42.035  -9.138  1.00  0.00     0.012 C 
ENDROOT
BRANCH   1   2
ATOM      2  C   UNL     1     -11.642 -42.008  -8.361  1.00  0.00     0.061 C 
BRANCH   2   3
ATOM      3  C   UNL     1     -12.736 -42.866  -9.019  1.00  0.00     0.258 C 
BRANCH   3   4
ATOM      4  N   UNL     1     -13.920 -42.945  -8.164  1.00  0.00    -0.358 N 
ATOM      5  H   UNL     1     -13.753 -42.426  -7.271  1.00  0.00     0.344 HD
ATOM      6  H   UNL     1     -14.731 -42.512  -8.661  1.00  0.00     0.344 HD
ATOM      7  H   UNL     1     -14.147 -43.945  -7.956  1.00  0.00     0.344 HD
ENDBRANCH   3   4
ENDBRANCH   2   3
ENDBRANCH   1   2
BRANCH   1   8
ATOM      8  C   UNL     1      -9.098 -41.764  -8.239  1.00  0.00     0.072 C 
BRANCH   8   9
ATOM      9  C   UNL     1      -8.013 -40.921  -8.945  1.00  0.00     0.227 C 
BRANCH   9  10
ATOM     10  N   UNL     1      -6.662 -41.261  -8.474  1.00  0.00    -0.350 N 
ATOM     11  H   UNL     1      -6.421 -40.717  -7.613  1.00  0.00     0.345 HD
ATOM     12  H   UNL     1      -5.960 -41.047  -9.220  1.00  0.00     0.345 HD
ATOM     13  H   UNL     1      -6.598 -42.283  -8.269  1.00  0.00     0.345 HD
ENDBRANCH   9  10
BRANCH   9  14
ATOM     14  C   UNL     1      -8.285 -39.456  -8.723  1.00  0.00     0.099 C 
ATOM     15  O   UNL     1      -7.772 -38.589  -9.479  1.00  0.00    -0.544 OA
ATOM     16  O   UNL     1      -9.091 -39.052  -7.666  1.00  0.00    -0.544 OA
ENDBRANCH   9  14
ENDBRANCH   8   9
ENDBRANCH   1   8
TORSDOF 7
ENDMDL
MODEL 4
REMARK VINA RESULT:    -4.612      2.680      4.639
REMARK INTER + INTRA:          -6.306
REMARK INTER:                  -5.755
REMARK INTRA:                  -0.551
REMARK UNBOUND:                -0.076
REMARK SMILES [NH3+]CCCC[C@H]([NH3+])C(=O)[O-]
REMARK SMILES IDX 4 1 3 2 2 3 1 4 5 8 6 9 7 10 8 14 9 15 10 16
REMARK H PARENT 1 5 1 6 1 7 7 11 7 12 7 13
REMARK Flexibility Score: inf
ROOT
ATOM      1  C   UNL     1      -8.351 -39.132  -8.110  1.00  0.00     0.012 C 
ENDROOT
BRANCH   1   2
ATOM      2  C   UNL     1      -7.909 -38.707  -9.520  1.00  0.00     0.061 C 
BRANCH   2   3
ATOM      3  C   UNL     1      -6.686 -39.492 -10.022  1.00  0.00     0.258 C 
BRANCH   3   4
ATOM      4  N   UNL     1      -6.463 -40.685  -9.206  1.00  0.00    -0.358 N 
ATOM      5  H   UNL     1      -6.610 -41.546  -9.780  1.00  0.00     0.344 HD
ATOM      6  H   UNL     1      -5.479 -40.677  -8.852  1.00  0.00     0.344 HD
ATOM      7  H   UNL     1      -7.115 -40.688  -8.388  1.00  0.00     0.344 HD
ENDBRANCH   3   4
ENDBRANCH   2   3
ENDBRANCH   1   2
BRANCH   1   8
ATOM      8  C   UNL     1      -9.855 -39.450  -8.034  1.00  0.00     0.072 C 
BRANCH   8   9
ATOM      9  C   UNL     1     -10.135 -40.956  -7.824  1.00  0.00     0.227 C 
BRANCH   9  10
ATOM     10  N   UNL     1      -9.126 -41.586  -6.960  1.00  0.00    -0.350 N 
ATOM     11  H   UNL     1      -9.401 -42.568  -6.722  1.00  0.00     0.345 HD
ATOM     12  H   UNL     1      -9.022 -41.037  -6.075  1.00  0.00     0.345 HD
ATOM     13  H   UNL     1      -8.196 -41.592  -7.435  1.00  0.00     0.345 HD
ENDBRANCH   9  10
BRANCH   9  14
ATOM     14  C   UNL     1     -10.182 -41.653  -9.159  1.00  0.00     0.099 C 
ATOM     15  O   UNL     1      -9.129 -42.107  -9.679  1.00  0.00    -0.544 OA
ATOM     16  O   UNL     1     -11.389 -41.780  -9.833  1.00  0.00    -0.544 OA
ENDBRANCH   9  14
ENDBRANCH   8   9
ENDBRANCH   1   8
TORSDOF 7
ENDMDL
MODEL 5
REMARK VINA RESULT:    -4.415      3.490      5.206
REMARK INTER + INTRA:          -6.040
REMARK INTER:                  -5.900
REMARK INTRA:                  -0.140
REMARK UNBOUND:                -0.076
REMARK SMILES [NH3+]CCCC[C@H]([NH3+])C(=O)[O-]
REMARK SMILES IDX 4 1 3 2 2 3 1 4 5 8 6 9 7 10 8 14 9 15 10 16
REMARK H PARENT 1 5 1 6 1 7 7 11 7 12 7 13
REMARK Flexibility Score: inf
ROOT
ATOM      1  C   UNL     1      -8.745 -40.293  -8.254  1.00  0.00     0.012 C 
ENDROOT
BRANCH   1   2
ATOM      2  C   UNL     1      -8.207 -39.071  -9.017  1.00  0.00     0.061 C 
BRANCH   2   3
ATOM      3  C   UNL     1      -6.987 -39.405  -9.892  1.00  0.00     0.258 C 
BRANCH   3   4
ATOM      4  N   UNL     1      -6.261 -40.555  -9.353  1.00  0.00    -0.358 N 
ATOM      5  H   UNL     1      -5.939 -40.353  -8.379  1.00  0.00     0.344 HD
ATOM      6  H   UNL     1      -6.899 -41.383  -9.334  1.00  0.00     0.344 HD
ATOM      7  H   UNL     1      -5.438 -40.777  -9.960  1.00  0.00     0.344 HD
ENDBRANCH   3   4
ENDBRANCH   2   3
ENDBRANCH   1   2
BRANCH   1   8
ATOM      8  C   UNL     1     -10.261 -40.481  -8.435  1.00  0.00     0.072 C 
BRANCH   8   9
ATOM      9  C   UNL     1     -10.614 -41.777  -9.200  1.00  0.00     0.227 C 
BRANCH   9  10
ATOM     10  N   UNL     1     -10.455 -41.615 -10.653  1.00  0.00    -0.350 N 
ATOM     11  H   UNL     1      -9.665 -42.204 -11.008  1.00  0.00     0.345 HD
ATOM     12  H   UNL     1     -10.262 -40.613 -10.881  1.00  0.00     0.345 HD
ATOM     13  H   UNL     1     -11.336 -41.884 -11.144  1.00  0.00     0.345 HD
ENDBRANCH   9  10
BRANCH   9  14
ATOM     14  C   UNL     1     -12.026 -42.188  -8.876  1.00  0.00     0.099 C 
ATOM     15  O   UNL     1     -12.737 -41.484  -8.112  1.00  0.00    -0.544 OA
ATOM     16  O   UNL     1     -12.545 -43.363  -9.405  1.00  0.00    -0.544 OA
ENDBRANCH   9  14
ENDBRANCH   8   9
ENDBRANCH   1   8
TORSDOF 7
ENDMDL
MODEL 6
REMARK VINA RESULT:    -4.402      2.648      4.918
REMARK INTER + INTRA:          -6.022
REMARK INTER:                  -5.613
REMARK INTRA:                  -0.409
REMARK UNBOUND:                -0.076
REMARK SMILES [NH3+]CCCC[C@H]([NH3+])C(=O)[O-]
REMARK SMILES IDX 4 1 3 2 2 3 1 4 5 8 6 9 7 10 8 14 9 15 10 16
REMARK H PARENT 1 5 1 6 1 7 7 11 7 12 7 13
REMARK Flexibility Score: inf
ROOT
ATOM      1  C   UNL     1     -11.216 -40.104  -7.242  1.00  0.00     0.012 C 
ENDROOT
BRANCH   1   2
ATOM      2  C   UNL     1      -9.701 -40.018  -6.995  1.00  0.00     0.061 C 
BRANCH   2   3
ATOM      3  C   UNL     1      -8.959 -39.264  -8.111  1.00  0.00     0.258 C 
BRANCH   3   4
ATOM      4  N   UNL     1      -9.195 -39.894  -9.410  1.00  0.00    -0.358 N 
ATOM      5  H   UNL     1      -9.736 -39.247 -10.029  1.00  0.00     0.344 HD
ATOM      6  H   UNL     1      -8.275 -40.103  -9.861  1.00  0.00     0.344 HD
ATOM      7  H   UNL     1      -9.721 -40.789  -9.286  1.00  0.00     0.344 HD
ENDBRANCH   3   4
ENDBRANCH   2   3
ENDBRANCH   1   2
BRANCH   1   8
ATOM      8  C   UNL     1     -11.741 -41.549  -7.193  1.00  0.00     0.072 C 
BRANCH   8   9
ATOM      9  C   UNL     1     -12.721 -41.866  -8.346  1.00  0.00     0.227 C 
BRANCH   9  10
ATOM     10  N   UNL     1     -13.804 -42.762  -7.915  1.00  0.00    -0.350 N 
ATOM     11  H   UNL     1     -13.822 -43.631  -8.499  1.00  0.00     0.345 HD
ATOM     12  H   UNL     1     -14.725 -42.274  -8.001  1.00  0.00     0.345 HD
ATOM     13  H   UNL     1     -13.680 -43.021  -6.911  1.00  0.00     0.345 HD
ENDBRANCH   9  10
BRANCH   9  14
ATOM     14  C   UNL     1     -11.967 -42.480  -9.497  1.00  0.00     0.099 C 
ATOM     15  O   UNL     1     -11.953 -43.728  -9.658  1.00  0.00    -0.544 OA
ATOM     16  O   UNL     1     -11.264 -41.668 -10.377  1.00  0.00    -0.544 OA
ENDBRANCH   9  14
ENDBRANCH   8   9
ENDBRANCH   1   8
TORSDOF 7
ENDMDL
MODEL 7
REMARK VINA RESULT:    -4.359      2.188      2.512
REMARK INTER + INTRA:          -5.964
REMARK INTER:                  -5.562
REMARK INTRA:                  -0.402
REMARK UNBOUND:                -0.076
REMARK SMILES [NH3+]CCCC[C@H]([NH3+])C(=O)[O-]
REMARK SMILES IDX 4 1 3 2 2 3 1 4 5 8 6 9 7 10 8 14 9 15 10 16
REMARK H PARENT 1 5 1 6 1 7 7 11 7 12 7 13
REMARK Flexibility Score: inf
ROOT
ATOM      1  C   UNL     1     -10.059 -41.663  -9.491  1.00  0.00     0.012 C 
ENDROOT
BRANCH   1   2
ATOM      2  C   UNL     1     -11.238 -42.232  -8.685  1.00  0.00     0.061 C 
BRANCH   2   3
ATOM      3  C   UNL     1     -11.223 -41.786  -7.213  1.00  0.00     0.258 C 
BRANCH   3   4
ATOM      4  N   UNL     1     -11.502 -40.355  -7.100  1.00  0.00    -0.358 N 
ATOM      5  H   UNL     1     -10.615 -39.829  -6.925  1.00  0.00     0.344 HD
ATOM      6  H   UNL     1     -11.925 -40.018  -7.995  1.00  0.00     0.344 HD
ATOM      7  H   UNL     1     -12.178 -40.180  -6.321  1.00  0.00     0.344 HD
ENDBRANCH   3   4
ENDBRANCH   2   3
ENDBRANCH   1   2
BRANCH   1   8
ATOM      8  C   UNL     1      -8.713 -41.830  -8.765  1.00  0.00     0.072 C 
BRANCH   8   9
ATOM      9  C   UNL     1      -7.666 -40.781  -9.203  1.00  0.00     0.227 C 
BRANCH   9  10
ATOM     10  N   UNL     1      -6.328 -41.088  -8.677  1.00  0.00    -0.350 N 
ATOM     11  H   UNL     1      -5.663 -40.303  -8.869  1.00  0.00     0.345 HD
ATOM     12  H   UNL     1      -5.962 -41.961  -9.122  1.00  0.00     0.345 HD
ATOM     13  H   UNL     1      -6.375 -41.259  -7.647  1.00  0.00     0.345 HD
ENDBRANCH   9  10
BRANCH   9  14
ATOM     14  C   UNL     1      -8.100 -39.412  -8.748  1.00  0.00     0.099 C 
ATOM     15  O   UNL     1      -8.656 -39.257  -7.628  1.00  0.00    -0.544 OA
ATOM     16  O   UNL     1      -7.905 -38.312  -9.574  1.00  0.00    -0.544 OA
ENDBRANCH   9  14
ENDBRANCH   8   9
ENDBRANCH   1   8
TORSDOF 7
ENDMDL
MODEL 8
REMARK VINA RESULT:    -4.319      1.855      2.292
REMARK INTER + INTRA:          -5.909
REMARK INTER:                  -5.568
REMARK INTRA:                  -0.342
REMARK UNBOUND:                -0.076
REMARK SMILES [NH3+]CCCC[C@H]([NH3+])C(=O)[O-]
REMARK SMILES IDX 4 1 3 2 2 3 1 4 5 8 6 9 7 10 8 14 9 15 10 16
REMARK H PARENT 1 5 1 6 1 7 7 11 7 12 7 13
REMARK Flexibility Score: inf
ROOT
ATOM      1  C   UNL     1     -11.477 -41.850  -7.219  1.00  0.00     0.012 C 
ENDROOT
BRANCH   1   2
ATOM      2  C   UNL     1     -12.740 -42.323  -7.957  1.00  0.00     0.061 C 
BRANCH   2   3
ATOM      3  C   UNL     1     -12.451 -42.786  -9.395  1.00  0.00     0.258 C 
BRANCH   3   4
ATOM      4  N   UNL     1     -11.186 -43.517  -9.461  1.00  0.00    -0.358 N 
ATOM      5  H   UNL     1     -10.403 -42.910  -9.125  1.00  0.00     0.344 HD
ATOM      6  H   UNL     1     -11.246 -44.361  -8.847  1.00  0.00     0.344 HD
ATOM      7  H   UNL     1     -11.000 -43.826 -10.442  1.00  0.00     0.344 HD
ENDBRANCH   3   4
ENDBRANCH   2   3
ENDBRANCH   1   2
BRANCH   1   8
ATOM      8  C   UNL     1     -11.119 -40.388  -7.538  1.00  0.00     0.072 C 
BRANCH   8   9
ATOM      9  C   UNL     1      -9.601 -40.114  -7.448  1.00  0.00     0.227 C 
BRANCH   9  10
ATOM     10  N   UNL     1      -9.316 -38.790  -6.876  1.00  0.00    -0.350 N 
ATOM     11  H   UNL     1      -8.802 -38.880  -5.968  1.00  0.00     0.345 HD
ATOM     12  H   UNL     1     -10.210 -38.273  -6.711  1.00  0.00     0.345 HD
ATOM     13  H   UNL     1      -8.746 -38.223  -7.543  1.00  0.00     0.345 HD
ENDBRANCH   9  10
BRANCH   9  14
ATOM     14  C   UNL     1      -8.983 -40.230  -8.817  1.00  0.00     0.099 C 
ATOM     15  O   UNL     1      -9.335 -41.151  -9.600  1.00  0.00    -0.544 OA
ATOM     16  O   UNL     1      -8.003 -39.330  -9.215  1.00  0.00    -0.544 OA
ENDBRANCH   9  14
ENDBRANCH   8   9
ENDBRANCH   1   8
TORSDOF 7
ENDMDL
MODEL 9
REMARK VINA RESULT:    -4.263      3.026      4.865
REMARK INTER + INTRA:          -5.834
REMARK INTER:                  -5.596
REMARK INTRA:                  -0.239
REMARK UNBOUND:                -0.076
REMARK SMILES [NH3+]CCCC[C@H]([NH3+])C(=O)[O-]
REMARK SMILES IDX 4 1 3 2 2 3 1 4 5 8 6 9 7 10 8 14 9 15 10 16
REMARK H PARENT 1 5 1 6 1 7 7 11 7 12 7 13
REMARK Flexibility Score: inf
ROOT
ATOM      1  C   UNL     1      -7.913 -41.703  -8.752  1.00  0.00     0.012 C 
ENDROOT
BRANCH   1   2
ATOM      2  C   UNL     1      -7.493 -40.267  -9.104  1.00  0.00     0.061 C 
BRANCH   2   3
ATOM      3  C   UNL     1      -8.437 -39.208  -8.511  1.00  0.00     0.258 C 
BRANCH   3   4
ATOM      4  N   UNL     1      -8.816 -38.223  -9.524  1.00  0.00    -0.358 N 
ATOM      5  H   UNL     1      -9.470 -38.654 -10.217  1.00  0.00     0.344 HD
ATOM      6  H   UNL     1      -9.296 -37.421  -9.058  1.00  0.00     0.344 HD
ATOM      7  H   UNL     1      -7.964 -37.867 -10.015  1.00  0.00     0.344 HD
ENDBRANCH   3   4
ENDBRANCH   2   3
ENDBRANCH   1   2
BRANCH   1   8
ATOM      8  C   UNL     1      -9.207 -41.753  -7.921  1.00  0.00     0.072 C 
BRANCH   8   9
ATOM      9  C   UNL     1     -10.366 -42.454  -8.666  1.00  0.00     0.227 C 
BRANCH   9  10
ATOM     10  N   UNL     1     -10.139 -42.495 -10.118  1.00  0.00    -0.350 N 
ATOM     11  H   UNL     1      -9.264 -43.024 -10.343  1.00  0.00     0.345 HD
ATOM     12  H   UNL     1     -10.056 -41.522 -10.494  1.00  0.00     0.345 HD
ATOM     13  H   UNL     1     -10.950 -42.947 -10.597  1.00  0.00     0.345 HD
ENDBRANCH   9  10
BRANCH   9  14
ATOM     14  C   UNL     1     -11.662 -41.750  -8.364  1.00  0.00     0.099 C 
ATOM     15  O   UNL     1     -12.760 -42.245  -8.734  1.00  0.00    -0.544 OA
ATOM     16  O   UNL     1     -11.651 -40.535  -7.691  1.00  0.00    -0.544 OA
ENDBRANCH   9  14
ENDBRANCH   8   9
ENDBRANCH   1   8
TORSDOF 7
ENDMDL
