MODEL 1
REMARK VINA RESULT:    -5.015      0.000      0.000
REMARK INTER + INTRA:          -6.189
REMARK INTER:                  -6.041
REMARK INTRA:                  -0.149
REMARK UNBOUND:                -0.149
REMARK SMILES [NH3+][C@@H](Cc1cnc[nH]1)C(=O)[O-]
REMARK SMILES IDX 3 1 2 2 1 3 9 7 10 8 11 9 4 10 5 11 8 12 6 13 7 14
REMARK H PARENT 1 4 1 5 1 6 8 15
REMARK Flexibility Score: inf
ROOT
ATOM      1  C   UNL     1     -24.918 -22.226 -13.916  1.00  0.00     0.127 C 
ENDROOT
BRANCH   1   2
ATOM      2  C   UNL     1     -24.121 -23.193 -14.813  1.00  0.00     0.233 C 
BRANCH   2   3
ATOM      3  N   UNL     1     -24.692 -23.229 -16.164  1.00  0.00    -0.350 N 
ATOM      4  H   UNL     1     -24.879 -22.254 -16.494  1.00  0.00     0.345 HD
ATOM      5  H   UNL     1     -24.012 -23.672 -16.825  1.00  0.00     0.345 HD
ATOM      6  H   UNL     1     -25.586 -23.772 -16.174  1.00  0.00     0.345 HD
ENDBRANCH   2   3
BRANCH   2   7
ATOM      7  C   UNL     1     -24.102 -24.581 -14.223  1.00  0.00     0.099 C 
ATOM      8  O   UNL     1     -23.562 -25.529 -14.852  1.00  0.00    -0.544 OA
ATOM      9  O   UNL     1     -24.668 -24.821 -12.976  1.00  0.00    -0.544 OA
ENDBRANCH   2   7
ENDBRANCH   1   2
BRANCH   1  10
ATOM     10  C   UNL     1     -24.278 -20.870 -13.860  1.00  0.00     0.041 A 
ATOM     11  C   UNL     1     -24.928 -19.658 -13.838  1.00  0.00     0.134 A 
ATOM     12  N   UNL     1     -22.956 -20.648 -13.911  1.00  0.00    -0.348 N 
ATOM     13  N   UNL     1     -24.014 -18.667 -13.861  1.00  0.00    -0.245 NA
ATOM     14  C   UNL     1     -22.826 -19.307 -13.904  1.00  0.00     0.196 A 
ATOM     15  H   UNL     1     -22.190 -21.357 -13.959  1.00  0.00     0.167 HD
ENDBRANCH   1  10
TORSDOF 4
ENDMDL
MODEL 2
REMARK VINA RESULT:    -4.923      1.057      1.473
REMARK INTER + INTRA:          -6.079
REMARK INTER:                  -5.913
REMARK INTRA:                  -0.166
REMARK UNBOUND:                -0.149
REMARK SMILES [NH3+][C@@H](Cc1cnc[nH]1)C(=O)[O-]
REMARK SMILES IDX 3 1 2 2 1 3 9 7 10 8 11 9 4 10 5 11 8 12 6 13 7 14
REMARK H PARENT 1 4 1 5 1 6 8 15
REMARK Flexibility Score: inf
ROOT
ATOM      1  C   UNL     1     -25.259 -22.300 -13.775  1.00  0.00     0.127 C 
ENDROOT
BRANCH   1   2
ATOM      2  C   UNL     1     -24.668 -23.300 -14.788  1.00  0.00     0.233 C 
BRANCH   2   3
ATOM      3  N   UNL     1     -25.603 -23.521 -15.897  1.00  0.00    -0.350 N 
ATOM      4  H   UNL     1     -25.725 -24.548 -16.057  1.00  0.00     0.345 HD
ATOM      5  H   UNL     1     -26.538 -23.115 -15.659  1.00  0.00     0.345 HD
ATOM      6  H   UNL     1     -25.248 -23.077 -16.775  1.00  0.00     0.345 HD
ENDBRANCH   2   3
BRANCH   2   7
ATOM      7  C   UNL     1     -24.340 -24.611 -14.119  1.00  0.00     0.099 C 
ATOM      8  O   UNL     1     -24.748 -24.845 -12.951  1.00  0.00    -0.544 OA
ATOM      9  O   UNL     1     -23.598 -25.575 -14.792  1.00  0.00    -0.544 OA
ENDBRANCH   2   7
ENDBRANCH   1   2
BRANCH   1  10
ATOM     10  C   UNL     1     -24.223 -21.331 -13.285  1.00  0.00     0.041 A 
ATOM     11  C   UNL     1     -24.213 -20.689 -12.068  1.00  0.00     0.134 A 
ATOM     12  N   UNL     1     -23.189 -20.887 -14.014  1.00  0.00    -0.348 N 
ATOM     13  N   UNL     1     -23.162 -19.846 -12.024  1.00  0.00    -0.245 NA
ATOM     14  C   UNL     1     -22.562 -19.995 -13.224  1.00  0.00     0.196 A 
ATOM     15  H   UNL     1     -22.929 -21.161 -14.988  1.00  0.00     0.167 HD
ENDBRANCH   1  10
TORSDOF 4
ENDMDL
MODEL 3
REMARK VINA RESULT:    -4.765      1.739      1.966
REMARK INTER + INTRA:          -5.888
REMARK INTER:                  -5.720
REMARK INTRA:                  -0.169
REMARK UNBOUND:                -0.149
REMARK SMILES [NH3+][C@@H](Cc1cnc[nH]1)C(=O)[O-]
REMARK SMILES IDX 3 1 2 2 1 3 9 7 10 8 11 9 4 10 5 11 8 12 6 13 7 14
REMARK H PARENT 1 4 1 5 1 6 8 15
REMARK Flexibility Score: inf
ROOT
ATOM      1  C   UNL     1     -23.097 -22.917 -13.469  1.00  0.00     0.127 C 
ENDROOT
BRANCH   1   2
ATOM      2  C   UNL     1     -24.427 -23.627 -13.789  1.00  0.00     0.233 C 
BRANCH   2   3
ATOM      3  N   UNL     1     -24.623 -24.776 -12.896  1.00  0.00    -0.350 N 
ATOM      4  H   UNL     1     -25.526 -25.252 -13.127  1.00  0.00     0.345 HD
ATOM      5  H   UNL     1     -23.848 -25.465 -13.029  1.00  0.00     0.345 HD
ATOM      6  H   UNL     1     -24.644 -24.468 -11.896  1.00  0.00     0.345 HD
ENDBRANCH   2   3
BRANCH   2   7
ATOM      7  C   UNL     1     -24.463 -24.079 -15.227  1.00  0.00     0.099 C 
ATOM      8  O   UNL     1     -24.580 -23.233 -16.153  1.00  0.00    -0.544 OA
ATOM      9  O   UNL     1     -24.352 -25.428 -15.542  1.00  0.00    -0.544 OA
ENDBRANCH   2   7
ENDBRANCH   1   2
BRANCH   1  10
ATOM     10  C   UNL     1     -23.286 -21.438 -13.303  1.00  0.00     0.041 A 
ATOM     11  C   UNL     1     -24.216 -20.816 -12.503  1.00  0.00     0.134 A 
ATOM     12  N   UNL     1     -22.615 -20.502 -13.992  1.00  0.00    -0.348 N 
ATOM     13  N   UNL     1     -24.124 -19.482 -12.676  1.00  0.00    -0.245 NA
ATOM     14  C   UNL     1     -23.140 -19.329 -13.587  1.00  0.00     0.196 A 
ATOM     15  H   UNL     1     -21.860 -20.647 -14.698  1.00  0.00     0.167 HD
ENDBRANCH   1  10
TORSDOF 4
ENDMDL
MODEL 4
REMARK VINA RESULT:    -4.717      2.455      4.605
REMARK INTER + INTRA:          -5.830
REMARK INTER:                  -5.554
REMARK INTRA:                  -0.276
REMARK UNBOUND:                -0.149
REMARK SMILES [NH3+][C@@H](Cc1cnc[nH]1)C(=O)[O-]
REMARK SMILES IDX 3 1 2 2 1 3 9 7 10 8 11 9 4 10 5 11 8 12 6 13 7 14
REMARK H PARENT 1 4 1 5 1 6 8 15
REMARK Flexibility Score: inf
ROOT
ATOM      1  C   UNL     1     -22.974 -22.584 -13.565  1.00  0.00     0.127 C 
ENDROOT
BRANCH   1   2
ATOM      2  C   UNL     1     -23.437 -21.115 -13.592  1.00  0.00     0.233 C 
BRANCH   2   3
ATOM      3  N   UNL     1     -22.291 -20.219 -13.789  1.00  0.00    -0.350 N 
ATOM      4  H   UNL     1     -21.981 -20.256 -14.788  1.00  0.00     0.345 HD
ATOM      5  H   UNL     1     -22.568 -19.234 -13.571  1.00  0.00     0.345 HD
ATOM      6  H   UNL     1     -21.493 -20.497 -13.172  1.00  0.00     0.345 HD
ENDBRANCH   2   3
BRANCH   2   7
ATOM      7  C   UNL     1     -24.160 -20.756 -12.318  1.00  0.00     0.099 C 
ATOM      8  O   UNL     1     -25.380 -21.036 -12.183  1.00  0.00    -0.544 OA
ATOM      9  O   UNL     1     -23.482 -20.127 -11.280  1.00  0.00    -0.544 OA
ENDBRANCH   2   7
ENDBRANCH   1   2
BRANCH   1  10
ATOM     10  C   UNL     1     -23.984 -23.493 -14.202  1.00  0.00     0.041 A 
ATOM     11  C   UNL     1     -23.846 -24.845 -14.421  1.00  0.00     0.134 A 
ATOM     12  N   UNL     1     -25.148 -23.088 -14.732  1.00  0.00    -0.348 N 
ATOM     13  N   UNL     1     -24.933 -25.297 -15.079  1.00  0.00    -0.245 NA
ATOM     14  C   UNL     1     -25.702 -24.201 -15.250  1.00  0.00     0.196 A 
ATOM     15  H   UNL     1     -25.538 -22.119 -14.753  1.00  0.00     0.167 HD
ENDBRANCH   1  10
TORSDOF 4
ENDMDL
MODEL 5
REMARK VINA RESULT:    -4.604      3.154      4.835
REMARK INTER + INTRA:          -5.695
REMARK INTER:                  -5.528
REMARK INTRA:                  -0.167
REMARK UNBOUND:                -0.149
REMARK SMILES [NH3+][C@@H](Cc1cnc[nH]1)C(=O)[O-]
REMARK SMILES IDX 3 1 2 2 1 3 9 7 10 8 11 9 4 10 5 11 8 12 6 13 7 14
REMARK H PARENT 1 4 1 5 1 6 8 15
REMARK Flexibility Score: inf
ROOT
ATOM      1  C   UNL     1     -22.611 -20.895 -13.644  1.00  0.00     0.127 C 
ENDROOT
BRANCH   1   2
ATOM      2  C   UNL     1     -23.587 -19.709 -13.761  1.00  0.00     0.233 C 
BRANCH   2   3
ATOM      3  N   UNL     1     -23.171 -18.806 -14.841  1.00  0.00    -0.350 N 
ATOM      4  H   UNL     1     -23.783 -18.949 -15.677  1.00  0.00     0.345 HD
ATOM      5  H   UNL     1     -23.270 -17.812 -14.531  1.00  0.00     0.345 HD
ATOM      6  H   UNL     1     -22.176 -18.985 -15.110  1.00  0.00     0.345 HD
ENDBRANCH   2   3
BRANCH   2   7
ATOM      7  C   UNL     1     -23.674 -18.952 -12.460  1.00  0.00     0.099 C 
ATOM      8  O   UNL     1     -23.932 -17.720 -12.460  1.00  0.00    -0.544 OA
ATOM      9  O   UNL     1     -23.483 -19.613 -11.252  1.00  0.00    -0.544 OA
ENDBRANCH   2   7
ENDBRANCH   1   2
BRANCH   1  10
ATOM     10  C   UNL     1     -23.314 -22.209 -13.818  1.00  0.00     0.041 A 
ATOM     11  C   UNL     1     -23.431 -23.206 -12.877  1.00  0.00     0.134 A 
ATOM     12  N   UNL     1     -23.862 -22.634 -14.966  1.00  0.00    -0.348 N 
ATOM     13  N   UNL     1     -24.068 -24.259 -13.428  1.00  0.00    -0.245 NA
ATOM     14  C   UNL     1     -24.315 -23.874 -14.698  1.00  0.00     0.196 A 
ATOM     15  H   UNL     1     -23.917 -22.124 -15.876  1.00  0.00     0.167 HD
ENDBRANCH   1  10
TORSDOF 4
ENDMDL
MODEL 6
REMARK VINA RESULT:    -4.581      2.748      4.526
REMARK INTER + INTRA:          -5.667
REMARK INTER:                  -5.763
REMARK INTRA:                   0.096
REMARK UNBOUND:                -0.149
REMARK SMILES [NH3+][C@@H](Cc1cnc[nH]1)C(=O)[O-]
REMARK SMILES IDX 3 1 2 2 1 3 9 7 10 8 11 9 4 10 5 11 8 12 6 13 7 14
REMARK H PARENT 1 4 1 5 1 6 8 15
REMARK Flexibility Score: inf
ROOT
ATOM      1  C   UNL     1     -25.370 -21.929 -13.236  1.00  0.00     0.127 C 
ENDROOT
BRANCH   1   2
ATOM      2  C   UNL     1     -25.125 -20.801 -14.257  1.00  0.00     0.233 C 
BRANCH   2   3
ATOM      3  N   UNL     1     -25.025 -21.350 -15.614  1.00  0.00    -0.350 N 
ATOM      4  H   UNL     1     -25.971 -21.652 -15.944  1.00  0.00     0.345 HD
ATOM      5  H   UNL     1     -24.671 -20.614 -16.269  1.00  0.00     0.345 HD
ATOM      6  H   UNL     1     -24.376 -22.171 -15.635  1.00  0.00     0.345 HD
ENDBRANCH   2   3
BRANCH   2   7
ATOM      7  C   UNL     1     -23.873 -20.031 -13.917  1.00  0.00     0.099 C 
ATOM      8  O   UNL     1     -23.158 -20.385 -12.943  1.00  0.00    -0.544 OA
ATOM      9  O   UNL     1     -23.494 -18.936 -14.685  1.00  0.00    -0.544 OA
ENDBRANCH   2   7
ENDBRANCH   1   2
BRANCH   1  10
ATOM     10  C   UNL     1     -24.922 -23.260 -13.765  1.00  0.00     0.041 A 
ATOM     11  C   UNL     1     -23.633 -23.742 -13.781  1.00  0.00     0.134 A 
ATOM     12  N   UNL     1     -25.721 -24.143 -14.383  1.00  0.00    -0.348 N 
ATOM     13  N   UNL     1     -23.620 -24.941 -14.400  1.00  0.00    -0.245 NA
ATOM     14  C   UNL     1     -24.907 -25.151 -14.750  1.00  0.00     0.196 A 
ATOM     15  H   UNL     1     -26.748 -24.064 -14.555  1.00  0.00     0.167 HD
ENDBRANCH   1  10
TORSDOF 4
ENDMDL
MODEL 7
REMARK VINA RESULT:    -4.428      3.667      4.954
REMARK INTER + INTRA:          -5.482
REMARK INTER:                  -5.329
REMARK INTRA:                  -0.153
REMARK UNBOUND:                -0.149
REMARK SMILES [NH3+][C@@H](Cc1cnc[nH]1)C(=O)[O-]
REMARK SMILES IDX 3 1 2 2 1 3 9 7 10 8 11 9 4 10 5 11 8 12 6 13 7 14
REMARK H PARENT 1 4 1 5 1 6 8 15
REMARK Flexibility Score: inf
ROOT
ATOM      1  C   UNL     1     -23.621 -17.330 -13.291  1.00  0.00     0.127 C 
ENDROOT
BRANCH   1   2
ATOM      2  C   UNL     1     -22.875 -18.569 -13.825  1.00  0.00     0.233 C 
BRANCH   2   3
ATOM      3  N   UNL     1     -23.383 -18.943 -15.150  1.00  0.00    -0.350 N 
ATOM      4  H   UNL     1     -23.146 -18.195 -15.843  1.00  0.00     0.345 HD
ATOM      5  H   UNL     1     -22.933 -19.833 -15.464  1.00  0.00     0.345 HD
ATOM      6  H   UNL     1     -24.422 -19.071 -15.125  1.00  0.00     0.345 HD
ENDBRANCH   2   3
BRANCH   2   7
ATOM      7  C   UNL     1     -23.010 -19.730 -12.872  1.00  0.00     0.099 C 
ATOM      8  O   UNL     1     -23.031 -20.910 -13.313  1.00  0.00    -0.544 OA
ATOM      9  O   UNL     1     -23.099 -19.508 -11.503  1.00  0.00    -0.544 OA
ENDBRANCH   2   7
ENDBRANCH   1   2
BRANCH   1  10
ATOM     10  C   UNL     1     -23.288 -16.100 -14.082  1.00  0.00     0.041 A 
ATOM     11  C   UNL     1     -24.183 -15.194 -14.603  1.00  0.00     0.134 A 
ATOM     12  N   UNL     1     -22.051 -15.754 -14.470  1.00  0.00    -0.348 N 
ATOM     13  N   UNL     1     -23.509 -14.266 -15.311  1.00  0.00    -0.245 NA
ATOM     14  C   UNL     1     -22.215 -14.638 -15.206  1.00  0.00     0.196 A 
ATOM     15  H   UNL     1     -21.154 -16.247 -14.260  1.00  0.00     0.167 HD
ENDBRANCH   1  10
TORSDOF 4
ENDMDL
MODEL 8
REMARK VINA RESULT:    -4.382      3.247      4.999
REMARK INTER + INTRA:          -5.427
REMARK INTER:                  -5.287
REMARK INTRA:                  -0.139
REMARK UNBOUND:                -0.149
REMARK SMILES [NH3+][C@@H](Cc1cnc[nH]1)C(=O)[O-]
REMARK SMILES IDX 3 1 2 2 1 3 9 7 10 8 11 9 4 10 5 11 8 12 6 13 7 14
REMARK H PARENT 1 4 1 5 1 6 8 15
REMARK Flexibility Score: inf
ROOT
ATOM      1  C   UNL     1     -24.973 -20.697 -13.510  1.00  0.00     0.127 C 
ENDROOT
BRANCH   1   2
ATOM      2  C   UNL     1     -24.101 -19.555 -14.070  1.00  0.00     0.233 C 
BRANCH   2   3
ATOM      3  N   UNL     1     -22.685 -19.941 -14.064  1.00  0.00    -0.350 N 
ATOM      4  H   UNL     1     -22.446 -20.424 -14.961  1.00  0.00     0.345 HD
ATOM      5  H   UNL     1     -22.085 -19.087 -13.984  1.00  0.00     0.345 HD
ATOM      6  H   UNL     1     -22.479 -20.583 -13.264  1.00  0.00     0.345 HD
ENDBRANCH   2   3
BRANCH   2   7
ATOM      7  C   UNL     1     -24.296 -18.290 -13.273  1.00  0.00     0.099 C 
ATOM      8  O   UNL     1     -24.475 -18.348 -12.028  1.00  0.00    -0.544 OA
ATOM      9  O   UNL     1     -24.264 -17.052 -13.905  1.00  0.00    -0.544 OA
ENDBRANCH   2   7
ENDBRANCH   1   2
BRANCH   1  10
ATOM     10  C   UNL     1     -24.773 -21.971 -14.277  1.00  0.00     0.041 A 
ATOM     11  C   UNL     1     -24.214 -23.134 -13.799  1.00  0.00     0.134 A 
ATOM     12  N   UNL     1     -25.041 -22.126 -15.582  1.00  0.00    -0.348 N 
ATOM     13  N   UNL     1     -24.141 -24.032 -14.803  1.00  0.00    -0.245 NA
ATOM     14  C   UNL     1     -24.654 -23.384 -15.870  1.00  0.00     0.196 A 
ATOM     15  H   UNL     1     -25.449 -21.424 -16.238  1.00  0.00     0.167 HD
ENDBRANCH   1  10
TORSDOF 4
ENDMDL
MODEL 9
REMARK VINA RESULT:    -4.366      3.273      4.081
REMARK INTER + INTRA:          -5.407
REMARK INTER:                  -5.219
REMARK INTRA:                  -0.188
REMARK UNBOUND:                -0.149
REMARK SMILES [NH3+][C@@H](Cc1cnc[nH]1)C(=O)[O-]
REMARK SMILES IDX 3 1 2 2 1 3 9 7 10 8 11 9 4 10 5 11 8 12 6 13 7 14
REMARK H PARENT 1 4 1 5 1 6 8 15
REMARK Flexibility Score: inf
ROOT
ATOM      1  C   UNL     1     -23.954 -19.219 -14.451  1.00  0.00     0.127 C 
ENDROOT
BRANCH   1   2
ATOM      2  C   UNL     1     -23.046 -19.989 -13.471  1.00  0.00     0.233 C 
BRANCH   2   3
ATOM      3  N   UNL     1     -22.786 -21.344 -13.971  1.00  0.00    -0.350 N 
ATOM      4  H   UNL     1     -23.287 -22.043 -13.375  1.00  0.00     0.345 HD
ATOM      5  H   UNL     1     -23.143 -21.437 -14.950  1.00  0.00     0.345 HD
ATOM      6  H   UNL     1     -21.761 -21.554 -13.957  1.00  0.00     0.345 HD
ENDBRANCH   2   3
BRANCH   2   7
ATOM      7  C   UNL     1     -23.669 -20.055 -12.100  1.00  0.00     0.099 C 
ATOM      8  O   UNL     1     -23.115 -19.481 -11.125  1.00  0.00    -0.544 OA
ATOM      9  O   UNL     1     -24.865 -20.736 -11.905  1.00  0.00    -0.544 OA
ENDBRANCH   2   7
ENDBRANCH   1   2
BRANCH   1  10
ATOM     10  C   UNL     1     -23.719 -17.739 -14.374  1.00  0.00     0.041 A 
ATOM     11  C   UNL     1     -24.677 -16.753 -14.437  1.00  0.00     0.134 A 
ATOM     12  N   UNL     1     -22.509 -17.160 -14.317  1.00  0.00    -0.348 N 
ATOM     13  N   UNL     1     -24.072 -15.549 -14.406  1.00  0.00    -0.245 NA
ATOM     14  C   UNL     1     -22.755 -15.836 -14.331  1.00  0.00     0.196 A 
ATOM     15  H   UNL     1     -21.578 -17.631 -14.282  1.00  0.00     0.167 HD
ENDBRANCH   1  10
TORSDOF 4
ENDMDL
