MODEL 1
REMARK VINA RESULT:    -6.016      0.000      0.000
REMARK INTER + INTRA:          -6.544
REMARK INTER:                  -6.544
REMARK INTRA:                   0.000
REMARK UNBOUND:                 0.000
REMARK SMILES Cc1cc(O)c2c(c1)C(=O)c1cc(O)cc(O)c1C2=O
REMARK SMILES IDX 1 1 2 2 8 3 7 4 6 5 4 6 3 7 19 8 20 9 18 10 11 11 9 12 10 13
REMARK SMILES IDX 12 14 13 15 15 16 16 17 5 18 17 20 14 22
REMARK H PARENT 5 19 17 21 14 23
REMARK Flexibility Score: inf
ROOT
ATOM      1  C   UNL     1      18.563  35.893   8.843  1.00  0.00     0.044 C 
ATOM      2  C   UNL     1      19.741  35.421   8.040  1.00  0.00    -0.047 A 
ATOM      3  C   UNL     1      20.629  34.485   8.578  1.00  0.00     0.016 A 
ATOM      4  C   UNL     1      21.710  34.005   7.818  1.00  0.00     0.038 A 
ATOM      5  C   UNL     1      21.888  34.450   6.489  1.00  0.00     0.076 A 
ATOM      6  C   UNL     1      21.010  35.434   5.965  1.00  0.00     0.127 A 
ATOM      7  C   UNL     1      19.931  35.881   6.733  1.00  0.00     0.050 A 
ATOM      8  C   UNL     1      22.952  33.810   5.671  1.00  0.00     0.201 C 
ATOM      9  O   UNL     1      22.811  33.714   4.423  1.00  0.00    -0.288 OA
ATOM     10  C   UNL     1      24.083  33.120   6.342  1.00  0.00     0.076 A 
ATOM     11  C   UNL     1      23.901  32.677   7.672  1.00  0.00     0.041 A 
ATOM     12  C   UNL     1      22.665  33.036   8.407  1.00  0.00     0.194 C 
ATOM     13  O   UNL     1      22.439  32.538   9.544  1.00  0.00    -0.289 OA
ATOM     14  C   UNL     1      24.894  31.901   8.293  1.00  0.00     0.059 A 
ATOM     15  C   UNL     1      26.070  31.576   7.611  1.00  0.00     0.120 A 
ATOM     16  C   UNL     1      26.271  32.046   6.313  1.00  0.00     0.093 A 
ATOM     17  C   UNL     1      25.307  32.836   5.681  1.00  0.00     0.131 A 
ENDROOT
BRANCH   6  18
ATOM     18  O   UNL     1      21.191  36.015   4.708  1.00  0.00    -0.507 OA
ATOM     19  H   UNL     1      22.099  36.201   4.303  1.00  0.00     0.293 HD
ENDBRANCH   6  18
BRANCH  17  20
ATOM     20  O   UNL     1      25.617  33.345   4.418  1.00  0.00    -0.507 OA
ATOM     21  H   UNL     1      24.949  33.818   3.825  1.00  0.00     0.293 HD
ENDBRANCH  17  20
BRANCH  15  22
ATOM     22  O   UNL     1      27.052  30.797   8.218  1.00  0.00    -0.508 OA
ATOM     23  H   UNL     1      27.962  30.663   7.792  1.00  0.00     0.293 HD
ENDBRANCH  15  22
TORSDOF 3
ENDMDL
MODEL 2
REMARK VINA RESULT:    -5.957      1.752      3.628
REMARK INTER + INTRA:          -6.479
REMARK INTER:                  -6.479
REMARK INTRA:                   0.000
REMARK UNBOUND:                 0.000
REMARK SMILES Cc1cc(O)c2c(c1)C(=O)c1cc(O)cc(O)c1C2=O
REMARK SMILES IDX 1 1 2 2 8 3 7 4 6 5 4 6 3 7 19 8 20 9 18 10 11 11 9 12 10 13
REMARK SMILES IDX 12 14 13 15 15 16 16 17 5 18 17 20 14 22
REMARK H PARENT 5 19 17 21 14 23
REMARK Flexibility Score: inf
ROOT
ATOM      1  C   UNL     1      17.491  37.379   4.736  1.00  0.00     0.044 C 
ATOM      2  C   UNL     1      18.448  36.544   5.537  1.00  0.00    -0.047 A 
ATOM      3  C   UNL     1      19.725  36.265   5.039  1.00  0.00     0.016 A 
ATOM      4  C   UNL     1      20.643  35.521   5.800  1.00  0.00     0.038 A 
ATOM      5  C   UNL     1      20.286  35.073   7.091  1.00  0.00     0.076 A 
ATOM      6  C   UNL     1      18.974  35.320   7.572  1.00  0.00     0.127 A 
ATOM      7  C   UNL     1      18.085  36.079   6.804  1.00  0.00     0.050 A 
ATOM      8  C   UNL     1      21.332  34.420   7.921  1.00  0.00     0.201 C 
ATOM      9  O   UNL     1      21.290  34.519   9.176  1.00  0.00    -0.288 OA
ATOM     10  C   UNL     1      22.522  33.816   7.268  1.00  0.00     0.076 A 
ATOM     11  C   UNL     1      22.875  34.267   5.976  1.00  0.00     0.041 A 
ATOM     12  C   UNL     1      21.983  35.204   5.251  1.00  0.00     0.194 C 
ATOM     13  O   UNL     1      22.354  35.709   4.157  1.00  0.00    -0.289 OA
ATOM     14  C   UNL     1      24.069  33.823   5.382  1.00  0.00     0.059 A 
ATOM     15  C   UNL     1      24.902  32.925   6.053  1.00  0.00     0.120 A 
ATOM     16  C   UNL     1      24.537  32.445   7.311  1.00  0.00     0.093 A 
ATOM     17  C   UNL     1      23.345  32.857   7.914  1.00  0.00     0.131 A 
ENDROOT
BRANCH   6  18
ATOM     18  O   UNL     1      18.504  34.806   8.783  1.00  0.00    -0.507 OA
ATOM     19  H   UNL     1      19.081  34.291   9.433  1.00  0.00     0.293 HD
ENDBRANCH   6  18
BRANCH  17  20
ATOM     20  O   UNL     1      23.001  32.265   9.132  1.00  0.00    -0.507 OA
ATOM     21  H   UNL     1      22.079  31.907   9.340  1.00  0.00     0.293 HD
ENDBRANCH  17  20
BRANCH  15  22
ATOM     22  O   UNL     1      26.093  32.491   5.473  1.00  0.00    -0.508 OA
ATOM     23  H   UNL     1      26.294  32.650   4.492  1.00  0.00     0.293 HD
ENDBRANCH  15  22
TORSDOF 3
ENDMDL
MODEL 3
REMARK VINA RESULT:    -5.902      1.737      6.344
REMARK INTER + INTRA:          -6.419
REMARK INTER:                  -6.419
REMARK INTRA:                   0.000
REMARK UNBOUND:                 0.000
REMARK SMILES Cc1cc(O)c2c(c1)C(=O)c1cc(O)cc(O)c1C2=O
REMARK SMILES IDX 1 1 2 2 8 3 7 4 6 5 4 6 3 7 19 8 20 9 18 10 11 11 9 12 10 13
REMARK SMILES IDX 12 14 13 15 15 16 16 17 5 18 17 20 14 22
REMARK H PARENT 5 19 17 21 14 23
REMARK Flexibility Score: inf
ROOT
ATOM      1  C   UNL     1      26.253  31.980   4.087  1.00  0.00     0.044 C 
ATOM      2  C   UNL     1      25.241  32.551   5.038  1.00  0.00    -0.047 A 
ATOM      3  C   UNL     1      23.981  32.942   4.573  1.00  0.00     0.016 A 
ATOM      4  C   UNL     1      23.011  33.437   5.463  1.00  0.00     0.038 A 
ATOM      5  C   UNL     1      23.299  33.515   6.843  1.00  0.00     0.076 A 
ATOM      6  C   UNL     1      24.594  33.160   7.302  1.00  0.00     0.127 A 
ATOM      7  C   UNL     1      25.535  32.652   6.401  1.00  0.00     0.050 A 
ATOM      8  C   UNL     1      22.201  33.902   7.768  1.00  0.00     0.201 C 
ATOM      9  O   UNL     1      22.189  33.461   8.948  1.00  0.00    -0.288 OA
ATOM     10  C   UNL     1      21.028  34.650   7.247  1.00  0.00     0.076 A 
ATOM     11  C   UNL     1      20.744  34.570   5.865  1.00  0.00     0.041 A 
ATOM     12  C   UNL     1      21.691  33.879   4.956  1.00  0.00     0.194 C 
ATOM     13  O   UNL     1      21.382  33.692   3.748  1.00  0.00    -0.289 OA
ATOM     14  C   UNL     1      19.568  35.147   5.358  1.00  0.00     0.059 A 
ATOM     15  C   UNL     1      18.684  35.816   6.207  1.00  0.00     0.120 A 
ATOM     16  C   UNL     1      18.980  35.933   7.565  1.00  0.00     0.093 A 
ATOM     17  C   UNL     1      20.153  35.384   8.091  1.00  0.00     0.131 A 
ENDROOT
BRANCH   6  18
ATOM     18  O   UNL     1      24.996  33.325   8.630  1.00  0.00    -0.507 OA
ATOM     19  H   UNL     1      24.782  32.665   9.365  1.00  0.00     0.293 HD
ENDBRANCH   6  18
BRANCH  17  20
ATOM     20  O   UNL     1      20.427  35.620   9.440  1.00  0.00    -0.507 OA
ATOM     21  H   UNL     1      21.258  36.094   9.768  1.00  0.00     0.293 HD
ENDBRANCH  17  20
BRANCH  15  22
ATOM     22  O   UNL     1      17.510  36.380   5.710  1.00  0.00    -0.508 OA
ATOM     23  H   UNL     1      16.717  36.571   6.312  1.00  0.00     0.293 HD
ENDBRANCH  15  22
TORSDOF 3
ENDMDL
MODEL 4
REMARK VINA RESULT:    -5.899      2.817      6.238
REMARK INTER + INTRA:          -6.416
REMARK INTER:                  -6.416
REMARK INTRA:                   0.000
REMARK UNBOUND:                 0.000
REMARK SMILES Cc1cc(O)c2c(c1)C(=O)c1cc(O)cc(O)c1C2=O
REMARK SMILES IDX 1 1 2 2 8 3 7 4 6 5 4 6 3 7 19 8 20 9 18 10 11 11 9 12 10 13
REMARK SMILES IDX 12 14 13 15 15 16 16 17 5 18 17 20 14 22
REMARK H PARENT 5 19 17 21 14 23
REMARK Flexibility Score: inf
ROOT
ATOM      1  C   UNL     1      27.432  28.352   8.138  1.00  0.00     0.044 C 
ATOM      2  C   UNL     1      26.266  28.959   7.413  1.00  0.00    -0.047 A 
ATOM      3  C   UNL     1      26.228  30.335   7.168  1.00  0.00     0.016 A 
ATOM      4  C   UNL     1      25.161  30.906   6.451  1.00  0.00     0.038 A 
ATOM      5  C   UNL     1      24.129  30.082   5.951  1.00  0.00     0.076 A 
ATOM      6  C   UNL     1      24.149  28.693   6.243  1.00  0.00     0.127 A 
ATOM      7  C   UNL     1      25.231  28.146   6.939  1.00  0.00     0.050 A 
ATOM      8  C   UNL     1      23.100  30.700   5.075  1.00  0.00     0.201 C 
ATOM      9  O   UNL     1      22.543  30.012   4.179  1.00  0.00    -0.288 OA
ATOM     10  C   UNL     1      22.867  32.166   5.132  1.00  0.00     0.076 A 
ATOM     11  C   UNL     1      23.902  32.988   5.635  1.00  0.00     0.041 A 
ATOM     12  C   UNL     1      25.115  32.370   6.224  1.00  0.00     0.194 C 
ATOM     13  O   UNL     1      26.094  33.093   6.554  1.00  0.00    -0.289 OA
ATOM     14  C   UNL     1      23.776  34.386   5.576  1.00  0.00     0.059 A 
ATOM     15  C   UNL     1      22.627  34.972   5.040  1.00  0.00     0.120 A 
ATOM     16  C   UNL     1      21.586  34.165   4.580  1.00  0.00     0.093 A 
ATOM     17  C   UNL     1      21.679  32.772   4.645  1.00  0.00     0.131 A 
ENDROOT
BRANCH   6  18
ATOM     18  O   UNL     1      23.107  27.832   5.890  1.00  0.00    -0.507 OA
ATOM     19  H   UNL     1      22.195  27.852   6.325  1.00  0.00     0.293 HD
ENDBRANCH   6  18
BRANCH  17  20
ATOM     20  O   UNL     1      20.562  32.032   4.252  1.00  0.00    -0.507 OA
ATOM     21  H   UNL     1      20.617  31.176   3.717  1.00  0.00     0.293 HD
ENDBRANCH  17  20
BRANCH  15  22
ATOM     22  O   UNL     1      22.503  36.358   4.969  1.00  0.00    -0.508 OA
ATOM     23  H   UNL     1      22.213  36.822   4.116  1.00  0.00     0.293 HD
ENDBRANCH  15  22
TORSDOF 3
ENDMDL
MODEL 5
REMARK VINA RESULT:    -5.718      2.875      3.868
REMARK INTER + INTRA:          -6.220
REMARK INTER:                  -6.220
REMARK INTRA:                   0.000
REMARK UNBOUND:                 0.000
REMARK SMILES Cc1cc(O)c2c(c1)C(=O)c1cc(O)cc(O)c1C2=O
REMARK SMILES IDX 1 1 2 2 8 3 7 4 6 5 4 6 3 7 19 8 20 9 18 10 11 11 9 12 10 13
REMARK SMILES IDX 12 14 13 15 15 16 16 17 5 18 17 20 14 22
REMARK H PARENT 5 19 17 21 14 23
REMARK Flexibility Score: inf
ROOT
ATOM      1  C   UNL     1      22.125  35.829   4.751  1.00  0.00     0.044 C 
ATOM      2  C   UNL     1      22.559  34.395   4.844  1.00  0.00    -0.047 A 
ATOM      3  C   UNL     1      23.504  34.006   5.798  1.00  0.00     0.016 A 
ATOM      4  C   UNL     1      23.884  32.658   5.921  1.00  0.00     0.038 A 
ATOM      5  C   UNL     1      23.288  31.681   5.092  1.00  0.00     0.076 A 
ATOM      6  C   UNL     1      22.365  32.089   4.095  1.00  0.00     0.127 A 
ATOM      7  C   UNL     1      21.987  33.432   4.006  1.00  0.00     0.050 A 
ATOM      8  C   UNL     1      23.606  30.252   5.352  1.00  0.00     0.201 C 
ATOM      9  O   UNL     1      22.752  29.363   5.095  1.00  0.00    -0.288 OA
ATOM     10  C   UNL     1      24.848  29.894   6.086  1.00  0.00     0.076 A 
ATOM     11  C   UNL     1      25.441  30.875   6.913  1.00  0.00     0.041 A 
ATOM     12  C   UNL     1      24.910  32.259   6.914  1.00  0.00     0.194 C 
ATOM     13  O   UNL     1      25.350  33.103   7.742  1.00  0.00    -0.289 OA
ATOM     14  C   UNL     1      26.533  30.534   7.728  1.00  0.00     0.059 A 
ATOM     15  C   UNL     1      27.049  29.236   7.716  1.00  0.00     0.120 A 
ATOM     16  C   UNL     1      26.493  28.276   6.871  1.00  0.00     0.093 A 
ATOM     17  C   UNL     1      25.418  28.595   6.035  1.00  0.00     0.131 A 
ENDROOT
BRANCH   6  18
ATOM     18  O   UNL     1      21.825  31.204   3.159  1.00  0.00    -0.507 OA
ATOM     19  H   UNL     1      20.890  31.288   2.784  1.00  0.00     0.293 HD
ENDBRANCH   6  18
BRANCH  17  20
ATOM     20  O   UNL     1      24.973  27.609   5.152  1.00  0.00    -0.507 OA
ATOM     21  H   UNL     1      24.991  27.710   4.146  1.00  0.00     0.293 HD
ENDBRANCH  17  20
BRANCH  15  22
ATOM     22  O   UNL     1      28.125  28.891   8.531  1.00  0.00    -0.508 OA
ATOM     23  H   UNL     1      28.146  29.138   9.514  1.00  0.00     0.293 HD
ENDBRANCH  15  22
TORSDOF 3
ENDMDL
MODEL 6
REMARK VINA RESULT:    -5.607      2.306      4.533
REMARK INTER + INTRA:          -6.099
REMARK INTER:                  -6.099
REMARK INTRA:                   0.000
REMARK UNBOUND:                 0.000
REMARK SMILES Cc1cc(O)c2c(c1)C(=O)c1cc(O)cc(O)c1C2=O
REMARK SMILES IDX 1 1 2 2 8 3 7 4 6 5 4 6 3 7 19 8 20 9 18 10 11 11 9 12 10 13
REMARK SMILES IDX 12 14 13 15 15 16 16 17 5 18 17 20 14 22
REMARK H PARENT 5 19 17 21 14 23
REMARK Flexibility Score: inf
ROOT
ATOM      1  C   UNL     1      21.751  35.437   4.828  1.00  0.00     0.044 C 
ATOM      2  C   UNL     1      22.563  34.357   5.483  1.00  0.00    -0.047 A 
ATOM      3  C   UNL     1      23.486  33.619   4.735  1.00  0.00     0.016 A 
ATOM      4  C   UNL     1      24.282  32.636   5.349  1.00  0.00     0.038 A 
ATOM      5  C   UNL     1      24.170  32.408   6.739  1.00  0.00     0.076 A 
ATOM      6  C   UNL     1      23.200  33.128   7.483  1.00  0.00     0.127 A 
ATOM      7  C   UNL     1      22.434  34.114   6.854  1.00  0.00     0.050 A 
ATOM      8  C   UNL     1      25.130  31.468   7.375  1.00  0.00     0.201 C 
ATOM      9  O   UNL     1      25.473  31.638   8.575  1.00  0.00    -0.288 OA
ATOM     10  C   UNL     1      25.824  30.449   6.546  1.00  0.00     0.076 A 
ATOM     11  C   UNL     1      25.933  30.681   5.156  1.00  0.00     0.041 A 
ATOM     12  C   UNL     1      25.234  31.837   4.543  1.00  0.00     0.194 C 
ATOM     13  O   UNL     1      25.432  32.123   3.331  1.00  0.00    -0.289 OA
ATOM     14  C   UNL     1      26.700  29.814   4.360  1.00  0.00     0.059 A 
ATOM     15  C   UNL     1      27.343  28.712   4.930  1.00  0.00     0.120 A 
ATOM     16  C   UNL     1      27.205  28.457   6.294  1.00  0.00     0.093 A 
ATOM     17  C   UNL     1      26.432  29.294   7.104  1.00  0.00     0.131 A 
ENDROOT
BRANCH   6  18
ATOM     18  O   UNL     1      22.942  32.875   8.833  1.00  0.00    -0.507 OA
ATOM     19  H   UNL     1      22.871  33.600   9.534  1.00  0.00     0.293 HD
ENDBRANCH   6  18
BRANCH  17  20
ATOM     20  O   UNL     1      26.265  28.924   8.440  1.00  0.00    -0.507 OA
ATOM     21  H   UNL     1      26.701  28.112   8.855  1.00  0.00     0.293 HD
ENDBRANCH  17  20
BRANCH  15  22
ATOM     22  O   UNL     1      28.114  27.856   4.146  1.00  0.00    -0.508 OA
ATOM     23  H   UNL     1      27.840  26.893   3.985  1.00  0.00     0.293 HD
ENDBRANCH  15  22
TORSDOF 3
ENDMDL
MODEL 7
REMARK VINA RESULT:    -5.258      4.166      6.613
REMARK INTER + INTRA:          -5.720
REMARK INTER:                  -5.720
REMARK INTRA:                   0.000
REMARK UNBOUND:                 0.000
REMARK SMILES Cc1cc(O)c2c(c1)C(=O)c1cc(O)cc(O)c1C2=O
REMARK SMILES IDX 1 1 2 2 8 3 7 4 6 5 4 6 3 7 19 8 20 9 18 10 11 11 9 12 10 13
REMARK SMILES IDX 12 14 13 15 15 16 16 17 5 18 17 20 14 22
REMARK H PARENT 5 19 17 21 14 23
REMARK Flexibility Score: inf
ROOT
ATOM      1  C   UNL     1      24.352  24.108   5.469  1.00  0.00     0.044 C 
ATOM      2  C   UNL     1      24.114  25.583   5.621  1.00  0.00    -0.047 A 
ATOM      3  C   UNL     1      25.058  26.385   6.269  1.00  0.00     0.016 A 
ATOM      4  C   UNL     1      24.864  27.774   6.377  1.00  0.00     0.038 A 
ATOM      5  C   UNL     1      23.719  28.370   5.804  1.00  0.00     0.076 A 
ATOM      6  C   UNL     1      22.742  27.545   5.189  1.00  0.00     0.127 A 
ATOM      7  C   UNL     1      22.967  26.170   5.076  1.00  0.00     0.050 A 
ATOM      8  C   UNL     1      23.623  29.854   5.811  1.00  0.00     0.201 C 
ATOM      9  O   UNL     1      23.005  30.446   4.887  1.00  0.00    -0.288 OA
ATOM     10  C   UNL     1      24.412  30.640   6.794  1.00  0.00     0.076 A 
ATOM     11  C   UNL     1      25.557  30.038   7.365  1.00  0.00     0.041 A 
ATOM     12  C   UNL     1      25.856  28.612   7.092  1.00  0.00     0.194 C 
ATOM     13  O   UNL     1      26.940  28.107   7.492  1.00  0.00    -0.289 OA
ATOM     14  C   UNL     1      26.406  30.795   8.191  1.00  0.00     0.059 A 
ATOM     15  C   UNL     1      26.118  32.134   8.467  1.00  0.00     0.120 A 
ATOM     16  C   UNL     1      24.967  32.719   7.938  1.00  0.00     0.093 A 
ATOM     17  C   UNL     1      24.097  31.982   7.129  1.00  0.00     0.131 A 
ENDROOT
BRANCH   6  18
ATOM     18  O   UNL     1      21.528  28.041   4.709  1.00  0.00    -0.507 OA
ATOM     19  H   UNL     1      21.342  29.025   4.570  1.00  0.00     0.293 HD
ENDBRANCH   6  18
BRANCH  17  20
ATOM     20  O   UNL     1      22.920  32.608   6.712  1.00  0.00    -0.507 OA
ATOM     21  H   UNL     1      22.710  32.818   5.746  1.00  0.00     0.293 HD
ENDBRANCH  17  20
BRANCH  15  22
ATOM     22  O   UNL     1      26.963  32.890   9.276  1.00  0.00    -0.508 OA
ATOM     23  H   UNL     1      27.969  32.772   9.250  1.00  0.00     0.293 HD
ENDBRANCH  15  22
TORSDOF 3
ENDMDL
MODEL 8
REMARK VINA RESULT:    -5.164      1.920      3.646
REMARK INTER + INTRA:          -5.617
REMARK INTER:                  -5.617
REMARK INTRA:                   0.000
REMARK UNBOUND:                 0.000
REMARK SMILES Cc1cc(O)c2c(c1)C(=O)c1cc(O)cc(O)c1C2=O
REMARK SMILES IDX 1 1 2 2 8 3 7 4 6 5 4 6 3 7 19 8 20 9 18 10 11 11 9 12 10 13
REMARK SMILES IDX 12 14 13 15 15 16 16 17 5 18 17 20 14 22
REMARK H PARENT 5 19 17 21 14 23
REMARK Flexibility Score: inf
ROOT
ATOM      1  C   UNL     1      19.293  35.445   5.440  1.00  0.00     0.044 C 
ATOM      2  C   UNL     1      20.555  34.718   5.806  1.00  0.00    -0.047 A 
ATOM      3  C   UNL     1      21.330  34.109   4.813  1.00  0.00     0.016 A 
ATOM      4  C   UNL     1      22.535  33.464   5.142  1.00  0.00     0.038 A 
ATOM      5  C   UNL     1      22.983  33.450   6.481  1.00  0.00     0.076 A 
ATOM      6  C   UNL     1      22.170  34.029   7.490  1.00  0.00     0.127 A 
ATOM      7  C   UNL     1      20.986  34.683   7.136  1.00  0.00     0.050 A 
ATOM      8  C   UNL     1      24.330  32.889   6.764  1.00  0.00     0.201 C 
ATOM      9  O   UNL     1      25.005  33.334   7.730  1.00  0.00    -0.288 OA
ATOM     10  C   UNL     1      24.953  31.944   5.802  1.00  0.00     0.076 A 
ATOM     11  C   UNL     1      24.500  31.960   4.462  1.00  0.00     0.041 A 
ATOM     12  C   UNL     1      23.334  32.795   4.087  1.00  0.00     0.194 C 
ATOM     13  O   UNL     1      23.007  32.914   2.875  1.00  0.00    -0.289 OA
ATOM     14  C   UNL     1      25.156  31.183   3.493  1.00  0.00     0.059 A 
ATOM     15  C   UNL     1      26.244  30.380   3.846  1.00  0.00     0.120 A 
ATOM     16  C   UNL     1      26.667  30.329   5.174  1.00  0.00     0.093 A 
ATOM     17  C   UNL     1      26.019  31.078   6.160  1.00  0.00     0.131 A 
ENDROOT
BRANCH   6  18
ATOM     18  O   UNL     1      22.482  33.950   8.849  1.00  0.00    -0.507 OA
ATOM     19  H   UNL     1      21.786  33.937   9.582  1.00  0.00     0.293 HD
ENDBRANCH   6  18
BRANCH  17  20
ATOM     20  O   UNL     1      26.440  30.907   7.481  1.00  0.00    -0.507 OA
ATOM     21  H   UNL     1      25.902  31.206   8.283  1.00  0.00     0.293 HD
ENDBRANCH  17  20
BRANCH  15  22
ATOM     22  O   UNL     1      26.904  29.616   2.886  1.00  0.00    -0.508 OA
ATOM     23  H   UNL     1      27.252  30.028   2.027  1.00  0.00     0.293 HD
ENDBRANCH  15  22
TORSDOF 3
ENDMDL
MODEL 9
REMARK VINA RESULT:    -5.140      1.992      6.085
REMARK INTER + INTRA:          -5.590
REMARK INTER:                  -5.590
REMARK INTRA:                   0.000
REMARK UNBOUND:                 0.000
REMARK SMILES Cc1cc(O)c2c(c1)C(=O)c1cc(O)cc(O)c1C2=O
REMARK SMILES IDX 1 1 2 2 8 3 7 4 6 5 4 6 3 7 19 8 20 9 18 10 11 11 9 12 10 13
REMARK SMILES IDX 12 14 13 15 15 16 16 17 5 18 17 20 14 22
REMARK H PARENT 5 19 17 21 14 23
REMARK Flexibility Score: inf
ROOT
ATOM      1  C   UNL     1      28.115  28.796   8.051  1.00  0.00     0.044 C 
ATOM      2  C   UNL     1      27.205  29.560   7.133  1.00  0.00    -0.047 A 
ATOM      3  C   UNL     1      26.350  30.541   7.646  1.00  0.00     0.016 A 
ATOM      4  C   UNL     1      25.527  31.292   6.789  1.00  0.00     0.038 A 
ATOM      5  C   UNL     1      25.580  31.075   5.394  1.00  0.00     0.076 A 
ATOM      6  C   UNL     1      26.415  30.047   4.884  1.00  0.00     0.127 A 
ATOM      7  C   UNL     1      27.240  29.327   5.755  1.00  0.00     0.050 A 
ATOM      8  C   UNL     1      24.805  31.987   4.512  1.00  0.00     0.201 C 
ATOM      9  O   UNL     1      25.219  32.236   3.348  1.00  0.00    -0.288 OA
ATOM     10  C   UNL     1      23.655  32.748   5.065  1.00  0.00     0.076 A 
ATOM     11  C   UNL     1      23.606  32.962   6.462  1.00  0.00     0.041 A 
ATOM     12  C   UNL     1      24.601  32.308   7.345  1.00  0.00     0.194 C 
ATOM     13  O   UNL     1      24.642  32.596   8.572  1.00  0.00    -0.289 OA
ATOM     14  C   UNL     1      22.612  33.792   7.007  1.00  0.00     0.059 A 
ATOM     15  C   UNL     1      21.660  34.395   6.181  1.00  0.00     0.120 A 
ATOM     16  C   UNL     1      21.680  34.153   4.807  1.00  0.00     0.093 A 
ATOM     17  C   UNL     1      22.647  33.316   4.243  1.00  0.00     0.131 A 
ENDROOT
BRANCH   6  18
ATOM     18  O   UNL     1      26.432  29.688   3.535  1.00  0.00    -0.507 OA
ATOM     19  H   UNL     1      27.277  29.627   2.983  1.00  0.00     0.293 HD
ENDBRANCH   6  18
BRANCH  17  20
ATOM     20  O   UNL     1      22.549  33.048   2.876  1.00  0.00    -0.507 OA
ATOM     21  H   UNL     1      23.212  32.478   2.368  1.00  0.00     0.293 HD
ENDBRANCH  17  20
BRANCH  15  22
ATOM     22  O   UNL     1      20.680  35.228   6.716  1.00  0.00    -0.508 OA
ATOM     23  H   UNL     1      19.852  35.480   6.188  1.00  0.00     0.293 HD
ENDBRANCH  15  22
TORSDOF 3
ENDMDL
