MODEL 1
REMARK VINA RESULT:    -6.060      0.000      0.000
REMARK INTER + INTRA:          -6.238
REMARK INTER:                  -6.238
REMARK INTRA:                   0.000
REMARK UNBOUND:                 0.000
REMARK SMILES O=c1ccc2cc(O)ccc2o1
REMARK SMILES IDX 9 1 10 2 11 3 5 4 4 5 3 6 2 7 1 8 12 9 6 10 7 11 8 12
REMARK H PARENT 8 13
REMARK Flexibility Score: inf
ROOT
ATOM      1  C   UNL     1     -32.104  10.384 -34.379  1.00  0.00     0.050 A 
ATOM      2  C   UNL     1     -32.119   9.826 -35.661  1.00  0.00     0.052 A 
ATOM      3  C   UNL     1     -32.685  10.533 -36.727  1.00  0.00     0.138 A 
ATOM      4  C   UNL     1     -33.241  11.812 -36.503  1.00  0.00     0.021 A 
ATOM      5  C   UNL     1     -33.800  12.494 -37.588  1.00  0.00     0.019 A 
ATOM      6  C   UNL     1     -33.792  11.898 -38.849  1.00  0.00     0.094 A 
ATOM      7  C   UNL     1     -33.224  10.629 -38.995  1.00  0.00     0.336 A 
ATOM      8  O   UNL     1     -33.208  10.074 -40.126  1.00  0.00    -0.246 OA
ATOM      9  O   UNL     1     -32.699  10.001 -37.946  1.00  0.00    -0.423 OA
ATOM     10  C   UNL     1     -33.224  12.368 -35.215  1.00  0.00     0.058 A 
ATOM     11  C   UNL     1     -32.654  11.651 -34.152  1.00  0.00     0.116 A 
ENDROOT
BRANCH  11  12
ATOM     12  O   UNL     1     -32.629  12.190 -32.868  1.00  0.00    -0.508 OA
ATOM     13  H   UNL     1     -31.757  12.370 -32.385  1.00  0.00     0.293 HD
ENDBRANCH  11  12
TORSDOF 1
ENDMDL
MODEL 2
REMARK VINA RESULT:    -5.807      1.046      4.733
REMARK INTER + INTRA:          -5.977
REMARK INTER:                  -5.977
REMARK INTRA:                   0.000
REMARK UNBOUND:                 0.000
REMARK SMILES O=c1ccc2cc(O)ccc2o1
REMARK SMILES IDX 9 1 10 2 11 3 5 4 4 5 3 6 2 7 1 8 12 9 6 10 7 11 8 12
REMARK H PARENT 8 13
REMARK Flexibility Score: inf
ROOT
ATOM      1  C   UNL     1     -33.413  11.503 -38.845  1.00  0.00     0.050 A 
ATOM      2  C   UNL     1     -33.647  12.297 -37.718  1.00  0.00     0.052 A 
ATOM      3  C   UNL     1     -33.164  11.900 -36.467  1.00  0.00     0.138 A 
ATOM      4  C   UNL     1     -32.439  10.694 -36.346  1.00  0.00     0.021 A 
ATOM      5  C   UNL     1     -31.970  10.323 -35.083  1.00  0.00     0.019 A 
ATOM      6  C   UNL     1     -32.228  11.147 -33.987  1.00  0.00     0.094 A 
ATOM      7  C   UNL     1     -32.952  12.328 -34.183  1.00  0.00     0.336 A 
ATOM      8  O   UNL     1     -33.195  13.085 -33.206  1.00  0.00    -0.246 OA
ATOM      9  O   UNL     1     -33.388  12.658 -35.396  1.00  0.00    -0.423 OA
ATOM     10  C   UNL     1     -32.207   9.900 -37.479  1.00  0.00     0.058 A 
ATOM     11  C   UNL     1     -32.696  10.306 -38.730  1.00  0.00     0.116 A 
ENDROOT
BRANCH  11  12
ATOM     12  O   UNL     1     -32.472   9.528 -39.863  1.00  0.00    -0.508 OA
ATOM     13  H   UNL     1     -32.289   9.948 -40.767  1.00  0.00     0.293 HD
ENDBRANCH  11  12
TORSDOF 1
ENDMDL
MODEL 3
REMARK VINA RESULT:    -5.596      1.263      4.344
REMARK INTER + INTRA:          -5.760
REMARK INTER:                  -5.760
REMARK INTRA:                   0.000
REMARK UNBOUND:                 0.000
REMARK SMILES O=c1ccc2cc(O)ccc2o1
REMARK SMILES IDX 9 1 10 2 11 3 5 4 4 5 3 6 2 7 1 8 12 9 6 10 7 11 8 12
REMARK H PARENT 8 13
REMARK Flexibility Score: inf
ROOT
ATOM      1  C   UNL     1     -31.737   9.228 -38.375  1.00  0.00     0.050 A 
ATOM      2  C   UNL     1     -31.503   9.338 -37.001  1.00  0.00     0.052 A 
ATOM      3  C   UNL     1     -32.106  10.365 -36.267  1.00  0.00     0.138 A 
ATOM      4  C   UNL     1     -32.952  11.289 -36.919  1.00  0.00     0.021 A 
ATOM      5  C   UNL     1     -33.539  12.304 -36.159  1.00  0.00     0.019 A 
ATOM      6  C   UNL     1     -33.277  12.375 -34.790  1.00  0.00     0.094 A 
ATOM      7  C   UNL     1     -32.429  11.424 -34.213  1.00  0.00     0.336 A 
ATOM      8  O   UNL     1     -32.180  11.471 -32.980  1.00  0.00    -0.246 OA
ATOM      9  O   UNL     1     -31.882  10.467 -34.959  1.00  0.00    -0.423 OA
ATOM     10  C   UNL     1     -33.183  11.175 -38.297  1.00  0.00     0.058 A 
ATOM     11  C   UNL     1     -32.575  10.142 -39.026  1.00  0.00     0.116 A 
ENDROOT
BRANCH  11  12
ATOM     12  O   UNL     1     -32.796  10.016 -40.395  1.00  0.00    -0.508 OA
ATOM     13  H   UNL     1     -33.703  10.204 -40.806  1.00  0.00     0.293 HD
ENDBRANCH  11  12
TORSDOF 1
ENDMDL
MODEL 4
REMARK VINA RESULT:    -5.501      1.273      4.758
REMARK INTER + INTRA:          -5.662
REMARK INTER:                  -5.662
REMARK INTRA:                   0.000
REMARK UNBOUND:                 0.000
REMARK SMILES O=c1ccc2cc(O)ccc2o1
REMARK SMILES IDX 9 1 10 2 11 3 5 4 4 5 3 6 2 7 1 8 12 9 6 10 7 11 8 12
REMARK H PARENT 8 13
REMARK Flexibility Score: inf
ROOT
ATOM      1  C   UNL     1     -34.002  12.156 -39.002  1.00  0.00     0.050 A 
ATOM      2  C   UNL     1     -33.602  12.485 -37.703  1.00  0.00     0.052 A 
ATOM      3  C   UNL     1     -33.202  11.480 -36.816  1.00  0.00     0.138 A 
ATOM      4  C   UNL     1     -33.204  10.132 -37.237  1.00  0.00     0.021 A 
ATOM      5  C   UNL     1     -32.800   9.150 -36.328  1.00  0.00     0.019 A 
ATOM      6  C   UNL     1     -32.409   9.526 -35.042  1.00  0.00     0.094 A 
ATOM      7  C   UNL     1     -32.432  10.881 -34.696  1.00  0.00     0.336 A 
ATOM      8  O   UNL     1     -32.084  11.241 -33.540  1.00  0.00    -0.246 OA
ATOM      9  O   UNL     1     -32.822  11.796 -35.580  1.00  0.00    -0.423 OA
ATOM     10  C   UNL     1     -33.606   9.806 -38.540  1.00  0.00     0.058 A 
ATOM     11  C   UNL     1     -34.006  10.820 -39.424  1.00  0.00     0.116 A 
ENDROOT
BRANCH  11  12
ATOM     12  O   UNL     1     -34.407  10.512 -40.721  1.00  0.00    -0.508 OA
ATOM     13  H   UNL     1     -34.552  11.233 -41.417  1.00  0.00     0.293 HD
ENDBRANCH  11  12
TORSDOF 1
ENDMDL
MODEL 5
REMARK VINA RESULT:    -5.450      1.518      2.281
REMARK INTER + INTRA:          -5.609
REMARK INTER:                  -5.609
REMARK INTRA:                   0.000
REMARK UNBOUND:                 0.000
REMARK SMILES O=c1ccc2cc(O)ccc2o1
REMARK SMILES IDX 9 1 10 2 11 3 5 4 4 5 3 6 2 7 1 8 12 9 6 10 7 11 8 12
REMARK H PARENT 8 13
REMARK Flexibility Score: inf
ROOT
ATOM      1  C   UNL     1     -32.931  11.873 -35.194  1.00  0.00     0.050 A 
ATOM      2  C   UNL     1     -33.317  12.286 -36.473  1.00  0.00     0.052 A 
ATOM      3  C   UNL     1     -33.651  11.336 -37.445  1.00  0.00     0.138 A 
ATOM      4  C   UNL     1     -33.596   9.961 -37.130  1.00  0.00     0.021 A 
ATOM      5  C   UNL     1     -33.933   9.036 -38.123  1.00  0.00     0.019 A 
ATOM      6  C   UNL     1     -34.314   9.495 -39.385  1.00  0.00     0.094 A 
ATOM      7  C   UNL     1     -34.346  10.872 -39.624  1.00  0.00     0.336 A 
ATOM      8  O   UNL     1     -34.686  11.305 -40.757  1.00  0.00    -0.246 OA
ATOM      9  O   UNL     1     -34.019  11.731 -38.662  1.00  0.00    -0.423 OA
ATOM     10  C   UNL     1     -33.207   9.552 -35.847  1.00  0.00     0.058 A 
ATOM     11  C   UNL     1     -32.874  10.510 -34.877  1.00  0.00     0.116 A 
ENDROOT
BRANCH  11  12
ATOM     12  O   UNL     1     -32.487  10.119 -33.598  1.00  0.00    -0.508 OA
ATOM     13  H   UNL     1     -33.145  10.099 -32.828  1.00  0.00     0.293 HD
ENDBRANCH  11  12
TORSDOF 1
ENDMDL
MODEL 6
REMARK VINA RESULT:    -5.441      2.000      2.700
REMARK INTER + INTRA:          -5.600
REMARK INTER:                  -5.600
REMARK INTRA:                   0.000
REMARK UNBOUND:                 0.000
REMARK SMILES O=c1ccc2cc(O)ccc2o1
REMARK SMILES IDX 9 1 10 2 11 3 5 4 4 5 3 6 2 7 1 8 12 9 6 10 7 11 8 12
REMARK H PARENT 8 13
REMARK Flexibility Score: inf
ROOT
ATOM      1  C   UNL     1     -31.960   8.969 -37.619  1.00  0.00     0.050 A 
ATOM      2  C   UNL     1     -32.764   9.076 -38.758  1.00  0.00     0.052 A 
ATOM      3  C   UNL     1     -33.413  10.281 -39.048  1.00  0.00     0.138 A 
ATOM      4  C   UNL     1     -33.253  11.388 -38.186  1.00  0.00     0.021 A 
ATOM      5  C   UNL     1     -33.915  12.578 -38.501  1.00  0.00     0.019 A 
ATOM      6  C   UNL     1     -34.707  12.638 -39.649  1.00  0.00     0.094 A 
ATOM      7  C   UNL     1     -34.818  11.501 -40.456  1.00  0.00     0.336 A 
ATOM      8  O   UNL     1     -35.528  11.535 -41.495  1.00  0.00    -0.246 OA
ATOM      9  O   UNL     1     -34.177  10.380 -40.132  1.00  0.00    -0.423 OA
ATOM     10  C   UNL     1     -32.446  11.276 -37.044  1.00  0.00     0.058 A 
ATOM     11  C   UNL     1     -31.799  10.064 -36.761  1.00  0.00     0.116 A 
ENDROOT
BRANCH  11  12
ATOM     12  O   UNL     1     -30.994   9.938 -35.632  1.00  0.00    -0.508 OA
ATOM     13  H   UNL     1     -31.380   9.684 -34.730  1.00  0.00     0.293 HD
ENDBRANCH  11  12
TORSDOF 1
ENDMDL
MODEL 7
REMARK VINA RESULT:    -5.123      1.780      4.871
REMARK INTER + INTRA:          -5.273
REMARK INTER:                  -5.273
REMARK INTRA:                   0.000
REMARK UNBOUND:                 0.000
REMARK SMILES O=c1ccc2cc(O)ccc2o1
REMARK SMILES IDX 9 1 10 2 11 3 5 4 4 5 3 6 2 7 1 8 12 9 6 10 7 11 8 12
REMARK H PARENT 8 13
REMARK Flexibility Score: inf
ROOT
ATOM      1  C   UNL     1     -34.792   9.624 -40.669  1.00  0.00     0.050 A 
ATOM      2  C   UNL     1     -34.129   9.247 -39.497  1.00  0.00     0.052 A 
ATOM      3  C   UNL     1     -33.739  10.218 -38.569  1.00  0.00     0.138 A 
ATOM      4  C   UNL     1     -34.018  11.580 -38.820  1.00  0.00     0.021 A 
ATOM      5  C   UNL     1     -33.615  12.527 -37.874  1.00  0.00     0.019 A 
ATOM      6  C   UNL     1     -32.957  12.105 -36.719  1.00  0.00     0.094 A 
ATOM      7  C   UNL     1     -32.716  10.739 -36.537  1.00  0.00     0.336 A 
ATOM      8  O   UNL     1     -32.122  10.338 -35.502  1.00  0.00    -0.246 OA
ATOM      9  O   UNL     1     -33.109   9.858 -37.454  1.00  0.00    -0.423 OA
ATOM     10  C   UNL     1     -34.682  11.953 -39.997  1.00  0.00     0.058 A 
ATOM     11  C   UNL     1     -35.070  10.973 -40.923  1.00  0.00     0.116 A 
ENDROOT
BRANCH  11  12
ATOM     12  O   UNL     1     -35.731  11.328 -42.096  1.00  0.00    -0.508 OA
ATOM     13  H   UNL     1     -36.591  10.873 -42.379  1.00  0.00     0.293 HD
ENDBRANCH  11  12
TORSDOF 1
ENDMDL
MODEL 8
REMARK VINA RESULT:    -4.951      2.181      3.521
REMARK INTER + INTRA:          -5.095
REMARK INTER:                  -5.095
REMARK INTRA:                   0.000
REMARK UNBOUND:                 0.000
REMARK SMILES O=c1ccc2cc(O)ccc2o1
REMARK SMILES IDX 9 1 10 2 11 3 5 4 4 5 3 6 2 7 1 8 12 9 6 10 7 11 8 12
REMARK H PARENT 8 13
REMARK Flexibility Score: inf
ROOT
ATOM      1  C   UNL     1     -32.444  11.639 -37.151  1.00  0.00     0.050 A 
ATOM      2  C   UNL     1     -33.362  12.067 -38.116  1.00  0.00     0.052 A 
ATOM      3  C   UNL     1     -33.797  11.185 -39.110  1.00  0.00     0.138 A 
ATOM      4  C   UNL     1     -33.306   9.861 -39.136  1.00  0.00     0.021 A 
ATOM      5  C   UNL     1     -33.758   9.002 -40.142  1.00  0.00     0.019 A 
ATOM      6  C   UNL     1     -34.675   9.473 -41.083  1.00  0.00     0.094 A 
ATOM      7  C   UNL     1     -35.117  10.797 -40.995  1.00  0.00     0.336 A 
ATOM      8  O   UNL     1     -35.943  11.241 -41.835  1.00  0.00    -0.246 OA
ATOM      9  O   UNL     1     -34.670  11.594 -40.027  1.00  0.00    -0.423 OA
ATOM     10  C   UNL     1     -32.386   9.436 -38.167  1.00  0.00     0.058 A 
ATOM     11  C   UNL     1     -31.954  10.328 -37.173  1.00  0.00     0.116 A 
ENDROOT
BRANCH  11  12
ATOM     12  O   UNL     1     -31.041   9.920 -36.203  1.00  0.00    -0.508 OA
ATOM     13  H   UNL     1     -31.311   9.301 -35.448  1.00  0.00     0.293 HD
ENDBRANCH  11  12
TORSDOF 1
ENDMDL
