MODEL 1
REMARK VINA RESULT:    -3.783      0.000      0.000
REMARK INTER + INTRA:          -4.700
REMARK INTER:                  -4.668
REMARK INTRA:                  -0.033
REMARK UNBOUND:                -0.033
REMARK SMILES CCCCCC=O
REMARK SMILES IDX 4 1 3 2 2 3 1 4 5 5 6 6 7 7
REMARK H PARENT
REMARK Flexibility Score: inf
ROOT
ATOM      1  C   UNL     1      24.394  56.171  -8.959  1.00  0.00     0.008 C 
ENDROOT
BRANCH   1   2
ATOM      2  C   UNL     1      25.780  56.827  -9.040  1.00  0.00     0.000 C 
BRANCH   2   3
ATOM      3  C   UNL     1      25.709  58.311  -9.433  1.00  0.00    -0.003 C 
ATOM      4  C   UNL     1      26.882  58.747 -10.312  1.00  0.00     0.004 C 
ENDBRANCH   2   3
ENDBRANCH   1   2
BRANCH   1   5
ATOM      5  C   UNL     1      24.089  55.710  -7.528  1.00  0.00     0.072 C 
BRANCH   5   6
ATOM      6  C   UNL     1      22.788  54.969  -7.469  1.00  0.00     0.224 C 
ATOM      7  O   UNL     1      22.349  54.574  -6.400  1.00  0.00    -0.303 OA
ENDBRANCH   5   6
ENDBRANCH   1   5
TORSDOF 4
ENDMDL
MODEL 2
REMARK VINA RESULT:    -3.654      2.917      4.867
REMARK INTER + INTRA:          -4.541
REMARK INTER:                  -4.488
REMARK INTRA:                  -0.053
REMARK UNBOUND:                -0.033
REMARK SMILES CCCCCC=O
REMARK SMILES IDX 4 1 3 2 2 3 1 4 5 5 6 6 7 7
REMARK H PARENT
REMARK Flexibility Score: inf
ROOT
ATOM      1  C   UNL     1      25.748  56.923  -9.015  1.00  0.00     0.008 C 
ENDROOT
BRANCH   1   2
ATOM      2  C   UNL     1      24.474  56.067  -9.000  1.00  0.00     0.000 C 
BRANCH   2   3
ATOM      3  C   UNL     1      24.028  55.697  -7.576  1.00  0.00    -0.003 C 
ATOM      4  C   UNL     1      22.683  54.969  -7.548  1.00  0.00     0.004 C 
ENDBRANCH   2   3
ENDBRANCH   1   2
BRANCH   1   5
ATOM      5  C   UNL     1      25.415  58.396  -9.283  1.00  0.00     0.072 C 
BRANCH   5   6
ATOM      6  C   UNL     1      26.556  59.089  -9.963  1.00  0.00     0.224 C 
ATOM      7  O   UNL     1      27.132  58.561 -10.902  1.00  0.00    -0.303 OA
ENDBRANCH   5   6
ENDBRANCH   1   5
TORSDOF 4
ENDMDL
MODEL 3
REMARK VINA RESULT:    -3.642      0.833      1.529
REMARK INTER + INTRA:          -4.526
REMARK INTER:                  -4.495
REMARK INTRA:                  -0.030
REMARK UNBOUND:                -0.033
REMARK SMILES CCCCCC=O
REMARK SMILES IDX 4 1 3 2 2 3 1 4 5 5 6 6 7 7
REMARK H PARENT
REMARK Flexibility Score: inf
ROOT
ATOM      1  C   UNL     1      25.654  56.880  -9.092  1.00  0.00     0.008 C 
ENDROOT
BRANCH   1   2
ATOM      2  C   UNL     1      25.819  58.359  -9.475  1.00  0.00     0.000 C 
BRANCH   2   3
ATOM      3  C   UNL     1      27.022  58.599 -10.399  1.00  0.00    -0.003 C 
ATOM      4  C   UNL     1      27.438  60.069 -10.459  1.00  0.00     0.004 C 
ENDBRANCH   2   3
ENDBRANCH   1   2
BRANCH   1   5
ATOM      5  C   UNL     1      24.173  56.485  -9.062  1.00  0.00     0.072 C 
BRANCH   5   6
ATOM      6  C   UNL     1      23.931  55.387  -8.071  1.00  0.00     0.224 C 
ATOM      7  O   UNL     1      22.808  55.181  -7.636  1.00  0.00    -0.303 OA
ENDBRANCH   5   6
ENDBRANCH   1   5
TORSDOF 4
ENDMDL
MODEL 4
REMARK VINA RESULT:    -3.266     15.563     16.806
REMARK INTER + INTRA:          -4.063
REMARK INTER:                  -3.915
REMARK INTRA:                  -0.148
REMARK UNBOUND:                -0.033
REMARK SMILES CCCCCC=O
REMARK SMILES IDX 4 1 3 2 2 3 1 4 5 5 6 6 7 7
REMARK H PARENT
REMARK Flexibility Score: inf
ROOT
ATOM      1  C   UNL     1      19.546  44.922   0.006  1.00  0.00     0.008 C 
ENDROOT
BRANCH   1   2
ATOM      2  C   UNL     1      18.018  44.787  -0.071  1.00  0.00     0.000 C 
BRANCH   2   3
ATOM      3  C   UNL     1      17.424  44.094   1.165  1.00  0.00    -0.003 C 
ATOM      4  C   UNL     1      16.034  44.619   1.526  1.00  0.00     0.004 C 
ENDBRANCH   2   3
ENDBRANCH   1   2
BRANCH   1   5
ATOM      5  C   UNL     1      20.077  44.384   1.340  1.00  0.00     0.072 C 
BRANCH   5   6
ATOM      6  C   UNL     1      21.049  43.265   1.119  1.00  0.00     0.224 C 
ATOM      7  O   UNL     1      21.112  42.705   0.035  1.00  0.00    -0.303 OA
ENDBRANCH   5   6
ENDBRANCH   1   5
TORSDOF 4
ENDMDL
MODEL 5
REMARK VINA RESULT:    -3.117     15.384     16.317
REMARK INTER + INTRA:          -3.878
REMARK INTER:                  -3.714
REMARK INTRA:                  -0.164
REMARK UNBOUND:                -0.033
REMARK SMILES CCCCCC=O
REMARK SMILES IDX 4 1 3 2 2 3 1 4 5 5 6 6 7 7
REMARK H PARENT
REMARK Flexibility Score: inf
ROOT
ATOM      1  C   UNL     1      19.840  45.003  -0.115  1.00  0.00     0.008 C 
ENDROOT
BRANCH   1   2
ATOM      2  C   UNL     1      20.042  44.498   1.321  1.00  0.00     0.000 C 
BRANCH   2   3
ATOM      3  C   UNL     1      20.952  43.261   1.390  1.00  0.00    -0.003 C 
ATOM      4  C   UNL     1      21.178  42.616   0.022  1.00  0.00     0.004 C 
ENDBRANCH   2   3
ENDBRANCH   1   2
BRANCH   1   5
ATOM      5  C   UNL     1      18.361  45.300  -0.389  1.00  0.00     0.072 C 
BRANCH   5   6
ATOM      6  C   UNL     1      17.481  44.258   0.232  1.00  0.00     0.224 C 
ATOM      7  O   UNL     1      16.565  44.582   0.973  1.00  0.00    -0.303 OA
ENDBRANCH   5   6
ENDBRANCH   1   5
TORSDOF 4
ENDMDL
MODEL 6
REMARK VINA RESULT:    -3.067     15.384     16.436
REMARK INTER + INTRA:          -3.817
REMARK INTER:                  -3.612
REMARK INTRA:                  -0.205
REMARK UNBOUND:                -0.033
REMARK SMILES CCCCCC=O
REMARK SMILES IDX 4 1 3 2 2 3 1 4 5 5 6 6 7 7
REMARK H PARENT
REMARK Flexibility Score: inf
ROOT
ATOM      1  C   UNL     1      18.234  45.271  -0.391  1.00  0.00     0.008 C 
ENDROOT
BRANCH   1   2
ATOM      2  C   UNL     1      19.726  45.206  -0.033  1.00  0.00     0.000 C 
BRANCH   2   3
ATOM      3  C   UNL     1      19.989  44.425   1.263  1.00  0.00    -0.003 C 
ATOM      4  C   UNL     1      20.924  43.233   1.057  1.00  0.00     0.004 C 
ENDBRANCH   2   3
ENDBRANCH   1   2
BRANCH   1   5
ATOM      5  C   UNL     1      17.437  44.223   0.395  1.00  0.00     0.072 C 
BRANCH   5   6
ATOM      6  C   UNL     1      17.024  43.087  -0.492  1.00  0.00     0.224 C 
ATOM      7  O   UNL     1      17.856  42.306  -0.926  1.00  0.00    -0.303 OA
ENDBRANCH   5   6
ENDBRANCH   1   5
TORSDOF 4
ENDMDL
MODEL 7
REMARK VINA RESULT:    -3.004      2.495      3.878
REMARK INTER + INTRA:          -3.739
REMARK INTER:                  -3.676
REMARK INTRA:                  -0.063
REMARK UNBOUND:                -0.033
REMARK SMILES CCCCCC=O
REMARK SMILES IDX 4 1 3 2 2 3 1 4 5 5 6 6 7 7
REMARK H PARENT
REMARK Flexibility Score: inf
ROOT
ATOM      1  C   UNL     1      27.024  58.724 -10.516  1.00  0.00     0.008 C 
ENDROOT
BRANCH   1   2
ATOM      2  C   UNL     1      27.433  60.203 -10.459  1.00  0.00     0.000 C 
BRANCH   2   3
ATOM      3  C   UNL     1      28.957  60.396 -10.482  1.00  0.00    -0.003 C 
ATOM      4  C   UNL     1      29.658  59.457 -11.465  1.00  0.00     0.004 C 
ENDBRANCH   2   3
ENDBRANCH   1   2
BRANCH   1   5
ATOM      5  C   UNL     1      25.976  58.404  -9.443  1.00  0.00     0.072 C 
BRANCH   5   6
ATOM      6  C   UNL     1      25.775  56.925  -9.313  1.00  0.00     0.224 C 
ATOM      7  O   UNL     1      25.572  56.421  -8.219  1.00  0.00    -0.303 OA
ENDBRANCH   5   6
ENDBRANCH   1   5
TORSDOF 4
ENDMDL
MODEL 8
REMARK VINA RESULT:    -2.985      7.632      8.827
REMARK INTER + INTRA:          -3.715
REMARK INTER:                  -3.554
REMARK INTRA:                  -0.161
REMARK UNBOUND:                -0.033
REMARK SMILES CCCCCC=O
REMARK SMILES IDX 4 1 3 2 2 3 1 4 5 5 6 6 7 7
REMARK H PARENT
REMARK Flexibility Score: inf
ROOT
ATOM      1  C   UNL     1      30.284  57.417 -13.439  1.00  0.00     0.008 C 
ENDROOT
BRANCH   1   2
ATOM      2  C   UNL     1      31.591  56.675 -13.754  1.00  0.00     0.000 C 
BRANCH   2   3
ATOM      3  C   UNL     1      32.773  57.630 -13.982  1.00  0.00    -0.003 C 
ATOM      4  C   UNL     1      34.122  56.991 -13.651  1.00  0.00     0.004 C 
ENDBRANCH   2   3
ENDBRANCH   1   2
BRANCH   1   5
ATOM      5  C   UNL     1      30.541  58.915 -13.236  1.00  0.00     0.072 C 
BRANCH   5   6
ATOM      6  C   UNL     1      30.239  59.326 -11.826  1.00  0.00     0.224 C 
ATOM      7  O   UNL     1      31.060  59.147 -10.940  1.00  0.00    -0.303 OA
ENDBRANCH   5   6
ENDBRANCH   1   5
TORSDOF 4
ENDMDL
MODEL 9
REMARK VINA RESULT:    -2.901     15.634     16.688
REMARK INTER + INTRA:          -3.612
REMARK INTER:                  -3.446
REMARK INTRA:                  -0.167
REMARK UNBOUND:                -0.033
REMARK SMILES CCCCCC=O
REMARK SMILES IDX 4 1 3 2 2 3 1 4 5 5 6 6 7 7
REMARK H PARENT
REMARK Flexibility Score: inf
ROOT
ATOM      1  C   UNL     1      17.565  43.797   0.713  1.00  0.00     0.008 C 
ENDROOT
BRANCH   1   2
ATOM      2  C   UNL     1      16.431  44.573   1.401  1.00  0.00     0.000 C 
BRANCH   2   3
ATOM      3  C   UNL     1      15.574  45.371   0.406  1.00  0.00    -0.003 C 
ATOM      4  C   UNL     1      16.348  45.777  -0.849  1.00  0.00     0.004 C 
ENDBRANCH   2   3
ENDBRANCH   1   2
BRANCH   1   5
ATOM      5  C   UNL     1      18.826  43.782   1.586  1.00  0.00     0.072 C 
BRANCH   5   6
ATOM      6  C   UNL     1      19.909  44.621   0.978  1.00  0.00     0.224 C 
ATOM      7  O   UNL     1      19.695  45.270  -0.034  1.00  0.00    -0.303 OA
ENDBRANCH   5   6
ENDBRANCH   1   5
TORSDOF 4
ENDMDL
