MODEL 1
REMARK VINA RESULT:    -3.757      0.000      0.000
REMARK INTER + INTRA:         -11.322
REMARK INTER:                  -8.150
REMARK INTRA:                  -3.172
REMARK UNBOUND:                -3.172
REMARK SMILES CCCCCCCCCCCCCCCCCCCCCC(=O)[O-]
REMARK SMILES IDX 12 1 11 2 10 3 9 4 8 5 7 6 6 7 5 8 4 9 3 10 2 11 1 12 13 13
REMARK SMILES IDX 14 14 15 15 16 16 17 17 18 18 19 19 20 20 21 21 22 22 23 23
REMARK SMILES IDX 24 24
REMARK H PARENT
REMARK Flexibility Score: inf
ROOT
ATOM      1  C   UNL     1      -6.733  -1.095   5.049  1.00  0.00     0.000 C 
ENDROOT
BRANCH   1   2
ATOM      2  C   UNL     1      -7.421  -0.619   6.342  1.00  0.00     0.000 C 
BRANCH   2   3
ATOM      3  C   UNL     1      -7.497  -1.664   7.471  1.00  0.00     0.000 C 
BRANCH   3   4
ATOM      4  C   UNL     1      -7.147  -1.081   8.851  1.00  0.00    -0.000 C 
BRANCH   4   5
ATOM      5  C   UNL     1      -5.878  -1.707   9.460  1.00  0.00    -0.000 C 
BRANCH   5   6
ATOM      6  C   UNL     1      -5.035  -2.549   8.483  1.00  0.00    -0.000 C 
BRANCH   6   7
ATOM      7  C   UNL     1      -3.622  -2.001   8.201  1.00  0.00    -0.000 C 
BRANCH   7   8
ATOM      8  C   UNL     1      -3.537  -0.460   8.239  1.00  0.00    -0.000 C 
BRANCH   8   9
ATOM      9  C   UNL     1      -3.802   0.173   6.861  1.00  0.00    -0.000 C 
BRANCH   9  10
ATOM     10  C   UNL     1      -4.476   1.553   6.961  1.00  0.00    -0.000 C 
BRANCH  10  11
ATOM     11  C   UNL     1      -4.468   2.162   8.376  1.00  0.00    -0.003 C 
ATOM     12  C   UNL     1      -3.345   3.181   8.579  1.00  0.00     0.004 C 
ENDBRANCH  10  11
ENDBRANCH   9  10
ENDBRANCH   8   9
ENDBRANCH   7   8
ENDBRANCH   6   7
ENDBRANCH   5   6
ENDBRANCH   4   5
ENDBRANCH   3   4
ENDBRANCH   2   3
ENDBRANCH   1   2
BRANCH   1  13
ATOM     13  C   UNL     1      -6.198  -2.541   5.081  1.00  0.00     0.000 C 
BRANCH  13  14
ATOM     14  C   UNL     1      -7.003  -3.524   4.203  1.00  0.00     0.000 C 
BRANCH  14  15
ATOM     15  C   UNL     1      -7.665  -4.644   5.026  1.00  0.00     0.000 C 
BRANCH  15  16
ATOM     16  C   UNL     1      -6.945  -4.897   6.360  1.00  0.00     0.000 C 
BRANCH  16  17
ATOM     17  C   UNL     1      -7.808  -5.695   7.351  1.00  0.00     0.000 C 
BRANCH  17  18
ATOM     18  C   UNL     1      -7.477  -5.313   8.801  1.00  0.00     0.000 C 
BRANCH  18  19
ATOM     19  C   UNL     1      -7.332  -6.552   9.715  1.00  0.00     0.000 C 
BRANCH  19  20
ATOM     20  C   UNL     1      -6.857  -7.812   8.968  1.00  0.00     0.006 C 
BRANCH  20  21
ATOM     21  C   UNL     1      -5.829  -8.649   9.747  1.00  0.00     0.053 C 
BRANCH  21  22
ATOM     22  C   UNL     1      -5.247  -9.746   8.907  1.00  0.00     0.041 C 
ATOM     23  O   UNL     1      -4.025  -9.727   8.600  1.00  0.00    -0.550 OA
ATOM     24  O   UNL     1      -6.048 -10.793   8.472  1.00  0.00    -0.550 OA
ENDBRANCH  21  22
ENDBRANCH  20  21
ENDBRANCH  19  20
ENDBRANCH  18  19
ENDBRANCH  17  18
ENDBRANCH  16  17
ENDBRANCH  15  16
ENDBRANCH  14  15
ENDBRANCH  13  14
ENDBRANCH   1  13
TORSDOF 20
ENDMDL
MODEL 2
REMARK VINA RESULT:    -3.695      6.986      9.976
REMARK INTER + INTRA:         -11.187
REMARK INTER:                  -8.969
REMARK INTRA:                  -2.218
REMARK UNBOUND:                -3.172
REMARK SMILES CCCCCCCCCCCCCCCCCCCCCC(=O)[O-]
REMARK SMILES IDX 12 1 11 2 10 3 9 4 8 5 7 6 6 7 5 8 4 9 3 10 2 11 1 12 13 13
REMARK SMILES IDX 14 14 15 15 16 16 17 17 18 18 19 19 20 20 21 21 22 22 23 23
REMARK SMILES IDX 24 24
REMARK H PARENT
REMARK Flexibility Score: inf
ROOT
ATOM      1  C   UNL     1      -7.499  -2.358   3.696  1.00  0.00     0.000 C 
ENDROOT
BRANCH   1   2
ATOM      2  C   UNL     1      -6.848  -3.686   4.125  1.00  0.00     0.000 C 
BRANCH   2   3
ATOM      3  C   UNL     1      -7.676  -4.539   5.104  1.00  0.00     0.000 C 
BRANCH   3   4
ATOM      4  C   UNL     1      -7.062  -4.602   6.513  1.00  0.00    -0.000 C 
BRANCH   4   5
ATOM      5  C   UNL     1      -7.394  -3.362   7.365  1.00  0.00    -0.000 C 
BRANCH   5   6
ATOM      6  C   UNL     1      -6.174  -2.631   7.956  1.00  0.00    -0.000 C 
BRANCH   6   7
ATOM      7  C   UNL     1      -4.954  -2.536   7.020  1.00  0.00    -0.000 C 
BRANCH   7   8
ATOM      8  C   UNL     1      -3.649  -2.132   7.741  1.00  0.00    -0.000 C 
BRANCH   8   9
ATOM      9  C   UNL     1      -3.676  -0.669   8.217  1.00  0.00    -0.000 C 
BRANCH   9  10
ATOM     10  C   UNL     1      -3.311   0.326   7.100  1.00  0.00    -0.000 C 
BRANCH  10  11
ATOM     11  C   UNL     1      -4.448   1.292   6.715  1.00  0.00    -0.003 C 
ATOM     12  C   UNL     1      -5.650   1.200   7.655  1.00  0.00     0.004 C 
ENDBRANCH  10  11
ENDBRANCH   9  10
ENDBRANCH   8   9
ENDBRANCH   7   8
ENDBRANCH   6   7
ENDBRANCH   5   6
ENDBRANCH   4   5
ENDBRANCH   3   4
ENDBRANCH   2   3
ENDBRANCH   1   2
BRANCH   1  13
ATOM     13  C   UNL     1      -6.734  -1.084   4.112  1.00  0.00     0.000 C 
BRANCH  13  14
ATOM     14  C   UNL     1      -7.602  -0.051   4.861  1.00  0.00     0.000 C 
BRANCH  14  15
ATOM     15  C   UNL     1      -7.801   1.246   4.059  1.00  0.00     0.000 C 
BRANCH  15  16
ATOM     16  C   UNL     1      -7.332   1.114   2.601  1.00  0.00     0.000 C 
BRANCH  16  17
ATOM     17  C   UNL     1      -8.010   2.132   1.670  1.00  0.00     0.000 C 
BRANCH  17  18
ATOM     18  C   UNL     1      -7.026   3.235   1.251  1.00  0.00     0.000 C 
BRANCH  18  19
ATOM     19  C   UNL     1      -7.145   3.586  -0.250  1.00  0.00     0.000 C 
BRANCH  19  20
ATOM     20  C   UNL     1      -7.844   4.934  -0.511  1.00  0.00     0.006 C 
BRANCH  20  21
ATOM     21  C   UNL     1      -7.325   5.677  -1.752  1.00  0.00     0.053 C 
BRANCH  21  22
ATOM     22  C   UNL     1      -6.245   6.658  -1.408  1.00  0.00     0.041 C 
ATOM     23  O   UNL     1      -5.955   6.884  -0.203  1.00  0.00    -0.550 OA
ATOM     24  O   UNL     1      -5.550   7.314  -2.416  1.00  0.00    -0.550 OA
ENDBRANCH  21  22
ENDBRANCH  20  21
ENDBRANCH  19  20
ENDBRANCH  18  19
ENDBRANCH  17  18
ENDBRANCH  16  17
ENDBRANCH  15  16
ENDBRANCH  14  15
ENDBRANCH  13  14
ENDBRANCH   1  13
TORSDOF 20
ENDMDL
MODEL 3
REMARK VINA RESULT:    -3.686     13.880     16.657
REMARK INTER + INTRA:         -11.169
REMARK INTER:                  -8.364
REMARK INTRA:                  -2.804
REMARK UNBOUND:                -3.172
REMARK SMILES CCCCCCCCCCCCCCCCCCCCCC(=O)[O-]
REMARK SMILES IDX 12 1 11 2 10 3 9 4 8 5 7 6 6 7 5 8 4 9 3 10 2 11 1 12 13 13
REMARK SMILES IDX 14 14 15 15 16 16 17 17 18 18 19 19 20 20 21 21 22 22 23 23
REMARK SMILES IDX 24 24
REMARK H PARENT
REMARK Flexibility Score: inf
ROOT
ATOM      1  C   UNL     1      -5.446  -0.160  -4.276  1.00  0.00     0.000 C 
ENDROOT
BRANCH   1   2
ATOM      2  C   UNL     1      -6.529   0.928  -4.143  1.00  0.00     0.000 C 
BRANCH   2   3
ATOM      3  C   UNL     1      -7.664   0.857  -5.181  1.00  0.00     0.000 C 
BRANCH   3   4
ATOM      4  C   UNL     1      -7.823   2.158  -5.987  1.00  0.00    -0.000 C 
BRANCH   4   5
ATOM      5  C   UNL     1      -7.165   2.084  -7.377  1.00  0.00    -0.000 C 
BRANCH   5   6
ATOM      6  C   UNL     1      -7.455   3.283  -8.300  1.00  0.00    -0.000 C 
BRANCH   6   7
ATOM      7  C   UNL     1      -6.207   3.959  -8.902  1.00  0.00    -0.000 C 
BRANCH   7   8
ATOM      8  C   UNL     1      -6.090   5.460  -8.558  1.00  0.00    -0.000 C 
BRANCH   8   9
ATOM      9  C   UNL     1      -4.631   5.950  -8.577  1.00  0.00    -0.000 C 
BRANCH   9  10
ATOM     10  C   UNL     1      -4.404   7.173  -7.670  1.00  0.00    -0.000 C 
BRANCH  10  11
ATOM     11  C   UNL     1      -3.288   6.989  -6.624  1.00  0.00    -0.003 C 
ATOM     12  C   UNL     1      -3.656   7.561  -5.254  1.00  0.00     0.004 C 
ENDBRANCH  10  11
ENDBRANCH   9  10
ENDBRANCH   8   9
ENDBRANCH   7   8
ENDBRANCH   6   7
ENDBRANCH   5   6
ENDBRANCH   4   5
ENDBRANCH   3   4
ENDBRANCH   2   3
ENDBRANCH   1   2
BRANCH   1  13
ATOM     13  C   UNL     1      -4.622  -0.114  -5.579  1.00  0.00     0.000 C 
BRANCH  13  14
ATOM     14  C   UNL     1      -4.320  -1.505  -6.175  1.00  0.00     0.000 C 
BRANCH  14  15
ATOM     15  C   UNL     1      -5.432  -1.997  -7.119  1.00  0.00     0.000 C 
BRANCH  15  16
ATOM     16  C   UNL     1      -4.881  -2.798  -8.310  1.00  0.00     0.000 C 
BRANCH  16  17
ATOM     17  C   UNL     1      -4.978  -2.024  -9.634  1.00  0.00     0.000 C 
BRANCH  17  18
ATOM     18  C   UNL     1      -5.657  -0.662  -9.427  1.00  0.00     0.000 C 
BRANCH  18  19
ATOM     19  C   UNL     1      -4.825   0.503 -10.010  1.00  0.00     0.000 C 
BRANCH  19  20
ATOM     20  C   UNL     1      -3.856   1.134  -8.992  1.00  0.00     0.006 C 
BRANCH  20  21
ATOM     21  C   UNL     1      -2.372   0.969  -9.356  1.00  0.00     0.053 C 
BRANCH  21  22
ATOM     22  C   UNL     1      -1.695  -0.057  -8.499  1.00  0.00     0.041 C 
ATOM     23  O   UNL     1      -1.175   0.278  -7.401  1.00  0.00    -0.550 OA
ATOM     24  O   UNL     1      -1.646  -1.385  -8.905  1.00  0.00    -0.550 OA
ENDBRANCH  21  22
ENDBRANCH  20  21
ENDBRANCH  19  20
ENDBRANCH  18  19
ENDBRANCH  17  18
ENDBRANCH  16  17
ENDBRANCH  15  16
ENDBRANCH  14  15
ENDBRANCH  13  14
ENDBRANCH   1  13
TORSDOF 20
ENDMDL
MODEL 4
REMARK VINA RESULT:    -3.582      3.803      7.688
REMARK INTER + INTRA:         -10.943
REMARK INTER:                  -7.872
REMARK INTRA:                  -3.071
REMARK UNBOUND:                -3.172
REMARK SMILES CCCCCCCCCCCCCCCCCCCCCC(=O)[O-]
REMARK SMILES IDX 12 1 11 2 10 3 9 4 8 5 7 6 6 7 5 8 4 9 3 10 2 11 1 12 13 13
REMARK SMILES IDX 14 14 15 15 16 16 17 17 18 18 19 19 20 20 21 21 22 22 23 23
REMARK SMILES IDX 24 24
REMARK H PARENT
REMARK Flexibility Score: inf
ROOT
ATOM      1  C   UNL     1      -3.667   0.154   7.113  1.00  0.00     0.000 C 
ENDROOT
BRANCH   1   2
ATOM      2  C   UNL     1      -3.616  -1.366   7.358  1.00  0.00     0.000 C 
BRANCH   2   3
ATOM      3  C   UNL     1      -4.143  -1.830   8.729  1.00  0.00     0.000 C 
BRANCH   3   4
ATOM      4  C   UNL     1      -5.651  -2.133   8.721  1.00  0.00    -0.000 C 
BRANCH   4   5
ATOM      5  C   UNL     1      -5.994  -3.479   9.388  1.00  0.00    -0.000 C 
BRANCH   5   6
ATOM      6  C   UNL     1      -7.367  -4.064   9.006  1.00  0.00    -0.000 C 
BRANCH   6   7
ATOM      7  C   UNL     1      -7.353  -5.551   8.603  1.00  0.00    -0.000 C 
BRANCH   7   8
ATOM      8  C   UNL     1      -7.853  -5.807   7.164  1.00  0.00    -0.000 C 
BRANCH   8   9
ATOM      9  C   UNL     1      -8.020  -4.502   6.364  1.00  0.00    -0.000 C 
BRANCH   9  10
ATOM     10  C   UNL     1      -7.509  -4.625   4.917  1.00  0.00    -0.000 C 
BRANCH  10  11
ATOM     11  C   UNL     1      -6.481  -3.550   4.515  1.00  0.00    -0.003 C 
ATOM     12  C   UNL     1      -5.122  -3.745   5.189  1.00  0.00     0.004 C 
ENDBRANCH  10  11
ENDBRANCH   9  10
ENDBRANCH   8   9
ENDBRANCH   7   8
ENDBRANCH   6   7
ENDBRANCH   5   6
ENDBRANCH   4   5
ENDBRANCH   3   4
ENDBRANCH   2   3
ENDBRANCH   1   2
BRANCH   1  13
ATOM     13  C   UNL     1      -2.714   0.995   7.987  1.00  0.00     0.000 C 
BRANCH  13  14
ATOM     14  C   UNL     1      -3.201   2.439   8.229  1.00  0.00     0.000 C 
BRANCH  14  15
ATOM     15  C   UNL     1      -3.965   2.589   9.557  1.00  0.00     0.000 C 
BRANCH  15  16
ATOM     16  C   UNL     1      -5.483   2.719   9.351  1.00  0.00     0.000 C 
BRANCH  16  17
ATOM     17  C   UNL     1      -6.220   1.386   9.556  1.00  0.00     0.000 C 
BRANCH  17  18
ATOM     18  C   UNL     1      -7.452   1.293   8.645  1.00  0.00     0.000 C 
BRANCH  18  19
ATOM     19  C   UNL     1      -7.161   1.796   7.212  1.00  0.00     0.000 C 
BRANCH  19  20
ATOM     20  C   UNL     1      -7.149   0.673   6.158  1.00  0.00     0.006 C 
BRANCH  20  21
ATOM     21  C   UNL     1      -6.308   0.994   4.913  1.00  0.00     0.053 C 
BRANCH  21  22
ATOM     22  C   UNL     1      -7.046   0.691   3.644  1.00  0.00     0.041 C 
ATOM     23  O   UNL     1      -6.712  -0.298   2.938  1.00  0.00    -0.550 OA
ATOM     24  O   UNL     1      -8.107   1.492   3.244  1.00  0.00    -0.550 OA
ENDBRANCH  21  22
ENDBRANCH  20  21
ENDBRANCH  19  20
ENDBRANCH  18  19
ENDBRANCH  17  18
ENDBRANCH  16  17
ENDBRANCH  15  16
ENDBRANCH  14  15
ENDBRANCH  13  14
ENDBRANCH   1  13
TORSDOF 20
ENDMDL
MODEL 5
REMARK VINA RESULT:    -3.570     13.700     16.271
REMARK INTER + INTRA:         -10.916
REMARK INTER:                  -9.192
REMARK INTRA:                  -1.724
REMARK UNBOUND:                -3.172
REMARK SMILES CCCCCCCCCCCCCCCCCCCCCC(=O)[O-]
REMARK SMILES IDX 12 1 11 2 10 3 9 4 8 5 7 6 6 7 5 8 4 9 3 10 2 11 1 12 13 13
REMARK SMILES IDX 14 14 15 15 16 16 17 17 18 18 19 19 20 20 21 21 22 22 23 23
REMARK SMILES IDX 24 24
REMARK H PARENT
REMARK Flexibility Score: inf
ROOT
ATOM      1  C   UNL     1      -2.909  -1.239  -7.546  1.00  0.00     0.000 C 
ENDROOT
BRANCH   1   2
ATOM      2  C   UNL     1      -2.118  -0.532  -8.662  1.00  0.00     0.000 C 
BRANCH   2   3
ATOM      3  C   UNL     1      -2.183   1.007  -8.641  1.00  0.00     0.000 C 
BRANCH   3   4
ATOM      4  C   UNL     1      -3.160   1.581  -9.682  1.00  0.00    -0.000 C 
BRANCH   4   5
ATOM      5  C   UNL     1      -2.907   3.071  -9.980  1.00  0.00    -0.000 C 
BRANCH   5   6
ATOM      6  C   UNL     1      -4.009   4.030  -9.491  1.00  0.00    -0.000 C 
BRANCH   6   7
ATOM      7  C   UNL     1      -3.734   5.525  -9.749  1.00  0.00    -0.000 C 
BRANCH   7   8
ATOM      8  C   UNL     1      -3.414   6.325  -8.467  1.00  0.00    -0.000 C 
BRANCH   8   9
ATOM      9  C   UNL     1      -4.683   6.707  -7.686  1.00  0.00    -0.000 C 
BRANCH   9  10
ATOM     10  C   UNL     1      -4.421   7.788  -6.621  1.00  0.00    -0.000 C 
BRANCH  10  11
ATOM     11  C   UNL     1      -3.412   7.374  -5.533  1.00  0.00    -0.003 C 
ATOM     12  C   UNL     1      -3.856   7.777  -4.125  1.00  0.00     0.004 C 
ENDBRANCH  10  11
ENDBRANCH   9  10
ENDBRANCH   8   9
ENDBRANCH   7   8
ENDBRANCH   6   7
ENDBRANCH   5   6
ENDBRANCH   4   5
ENDBRANCH   3   4
ENDBRANCH   2   3
ENDBRANCH   1   2
BRANCH   1  13
ATOM     13  C   UNL     1      -3.952  -0.365  -6.821  1.00  0.00     0.000 C 
BRANCH  13  14
ATOM     14  C   UNL     1      -4.489  -0.987  -5.514  1.00  0.00     0.000 C 
BRANCH  14  15
ATOM     15  C   UNL     1      -5.227   0.036  -4.633  1.00  0.00     0.000 C 
BRANCH  15  16
ATOM     16  C   UNL     1      -6.557   0.494  -5.251  1.00  0.00     0.000 C 
BRANCH  16  17
ATOM     17  C   UNL     1      -7.457  -0.686  -5.649  1.00  0.00     0.000 C 
BRANCH  17  18
ATOM     18  C   UNL     1      -7.979  -0.521  -7.084  1.00  0.00     0.000 C 
BRANCH  18  19
ATOM     19  C   UNL     1      -7.970  -1.853  -7.868  1.00  0.00     0.000 C 
BRANCH  19  20
ATOM     20  C   UNL     1      -6.558  -2.434  -8.076  1.00  0.00     0.006 C 
BRANCH  20  21
ATOM     21  C   UNL     1      -6.326  -3.779  -7.371  1.00  0.00     0.053 C 
BRANCH  21  22
ATOM     22  C   UNL     1      -5.021  -4.401  -7.766  1.00  0.00     0.041 C 
ATOM     23  O   UNL     1      -4.218  -4.803  -6.882  1.00  0.00    -0.550 OA
ATOM     24  O   UNL     1      -4.694  -4.548  -9.108  1.00  0.00    -0.550 OA
ENDBRANCH  21  22
ENDBRANCH  20  21
ENDBRANCH  19  20
ENDBRANCH  18  19
ENDBRANCH  17  18
ENDBRANCH  16  17
ENDBRANCH  15  16
ENDBRANCH  14  15
ENDBRANCH  13  14
ENDBRANCH   1  13
TORSDOF 20
ENDMDL
MODEL 6
REMARK VINA RESULT:    -3.531     13.122     15.775
REMARK INTER + INTRA:         -10.831
REMARK INTER:                  -7.356
REMARK INTRA:                  -3.475
REMARK UNBOUND:                -3.172
REMARK SMILES CCCCCCCCCCCCCCCCCCCCCC(=O)[O-]
REMARK SMILES IDX 12 1 11 2 10 3 9 4 8 5 7 6 6 7 5 8 4 9 3 10 2 11 1 12 13 13
REMARK SMILES IDX 14 14 15 15 16 16 17 17 18 18 19 19 20 20 21 21 22 22 23 23
REMARK SMILES IDX 24 24
REMARK H PARENT
REMARK Flexibility Score: inf
ROOT
ATOM      1  C   UNL     1      -5.132   0.155  -4.291  1.00  0.00     0.000 C 
ENDROOT
BRANCH   1   2
ATOM      2  C   UNL     1      -6.465   0.911  -4.141  1.00  0.00     0.000 C 
BRANCH   2   3
ATOM      3  C   UNL     1      -7.506   0.635  -5.243  1.00  0.00     0.000 C 
BRANCH   3   4
ATOM      4  C   UNL     1      -7.807   1.872  -6.107  1.00  0.00    -0.000 C 
BRANCH   4   5
ATOM      5  C   UNL     1      -8.022   1.525  -7.592  1.00  0.00    -0.000 C 
BRANCH   5   6
ATOM      6  C   UNL     1      -6.753   1.090  -8.350  1.00  0.00    -0.000 C 
BRANCH   6   7
ATOM      7  C   UNL     1      -5.836   2.243  -8.802  1.00  0.00    -0.000 C 
BRANCH   7   8
ATOM      8  C   UNL     1      -4.760   1.815  -9.823  1.00  0.00    -0.000 C 
BRANCH   8   9
ATOM      9  C   UNL     1      -4.634   0.285  -9.931  1.00  0.00    -0.000 C 
BRANCH   9  10
ATOM     10  C   UNL     1      -3.252  -0.230  -9.487  1.00  0.00    -0.000 C 
BRANCH  10  11
ATOM     11  C   UNL     1      -2.377   0.826  -8.786  1.00  0.00    -0.003 C 
ATOM     12  C   UNL     1      -1.472   0.229  -7.708  1.00  0.00     0.004 C 
ENDBRANCH  10  11
ENDBRANCH   9  10
ENDBRANCH   8   9
ENDBRANCH   7   8
ENDBRANCH   6   7
ENDBRANCH   5   6
ENDBRANCH   4   5
ENDBRANCH   3   4
ENDBRANCH   2   3
ENDBRANCH   1   2
BRANCH   1  13
ATOM     13  C   UNL     1      -4.694  -0.127  -5.743  1.00  0.00     0.000 C 
BRANCH  13  14
ATOM     14  C   UNL     1      -4.360  -1.608  -6.018  1.00  0.00     0.000 C 
BRANCH  14  15
ATOM     15  C   UNL     1      -5.140  -2.176  -7.217  1.00  0.00     0.000 C 
BRANCH  15  16
ATOM     16  C   UNL     1      -6.638  -2.345  -6.918  1.00  0.00     0.000 C 
BRANCH  16  17
ATOM     17  C   UNL     1      -7.471  -2.561  -8.192  1.00  0.00     0.000 C 
BRANCH  17  18
ATOM     18  C   UNL     1      -6.620  -3.189  -9.305  1.00  0.00     0.000 C 
BRANCH  18  19
ATOM     19  C   UNL     1      -6.710  -4.733  -9.311  1.00  0.00     0.000 C 
BRANCH  19  20
ATOM     20  C   UNL     1      -5.403  -5.425  -8.881  1.00  0.00     0.006 C 
BRANCH  20  21
ATOM     21  C   UNL     1      -5.473  -6.086  -7.495  1.00  0.00     0.053 C 
BRANCH  21  22
ATOM     22  C   UNL     1      -5.211  -7.560  -7.562  1.00  0.00     0.041 C 
ATOM     23  O   UNL     1      -5.675  -8.326  -6.676  1.00  0.00    -0.550 OA
ATOM     24  O   UNL     1      -4.465  -8.091  -8.606  1.00  0.00    -0.550 OA
ENDBRANCH  21  22
ENDBRANCH  20  21
ENDBRANCH  19  20
ENDBRANCH  18  19
ENDBRANCH  17  18
ENDBRANCH  16  17
ENDBRANCH  15  16
ENDBRANCH  14  15
ENDBRANCH  13  14
ENDBRANCH   1  13
TORSDOF 20
ENDMDL
MODEL 7
REMARK VINA RESULT:    -3.517      3.551      8.318
REMARK INTER + INTRA:         -10.802
REMARK INTER:                  -8.262
REMARK INTRA:                  -2.540
REMARK UNBOUND:                -3.172
REMARK SMILES CCCCCCCCCCCCCCCCCCCCCC(=O)[O-]
REMARK SMILES IDX 12 1 11 2 10 3 9 4 8 5 7 6 6 7 5 8 4 9 3 10 2 11 1 12 13 13
REMARK SMILES IDX 14 14 15 15 16 16 17 17 18 18 19 19 20 20 21 21 22 22 23 23
REMARK SMILES IDX 24 24
REMARK H PARENT
REMARK Flexibility Score: inf
ROOT
ATOM      1  C   UNL     1      -3.896  -2.399   7.550  1.00  0.00     0.000 C 
ENDROOT
BRANCH   1   2
ATOM      2  C   UNL     1      -5.191  -3.008   6.980  1.00  0.00     0.000 C 
BRANCH   2   3
ATOM      3  C   UNL     1      -5.083  -3.560   5.546  1.00  0.00     0.000 C 
BRANCH   3   4
ATOM      4  C   UNL     1      -6.442  -3.984   4.962  1.00  0.00    -0.000 C 
BRANCH   4   5
ATOM      5  C   UNL     1      -7.560  -4.025   6.021  1.00  0.00    -0.000 C 
BRANCH   5   6
ATOM      6  C   UNL     1      -7.997  -5.439   6.453  1.00  0.00    -0.000 C 
BRANCH   6   7
ATOM      7  C   UNL     1      -7.423  -5.915   7.802  1.00  0.00    -0.000 C 
BRANCH   7   8
ATOM      8  C   UNL     1      -7.947  -7.299   8.243  1.00  0.00    -0.000 C 
BRANCH   8   9
ATOM      9  C   UNL     1      -7.304  -7.774   9.558  1.00  0.00    -0.000 C 
BRANCH   9  10
ATOM     10  C   UNL     1      -7.167  -9.306   9.632  1.00  0.00    -0.000 C 
BRANCH  10  11
ATOM     11  C   UNL     1      -6.287  -9.918   8.525  1.00  0.00    -0.003 C 
ATOM     12  C   UNL     1      -4.804  -9.957   8.896  1.00  0.00     0.004 C 
ENDBRANCH  10  11
ENDBRANCH   9  10
ENDBRANCH   8   9
ENDBRANCH   7   8
ENDBRANCH   6   7
ENDBRANCH   5   6
ENDBRANCH   4   5
ENDBRANCH   3   4
ENDBRANCH   2   3
ENDBRANCH   1   2
BRANCH   1  13
ATOM     13  C   UNL     1      -3.587  -0.959   7.091  1.00  0.00     0.000 C 
BRANCH  13  14
ATOM     14  C   UNL     1      -3.288   0.015   8.250  1.00  0.00     0.000 C 
BRANCH  14  15
ATOM     15  C   UNL     1      -2.996   1.444   7.759  1.00  0.00     0.000 C 
BRANCH  15  16
ATOM     16  C   UNL     1      -4.234   2.121   7.149  1.00  0.00     0.000 C 
BRANCH  16  17
ATOM     17  C   UNL     1      -5.454   2.064   8.082  1.00  0.00     0.000 C 
BRANCH  17  18
ATOM     18  C   UNL     1      -6.742   1.805   7.287  1.00  0.00     0.000 C 
BRANCH  18  19
ATOM     19  C   UNL     1      -7.065   0.298   7.170  1.00  0.00     0.000 C 
BRANCH  19  20
ATOM     20  C   UNL     1      -7.585  -0.112   5.779  1.00  0.00     0.006 C 
BRANCH  20  21
ATOM     21  C   UNL     1      -6.487  -0.221   4.709  1.00  0.00     0.053 C 
BRANCH  21  22
ATOM     22  C   UNL     1      -7.057  -0.282   3.325  1.00  0.00     0.041 C 
ATOM     23  O   UNL     1      -7.156   0.767   2.634  1.00  0.00    -0.550 OA
ATOM     24  O   UNL     1      -7.470  -1.497   2.792  1.00  0.00    -0.550 OA
ENDBRANCH  21  22
ENDBRANCH  20  21
ENDBRANCH  19  20
ENDBRANCH  18  19
ENDBRANCH  17  18
ENDBRANCH  16  17
ENDBRANCH  15  16
ENDBRANCH  14  15
ENDBRANCH  13  14
ENDBRANCH   1  13
TORSDOF 20
ENDMDL
MODEL 8
REMARK VINA RESULT:    -3.501      1.481      3.033
REMARK INTER + INTRA:         -10.766
REMARK INTER:                  -8.853
REMARK INTRA:                  -1.913
REMARK UNBOUND:                -3.172
REMARK SMILES CCCCCCCCCCCCCCCCCCCCCC(=O)[O-]
REMARK SMILES IDX 12 1 11 2 10 3 9 4 8 5 7 6 6 7 5 8 4 9 3 10 2 11 1 12 13 13
REMARK SMILES IDX 14 14 15 15 16 16 17 17 18 18 19 19 20 20 21 21 22 22 23 23
REMARK SMILES IDX 24 24
REMARK H PARENT
REMARK Flexibility Score: inf
ROOT
ATOM      1  C   UNL     1      -7.592  -3.237   3.860  1.00  0.00     0.000 C 
ENDROOT
BRANCH   1   2
ATOM      2  C   UNL     1      -8.083  -1.815   3.529  1.00  0.00     0.000 C 
BRANCH   2   3
ATOM      3  C   UNL     1      -6.994  -0.836   3.054  1.00  0.00     0.000 C 
BRANCH   3   4
ATOM      4  C   UNL     1      -7.328   0.633   3.368  1.00  0.00    -0.000 C 
BRANCH   4   5
ATOM      5  C   UNL     1      -7.349   0.930   4.880  1.00  0.00    -0.000 C 
BRANCH   5   6
ATOM      6  C   UNL     1      -6.240   0.237   5.695  1.00  0.00    -0.000 C 
BRANCH   6   7
ATOM      7  C   UNL     1      -5.714   1.044   6.898  1.00  0.00    -0.000 C 
BRANCH   7   8
ATOM      8  C   UNL     1      -4.250   1.507   6.741  1.00  0.00    -0.000 C 
BRANCH   8   9
ATOM      9  C   UNL     1      -3.252   0.498   7.337  1.00  0.00    -0.000 C 
BRANCH   9  10
ATOM     10  C   UNL     1      -3.767  -0.150   8.635  1.00  0.00    -0.000 C 
BRANCH  10  11
ATOM     11  C   UNL     1      -3.690  -1.688   8.650  1.00  0.00    -0.003 C 
ATOM     12  C   UNL     1      -3.722  -2.299   7.248  1.00  0.00     0.004 C 
ENDBRANCH  10  11
ENDBRANCH   9  10
ENDBRANCH   8   9
ENDBRANCH   7   8
ENDBRANCH   6   7
ENDBRANCH   5   6
ENDBRANCH   4   5
ENDBRANCH   3   4
ENDBRANCH   2   3
ENDBRANCH   1   2
BRANCH   1  13
ATOM     13  C   UNL     1      -6.177  -3.321   4.468  1.00  0.00     0.000 C 
BRANCH  13  14
ATOM     14  C   UNL     1      -6.077  -4.257   5.690  1.00  0.00     0.000 C 
BRANCH  14  15
ATOM     15  C   UNL     1      -6.971  -3.803   6.857  1.00  0.00     0.000 C 
BRANCH  15  16
ATOM     16  C   UNL     1      -7.434  -4.977   7.735  1.00  0.00     0.000 C 
BRANCH  16  17
ATOM     17  C   UNL     1      -6.972  -4.836   9.195  1.00  0.00     0.000 C 
BRANCH  17  18
ATOM     18  C   UNL     1      -7.057  -6.182   9.930  1.00  0.00     0.000 C 
BRANCH  18  19
ATOM     19  C   UNL     1      -7.137  -7.379   8.955  1.00  0.00     0.000 C 
BRANCH  19  20
ATOM     20  C   UNL     1      -6.771  -8.726   9.606  1.00  0.00     0.006 C 
BRANCH  20  21
ATOM     21  C   UNL     1      -6.374  -9.818   8.601  1.00  0.00     0.053 C 
BRANCH  21  22
ATOM     22  C   UNL     1      -4.990 -10.335   8.852  1.00  0.00     0.041 C 
ATOM     23  O   UNL     1      -3.988  -9.639   8.539  1.00  0.00    -0.550 OA
ATOM     24  O   UNL     1      -4.804 -11.580   9.440  1.00  0.00    -0.550 OA
ENDBRANCH  21  22
ENDBRANCH  20  21
ENDBRANCH  19  20
ENDBRANCH  18  19
ENDBRANCH  17  18
ENDBRANCH  16  17
ENDBRANCH  15  16
ENDBRANCH  14  15
ENDBRANCH  13  14
ENDBRANCH   1  13
TORSDOF 20
ENDMDL
MODEL 9
REMARK VINA RESULT:    -3.478      3.551      7.699
REMARK INTER + INTRA:         -10.716
REMARK INTER:                  -7.713
REMARK INTRA:                  -3.003
REMARK UNBOUND:                -3.172
REMARK SMILES CCCCCCCCCCCCCCCCCCCCCC(=O)[O-]
REMARK SMILES IDX 12 1 11 2 10 3 9 4 8 5 7 6 6 7 5 8 4 9 3 10 2 11 1 12 13 13
REMARK SMILES IDX 14 14 15 15 16 16 17 17 18 18 19 19 20 20 21 21 22 22 23 23
REMARK SMILES IDX 24 24
REMARK H PARENT
REMARK Flexibility Score: inf
ROOT
ATOM      1  C   UNL     1      -4.102  -0.887   8.433  1.00  0.00     0.000 C 
ENDROOT
BRANCH   1   2
ATOM      2  C   UNL     1      -3.533  -2.257   8.846  1.00  0.00     0.000 C 
BRANCH   2   3
ATOM      3  C   UNL     1      -4.434  -3.091   9.777  1.00  0.00     0.000 C 
BRANCH   3   4
ATOM      4  C   UNL     1      -5.892  -2.599   9.800  1.00  0.00    -0.000 C 
BRANCH   4   5
ATOM      5  C   UNL     1      -6.899  -3.728  10.087  1.00  0.00    -0.000 C 
BRANCH   5   6
ATOM      6  C   UNL     1      -7.780  -4.135   8.890  1.00  0.00    -0.000 C 
BRANCH   6   7
ATOM      7  C   UNL     1      -7.552  -5.569   8.371  1.00  0.00    -0.000 C 
BRANCH   7   8
ATOM      8  C   UNL     1      -7.936  -5.758   6.887  1.00  0.00    -0.000 C 
BRANCH   8   9
ATOM      9  C   UNL     1      -8.026  -4.420   6.133  1.00  0.00    -0.000 C 
BRANCH   9  10
ATOM     10  C   UNL     1      -7.389  -4.485   4.732  1.00  0.00    -0.000 C 
BRANCH  10  11
ATOM     11  C   UNL     1      -6.137  -3.603   4.563  1.00  0.00    -0.003 C 
ATOM     12  C   UNL     1      -5.303  -3.504   5.841  1.00  0.00     0.004 C 
ENDBRANCH  10  11
ENDBRANCH   9  10
ENDBRANCH   8   9
ENDBRANCH   7   8
ENDBRANCH   6   7
ENDBRANCH   5   6
ENDBRANCH   4   5
ENDBRANCH   3   4
ENDBRANCH   2   3
ENDBRANCH   1   2
BRANCH   1  13
ATOM     13  C   UNL     1      -3.481  -0.272   7.162  1.00  0.00     0.000 C 
BRANCH  13  14
ATOM     14  C   UNL     1      -3.079   1.210   7.318  1.00  0.00     0.000 C 
BRANCH  14  15
ATOM     15  C   UNL     1      -2.197   1.456   8.555  1.00  0.00     0.000 C 
BRANCH  15  16
ATOM     16  C   UNL     1      -2.817   2.473   9.527  1.00  0.00     0.000 C 
BRANCH  16  17
ATOM     17  C   UNL     1      -3.859   3.376   8.847  1.00  0.00     0.000 C 
BRANCH  17  18
ATOM     18  C   UNL     1      -5.186   3.362   9.620  1.00  0.00     0.000 C 
BRANCH  18  19
ATOM     19  C   UNL     1      -5.650   1.928   9.962  1.00  0.00     0.000 C 
BRANCH  19  20
ATOM     20  C   UNL     1      -6.919   1.496   9.203  1.00  0.00     0.006 C 
BRANCH  20  21
ATOM     21  C   UNL     1      -7.053   2.119   7.805  1.00  0.00     0.053 C 
BRANCH  21  22
ATOM     22  C   UNL     1      -6.806   1.117   6.718  1.00  0.00     0.041 C 
ATOM     23  O   UNL     1      -6.242   1.470   5.648  1.00  0.00    -0.550 OA
ATOM     24  O   UNL     1      -7.188  -0.208   6.888  1.00  0.00    -0.550 OA
ENDBRANCH  21  22
ENDBRANCH  20  21
ENDBRANCH  19  20
ENDBRANCH  18  19
ENDBRANCH  17  18
ENDBRANCH  16  17
ENDBRANCH  15  16
ENDBRANCH  14  15
ENDBRANCH  13  14
ENDBRANCH   1  13
TORSDOF 20
ENDMDL
