MODEL 1
REMARK VINA RESULT:    -3.027      0.000      0.000
REMARK INTER + INTRA:         -11.023
REMARK INTER:                  -6.919
REMARK INTRA:                  -4.104
REMARK UNBOUND:                -4.104
REMARK SMILES CCCCCCCCCCCCCCCCCCCCCCCC(=O)[O-]
REMARK SMILES IDX 13 1 14 2 15 3 16 4 17 5 18 6 19 7 20 8 21 9 22 10 23 11
REMARK SMILES IDX 24 12 25 13 26 14 12 15 11 16 10 17 9 18 8 19 7 20 6 21 5 22
REMARK SMILES IDX 4 23 3 24 2 25 1 26
REMARK H PARENT
REMARK Flexibility Score: inf
ROOT
ATOM      1  C   UNL     1      18.247 -12.799 186.295  1.00  0.00     0.000 C 
ENDROOT
BRANCH   1   2
ATOM      2  C   UNL     1      18.319 -11.695 187.372  1.00  0.00     0.000 C 
BRANCH   2   3
ATOM      3  C   UNL     1      19.768 -11.296 187.708  1.00  0.00     0.000 C 
BRANCH   3   4
ATOM      4  C   UNL     1      20.022  -9.789 187.543  1.00  0.00     0.000 C 
BRANCH   4   5
ATOM      5  C   UNL     1      19.656  -9.273 186.139  1.00  0.00     0.000 C 
BRANCH   5   6
ATOM      6  C   UNL     1      18.685  -8.073 186.181  1.00  0.00     0.000 C 
BRANCH   6   7
ATOM      7  C   UNL     1      17.198  -8.464 186.066  1.00  0.00     0.000 C 
BRANCH   7   8
ATOM      8  C   UNL     1      16.227  -7.605 186.897  1.00  0.00     0.000 C 
BRANCH   8   9
ATOM      9  C   UNL     1      15.810  -8.213 188.252  1.00  0.00     0.000 C 
BRANCH   9  10
ATOM     10  C   UNL     1      16.846  -8.053 189.383  1.00  0.00     0.006 C 
BRANCH  10  11
ATOM     11  C   UNL     1      17.626  -6.729 189.344  1.00  0.00     0.053 C 
BRANCH  11  12
ATOM     12  C   UNL     1      18.940  -6.828 190.059  1.00  0.00     0.041 C 
ATOM     13  O   UNL     1      19.392  -7.953 190.398  1.00  0.00    -0.550 OA
ATOM     14  O   UNL     1      19.659  -5.677 190.355  1.00  0.00    -0.550 OA
ENDBRANCH  11  12
ENDBRANCH  10  11
ENDBRANCH   9  10
ENDBRANCH   8   9
ENDBRANCH   7   8
ENDBRANCH   6   7
ENDBRANCH   5   6
ENDBRANCH   4   5
ENDBRANCH   3   4
ENDBRANCH   2   3
ENDBRANCH   1   2
BRANCH   1  15
ATOM     15  C   UNL     1      18.119 -14.223 186.865  1.00  0.00     0.000 C 
BRANCH  15  16
ATOM     16  C   UNL     1      16.707 -14.534 187.389  1.00  0.00     0.000 C 
BRANCH  16  17
ATOM     17  C   UNL     1      16.054 -15.720 186.660  1.00  0.00     0.000 C 
BRANCH  17  18
ATOM     18  C   UNL     1      14.766 -15.318 185.924  1.00  0.00    -0.000 C 
BRANCH  18  19
ATOM     19  C   UNL     1      15.059 -14.977 184.455  1.00  0.00    -0.000 C 
BRANCH  19  20
ATOM     20  C   UNL     1      14.509 -13.604 184.036  1.00  0.00    -0.000 C 
BRANCH  20  21
ATOM     21  C   UNL     1      15.615 -12.546 183.875  1.00  0.00    -0.000 C 
BRANCH  21  22
ATOM     22  C   UNL     1      15.307 -11.236 184.624  1.00  0.00    -0.000 C 
BRANCH  22  23
ATOM     23  C   UNL     1      14.152 -11.318 185.639  1.00  0.00    -0.000 C 
BRANCH  23  24
ATOM     24  C   UNL     1      14.635 -11.473 187.090  1.00  0.00    -0.000 C 
BRANCH  24  25
ATOM     25  C   UNL     1      13.704 -12.399 187.882  1.00  0.00    -0.003 C 
ATOM     26  C   UNL     1      13.826 -12.150 189.383  1.00  0.00     0.004 C 
ENDBRANCH  24  25
ENDBRANCH  23  24
ENDBRANCH  22  23
ENDBRANCH  21  22
ENDBRANCH  20  21
ENDBRANCH  19  20
ENDBRANCH  18  19
ENDBRANCH  17  18
ENDBRANCH  16  17
ENDBRANCH  15  16
ENDBRANCH   1  15
TORSDOF 22
ENDMDL
MODEL 2
REMARK VINA RESULT:    -2.975     14.932     19.130
REMARK INTER + INTRA:         -10.906
REMARK INTER:                  -6.292
REMARK INTRA:                  -4.614
REMARK UNBOUND:                -4.104
REMARK SMILES CCCCCCCCCCCCCCCCCCCCCCCC(=O)[O-]
REMARK SMILES IDX 13 1 14 2 15 3 16 4 17 5 18 6 19 7 20 8 21 9 22 10 23 11
REMARK SMILES IDX 24 12 25 13 26 14 12 15 11 16 10 17 9 18 8 19 7 20 6 21 5 22
REMARK SMILES IDX 4 23 3 24 2 25 1 26
REMARK H PARENT
REMARK Flexibility Score: inf
ROOT
ATOM      1  C   UNL     1      15.033  -0.141 200.755  1.00  0.00     0.000 C 
ENDROOT
BRANCH   1   2
ATOM      2  C   UNL     1      15.240  -1.665 200.886  1.00  0.00     0.000 C 
BRANCH   2   3
ATOM      3  C   UNL     1      15.335  -2.122 202.353  1.00  0.00     0.000 C 
BRANCH   3   4
ATOM      4  C   UNL     1      14.108  -2.929 202.805  1.00  0.00     0.000 C 
BRANCH   4   5
ATOM      5  C   UNL     1      13.409  -2.315 204.031  1.00  0.00     0.000 C 
BRANCH   5   6
ATOM      6  C   UNL     1      12.261  -1.357 203.645  1.00  0.00     0.000 C 
BRANCH   6   7
ATOM      7  C   UNL     1      11.117  -2.031 202.861  1.00  0.00     0.000 C 
BRANCH   7   8
ATOM      8  C   UNL     1      10.627  -1.259 201.622  1.00  0.00     0.000 C 
BRANCH   8   9
ATOM      9  C   UNL     1      11.604  -1.248 200.429  1.00  0.00     0.000 C 
BRANCH   9  10
ATOM     10  C   UNL     1      11.359  -2.349 199.377  1.00  0.00     0.006 C 
BRANCH  10  11
ATOM     11  C   UNL     1      12.315  -3.549 199.482  1.00  0.00     0.053 C 
BRANCH  11  12
ATOM     12  C   UNL     1      12.963  -3.869 198.170  1.00  0.00     0.041 C 
ATOM     13  O   UNL     1      14.048  -3.317 197.848  1.00  0.00    -0.550 OA
ATOM     14  O   UNL     1      12.365  -4.773 197.300  1.00  0.00    -0.550 OA
ENDBRANCH  11  12
ENDBRANCH  10  11
ENDBRANCH   9  10
ENDBRANCH   8   9
ENDBRANCH   7   8
ENDBRANCH   6   7
ENDBRANCH   5   6
ENDBRANCH   4   5
ENDBRANCH   3   4
ENDBRANCH   2   3
ENDBRANCH   1   2
BRANCH   1  15
ATOM     15  C   UNL     1      15.153   0.624 202.086  1.00  0.00     0.000 C 
BRANCH  15  16
ATOM     16  C   UNL     1      13.984   1.593 202.327  1.00  0.00     0.000 C 
BRANCH  16  17
ATOM     17  C   UNL     1      13.403   2.156 201.019  1.00  0.00     0.000 C 
BRANCH  17  18
ATOM     18  C   UNL     1      11.875   2.314 201.077  1.00  0.00    -0.000 C 
BRANCH  18  19
ATOM     19  C   UNL     1      11.365   2.172 202.519  1.00  0.00    -0.000 C 
BRANCH  19  20
ATOM     20  C   UNL     1       9.999   2.841 202.742  1.00  0.00    -0.000 C 
BRANCH  20  21
ATOM     21  C   UNL     1       8.829   1.848 202.642  1.00  0.00    -0.000 C 
BRANCH  21  22
ATOM     22  C   UNL     1       7.550   2.482 202.064  1.00  0.00    -0.000 C 
BRANCH  22  23
ATOM     23  C   UNL     1       7.106   1.931 200.695  1.00  0.00    -0.000 C 
BRANCH  23  24
ATOM     24  C   UNL     1       7.729   0.566 200.366  1.00  0.00    -0.000 C 
BRANCH  24  25
ATOM     25  C   UNL     1       8.633   0.659 199.130  1.00  0.00    -0.003 C 
ATOM     26  C   UNL     1       8.908   2.113 198.757  1.00  0.00     0.004 C 
ENDBRANCH  24  25
ENDBRANCH  23  24
ENDBRANCH  22  23
ENDBRANCH  21  22
ENDBRANCH  20  21
ENDBRANCH  19  20
ENDBRANCH  18  19
ENDBRANCH  17  18
ENDBRANCH  16  17
ENDBRANCH  15  16
ENDBRANCH   1  15
TORSDOF 22
ENDMDL
MODEL 3
REMARK VINA RESULT:    -2.957      2.501      3.316
REMARK INTER + INTRA:         -10.864
REMARK INTER:                  -7.070
REMARK INTRA:                  -3.794
REMARK UNBOUND:                -4.104
REMARK SMILES CCCCCCCCCCCCCCCCCCCCCCCC(=O)[O-]
REMARK SMILES IDX 13 1 14 2 15 3 16 4 17 5 18 6 19 7 20 8 21 9 22 10 23 11
REMARK SMILES IDX 24 12 25 13 26 14 12 15 11 16 10 17 9 18 8 19 7 20 6 21 5 22
REMARK SMILES IDX 4 23 3 24 2 25 1 26
REMARK H PARENT
REMARK Flexibility Score: inf
ROOT
ATOM      1  C   UNL     1      18.317 -12.832 186.767  1.00  0.00     0.000 C 
ENDROOT
BRANCH   1   2
ATOM      2  C   UNL     1      19.304 -11.981 187.594  1.00  0.00     0.000 C 
BRANCH   2   3
ATOM      3  C   UNL     1      19.727 -10.694 186.861  1.00  0.00     0.000 C 
BRANCH   3   4
ATOM      4  C   UNL     1      19.962  -9.515 187.819  1.00  0.00     0.000 C 
BRANCH   4   5
ATOM      5  C   UNL     1      18.794  -9.302 188.799  1.00  0.00     0.000 C 
BRANCH   5   6
ATOM      6  C   UNL     1      18.914  -7.983 189.591  1.00  0.00     0.000 C 
BRANCH   6   7
ATOM      7  C   UNL     1      18.833  -6.715 188.717  1.00  0.00     0.000 C 
BRANCH   7   8
ATOM      8  C   UNL     1      17.756  -6.746 187.616  1.00  0.00     0.000 C 
BRANCH   8   9
ATOM      9  C   UNL     1      18.292  -6.657 186.173  1.00  0.00     0.000 C 
BRANCH   9  10
ATOM     10  C   UNL     1      17.260  -6.983 185.075  1.00  0.00     0.006 C 
BRANCH  10  11
ATOM     11  C   UNL     1      16.725  -5.752 184.324  1.00  0.00     0.053 C 
BRANCH  11  12
ATOM     12  C   UNL     1      15.321  -5.415 184.724  1.00  0.00     0.041 C 
ATOM     13  O   UNL     1      14.369  -5.615 183.924  1.00  0.00    -0.550 OA
ATOM     14  O   UNL     1      15.065  -4.873 185.977  1.00  0.00    -0.550 OA
ENDBRANCH  11  12
ENDBRANCH  10  11
ENDBRANCH   9  10
ENDBRANCH   8   9
ENDBRANCH   7   8
ENDBRANCH   6   7
ENDBRANCH   5   6
ENDBRANCH   4   5
ENDBRANCH   3   4
ENDBRANCH   2   3
ENDBRANCH   1   2
BRANCH   1  15
ATOM     15  C   UNL     1      18.553 -14.349 186.877  1.00  0.00     0.000 C 
BRANCH  15  16
ATOM     16  C   UNL     1      17.267 -15.171 186.688  1.00  0.00     0.000 C 
BRANCH  16  17
ATOM     17  C   UNL     1      16.031 -14.288 186.452  1.00  0.00     0.000 C 
BRANCH  17  18
ATOM     18  C   UNL     1      15.363 -14.565 185.095  1.00  0.00    -0.000 C 
BRANCH  18  19
ATOM     19  C   UNL     1      14.616 -13.322 184.589  1.00  0.00    -0.000 C 
BRANCH  19  20
ATOM     20  C   UNL     1      15.559 -12.219 184.082  1.00  0.00    -0.000 C 
BRANCH  20  21
ATOM     21  C   UNL     1      15.173 -10.823 184.601  1.00  0.00    -0.000 C 
BRANCH  21  22
ATOM     22  C   UNL     1      16.160 -10.277 185.650  1.00  0.00    -0.000 C 
BRANCH  22  23
ATOM     23  C   UNL     1      15.523  -9.841 186.983  1.00  0.00    -0.000 C 
BRANCH  23  24
ATOM     24  C   UNL     1      15.624 -10.914 188.078  1.00  0.00    -0.000 C 
BRANCH  24  25
ATOM     25  C   UNL     1      14.262 -11.152 188.741  1.00  0.00    -0.003 C 
ATOM     26  C   UNL     1      13.388 -12.072 187.891  1.00  0.00     0.004 C 
ENDBRANCH  24  25
ENDBRANCH  23  24
ENDBRANCH  22  23
ENDBRANCH  21  22
ENDBRANCH  20  21
ENDBRANCH  19  20
ENDBRANCH  18  19
ENDBRANCH  17  18
ENDBRANCH  16  17
ENDBRANCH  15  16
ENDBRANCH   1  15
TORSDOF 22
ENDMDL
MODEL 4
REMARK VINA RESULT:    -2.941     17.278     19.817
REMARK INTER + INTRA:         -10.827
REMARK INTER:                  -6.588
REMARK INTRA:                  -4.239
REMARK UNBOUND:                -4.104
REMARK SMILES CCCCCCCCCCCCCCCCCCCCCCCC(=O)[O-]
REMARK SMILES IDX 13 1 14 2 15 3 16 4 17 5 18 6 19 7 20 8 21 9 22 10 23 11
REMARK SMILES IDX 24 12 25 13 26 14 12 15 11 16 10 17 9 18 8 19 7 20 6 21 5 22
REMARK SMILES IDX 4 23 3 24 2 25 1 26
REMARK H PARENT
REMARK Flexibility Score: inf
ROOT
ATOM      1  C   UNL     1      10.072  -0.640 198.942  1.00  0.00     0.000 C 
ENDROOT
BRANCH   1   2
ATOM      2  C   UNL     1      11.473  -0.045 199.196  1.00  0.00     0.000 C 
BRANCH   2   3
ATOM      3  C   UNL     1      12.130  -0.611 200.469  1.00  0.00     0.000 C 
BRANCH   3   4
ATOM      4  C   UNL     1      11.756  -2.078 200.728  1.00  0.00     0.000 C 
BRANCH   4   5
ATOM      5  C   UNL     1      10.965  -2.269 202.036  1.00  0.00     0.000 C 
BRANCH   5   6
ATOM      6  C   UNL     1      11.346  -1.236 203.118  1.00  0.00     0.000 C 
BRANCH   6   7
ATOM      7  C   UNL     1      12.421  -1.729 204.107  1.00  0.00     0.000 C 
BRANCH   7   8
ATOM      8  C   UNL     1      13.826  -1.134 203.899  1.00  0.00     0.000 C 
BRANCH   8   9
ATOM      9  C   UNL     1      14.759  -1.960 202.991  1.00  0.00     0.000 C 
BRANCH   9  10
ATOM     10  C   UNL     1      16.130  -1.314 202.707  1.00  0.00     0.006 C 
BRANCH  10  11
ATOM     11  C   UNL     1      16.502  -0.173 203.668  1.00  0.00     0.053 C 
BRANCH  11  12
ATOM     12  C   UNL     1      17.910   0.298 203.464  1.00  0.00     0.041 C 
ATOM     13  O   UNL     1      18.132   1.409 202.913  1.00  0.00    -0.550 OA
ATOM     14  O   UNL     1      18.976  -0.492 203.876  1.00  0.00    -0.550 OA
ENDBRANCH  11  12
ENDBRANCH  10  11
ENDBRANCH   9  10
ENDBRANCH   8   9
ENDBRANCH   7   8
ENDBRANCH   6   7
ENDBRANCH   5   6
ENDBRANCH   4   5
ENDBRANCH   3   4
ENDBRANCH   2   3
ENDBRANCH   1   2
BRANCH   1  15
ATOM     15  C   UNL     1       8.966   0.414 198.756  1.00  0.00     0.000 C 
BRANCH  15  16
ATOM     16  C   UNL     1       8.877   1.402 199.930  1.00  0.00     0.000 C 
BRANCH  16  17
ATOM     17  C   UNL     1       8.554   0.708 201.263  1.00  0.00     0.000 C 
BRANCH  17  18
ATOM     18  C   UNL     1       8.734   1.644 202.470  1.00  0.00    -0.000 C 
BRANCH  18  19
ATOM     19  C   UNL     1       9.704   2.786 202.136  1.00  0.00    -0.000 C 
BRANCH  19  20
ATOM     20  C   UNL     1      10.983   2.756 202.987  1.00  0.00    -0.000 C 
BRANCH  20  21
ATOM     21  C   UNL     1      12.262   2.672 202.135  1.00  0.00    -0.000 C 
BRANCH  21  22
ATOM     22  C   UNL     1      13.501   2.255 202.949  1.00  0.00    -0.000 C 
BRANCH  22  23
ATOM     23  C   UNL     1      14.839   2.831 202.447  1.00  0.00    -0.000 C 
BRANCH  23  24
ATOM     24  C   UNL     1      14.978   2.783 200.917  1.00  0.00    -0.000 C 
BRANCH  24  25
ATOM     25  C   UNL     1      15.305   1.363 200.440  1.00  0.00    -0.003 C 
ATOM     26  C   UNL     1      16.563   1.350 199.575  1.00  0.00     0.004 C 
ENDBRANCH  24  25
ENDBRANCH  23  24
ENDBRANCH  22  23
ENDBRANCH  21  22
ENDBRANCH  20  21
ENDBRANCH  19  20
ENDBRANCH  18  19
ENDBRANCH  17  18
ENDBRANCH  16  17
ENDBRANCH  15  16
ENDBRANCH   1  15
TORSDOF 22
ENDMDL
MODEL 5
REMARK VINA RESULT:    -2.914     16.335     19.315
REMARK INTER + INTRA:         -10.765
REMARK INTER:                  -6.190
REMARK INTRA:                  -4.574
REMARK UNBOUND:                -4.104
REMARK SMILES CCCCCCCCCCCCCCCCCCCCCCCC(=O)[O-]
REMARK SMILES IDX 13 1 14 2 15 3 16 4 17 5 18 6 19 7 20 8 21 9 22 10 23 11
REMARK SMILES IDX 24 12 25 13 26 14 12 15 11 16 10 17 9 18 8 19 7 20 6 21 5 22
REMARK SMILES IDX 4 23 3 24 2 25 1 26
REMARK H PARENT
REMARK Flexibility Score: inf
ROOT
ATOM      1  C   UNL     1      11.492  -1.295 200.835  1.00  0.00     0.000 C 
ENDROOT
BRANCH   1   2
ATOM      2  C   UNL     1      10.753  -1.914 202.040  1.00  0.00     0.000 C 
BRANCH   2   3
ATOM      3  C   UNL     1      11.459  -1.618 203.377  1.00  0.00     0.000 C 
BRANCH   3   4
ATOM      4  C   UNL     1      12.754  -0.811 203.199  1.00  0.00     0.000 C 
BRANCH   4   5
ATOM      5  C   UNL     1      14.007  -1.588 203.644  1.00  0.00     0.000 C 
BRANCH   5   6
ATOM      6  C   UNL     1      14.168  -2.932 202.902  1.00  0.00     0.000 C 
BRANCH   6   7
ATOM      7  C   UNL     1      15.346  -2.962 201.907  1.00  0.00     0.000 C 
BRANCH   7   8
ATOM      8  C   UNL     1      14.960  -2.768 200.429  1.00  0.00     0.000 C 
BRANCH   8   9
ATOM      9  C   UNL     1      14.977  -1.307 199.935  1.00  0.00     0.000 C 
BRANCH   9  10
ATOM     10  C   UNL     1      16.099  -0.432 200.529  1.00  0.00     0.006 C 
BRANCH  10  11
ATOM     11  C   UNL     1      15.604   0.851 201.217  1.00  0.00     0.053 C 
BRANCH  11  12
ATOM     12  C   UNL     1      16.292   1.090 202.527  1.00  0.00     0.041 C 
ATOM     13  O   UNL     1      17.504   0.781 202.671  1.00  0.00    -0.550 OA
ATOM     14  O   UNL     1      15.591   1.647 203.590  1.00  0.00    -0.550 OA
ENDBRANCH  11  12
ENDBRANCH  10  11
ENDBRANCH   9  10
ENDBRANCH   8   9
ENDBRANCH   7   8
ENDBRANCH   6   7
ENDBRANCH   5   6
ENDBRANCH   4   5
ENDBRANCH   3   4
ENDBRANCH   2   3
ENDBRANCH   1   2
BRANCH   1  15
ATOM     15  C   UNL     1      10.558  -0.754 199.737  1.00  0.00     0.000 C 
BRANCH  15  16
ATOM     16  C   UNL     1       9.145  -1.357 199.802  1.00  0.00     0.000 C 
BRANCH  16  17
ATOM     17  C   UNL     1       8.044  -0.284 199.816  1.00  0.00     0.000 C 
BRANCH  17  18
ATOM     18  C   UNL     1       8.579   1.101 200.212  1.00  0.00    -0.000 C 
BRANCH  18  19
ATOM     19  C   UNL     1       8.186   1.446 201.656  1.00  0.00    -0.000 C 
BRANCH  19  20
ATOM     20  C   UNL     1       9.383   1.453 202.620  1.00  0.00    -0.000 C 
BRANCH  20  21
ATOM     21  C   UNL     1      10.113   2.807 202.651  1.00  0.00    -0.000 C 
BRANCH  21  22
ATOM     22  C   UNL     1      11.645   2.666 202.603  1.00  0.00    -0.000 C 
BRANCH  22  23
ATOM     23  C   UNL     1      12.223   2.257 201.235  1.00  0.00    -0.000 C 
BRANCH  23  24
ATOM     24  C   UNL     1      11.686   3.111 200.075  1.00  0.00    -0.000 C 
BRANCH  24  25
ATOM     25  C   UNL     1      12.662   3.107 198.893  1.00  0.00    -0.003 C 
ATOM     26  C   UNL     1      14.036   3.625 199.311  1.00  0.00     0.004 C 
ENDBRANCH  24  25
ENDBRANCH  23  24
ENDBRANCH  22  23
ENDBRANCH  21  22
ENDBRANCH  20  21
ENDBRANCH  19  20
ENDBRANCH  18  19
ENDBRANCH  17  18
ENDBRANCH  16  17
ENDBRANCH  15  16
ENDBRANCH   1  15
TORSDOF 22
ENDMDL
MODEL 6
REMARK VINA RESULT:    -2.907     16.001     19.005
REMARK INTER + INTRA:         -10.750
REMARK INTER:                  -6.385
REMARK INTRA:                  -4.366
REMARK UNBOUND:                -4.104
REMARK SMILES CCCCCCCCCCCCCCCCCCCCCCCC(=O)[O-]
REMARK SMILES IDX 13 1 14 2 15 3 16 4 17 5 18 6 19 7 20 8 21 9 22 10 23 11
REMARK SMILES IDX 24 12 25 13 26 14 12 15 11 16 10 17 9 18 8 19 7 20 6 21 5 22
REMARK SMILES IDX 4 23 3 24 2 25 1 26
REMARK H PARENT
REMARK Flexibility Score: inf
ROOT
ATOM      1  C   UNL     1      12.938   1.266 201.293  1.00  0.00     0.000 C 
ENDROOT
BRANCH   1   2
ATOM      2  C   UNL     1      12.114   1.935 202.413  1.00  0.00     0.000 C 
BRANCH   2   3
ATOM      3  C   UNL     1      10.690   2.305 201.954  1.00  0.00     0.000 C 
BRANCH   3   4
ATOM      4  C   UNL     1       9.608   1.446 202.627  1.00  0.00     0.000 C 
BRANCH   4   5
ATOM      5  C   UNL     1       8.498   1.015 201.651  1.00  0.00     0.000 C 
BRANCH   5   6
ATOM      6  C   UNL     1       9.053   0.330 200.383  1.00  0.00     0.000 C 
BRANCH   6   7
ATOM      7  C   UNL     1       8.208  -0.864 199.894  1.00  0.00     0.000 C 
BRANCH   7   8
ATOM      8  C   UNL     1       7.986  -0.930 198.371  1.00  0.00     0.000 C 
BRANCH   8   9
ATOM      9  C   UNL     1       9.188  -0.486 197.514  1.00  0.00     0.000 C 
BRANCH   9  10
ATOM     10  C   UNL     1       8.835   0.417 196.316  1.00  0.00     0.006 C 
BRANCH  10  11
ATOM     11  C   UNL     1       7.431   0.181 195.737  1.00  0.00     0.053 C 
BRANCH  11  12
ATOM     12  C   UNL     1       7.417  -0.924 194.725  1.00  0.00     0.041 C 
ATOM     13  O   UNL     1       6.355  -1.563 194.500  1.00  0.00    -0.550 OA
ATOM     14  O   UNL     1       8.578  -1.252 194.036  1.00  0.00    -0.550 OA
ENDBRANCH  11  12
ENDBRANCH  10  11
ENDBRANCH   9  10
ENDBRANCH   8   9
ENDBRANCH   7   8
ENDBRANCH   6   7
ENDBRANCH   5   6
ENDBRANCH   4   5
ENDBRANCH   3   4
ENDBRANCH   2   3
ENDBRANCH   1   2
BRANCH   1  15
ATOM     15  C   UNL     1      12.417   1.554 199.873  1.00  0.00     0.000 C 
BRANCH  15  16
ATOM     16  C   UNL     1      12.495   0.329 198.947  1.00  0.00     0.000 C 
BRANCH  16  17
ATOM     17  C   UNL     1      12.985  -0.933 199.675  1.00  0.00     0.000 C 
BRANCH  17  18
ATOM     18  C   UNL     1      11.890  -2.006 199.790  1.00  0.00    -0.000 C 
BRANCH  18  19
ATOM     19  C   UNL     1      11.908  -2.658 201.181  1.00  0.00    -0.000 C 
BRANCH  19  20
ATOM     20  C   UNL     1      10.913  -2.013 202.160  1.00  0.00    -0.000 C 
BRANCH  20  21
ATOM     21  C   UNL     1      11.572  -1.594 203.486  1.00  0.00    -0.000 C 
BRANCH  21  22
ATOM     22  C   UNL     1      12.977  -2.195 203.676  1.00  0.00    -0.000 C 
BRANCH  22  23
ATOM     23  C   UNL     1      14.125  -1.169 203.732  1.00  0.00    -0.000 C 
BRANCH  23  24
ATOM     24  C   UNL     1      15.199  -1.408 202.658  1.00  0.00    -0.000 C 
BRANCH  24  25
ATOM     25  C   UNL     1      16.275  -0.317 202.706  1.00  0.00    -0.003 C 
ATOM     26  C   UNL     1      15.846   0.841 203.604  1.00  0.00     0.004 C 
ENDBRANCH  24  25
ENDBRANCH  23  24
ENDBRANCH  22  23
ENDBRANCH  21  22
ENDBRANCH  20  21
ENDBRANCH  19  20
ENDBRANCH  18  19
ENDBRANCH  17  18
ENDBRANCH  16  17
ENDBRANCH  15  16
ENDBRANCH   1  15
TORSDOF 22
ENDMDL
MODEL 7
REMARK VINA RESULT:    -2.904     17.643     20.073
REMARK INTER + INTRA:         -10.744
REMARK INTER:                  -7.180
REMARK INTRA:                  -3.564
REMARK UNBOUND:                -4.104
REMARK SMILES CCCCCCCCCCCCCCCCCCCCCCCC(=O)[O-]
REMARK SMILES IDX 13 1 14 2 15 3 16 4 17 5 18 6 19 7 20 8 21 9 22 10 23 11
REMARK SMILES IDX 24 12 25 13 26 14 12 15 11 16 10 17 9 18 8 19 7 20 6 21 5 22
REMARK SMILES IDX 4 23 3 24 2 25 1 26
REMARK H PARENT
REMARK Flexibility Score: inf
ROOT
ATOM      1  C   UNL     1      10.895  -0.778 200.206  1.00  0.00     0.000 C 
ENDROOT
BRANCH   1   2
ATOM      2  C   UNL     1      10.381  -1.411 201.517  1.00  0.00     0.000 C 
BRANCH   2   3
ATOM      3  C   UNL     1      11.490  -2.149 202.289  1.00  0.00     0.000 C 
BRANCH   3   4
ATOM      4  C   UNL     1      11.771  -1.527 203.666  1.00  0.00     0.000 C 
BRANCH   4   5
ATOM      5  C   UNL     1      13.272  -1.494 204.010  1.00  0.00     0.000 C 
BRANCH   5   6
ATOM      6  C   UNL     1      14.060  -2.644 203.347  1.00  0.00     0.000 C 
BRANCH   6   7
ATOM      7  C   UNL     1      15.225  -2.173 202.453  1.00  0.00     0.000 C 
BRANCH   7   8
ATOM      8  C   UNL     1      15.197  -0.681 202.072  1.00  0.00     0.000 C 
BRANCH   8   9
ATOM      9  C   UNL     1      16.247  -0.252 201.027  1.00  0.00     0.000 C 
BRANCH   9  10
ATOM     10  C   UNL     1      17.296   0.757 201.534  1.00  0.00     0.006 C 
BRANCH  10  11
ATOM     11  C   UNL     1      17.463   0.782 203.063  1.00  0.00     0.053 C 
BRANCH  11  12
ATOM     12  C   UNL     1      18.647  -0.018 203.513  1.00  0.00     0.041 C 
ATOM     13  O   UNL     1      19.673   0.564 203.956  1.00  0.00    -0.550 OA
ATOM     14  O   UNL     1      18.620  -1.405 203.437  1.00  0.00    -0.550 OA
ENDBRANCH  11  12
ENDBRANCH  10  11
ENDBRANCH   9  10
ENDBRANCH   8   9
ENDBRANCH   7   8
ENDBRANCH   6   7
ENDBRANCH   5   6
ENDBRANCH   4   5
ENDBRANCH   3   4
ENDBRANCH   2   3
ENDBRANCH   1   2
BRANCH   1  15
ATOM     15  C   UNL     1       9.779  -0.318 199.252  1.00  0.00     0.000 C 
BRANCH  15  16
ATOM     16  C   UNL     1       9.210   1.062 199.616  1.00  0.00     0.000 C 
BRANCH  16  17
ATOM     17  C   UNL     1       7.802   0.979 200.229  1.00  0.00     0.000 C 
BRANCH  17  18
ATOM     18  C   UNL     1       7.653   1.863 201.478  1.00  0.00    -0.000 C 
BRANCH  18  19
ATOM     19  C   UNL     1       8.921   1.805 202.343  1.00  0.00    -0.000 C 
BRANCH  19  20
ATOM     20  C   UNL     1       9.345   3.181 202.881  1.00  0.00    -0.000 C 
BRANCH  20  21
ATOM     21  C   UNL     1      10.872   3.354 202.935  1.00  0.00    -0.000 C 
BRANCH  21  22
ATOM     22  C   UNL     1      11.627   2.301 202.101  1.00  0.00    -0.000 C 
BRANCH  22  23
ATOM     23  C   UNL     1      13.064   2.002 202.569  1.00  0.00    -0.000 C 
BRANCH  23  24
ATOM     24  C   UNL     1      13.710   3.178 203.318  1.00  0.00    -0.000 C 
BRANCH  24  25
ATOM     25  C   UNL     1      14.861   3.781 202.504  1.00  0.00    -0.003 C 
ATOM     26  C   UNL     1      14.800   3.332 201.046  1.00  0.00     0.004 C 
ENDBRANCH  24  25
ENDBRANCH  23  24
ENDBRANCH  22  23
ENDBRANCH  21  22
ENDBRANCH  20  21
ENDBRANCH  19  20
ENDBRANCH  18  19
ENDBRANCH  17  18
ENDBRANCH  16  17
ENDBRANCH  15  16
ENDBRANCH   1  15
TORSDOF 22
ENDMDL
MODEL 8
REMARK VINA RESULT:    -2.902     14.476     18.688
REMARK INTER + INTRA:         -10.739
REMARK INTER:                  -6.468
REMARK INTRA:                  -4.271
REMARK UNBOUND:                -4.104
REMARK SMILES CCCCCCCCCCCCCCCCCCCCCCCC(=O)[O-]
REMARK SMILES IDX 13 1 14 2 15 3 16 4 17 5 18 6 19 7 20 8 21 9 22 10 23 11
REMARK SMILES IDX 24 12 25 13 26 14 12 15 11 16 10 17 9 18 8 19 7 20 6 21 5 22
REMARK SMILES IDX 4 23 3 24 2 25 1 26
REMARK H PARENT
REMARK Flexibility Score: inf
ROOT
ATOM      1  C   UNL     1      13.791   0.049 203.008  1.00  0.00     0.000 C 
ENDROOT
BRANCH   1   2
ATOM      2  C   UNL     1      15.100   0.849 202.839  1.00  0.00     0.000 C 
BRANCH   2   3
ATOM      3  C   UNL     1      16.196   0.395 203.821  1.00  0.00     0.000 C 
BRANCH   3   4
ATOM      4  C   UNL     1      17.575   0.269 203.154  1.00  0.00     0.000 C 
BRANCH   4   5
ATOM      5  C   UNL     1      17.578  -0.719 201.973  1.00  0.00     0.000 C 
BRANCH   5   6
ATOM      6  C   UNL     1      17.497  -2.192 202.428  1.00  0.00     0.000 C 
BRANCH   6   7
ATOM      7  C   UNL     1      16.237  -2.933 201.935  1.00  0.00     0.000 C 
BRANCH   7   8
ATOM      8  C   UNL     1      15.757  -2.543 200.525  1.00  0.00     0.000 C 
BRANCH   8   9
ATOM      9  C   UNL     1      14.273  -2.134 200.429  1.00  0.00     0.000 C 
BRANCH   9  10
ATOM     10  C   UNL     1      13.897  -1.342 199.161  1.00  0.00     0.006 C 
BRANCH  10  11
ATOM     11  C   UNL     1      12.921  -2.073 198.224  1.00  0.00     0.053 C 
BRANCH  11  12
ATOM     12  C   UNL     1      13.627  -3.014 197.298  1.00  0.00     0.041 C 
ATOM     13  O   UNL     1      14.043  -2.610 196.180  1.00  0.00    -0.550 OA
ATOM     14  O   UNL     1      13.820  -4.340 197.666  1.00  0.00    -0.550 OA
ENDBRANCH  11  12
ENDBRANCH  10  11
ENDBRANCH   9  10
ENDBRANCH   8   9
ENDBRANCH   7   8
ENDBRANCH   6   7
ENDBRANCH   5   6
ENDBRANCH   4   5
ENDBRANCH   3   4
ENDBRANCH   2   3
ENDBRANCH   1   2
BRANCH   1  15
ATOM     15  C   UNL     1      13.884  -1.100 204.027  1.00  0.00     0.000 C 
BRANCH  15  16
ATOM     16  C   UNL     1      12.847  -2.207 203.778  1.00  0.00     0.000 C 
BRANCH  16  17
ATOM     17  C   UNL     1      11.458  -1.649 203.429  1.00  0.00     0.000 C 
BRANCH  17  18
ATOM     18  C   UNL     1      10.978  -2.097 202.039  1.00  0.00    -0.000 C 
BRANCH  18  19
ATOM     19  C   UNL     1      10.755  -0.885 201.121  1.00  0.00    -0.000 C 
BRANCH  19  20
ATOM     20  C   UNL     1       9.276  -0.669 200.761  1.00  0.00    -0.000 C 
BRANCH  20  21
ATOM     21  C   UNL     1       8.778   0.742 201.119  1.00  0.00    -0.000 C 
BRANCH  21  22
ATOM     22  C   UNL     1       9.183   1.181 202.538  1.00  0.00    -0.000 C 
BRANCH  22  23
ATOM     23  C   UNL     1       9.760   2.605 202.643  1.00  0.00    -0.000 C 
BRANCH  23  24
ATOM     24  C   UNL     1      11.297   2.632 202.660  1.00  0.00    -0.000 C 
BRANCH  24  25
ATOM     25  C   UNL     1      11.848   3.316 201.404  1.00  0.00    -0.003 C 
ATOM     26  C   UNL     1      12.307   2.287 200.373  1.00  0.00     0.004 C 
ENDBRANCH  24  25
ENDBRANCH  23  24
ENDBRANCH  22  23
ENDBRANCH  21  22
ENDBRANCH  20  21
ENDBRANCH  19  20
ENDBRANCH  18  19
ENDBRANCH  17  18
ENDBRANCH  16  17
ENDBRANCH  15  16
ENDBRANCH   1  15
TORSDOF 22
ENDMDL
MODEL 9
REMARK VINA RESULT:    -2.893      1.558      4.550
REMARK INTER + INTRA:         -10.717
REMARK INTER:                  -6.520
REMARK INTRA:                  -4.197
REMARK UNBOUND:                -4.104
REMARK SMILES CCCCCCCCCCCCCCCCCCCCCCCC(=O)[O-]
REMARK SMILES IDX 13 1 14 2 15 3 16 4 17 5 18 6 19 7 20 8 21 9 22 10 23 11
REMARK SMILES IDX 24 12 25 13 26 14 12 15 11 16 10 17 9 18 8 19 7 20 6 21 5 22
REMARK SMILES IDX 4 23 3 24 2 25 1 26
REMARK H PARENT
REMARK Flexibility Score: inf
ROOT
ATOM      1  C   UNL     1      14.834 -14.153 186.617  1.00  0.00     0.000 C 
ENDROOT
BRANCH   1   2
ATOM      2  C   UNL     1      16.120 -14.218 187.468  1.00  0.00     0.000 C 
BRANCH   2   3
ATOM      3  C   UNL     1      17.266 -14.951 186.747  1.00  0.00     0.000 C 
BRANCH   3   4
ATOM      4  C   UNL     1      18.612 -14.221 186.874  1.00  0.00     0.000 C 
BRANCH   4   5
ATOM      5  C   UNL     1      18.461 -12.688 186.869  1.00  0.00     0.000 C 
BRANCH   5   6
ATOM      6  C   UNL     1      19.619 -11.973 187.599  1.00  0.00     0.000 C 
BRANCH   6   7
ATOM      7  C   UNL     1      19.251 -10.578 188.144  1.00  0.00     0.000 C 
BRANCH   7   8
ATOM      8  C   UNL     1      19.842  -9.392 187.360  1.00  0.00     0.000 C 
BRANCH   8   9
ATOM      9  C   UNL     1      19.075  -9.007 186.079  1.00  0.00     0.000 C 
BRANCH   9  10
ATOM     10  C   UNL     1      18.404  -7.619 186.114  1.00  0.00     0.006 C 
BRANCH  10  11
ATOM     11  C   UNL     1      19.234  -6.533 186.818  1.00  0.00     0.053 C 
BRANCH  11  12
ATOM     12  C   UNL     1      18.515  -5.951 187.998  1.00  0.00     0.041 C 
ATOM     13  O   UNL     1      18.260  -4.719 188.039  1.00  0.00    -0.550 OA
ATOM     14  O   UNL     1      18.134  -6.770 189.054  1.00  0.00    -0.550 OA
ENDBRANCH  11  12
ENDBRANCH  10  11
ENDBRANCH   9  10
ENDBRANCH   8   9
ENDBRANCH   7   8
ENDBRANCH   6   7
ENDBRANCH   5   6
ENDBRANCH   4   5
ENDBRANCH   3   4
ENDBRANCH   2   3
ENDBRANCH   1   2
BRANCH   1  15
ATOM     15  C   UNL     1      15.084 -14.197 185.099  1.00  0.00     0.000 C 
BRANCH  15  16
ATOM     16  C   UNL     1      14.865 -12.838 184.416  1.00  0.00     0.000 C 
BRANCH  16  17
ATOM     17  C   UNL     1      16.173 -12.052 184.229  1.00  0.00     0.000 C 
BRANCH  17  18
ATOM     18  C   UNL     1      16.014 -10.560 184.564  1.00  0.00    -0.000 C 
BRANCH  18  19
ATOM     19  C   UNL     1      15.048 -10.365 185.742  1.00  0.00    -0.000 C 
BRANCH  19  20
ATOM     20  C   UNL     1      15.745 -10.441 187.109  1.00  0.00    -0.000 C 
BRANCH  20  21
ATOM     21  C   UNL     1      15.565  -9.158 187.940  1.00  0.00    -0.000 C 
BRANCH  21  22
ATOM     22  C   UNL     1      14.499  -8.210 187.359  1.00  0.00    -0.000 C 
BRANCH  22  23
ATOM     23  C   UNL     1      14.331  -6.876 188.110  1.00  0.00    -0.000 C 
BRANCH  23  24
ATOM     24  C   UNL     1      14.961  -5.685 187.371  1.00  0.00    -0.000 C 
BRANCH  24  25
ATOM     25  C   UNL     1      15.200  -6.021 185.894  1.00  0.00    -0.003 C 
ATOM     26  C   UNL     1      15.876  -4.860 185.167  1.00  0.00     0.004 C 
ENDBRANCH  24  25
ENDBRANCH  23  24
ENDBRANCH  22  23
ENDBRANCH  21  22
ENDBRANCH  20  21
ENDBRANCH  19  20
ENDBRANCH  18  19
ENDBRANCH  17  18
ENDBRANCH  16  17
ENDBRANCH  15  16
ENDBRANCH   1  15
TORSDOF 22
ENDMDL
