MODEL 1
REMARK VINA RESULT:    -4.403      0.000      0.000
REMARK INTER + INTRA:          -8.913
REMARK INTER:                  -7.749
REMARK INTRA:                  -1.164
REMARK UNBOUND:                -1.164
REMARK SMILES CCCCCCCCCCCCCCC(=O)[O-]
REMARK SMILES IDX 9 1 10 2 11 3 12 4 13 5 14 6 15 7 16 8 17 9 8 10 7 11 6 12
REMARK SMILES IDX 5 13 4 14 3 15 2 16 1 17
REMARK H PARENT
REMARK Flexibility Score: inf
ROOT
ATOM      1  C   UNL     1      32.700  78.870  11.472  1.00  0.00     0.000 C 
ENDROOT
BRANCH   1   2
ATOM      2  C   UNL     1      33.104  78.240  12.818  1.00  0.00     0.000 C 
BRANCH   2   3
ATOM      3  C   UNL     1      32.072  78.530  13.928  1.00  0.00     0.000 C 
BRANCH   3   4
ATOM      4  C   UNL     1      32.563  78.159  15.338  1.00  0.00     0.000 C 
BRANCH   4   5
ATOM      5  C   UNL     1      32.528  79.347  16.315  1.00  0.00     0.006 C 
BRANCH   5   6
ATOM      6  C   UNL     1      32.479  80.696  15.585  1.00  0.00     0.053 C 
BRANCH   6   7
ATOM      7  C   UNL     1      32.508  81.847  16.543  1.00  0.00     0.041 C 
ATOM      8  O   UNL     1      32.860  82.991  16.150  1.00  0.00    -0.550 OA
ATOM      9  O   UNL     1      32.122  81.662  17.864  1.00  0.00    -0.550 OA
ENDBRANCH   6   7
ENDBRANCH   5   6
ENDBRANCH   4   5
ENDBRANCH   3   4
ENDBRANCH   2   3
ENDBRANCH   1   2
BRANCH   1  10
ATOM     10  C   UNL     1      31.616  78.062  10.742  1.00  0.00     0.000 C 
BRANCH  10  11
ATOM     11  C   UNL     1      31.708  78.193   9.214  1.00  0.00    -0.000 C 
BRANCH  11  12
ATOM     12  C   UNL     1      32.365  76.950   8.597  1.00  0.00    -0.000 C 
BRANCH  12  13
ATOM     13  C   UNL     1      33.839  77.179   8.216  1.00  0.00    -0.000 C 
BRANCH  13  14
ATOM     14  C   UNL     1      34.824  76.128   8.770  1.00  0.00    -0.000 C 
BRANCH  14  15
ATOM     15  C   UNL     1      35.108  76.230  10.281  1.00  0.00    -0.000 C 
BRANCH  15  16
ATOM     16  C   UNL     1      36.540  76.664  10.642  1.00  0.00    -0.003 C 
ATOM     17  C   UNL     1      36.578  77.788  11.676  1.00  0.00     0.004 C 
ENDBRANCH  15  16
ENDBRANCH  14  15
ENDBRANCH  13  14
ENDBRANCH  12  13
ENDBRANCH  11  12
ENDBRANCH  10  11
ENDBRANCH   1  10
TORSDOF 13
ENDMDL
MODEL 2
REMARK VINA RESULT:    -4.388      5.599      8.008
REMARK INTER + INTRA:          -8.886
REMARK INTER:                  -6.835
REMARK INTRA:                  -2.050
REMARK UNBOUND:                -1.164
REMARK SMILES CCCCCCCCCCCCCCC(=O)[O-]
REMARK SMILES IDX 9 1 10 2 11 3 12 4 13 5 14 6 15 7 16 8 17 9 8 10 7 11 6 12
REMARK SMILES IDX 5 13 4 14 3 15 2 16 1 17
REMARK H PARENT
REMARK Flexibility Score: inf
ROOT
ATOM      1  C   UNL     1      34.315  78.036  10.477  1.00  0.00     0.000 C 
ENDROOT
BRANCH   1   2
ATOM      2  C   UNL     1      35.504  77.489  11.288  1.00  0.00     0.000 C 
BRANCH   2   3
ATOM      3  C   UNL     1      36.324  76.454  10.489  1.00  0.00     0.000 C 
BRANCH   3   4
ATOM      4  C   UNL     1      35.580  75.891   9.266  1.00  0.00     0.000 C 
BRANCH   4   5
ATOM      5  C   UNL     1      36.526  75.255   8.232  1.00  0.00     0.006 C 
BRANCH   5   6
ATOM      6  C   UNL     1      35.827  74.993   6.892  1.00  0.00     0.053 C 
BRANCH   6   7
ATOM      7  C   UNL     1      36.144  73.630   6.357  1.00  0.00     0.041 C 
ATOM      8  O   UNL     1      35.221  72.797   6.155  1.00  0.00    -0.550 OA
ATOM      9  O   UNL     1      37.457  73.290   6.057  1.00  0.00    -0.550 OA
ENDBRANCH   6   7
ENDBRANCH   5   6
ENDBRANCH   4   5
ENDBRANCH   3   4
ENDBRANCH   2   3
ENDBRANCH   1   2
BRANCH   1  10
ATOM     10  C   UNL     1      33.118  78.415  11.363  1.00  0.00     0.000 C 
BRANCH  10  11
ATOM     11  C   UNL     1      33.011  77.540  12.621  1.00  0.00    -0.000 C 
BRANCH  11  12
ATOM     12  C   UNL     1      32.007  76.398  12.410  1.00  0.00    -0.000 C 
BRANCH  12  13
ATOM     13  C   UNL     1      32.687  75.028  12.237  1.00  0.00    -0.000 C 
BRANCH  13  14
ATOM     14  C   UNL     1      32.752  74.514  10.784  1.00  0.00    -0.000 C 
BRANCH  14  15
ATOM     15  C   UNL     1      31.591  74.966   9.876  1.00  0.00    -0.000 C 
BRANCH  15  16
ATOM     16  C   UNL     1      32.021  75.693   8.590  1.00  0.00    -0.003 C 
ATOM     17  C   UNL     1      31.342  77.052   8.420  1.00  0.00     0.004 C 
ENDBRANCH  15  16
ENDBRANCH  14  15
ENDBRANCH  13  14
ENDBRANCH  12  13
ENDBRANCH  11  12
ENDBRANCH  10  11
ENDBRANCH   1  10
TORSDOF 13
ENDMDL
MODEL 3
REMARK VINA RESULT:    -4.377      1.519      2.595
REMARK INTER + INTRA:          -8.867
REMARK INTER:                  -6.766
REMARK INTRA:                  -2.102
REMARK UNBOUND:                -1.164
REMARK SMILES CCCCCCCCCCCCCCC(=O)[O-]
REMARK SMILES IDX 9 1 10 2 11 3 12 4 13 5 14 6 15 7 16 8 17 9 8 10 7 11 6 12
REMARK SMILES IDX 5 13 4 14 3 15 2 16 1 17
REMARK H PARENT
REMARK Flexibility Score: inf
ROOT
ATOM      1  C   UNL     1      31.610  78.346  10.090  1.00  0.00     0.000 C 
ENDROOT
BRANCH   1   2
ATOM      2  C   UNL     1      32.684  78.757  11.113  1.00  0.00     0.000 C 
BRANCH   2   3
ATOM      3  C   UNL     1      32.117  78.844  12.546  1.00  0.00     0.000 C 
BRANCH   3   4
ATOM      4  C   UNL     1      33.117  78.410  13.632  1.00  0.00     0.000 C 
BRANCH   4   5
ATOM      5  C   UNL     1      32.434  77.777  14.855  1.00  0.00     0.006 C 
BRANCH   5   6
ATOM      6  C   UNL     1      32.704  78.565  16.144  1.00  0.00     0.053 C 
BRANCH   6   7
ATOM      7  C   UNL     1      32.051  79.913  16.118  1.00  0.00     0.041 C 
ATOM      8  O   UNL     1      30.801  80.011  16.000  1.00  0.00    -0.550 OA
ATOM      9  O   UNL     1      32.822  81.061  16.251  1.00  0.00    -0.550 OA
ENDBRANCH   6   7
ENDBRANCH   5   6
ENDBRANCH   4   5
ENDBRANCH   3   4
ENDBRANCH   2   3
ENDBRANCH   1   2
BRANCH   1  10
ATOM     10  C   UNL     1      32.212  77.837   8.771  1.00  0.00     0.000 C 
BRANCH  10  11
ATOM     11  C   UNL     1      33.748  77.824   8.787  1.00  0.00    -0.000 C 
BRANCH  11  12
ATOM     12  C   UNL     1      34.293  76.589   8.057  1.00  0.00    -0.000 C 
BRANCH  12  13
ATOM     13  C   UNL     1      34.904  75.549   9.013  1.00  0.00    -0.000 C 
BRANCH  13  14
ATOM     14  C   UNL     1      35.058  76.021  10.474  1.00  0.00    -0.000 C 
BRANCH  14  15
ATOM     15  C   UNL     1      34.185  75.271  11.499  1.00  0.00    -0.000 C 
BRANCH  15  16
ATOM     16  C   UNL     1      32.817  74.806  10.968  1.00  0.00    -0.003 C 
ATOM     17  C   UNL     1      31.668  75.126  11.923  1.00  0.00     0.004 C 
ENDBRANCH  15  16
ENDBRANCH  14  15
ENDBRANCH  13  14
ENDBRANCH  12  13
ENDBRANCH  11  12
ENDBRANCH  10  11
ENDBRANCH   1  10
TORSDOF 13
ENDMDL
MODEL 4
REMARK VINA RESULT:    -4.339      2.131      4.047
REMARK INTER + INTRA:          -8.800
REMARK INTER:                  -6.721
REMARK INTRA:                  -2.078
REMARK UNBOUND:                -1.164
REMARK SMILES CCCCCCCCCCCCCCC(=O)[O-]
REMARK SMILES IDX 9 1 10 2 11 3 12 4 13 5 14 6 15 7 16 8 17 9 8 10 7 11 6 12
REMARK SMILES IDX 5 13 4 14 3 15 2 16 1 17
REMARK H PARENT
REMARK Flexibility Score: inf
ROOT
ATOM      1  C   UNL     1      36.512  76.646  10.753  1.00  0.00     0.000 C 
ENDROOT
BRANCH   1   2
ATOM      2  C   UNL     1      35.690  77.845  11.262  1.00  0.00     0.000 C 
BRANCH   2   3
ATOM      3  C   UNL     1      34.263  77.434  11.684  1.00  0.00     0.000 C 
BRANCH   3   4
ATOM      4  C   UNL     1      33.198  78.499  11.374  1.00  0.00     0.000 C 
BRANCH   4   5
ATOM      5  C   UNL     1      31.930  78.343  12.230  1.00  0.00     0.006 C 
BRANCH   5   6
ATOM      6  C   UNL     1      31.978  79.204  13.500  1.00  0.00     0.053 C 
BRANCH   6   7
ATOM      7  C   UNL     1      32.395  78.406  14.697  1.00  0.00     0.041 C 
ATOM      8  O   UNL     1      31.724  77.402  15.056  1.00  0.00    -0.550 OA
ATOM      9  O   UNL     1      33.541  78.756  15.401  1.00  0.00    -0.550 OA
ENDBRANCH   6   7
ENDBRANCH   5   6
ENDBRANCH   4   5
ENDBRANCH   3   4
ENDBRANCH   2   3
ENDBRANCH   1   2
BRANCH   1  10
ATOM     10  C   UNL     1      35.657  75.625   9.986  1.00  0.00     0.000 C 
BRANCH  10  11
ATOM     11  C   UNL     1      36.036  75.533   8.500  1.00  0.00    -0.000 C 
BRANCH  11  12
ATOM     12  C   UNL     1      34.804  75.737   7.607  1.00  0.00    -0.000 C 
BRANCH  12  13
ATOM     13  C   UNL     1      33.876  76.856   8.113  1.00  0.00    -0.000 C 
BRANCH  13  14
ATOM     14  C   UNL     1      32.392  76.457   8.253  1.00  0.00    -0.000 C 
BRANCH  14  15
ATOM     15  C   UNL     1      32.143  75.067   8.869  1.00  0.00    -0.000 C 
BRANCH  15  16
ATOM     16  C   UNL     1      31.795  75.077  10.368  1.00  0.00    -0.003 C 
ATOM     17  C   UNL     1      32.579  74.038  11.168  1.00  0.00     0.004 C 
ENDBRANCH  15  16
ENDBRANCH  14  15
ENDBRANCH  13  14
ENDBRANCH  12  13
ENDBRANCH  11  12
ENDBRANCH  10  11
ENDBRANCH   1  10
TORSDOF 13
ENDMDL
MODEL 5
REMARK VINA RESULT:    -4.328      4.822      7.459
REMARK INTER + INTRA:          -8.781
REMARK INTER:                  -6.185
REMARK INTRA:                  -2.596
REMARK UNBOUND:                -1.164
REMARK SMILES CCCCCCCCCCCCCCC(=O)[O-]
REMARK SMILES IDX 9 1 10 2 11 3 12 4 13 5 14 6 15 7 16 8 17 9 8 10 7 11 6 12
REMARK SMILES IDX 5 13 4 14 3 15 2 16 1 17
REMARK H PARENT
REMARK Flexibility Score: inf
ROOT
ATOM      1  C   UNL     1      32.227  74.582  11.554  1.00  0.00     0.000 C 
ENDROOT
BRANCH   1   2
ATOM      2  C   UNL     1      32.262  74.325  10.036  1.00  0.00     0.000 C 
BRANCH   2   3
ATOM      3  C   UNL     1      31.403  75.343   9.255  1.00  0.00     0.000 C 
BRANCH   3   4
ATOM      4  C   UNL     1      32.201  76.157   8.222  1.00  0.00     0.000 C 
BRANCH   4   5
ATOM      5  C   UNL     1      33.285  75.326   7.514  1.00  0.00     0.006 C 
BRANCH   5   6
ATOM      6  C   UNL     1      34.639  76.048   7.481  1.00  0.00     0.053 C 
BRANCH   6   7
ATOM      7  C   UNL     1      35.782  75.083   7.403  1.00  0.00     0.041 C 
ATOM      8  O   UNL     1      36.786  75.226   8.149  1.00  0.00    -0.550 OA
ATOM      9  O   UNL     1      35.724  74.008   6.525  1.00  0.00    -0.550 OA
ENDBRANCH   6   7
ENDBRANCH   5   6
ENDBRANCH   4   5
ENDBRANCH   3   4
ENDBRANCH   2   3
ENDBRANCH   1   2
BRANCH   1  10
ATOM     10  C   UNL     1      33.546  75.166  12.086  1.00  0.00     0.000 C 
BRANCH  10  11
ATOM     11  C   UNL     1      34.641  75.233  11.010  1.00  0.00    -0.000 C 
BRANCH  11  12
ATOM     12  C   UNL     1      35.441  76.539  11.124  1.00  0.00    -0.000 C 
BRANCH  12  13
ATOM     13  C   UNL     1      34.577  77.734  11.564  1.00  0.00    -0.000 C 
BRANCH  13  14
ATOM     14  C   UNL     1      33.822  78.445  10.422  1.00  0.00    -0.000 C 
BRANCH  14  15
ATOM     15  C   UNL     1      32.372  78.854  10.751  1.00  0.00    -0.000 C 
BRANCH  15  16
ATOM     16  C   UNL     1      31.893  78.459  12.159  1.00  0.00    -0.003 C 
ATOM     17  C   UNL     1      30.519  77.791  12.154  1.00  0.00     0.004 C 
ENDBRANCH  15  16
ENDBRANCH  14  15
ENDBRANCH  13  14
ENDBRANCH  12  13
ENDBRANCH  11  12
ENDBRANCH  10  11
ENDBRANCH   1  10
TORSDOF 13
ENDMDL
MODEL 6
REMARK VINA RESULT:    -4.320      1.147      2.839
REMARK INTER + INTRA:          -8.767
REMARK INTER:                  -7.495
REMARK INTRA:                  -1.272
REMARK UNBOUND:                -1.164
REMARK SMILES CCCCCCCCCCCCCCC(=O)[O-]
REMARK SMILES IDX 9 1 10 2 11 3 12 4 13 5 14 6 15 7 16 8 17 9 8 10 7 11 6 12
REMARK SMILES IDX 5 13 4 14 3 15 2 16 1 17
REMARK H PARENT
REMARK Flexibility Score: inf
ROOT
ATOM      1  C   UNL     1      33.474  78.536  11.204  1.00  0.00     0.000 C 
ENDROOT
BRANCH   1   2
ATOM      2  C   UNL     1      32.268  78.642  12.154  1.00  0.00     0.000 C 
BRANCH   2   3
ATOM      3  C   UNL     1      32.384  77.674  13.350  1.00  0.00     0.000 C 
BRANCH   3   4
ATOM      4  C   UNL     1      31.974  78.303  14.693  1.00  0.00     0.000 C 
BRANCH   4   5
ATOM      5  C   UNL     1      33.060  79.222  15.278  1.00  0.00     0.006 C 
BRANCH   5   6
ATOM      6  C   UNL     1      32.493  80.201  16.315  1.00  0.00     0.053 C 
BRANCH   6   7
ATOM      7  C   UNL     1      32.258  81.559  15.727  1.00  0.00     0.041 C 
ATOM      8  O   UNL     1      31.399  81.718  14.820  1.00  0.00    -0.550 OA
ATOM      9  O   UNL     1      32.969  82.654  16.202  1.00  0.00    -0.550 OA
ENDBRANCH   6   7
ENDBRANCH   5   6
ENDBRANCH   4   5
ENDBRANCH   3   4
ENDBRANCH   2   3
ENDBRANCH   1   2
BRANCH   1  10
ATOM     10  C   UNL     1      34.326  77.283  11.466  1.00  0.00     0.000 C 
BRANCH  10  11
ATOM     11  C   UNL     1      35.834  77.574  11.429  1.00  0.00    -0.000 C 
BRANCH  11  12
ATOM     12  C   UNL     1      36.558  76.592  10.497  1.00  0.00    -0.000 C 
BRANCH  12  13
ATOM     13  C   UNL     1      35.598  75.622   9.786  1.00  0.00    -0.000 C 
BRANCH  13  14
ATOM     14  C   UNL     1      35.709  75.608   8.247  1.00  0.00    -0.000 C 
BRANCH  14  15
ATOM     15  C   UNL     1      34.391  75.869   7.492  1.00  0.00    -0.000 C 
BRANCH  15  16
ATOM     16  C   UNL     1      33.115  75.584   8.303  1.00  0.00    -0.003 C 
ATOM     17  C   UNL     1      32.149  76.768   8.327  1.00  0.00     0.004 C 
ENDBRANCH  15  16
ENDBRANCH  14  15
ENDBRANCH  13  14
ENDBRANCH  12  13
ENDBRANCH  11  12
ENDBRANCH  10  11
ENDBRANCH   1  10
TORSDOF 13
ENDMDL
MODEL 7
REMARK VINA RESULT:    -4.318      1.129      1.649
REMARK INTER + INTRA:          -8.763
REMARK INTER:                  -7.162
REMARK INTRA:                  -1.601
REMARK UNBOUND:                -1.164
REMARK SMILES CCCCCCCCCCCCCCC(=O)[O-]
REMARK SMILES IDX 9 1 10 2 11 3 12 4 13 5 14 6 15 7 16 8 17 9 8 10 7 11 6 12
REMARK SMILES IDX 5 13 4 14 3 15 2 16 1 17
REMARK H PARENT
REMARK Flexibility Score: inf
ROOT
ATOM      1  C   UNL     1      33.272  78.073  12.503  1.00  0.00     0.000 C 
ENDROOT
BRANCH   1   2
ATOM      2  C   UNL     1      31.991  77.351  12.960  1.00  0.00     0.000 C 
BRANCH   2   3
ATOM      3  C   UNL     1      31.694  77.587  14.456  1.00  0.00     0.000 C 
BRANCH   3   4
ATOM      4  C   UNL     1      32.801  78.365  15.188  1.00  0.00     0.000 C 
BRANCH   4   5
ATOM      5  C   UNL     1      32.246  79.415  16.166  1.00  0.00     0.006 C 
BRANCH   5   6
ATOM      6  C   UNL     1      32.177  80.813  15.538  1.00  0.00     0.053 C 
BRANCH   6   7
ATOM      7  C   UNL     1      32.545  81.883  16.520  1.00  0.00     0.041 C 
ATOM      8  O   UNL     1      33.032  82.973  16.119  1.00  0.00    -0.550 OA
ATOM      9  O   UNL     1      32.325  81.685  17.877  1.00  0.00    -0.550 OA
ENDBRANCH   6   7
ENDBRANCH   5   6
ENDBRANCH   4   5
ENDBRANCH   3   4
ENDBRANCH   2   3
ENDBRANCH   1   2
BRANCH   1  10
ATOM     10  C   UNL     1      33.071  78.872  11.206  1.00  0.00     0.000 C 
BRANCH  10  11
ATOM     11  C   UNL     1      31.835  78.418  10.416  1.00  0.00    -0.000 C 
BRANCH  11  12
ATOM     12  C   UNL     1      32.239  77.831   9.056  1.00  0.00    -0.000 C 
BRANCH  12  13
ATOM     13  C   UNL     1      33.764  77.792   8.850  1.00  0.00    -0.000 C 
BRANCH  13  14
ATOM     14  C   UNL     1      34.362  76.380   8.683  1.00  0.00    -0.000 C 
BRANCH  14  15
ATOM     15  C   UNL     1      34.658  75.635   9.999  1.00  0.00    -0.000 C 
BRANCH  15  16
ATOM     16  C   UNL     1      33.487  74.800  10.547  1.00  0.00    -0.003 C 
ATOM     17  C   UNL     1      33.733  74.290  11.966  1.00  0.00     0.004 C 
ENDBRANCH  15  16
ENDBRANCH  14  15
ENDBRANCH  13  14
ENDBRANCH  12  13
ENDBRANCH  11  12
ENDBRANCH  10  11
ENDBRANCH   1  10
TORSDOF 13
ENDMDL
MODEL 8
REMARK VINA RESULT:    -4.271      1.619      3.112
REMARK INTER + INTRA:          -8.680
REMARK INTER:                  -6.873
REMARK INTRA:                  -1.807
REMARK UNBOUND:                -1.164
REMARK SMILES CCCCCCCCCCCCCCC(=O)[O-]
REMARK SMILES IDX 9 1 10 2 11 3 12 4 13 5 14 6 15 7 16 8 17 9 8 10 7 11 6 12
REMARK SMILES IDX 5 13 4 14 3 15 2 16 1 17
REMARK H PARENT
REMARK Flexibility Score: inf
ROOT
ATOM      1  C   UNL     1      31.369  75.549  12.150  1.00  0.00     0.000 C 
ENDROOT
BRANCH   1   2
ATOM      2  C   UNL     1      31.998  76.587  13.098  1.00  0.00     0.000 C 
BRANCH   2   3
ATOM      3  C   UNL     1      31.338  77.975  12.958  1.00  0.00     0.000 C 
BRANCH   3   4
ATOM      4  C   UNL     1      32.100  79.095  13.687  1.00  0.00     0.000 C 
BRANCH   4   5
ATOM      5  C   UNL     1      31.293  79.713  14.841  1.00  0.00     0.006 C 
BRANCH   5   6
ATOM      6  C   UNL     1      31.373  81.246  14.849  1.00  0.00     0.053 C 
BRANCH   6   7
ATOM      7  C   UNL     1      32.218  81.752  15.978  1.00  0.00     0.041 C 
ATOM      8  O   UNL     1      32.470  81.011  16.965  1.00  0.00    -0.550 OA
ATOM      9  O   UNL     1      32.750  83.034  15.927  1.00  0.00    -0.550 OA
ENDBRANCH   6   7
ENDBRANCH   5   6
ENDBRANCH   4   5
ENDBRANCH   3   4
ENDBRANCH   2   3
ENDBRANCH   1   2
BRANCH   1  10
ATOM     10  C   UNL     1      32.420  74.766  11.348  1.00  0.00     0.000 C 
BRANCH  10  11
ATOM     11  C   UNL     1      33.846  74.975  11.878  1.00  0.00    -0.000 C 
BRANCH  11  12
ATOM     12  C   UNL     1      34.758  75.552  10.785  1.00  0.00    -0.000 C 
BRANCH  12  13
ATOM     13  C   UNL     1      35.081  77.041  11.000  1.00  0.00    -0.000 C 
BRANCH  13  14
ATOM     14  C   UNL     1      34.090  78.023  10.341  1.00  0.00    -0.000 C 
BRANCH  14  15
ATOM     15  C   UNL     1      33.749  77.719   8.869  1.00  0.00    -0.000 C 
BRANCH  15  16
ATOM     16  C   UNL     1      32.285  77.321   8.614  1.00  0.00    -0.003 C 
ATOM     17  C   UNL     1      31.287  78.225   9.337  1.00  0.00     0.004 C 
ENDBRANCH  15  16
ENDBRANCH  14  15
ENDBRANCH  13  14
ENDBRANCH  12  13
ENDBRANCH  11  12
ENDBRANCH  10  11
ENDBRANCH   1  10
TORSDOF 13
ENDMDL
MODEL 9
REMARK VINA RESULT:    -4.238      1.932      3.553
REMARK INTER + INTRA:          -8.623
REMARK INTER:                  -6.251
REMARK INTRA:                  -2.372
REMARK UNBOUND:                -1.164
REMARK SMILES CCCCCCCCCCCCCCC(=O)[O-]
REMARK SMILES IDX 9 1 10 2 11 3 12 4 13 5 14 6 15 7 16 8 17 9 8 10 7 11 6 12
REMARK SMILES IDX 5 13 4 14 3 15 2 16 1 17
REMARK H PARENT
REMARK Flexibility Score: inf
ROOT
ATOM      1  C   UNL     1      31.440  75.826   8.988  1.00  0.00     0.000 C 
ENDROOT
BRANCH   1   2
ATOM      2  C   UNL     1      31.159  76.908  10.047  1.00  0.00     0.000 C 
BRANCH   2   3
ATOM      3  C   UNL     1      31.984  78.189   9.801  1.00  0.00     0.000 C 
BRANCH   3   4
ATOM      4  C   UNL     1      32.491  78.852  11.093  1.00  0.00     0.000 C 
BRANCH   4   5
ATOM      5  C   UNL     1      31.788  78.320  12.353  1.00  0.00     0.006 C 
BRANCH   5   6
ATOM      6  C   UNL     1      32.760  78.143  13.528  1.00  0.00     0.053 C 
BRANCH   6   7
ATOM      7  C   UNL     1      32.472  79.106  14.638  1.00  0.00     0.041 C 
ATOM      8  O   UNL     1      31.531  79.936  14.530  1.00  0.00    -0.550 OA
ATOM      9  O   UNL     1      33.227  79.068  15.804  1.00  0.00    -0.550 OA
ENDBRANCH   6   7
ENDBRANCH   5   6
ENDBRANCH   4   5
ENDBRANCH   3   4
ENDBRANCH   2   3
ENDBRANCH   1   2
BRANCH   1  10
ATOM     10  C   UNL     1      32.534  76.242   7.992  1.00  0.00     0.000 C 
BRANCH  10  11
ATOM     11  C   UNL     1      33.341  75.046   7.465  1.00  0.00    -0.000 C 
BRANCH  11  12
ATOM     12  C   UNL     1      34.813  75.148   7.889  1.00  0.00    -0.000 C 
BRANCH  12  13
ATOM     13  C   UNL     1      35.083  76.332   8.834  1.00  0.00    -0.000 C 
BRANCH  13  14
ATOM     14  C   UNL     1      35.624  75.944  10.226  1.00  0.00    -0.000 C 
BRANCH  14  15
ATOM     15  C   UNL     1      34.560  75.844  11.337  1.00  0.00    -0.000 C 
BRANCH  15  16
ATOM     16  C   UNL     1      33.961  74.440  11.534  1.00  0.00    -0.003 C 
ATOM     17  C   UNL     1      32.636  74.461  12.294  1.00  0.00     0.004 C 
ENDBRANCH  15  16
ENDBRANCH  14  15
ENDBRANCH  13  14
ENDBRANCH  12  13
ENDBRANCH  11  12
ENDBRANCH  10  11
ENDBRANCH   1  10
TORSDOF 13
ENDMDL
