MODEL 1
REMARK VINA RESULT:    -5.077      0.000      0.000
REMARK INTER + INTRA:          -9.811
REMARK INTER:                  -7.749
REMARK INTRA:                  -2.062
REMARK UNBOUND:                -2.062
REMARK SMILES CC(=O)CCC=C(C)CCC=C(C)CCC=C(C)C
REMARK SMILES IDX 10 1 11 2 12 3 13 4 14 5 15 6 16 7 18 8 17 9 19 10 9 11 7 12
REMARK SMILES IDX 6 13 8 14 5 15 4 16 2 17 3 18 1 19
REMARK H PARENT
REMARK Flexibility Score: inf
ROOT
ATOM      1  C   UNL     1      18.067  26.487  28.404  1.00  0.00     0.032 C 
ENDROOT
BRANCH   1   2
ATOM      2  C   UNL     1      18.723  25.464  27.507  1.00  0.00    -0.028 C 
ATOM      3  C   UNL     1      19.992  25.015  27.640  1.00  0.00    -0.077 C 
ATOM      4  C   UNL     1      20.520  24.053  26.606  1.00  0.00     0.039 C 
BRANCH   3   5
ATOM      5  C   UNL     1      20.891  25.409  28.798  1.00  0.00     0.034 C 
BRANCH   5   6
ATOM      6  C   UNL     1      22.018  26.352  28.353  1.00  0.00     0.032 C 
BRANCH   6   7
ATOM      7  C   UNL     1      22.070  27.604  29.196  1.00  0.00    -0.028 C 
ATOM      8  C   UNL     1      24.333  28.277  28.360  1.00  0.00     0.039 C 
ATOM      9  C   UNL     1      23.115  28.460  29.234  1.00  0.00    -0.080 C 
ATOM     10  C   UNL     1      23.040  29.641  30.167  1.00  0.00     0.039 C 
ENDBRANCH   6   7
ENDBRANCH   5   6
ENDBRANCH   3   5
ENDBRANCH   1   2
BRANCH   1  11
ATOM     11  C   UNL     1      18.263  27.914  27.869  1.00  0.00     0.034 C 
BRANCH  11  12
ATOM     12  C   UNL     1      18.651  28.881  28.969  1.00  0.00    -0.077 C 
ATOM     13  C   UNL     1      19.260  30.042  28.644  1.00  0.00    -0.028 C 
ATOM     14  C   UNL     1      18.349  28.524  30.405  1.00  0.00     0.039 C 
BRANCH  13  15
ATOM     15  C   UNL     1      19.690  31.061  29.672  1.00  0.00     0.035 C 
BRANCH  15  16
ATOM     16  C   UNL     1      18.953  32.389  29.477  1.00  0.00     0.079 C 
BRANCH  16  17
ATOM     17  C   UNL     1      17.538  32.295  29.981  1.00  0.00     0.130 C 
ATOM     18  O   UNL     1      17.323  31.874  31.108  1.00  0.00    -0.300 OA
ATOM     19  C   UNL     1      16.390  32.692  29.103  1.00  0.00     0.087 C 
ENDBRANCH  16  17
ENDBRANCH  15  16
ENDBRANCH  13  15
ENDBRANCH  11  12
ENDBRANCH   1  11
TORSDOF 9
ENDMDL
MODEL 2
REMARK VINA RESULT:    -4.941      2.679      7.211
REMARK INTER + INTRA:          -9.602
REMARK INTER:                  -7.168
REMARK INTRA:                  -2.434
REMARK UNBOUND:                -2.062
REMARK SMILES CC(=O)CCC=C(C)CCC=C(C)CCC=C(C)C
REMARK SMILES IDX 10 1 11 2 12 3 13 4 14 5 15 6 16 7 18 8 17 9 19 10 9 11 7 12
REMARK SMILES IDX 6 13 8 14 5 15 4 16 2 17 3 18 1 19
REMARK H PARENT
REMARK Flexibility Score: inf
ROOT
ATOM      1  C   UNL     1      19.913  31.374  30.352  1.00  0.00     0.032 C 
ENDROOT
BRANCH   1   2
ATOM      2  C   UNL     1      19.680  32.864  30.427  1.00  0.00    -0.028 C 
ATOM      3  C   UNL     1      18.792  33.549  29.670  1.00  0.00    -0.077 C 
ATOM      4  C   UNL     1      18.744  35.049  29.811  1.00  0.00     0.039 C 
BRANCH   3   5
ATOM      5  C   UNL     1      17.824  32.873  28.716  1.00  0.00     0.034 C 
BRANCH   5   6
ATOM      6  C   UNL     1      16.363  33.207  29.051  1.00  0.00     0.032 C 
BRANCH   6   7
ATOM      7  C   UNL     1      15.991  32.760  30.446  1.00  0.00    -0.028 C 
ATOM      8  C   UNL     1      14.944  30.623  29.665  1.00  0.00     0.039 C 
ATOM      9  C   UNL     1      15.326  31.620  30.734  1.00  0.00    -0.080 C 
ATOM     10  C   UNL     1      14.980  31.336  32.173  1.00  0.00     0.039 C 
ENDBRANCH   6   7
ENDBRANCH   5   6
ENDBRANCH   3   5
ENDBRANCH   1   2
BRANCH   1  11
ATOM     11  C   UNL     1      19.134  30.626  31.443  1.00  0.00     0.034 C 
BRANCH  11  12
ATOM     12  C   UNL     1      18.325  29.478  30.873  1.00  0.00    -0.077 C 
ATOM     13  C   UNL     1      18.430  29.183  29.560  1.00  0.00    -0.028 C 
ATOM     14  C   UNL     1      17.417  28.690  31.788  1.00  0.00     0.039 C 
BRANCH  13  15
ATOM     15  C   UNL     1      17.657  28.064  28.903  1.00  0.00     0.035 C 
BRANCH  15  16
ATOM     16  C   UNL     1      18.329  27.617  27.601  1.00  0.00     0.079 C 
BRANCH  16  17
ATOM     17  C   UNL     1      19.041  26.305  27.790  1.00  0.00     0.130 C 
ATOM     18  O   UNL     1      18.557  25.281  27.332  1.00  0.00    -0.300 OA
ATOM     19  C   UNL     1      20.328  26.242  28.555  1.00  0.00     0.087 C 
ENDBRANCH  16  17
ENDBRANCH  15  16
ENDBRANCH  13  15
ENDBRANCH  11  12
ENDBRANCH   1  11
TORSDOF 9
ENDMDL
MODEL 3
REMARK VINA RESULT:    -4.931      2.773      7.232
REMARK INTER + INTRA:          -9.588
REMARK INTER:                  -7.358
REMARK INTRA:                  -2.229
REMARK UNBOUND:                -2.062
REMARK SMILES CC(=O)CCC=C(C)CCC=C(C)CCC=C(C)C
REMARK SMILES IDX 10 1 11 2 12 3 13 4 14 5 15 6 16 7 18 8 17 9 19 10 9 11 7 12
REMARK SMILES IDX 6 13 8 14 5 15 4 16 2 17 3 18 1 19
REMARK H PARENT
REMARK Flexibility Score: inf
ROOT
ATOM      1  C   UNL     1      20.206  30.962  29.643  1.00  0.00     0.032 C 
ENDROOT
BRANCH   1   2
ATOM      2  C   UNL     1      20.156  32.470  29.574  1.00  0.00    -0.028 C 
ATOM      3  C   UNL     1      19.538  33.268  30.473  1.00  0.00    -0.077 C 
ATOM      4  C   UNL     1      19.510  34.752  30.209  1.00  0.00     0.039 C 
BRANCH   3   5
ATOM      5  C   UNL     1      18.904  32.741  31.749  1.00  0.00     0.034 C 
BRANCH   5   6
ATOM      6  C   UNL     1      17.382  32.949  31.759  1.00  0.00     0.032 C 
BRANCH   6   7
ATOM      7  C   UNL     1      16.648  31.754  31.198  1.00  0.00    -0.028 C 
ATOM      8  C   UNL     1      16.349  32.787  28.936  1.00  0.00     0.039 C 
ATOM      9  C   UNL     1      16.150  31.679  29.944  1.00  0.00    -0.080 C 
ATOM     10  C   UNL     1      15.394  30.438  29.546  1.00  0.00     0.039 C 
ENDBRANCH   6   7
ENDBRANCH   5   6
ENDBRANCH   3   5
ENDBRANCH   1   2
BRANCH   1  11
ATOM     11  C   UNL     1      19.239  30.319  28.639  1.00  0.00     0.034 C 
BRANCH  11  12
ATOM     12  C   UNL     1      18.882  28.898  29.028  1.00  0.00    -0.077 C 
ATOM     13  C   UNL     1      18.850  27.940  28.078  1.00  0.00    -0.028 C 
ATOM     14  C   UNL     1      18.570  28.586  30.473  1.00  0.00     0.039 C 
BRANCH  13  15
ATOM     15  C   UNL     1      18.498  26.501  28.371  1.00  0.00     0.035 C 
BRANCH  15  16
ATOM     16  C   UNL     1      19.213  25.549  27.408  1.00  0.00     0.079 C 
BRANCH  16  17
ATOM     17  C   UNL     1      20.524  25.088  27.986  1.00  0.00     0.130 C 
ATOM     18  O   UNL     1      21.222  24.306  27.359  1.00  0.00    -0.300 OA
ATOM     19  C   UNL     1      20.967  25.564  29.336  1.00  0.00     0.087 C 
ENDBRANCH  16  17
ENDBRANCH  15  16
ENDBRANCH  13  15
ENDBRANCH  11  12
ENDBRANCH   1  11
TORSDOF 9
ENDMDL
MODEL 4
REMARK VINA RESULT:    -4.921      2.299      3.583
REMARK INTER + INTRA:          -9.571
REMARK INTER:                  -6.793
REMARK INTRA:                  -2.779
REMARK UNBOUND:                -2.062
REMARK SMILES CC(=O)CCC=C(C)CCC=C(C)CCC=C(C)C
REMARK SMILES IDX 10 1 11 2 12 3 13 4 14 5 15 6 16 7 18 8 17 9 19 10 9 11 7 12
REMARK SMILES IDX 6 13 8 14 5 15 4 16 2 17 3 18 1 19
REMARK H PARENT
REMARK Flexibility Score: inf
ROOT
ATOM      1  C   UNL     1      15.731  26.099  28.631  1.00  0.00     0.032 C 
ENDROOT
BRANCH   1   2
ATOM      2  C   UNL     1      17.085  25.508  28.320  1.00  0.00    -0.028 C 
ATOM      3  C   UNL     1      18.135  26.196  27.816  1.00  0.00    -0.077 C 
ATOM      4  C   UNL     1      19.393  25.434  27.484  1.00  0.00     0.039 C 
BRANCH   3   5
ATOM      5  C   UNL     1      18.114  27.699  27.605  1.00  0.00     0.034 C 
BRANCH   5   6
ATOM      6  C   UNL     1      19.266  28.397  28.342  1.00  0.00     0.032 C 
BRANCH   6   7
ATOM      7  C   UNL     1      18.955  28.600  29.807  1.00  0.00    -0.028 C 
ATOM      8  C   UNL     1      19.377  31.068  29.728  1.00  0.00     0.039 C 
ATOM      9  C   UNL     1      19.031  29.786  30.449  1.00  0.00    -0.080 C 
ATOM     10  C   UNL     1      18.739  29.820  31.927  1.00  0.00     0.039 C 
ENDBRANCH   6   7
ENDBRANCH   5   6
ENDBRANCH   3   5
ENDBRANCH   1   2
BRANCH   1  11
ATOM     11  C   UNL     1      15.427  26.052  30.135  1.00  0.00     0.034 C 
BRANCH  11  12
ATOM     12  C   UNL     1      15.499  27.426  30.770  1.00  0.00    -0.077 C 
ATOM     13  C   UNL     1      15.213  28.515  30.025  1.00  0.00    -0.028 C 
ATOM     14  C   UNL     1      15.891  27.547  32.224  1.00  0.00     0.039 C 
BRANCH  13  15
ATOM     15  C   UNL     1      15.266  29.922  30.569  1.00  0.00     0.035 C 
BRANCH  15  16
ATOM     16  C   UNL     1      15.602  30.930  29.466  1.00  0.00     0.079 C 
BRANCH  16  17
ATOM     17  C   UNL     1      15.900  32.284  30.052  1.00  0.00     0.130 C 
ATOM     18  O   UNL     1      16.170  33.219  29.312  1.00  0.00    -0.300 OA
ATOM     19  C   UNL     1      15.890  32.489  31.536  1.00  0.00     0.087 C 
ENDBRANCH  16  17
ENDBRANCH  15  16
ENDBRANCH  13  15
ENDBRANCH  11  12
ENDBRANCH   1  11
TORSDOF 9
ENDMDL
MODEL 5
REMARK VINA RESULT:    -4.877      3.430      5.255
REMARK INTER + INTRA:          -9.505
REMARK INTER:                  -6.628
REMARK INTRA:                  -2.877
REMARK UNBOUND:                -2.062
REMARK SMILES CC(=O)CCC=C(C)CCC=C(C)CCC=C(C)C
REMARK SMILES IDX 10 1 11 2 12 3 13 4 14 5 15 6 16 7 18 8 17 9 19 10 9 11 7 12
REMARK SMILES IDX 6 13 8 14 5 15 4 16 2 17 3 18 1 19
REMARK H PARENT
REMARK Flexibility Score: inf
ROOT
ATOM      1  C   UNL     1      15.262  31.739  30.075  1.00  0.00     0.032 C 
ENDROOT
BRANCH   1   2
ATOM      2  C   UNL     1      14.994  30.291  29.737  1.00  0.00    -0.028 C 
ATOM      3  C   UNL     1      15.584  29.232  30.337  1.00  0.00    -0.077 C 
ATOM      4  C   UNL     1      15.266  27.852  29.821  1.00  0.00     0.039 C 
BRANCH   3   5
ATOM      5  C   UNL     1      16.520  29.371  31.525  1.00  0.00     0.034 C 
BRANCH   5   6
ATOM      6  C   UNL     1      17.890  28.734  31.251  1.00  0.00     0.032 C 
BRANCH   6   7
ATOM      7  C   UNL     1      18.926  29.769  30.880  1.00  0.00    -0.028 C 
ATOM      8  C   UNL     1      18.775  29.286  28.427  1.00  0.00     0.039 C 
ATOM      9  C   UNL     1      19.356  30.006  29.621  1.00  0.00    -0.080 C 
ATOM     10  C   UNL     1      20.436  31.037  29.415  1.00  0.00     0.039 C 
ENDBRANCH   6   7
ENDBRANCH   5   6
ENDBRANCH   3   5
ENDBRANCH   1   2
BRANCH   1  11
ATOM     11  C   UNL     1      16.384  32.323  29.205  1.00  0.00     0.034 C 
BRANCH  11  12
ATOM     12  C   UNL     1      17.349  33.162  30.017  1.00  0.00    -0.077 C 
ATOM     13  C   UNL     1      18.175  34.021  29.382  1.00  0.00    -0.028 C 
ATOM     14  C   UNL     1      17.367  33.018  31.521  1.00  0.00     0.039 C 
BRANCH  13  15
ATOM     15  C   UNL     1      19.174  34.891  30.107  1.00  0.00     0.035 C 
BRANCH  15  16
ATOM     16  C   UNL     1      20.580  34.727  29.521  1.00  0.00     0.079 C 
BRANCH  16  17
ATOM     17  C   UNL     1      21.572  34.384  30.600  1.00  0.00     0.130 C 
ATOM     18  O   UNL     1      22.769  34.471  30.373  1.00  0.00    -0.300 OA
ATOM     19  C   UNL     1      21.102  33.914  31.943  1.00  0.00     0.087 C 
ENDBRANCH  16  17
ENDBRANCH  15  16
ENDBRANCH  13  15
ENDBRANCH  11  12
ENDBRANCH   1  11
TORSDOF 9
ENDMDL
MODEL 6
REMARK VINA RESULT:    -4.838      2.458      5.796
REMARK INTER + INTRA:          -9.446
REMARK INTER:                  -7.088
REMARK INTRA:                  -2.358
REMARK UNBOUND:                -2.062
REMARK SMILES CC(=O)CCC=C(C)CCC=C(C)CCC=C(C)C
REMARK SMILES IDX 10 1 11 2 12 3 13 4 14 5 15 6 16 7 18 8 17 9 19 10 9 11 7 12
REMARK SMILES IDX 6 13 8 14 5 15 4 16 2 17 3 18 1 19
REMARK H PARENT
REMARK Flexibility Score: inf
ROOT
ATOM      1  C   UNL     1      17.659  32.872  28.628  1.00  0.00     0.032 C 
ENDROOT
BRANCH   1   2
ATOM      2  C   UNL     1      18.865  33.388  29.377  1.00  0.00    -0.028 C 
ATOM      3  C   UNL     1      19.568  32.684  30.294  1.00  0.00    -0.077 C 
ATOM      4  C   UNL     1      20.697  33.378  31.012  1.00  0.00     0.039 C 
BRANCH   3   5
ATOM      5  C   UNL     1      19.293  31.224  30.604  1.00  0.00     0.034 C 
BRANCH   5   6
ATOM      6  C   UNL     1      20.061  30.284  29.664  1.00  0.00     0.032 C 
BRANCH   6   7
ATOM      7  C   UNL     1      19.133  29.525  28.745  1.00  0.00    -0.028 C 
ATOM      8  C   UNL     1      20.403  27.377  28.958  1.00  0.00     0.039 C 
ATOM      9  C   UNL     1      19.291  28.230  28.394  1.00  0.00    -0.080 C 
ATOM     10  C   UNL     1      18.308  27.625  27.425  1.00  0.00     0.039 C 
ENDBRANCH   6   7
ENDBRANCH   5   6
ENDBRANCH   3   5
ENDBRANCH   1   2
BRANCH   1  11
ATOM     11  C   UNL     1      16.351  33.242  29.344  1.00  0.00     0.034 C 
BRANCH  11  12
ATOM     12  C   UNL     1      15.785  32.073  30.125  1.00  0.00    -0.077 C 
ATOM     13  C   UNL     1      15.466  30.934  29.473  1.00  0.00    -0.028 C 
ATOM     14  C   UNL     1      15.590  32.208  31.617  1.00  0.00     0.039 C 
BRANCH  13  15
ATOM     15  C   UNL     1      14.890  29.723  30.166  1.00  0.00     0.035 C 
BRANCH  15  16
ATOM     16  C   UNL     1      15.799  28.502  29.995  1.00  0.00     0.079 C 
BRANCH  16  17
ATOM     17  C   UNL     1      16.203  27.945  31.334  1.00  0.00     0.130 C 
ATOM     18  O   UNL     1      15.748  26.874  31.707  1.00  0.00    -0.300 OA
ATOM     19  C   UNL     1      17.140  28.705  32.222  1.00  0.00     0.087 C 
ENDBRANCH  16  17
ENDBRANCH  15  16
ENDBRANCH  13  15
ENDBRANCH  11  12
ENDBRANCH   1  11
TORSDOF 9
ENDMDL
MODEL 7
REMARK VINA RESULT:    -4.816      2.712      6.807
REMARK INTER + INTRA:          -9.412
REMARK INTER:                  -7.157
REMARK INTRA:                  -2.255
REMARK UNBOUND:                -2.062
REMARK SMILES CC(=O)CCC=C(C)CCC=C(C)CCC=C(C)C
REMARK SMILES IDX 10 1 11 2 12 3 13 4 14 5 15 6 16 7 18 8 17 9 19 10 9 11 7 12
REMARK SMILES IDX 6 13 8 14 5 15 4 16 2 17 3 18 1 19
REMARK H PARENT
REMARK Flexibility Score: inf
ROOT
ATOM      1  C   UNL     1      17.093  29.197  31.257  1.00  0.00     0.032 C 
ENDROOT
BRANCH   1   2
ATOM      2  C   UNL     1      16.387  30.366  31.900  1.00  0.00    -0.028 C 
ATOM      3  C   UNL     1      15.858  31.417  31.232  1.00  0.00    -0.077 C 
ATOM      4  C   UNL     1      15.260  32.544  32.035  1.00  0.00     0.039 C 
BRANCH   3   5
ATOM      5  C   UNL     1      15.810  31.493  29.716  1.00  0.00     0.034 C 
BRANCH   5   6
ATOM      6  C   UNL     1      16.440  32.790  29.189  1.00  0.00     0.032 C 
BRANCH   6   7
ATOM      7  C   UNL     1      17.937  32.663  29.029  1.00  0.00    -0.028 C 
ATOM      8  C   UNL     1      18.441  34.017  31.075  1.00  0.00     0.039 C 
ATOM      9  C   UNL     1      18.847  33.234  29.848  1.00  0.00    -0.080 C 
ATOM     10  C   UNL     1      20.309  33.059  29.528  1.00  0.00     0.039 C 
ENDBRANCH   6   7
ENDBRANCH   5   6
ENDBRANCH   3   5
ENDBRANCH   1   2
BRANCH   1  11
ATOM     11  C   UNL     1      18.551  29.537  30.915  1.00  0.00     0.034 C 
BRANCH  11  12
ATOM     12  C   UNL     1      18.964  28.970  29.572  1.00  0.00    -0.077 C 
ATOM     13  C   UNL     1      18.180  28.048  28.974  1.00  0.00    -0.028 C 
ATOM     14  C   UNL     1      20.246  29.450  28.932  1.00  0.00     0.039 C 
BRANCH  13  15
ATOM     15  C   UNL     1      18.514  27.423  27.641  1.00  0.00     0.035 C 
BRANCH  15  16
ATOM     16  C   UNL     1      18.407  25.896  27.702  1.00  0.00     0.079 C 
BRANCH  16  17
ATOM     17  C   UNL     1      19.771  25.262  27.653  1.00  0.00     0.130 C 
ATOM     18  O   UNL     1      20.000  24.379  26.841  1.00  0.00    -0.300 OA
ATOM     19  C   UNL     1      20.843  25.690  28.609  1.00  0.00     0.087 C 
ENDBRANCH  16  17
ENDBRANCH  15  16
ENDBRANCH  13  15
ENDBRANCH  11  12
ENDBRANCH   1  11
TORSDOF 9
ENDMDL
MODEL 8
REMARK VINA RESULT:    -4.815      2.402      6.436
REMARK INTER + INTRA:          -9.410
REMARK INTER:                  -7.471
REMARK INTRA:                  -1.940
REMARK UNBOUND:                -2.062
REMARK SMILES CC(=O)CCC=C(C)CCC=C(C)CCC=C(C)C
REMARK SMILES IDX 10 1 11 2 12 3 13 4 14 5 15 6 16 7 18 8 17 9 19 10 9 11 7 12
REMARK SMILES IDX 6 13 8 14 5 15 4 16 2 17 3 18 1 19
REMARK H PARENT
REMARK Flexibility Score: inf
ROOT
ATOM      1  C   UNL     1      15.247  29.986  29.444  1.00  0.00     0.032 C 
ENDROOT
BRANCH   1   2
ATOM      2  C   UNL     1      15.363  30.865  30.666  1.00  0.00    -0.028 C 
ATOM      3  C   UNL     1      15.777  32.153  30.659  1.00  0.00    -0.077 C 
ATOM      4  C   UNL     1      15.916  32.863  31.981  1.00  0.00     0.039 C 
BRANCH   3   5
ATOM      5  C   UNL     1      16.072  32.919  29.382  1.00  0.00     0.034 C 
BRANCH   5   6
ATOM      6  C   UNL     1      17.501  32.668  28.881  1.00  0.00     0.032 C 
BRANCH   6   7
ATOM      7  C   UNL     1      18.480  33.668  29.448  1.00  0.00    -0.028 C 
ATOM      8  C   UNL     1      19.507  32.021  31.031  1.00  0.00     0.039 C 
ATOM      9  C   UNL     1      19.364  33.402  30.435  1.00  0.00    -0.080 C 
ATOM     10  C   UNL     1      20.242  34.521  30.932  1.00  0.00     0.039 C 
ENDBRANCH   6   7
ENDBRANCH   5   6
ENDBRANCH   3   5
ENDBRANCH   1   2
BRANCH   1  11
ATOM     11  C   UNL     1      15.724  28.554  29.731  1.00  0.00     0.034 C 
BRANCH  11  12
ATOM     12  C   UNL     1      17.042  28.250  29.047  1.00  0.00    -0.077 C 
ATOM     13  C   UNL     1      18.068  29.118  29.174  1.00  0.00    -0.028 C 
ATOM     14  C   UNL     1      17.177  26.982  28.238  1.00  0.00     0.039 C 
BRANCH  13  15
ATOM     15  C   UNL     1      19.413  28.903  28.522  1.00  0.00     0.035 C 
BRANCH  15  16
ATOM     16  C   UNL     1      20.470  28.499  29.555  1.00  0.00     0.079 C 
BRANCH  16  17
ATOM     17  C   UNL     1      21.360  27.413  29.013  1.00  0.00     0.130 C 
ATOM     18  O   UNL     1      22.456  27.698  28.555  1.00  0.00    -0.300 OA
ATOM     19  C   UNL     1      20.901  25.986  29.009  1.00  0.00     0.087 C 
ENDBRANCH  16  17
ENDBRANCH  15  16
ENDBRANCH  13  15
ENDBRANCH  11  12
ENDBRANCH   1  11
TORSDOF 9
ENDMDL
MODEL 9
REMARK VINA RESULT:    -4.778      3.454      6.234
REMARK INTER + INTRA:          -9.354
REMARK INTER:                  -6.466
REMARK INTRA:                  -2.888
REMARK UNBOUND:                -2.062
REMARK SMILES CC(=O)CCC=C(C)CCC=C(C)CCC=C(C)C
REMARK SMILES IDX 10 1 11 2 12 3 13 4 14 5 15 6 16 7 18 8 17 9 19 10 9 11 7 12
REMARK SMILES IDX 6 13 8 14 5 15 4 16 2 17 3 18 1 19
REMARK H PARENT
REMARK Flexibility Score: inf
ROOT
ATOM      1  C   UNL     1      18.976  34.711  30.091  1.00  0.00     0.032 C 
ENDROOT
BRANCH   1   2
ATOM      2  C   UNL     1      20.441  34.706  29.723  1.00  0.00    -0.028 C 
ATOM      3  C   UNL     1      21.390  33.955  30.327  1.00  0.00    -0.077 C 
ATOM      4  C   UNL     1      22.822  34.132  29.893  1.00  0.00     0.039 C 
BRANCH   3   5
ATOM      5  C   UNL     1      21.071  32.921  31.393  1.00  0.00     0.034 C 
BRANCH   5   6
ATOM      6  C   UNL     1      21.442  31.501  30.942  1.00  0.00     0.032 C 
BRANCH   6   7
ATOM      7  C   UNL     1      20.613  31.052  29.762  1.00  0.00    -0.028 C 
ATOM      8  C   UNL     1      19.167  29.538  31.138  1.00  0.00     0.039 C 
ATOM      9  C   UNL     1      19.611  30.148  29.829  1.00  0.00    -0.080 C 
ATOM     10  C   UNL     1      18.907  29.762  28.553  1.00  0.00     0.039 C 
ENDBRANCH   6   7
ENDBRANCH   5   6
ENDBRANCH   3   5
ENDBRANCH   1   2
BRANCH   1  11
ATOM     11  C   UNL     1      18.164  33.774  29.185  1.00  0.00     0.034 C 
BRANCH  11  12
ATOM     12  C   UNL     1      17.205  32.911  29.980  1.00  0.00    -0.077 C 
ATOM     13  C   UNL     1      16.205  32.269  29.338  1.00  0.00    -0.028 C 
ATOM     14  C   UNL     1      17.388  32.790  31.474  1.00  0.00     0.039 C 
BRANCH  13  15
ATOM     15  C   UNL     1      15.198  31.396  30.048  1.00  0.00     0.035 C 
BRANCH  15  16
ATOM     16  C   UNL     1      15.311  29.938  29.593  1.00  0.00     0.079 C 
BRANCH  16  17
ATOM     17  C   UNL     1      15.523  29.025  30.771  1.00  0.00     0.130 C 
ATOM     18  O   UNL     1      15.647  27.823  30.591  1.00  0.00    -0.300 OA
ATOM     19  C   UNL     1      15.560  29.577  32.163  1.00  0.00     0.087 C 
ENDBRANCH  16  17
ENDBRANCH  15  16
ENDBRANCH  13  15
ENDBRANCH  11  12
ENDBRANCH   1  11
TORSDOF 9
ENDMDL
