MODEL 1
REMARK VINA RESULT:    -5.522      0.000      0.000
REMARK INTER + INTRA:         -10.291
REMARK INTER:                  -9.395
REMARK INTRA:                  -0.896
REMARK UNBOUND:                -0.896
REMARK SMILES CCCCCCCCCCCCCC(=O)[O-]
REMARK SMILES IDX 8 1 9 2 10 3 11 4 12 5 13 6 14 7 15 8 16 9 7 10 6 11 5 12
REMARK SMILES IDX 4 13 3 14 2 15 1 16
REMARK H PARENT
REMARK Flexibility Score: inf
ROOT
ATOM      1  C   UNL     1       9.789 -12.327  23.314  1.00  0.00     0.000 C 
ENDROOT
BRANCH   1   2
ATOM      2  C   UNL     1      11.242 -12.671  23.684  1.00  0.00     0.000 C 
BRANCH   2   3
ATOM      3  C   UNL     1      12.146 -12.812  22.448  1.00  0.00     0.000 C 
BRANCH   3   4
ATOM      4  C   UNL     1      11.397 -13.354  21.216  1.00  0.00     0.000 C 
BRANCH   4   5
ATOM      5  C   UNL     1      11.513 -12.488  19.949  1.00  0.00     0.006 C 
BRANCH   5   6
ATOM      6  C   UNL     1      10.345 -11.506  19.784  1.00  0.00     0.053 C 
BRANCH   6   7
ATOM      7  C   UNL     1       9.182 -12.182  19.131  1.00  0.00     0.041 C 
ATOM      8  O   UNL     1       9.133 -12.287  17.877  1.00  0.00    -0.550 OA
ATOM      9  O   UNL     1       8.127 -12.652  19.903  1.00  0.00    -0.550 OA
ENDBRANCH   6   7
ENDBRANCH   5   6
ENDBRANCH   4   5
ENDBRANCH   3   4
ENDBRANCH   2   3
ENDBRANCH   1   2
BRANCH   1  10
ATOM     10  C   UNL     1       9.243 -11.134  24.117  1.00  0.00     0.000 C 
BRANCH  10  11
ATOM     11  C   UNL     1       9.080 -11.456  25.610  1.00  0.00    -0.000 C 
BRANCH  11  12
ATOM     12  C   UNL     1       8.286 -12.751  25.855  1.00  0.00    -0.000 C 
BRANCH  12  13
ATOM     13  C   UNL     1       8.485 -13.316  27.273  1.00  0.00    -0.000 C 
BRANCH  13  14
ATOM     14  C   UNL     1       9.368 -12.455  28.195  1.00  0.00    -0.000 C 
BRANCH  14  15
ATOM     15  C   UNL     1       9.079 -12.686  29.686  1.00  0.00    -0.003 C 
ATOM     16  C   UNL     1       7.981 -11.749  30.183  1.00  0.00     0.004 C 
ENDBRANCH  14  15
ENDBRANCH  13  14
ENDBRANCH  12  13
ENDBRANCH  11  12
ENDBRANCH  10  11
ENDBRANCH   1  10
TORSDOF 12
ENDMDL
MODEL 2
REMARK VINA RESULT:    -5.422      4.305      5.586
REMARK INTER + INTRA:         -10.122
REMARK INTER:                  -9.024
REMARK INTRA:                  -1.098
REMARK UNBOUND:                -0.896
REMARK SMILES CCCCCCCCCCCCCC(=O)[O-]
REMARK SMILES IDX 8 1 9 2 10 3 11 4 12 5 13 6 14 7 15 8 16 9 7 10 6 11 5 12
REMARK SMILES IDX 4 13 3 14 2 15 1 16
REMARK H PARENT
REMARK Flexibility Score: inf
ROOT
ATOM      1  C   UNL     1      10.139 -12.805  23.869  1.00  0.00     0.000 C 
ENDROOT
BRANCH   1   2
ATOM      2  C   UNL     1      11.626 -13.191  23.797  1.00  0.00     0.000 C 
BRANCH   2   3
ATOM      3  C   UNL     1      12.317 -13.122  25.170  1.00  0.00     0.000 C 
BRANCH   3   4
ATOM      4  C   UNL     1      13.571 -12.227  25.165  1.00  0.00     0.000 C 
BRANCH   4   5
ATOM      5  C   UNL     1      14.537 -12.452  26.343  1.00  0.00     0.006 C 
BRANCH   5   6
ATOM      6  C   UNL     1      14.165 -13.669  27.200  1.00  0.00     0.053 C 
BRANCH   6   7
ATOM      7  C   UNL     1      14.937 -14.873  26.761  1.00  0.00     0.041 C 
ATOM      8  O   UNL     1      14.335 -15.943  26.477  1.00  0.00    -0.550 OA
ATOM      9  O   UNL     1      16.324 -14.830  26.713  1.00  0.00    -0.550 OA
ENDBRANCH   6   7
ENDBRANCH   5   6
ENDBRANCH   4   5
ENDBRANCH   3   4
ENDBRANCH   2   3
ENDBRANCH   1   2
BRANCH   1  10
ATOM     10  C   UNL     1       9.919 -11.417  24.494  1.00  0.00     0.000 C 
BRANCH  10  11
ATOM     11  C   UNL     1       8.979 -11.461  25.708  1.00  0.00    -0.000 C 
BRANCH  11  12
ATOM     12  C   UNL     1       8.345 -12.847  25.918  1.00  0.00    -0.000 C 
BRANCH  12  13
ATOM     13  C   UNL     1       8.412 -13.320  27.382  1.00  0.00    -0.000 C 
BRANCH  13  14
ATOM     14  C   UNL     1       8.915 -12.262  28.381  1.00  0.00    -0.000 C 
BRANCH  14  15
ATOM     15  C   UNL     1       9.537 -12.880  29.643  1.00  0.00    -0.003 C 
ATOM     16  C   UNL     1      10.952 -13.381  29.367  1.00  0.00     0.004 C 
ENDBRANCH  14  15
ENDBRANCH  13  14
ENDBRANCH  12  13
ENDBRANCH  11  12
ENDBRANCH  10  11
ENDBRANCH   1  10
TORSDOF 12
ENDMDL
MODEL 3
REMARK VINA RESULT:    -5.341      5.209      6.642
REMARK INTER + INTRA:          -9.983
REMARK INTER:                  -8.832
REMARK INTRA:                  -1.151
REMARK UNBOUND:                -0.896
REMARK SMILES CCCCCCCCCCCCCC(=O)[O-]
REMARK SMILES IDX 8 1 9 2 10 3 11 4 12 5 13 6 14 7 15 8 16 9 7 10 6 11 5 12
REMARK SMILES IDX 4 13 3 14 2 15 1 16
REMARK H PARENT
REMARK Flexibility Score: inf
ROOT
ATOM      1  C   UNL     1      11.335 -12.977  24.622  1.00  0.00     0.000 C 
ENDROOT
BRANCH   1   2
ATOM      2  C   UNL     1      12.566 -12.106  24.318  1.00  0.00     0.000 C 
BRANCH   2   3
ATOM      3  C   UNL     1      13.605 -12.141  25.451  1.00  0.00     0.000 C 
BRANCH   3   4
ATOM      4  C   UNL     1      13.287 -13.200  26.524  1.00  0.00     0.000 C 
BRANCH   4   5
ATOM      5  C   UNL     1      14.508 -13.739  27.291  1.00  0.00     0.006 C 
BRANCH   5   6
ATOM      6  C   UNL     1      14.613 -13.182  28.718  1.00  0.00     0.053 C 
BRANCH   6   7
ATOM      7  C   UNL     1      15.869 -12.385  28.877  1.00  0.00     0.041 C 
ATOM      8  O   UNL     1      16.838 -12.853  29.531  1.00  0.00    -0.550 OA
ATOM      9  O   UNL     1      15.951 -11.104  28.345  1.00  0.00    -0.550 OA
ENDBRANCH   6   7
ENDBRANCH   5   6
ENDBRANCH   4   5
ENDBRANCH   3   4
ENDBRANCH   2   3
ENDBRANCH   1   2
BRANCH   1  10
ATOM     10  C   UNL     1      10.038 -12.390  24.039  1.00  0.00     0.000 C 
BRANCH  10  11
ATOM     11  C   UNL     1       9.088 -11.868  25.127  1.00  0.00    -0.000 C 
BRANCH  11  12
ATOM     12  C   UNL     1       9.483 -12.341  26.537  1.00  0.00    -0.000 C 
BRANCH  12  13
ATOM     13  C   UNL     1       8.342 -13.077  27.262  1.00  0.00    -0.000 C 
BRANCH  13  14
ATOM     14  C   UNL     1       8.679 -13.547  28.689  1.00  0.00    -0.000 C 
BRANCH  14  15
ATOM     15  C   UNL     1       9.784 -12.708  29.349  1.00  0.00    -0.003 C 
ATOM     16  C   UNL     1      11.009 -13.564  29.663  1.00  0.00     0.004 C 
ENDBRANCH  14  15
ENDBRANCH  13  14
ENDBRANCH  12  13
ENDBRANCH  11  12
ENDBRANCH  10  11
ENDBRANCH   1  10
TORSDOF 12
ENDMDL
MODEL 4
REMARK VINA RESULT:    -5.319      3.848      6.096
REMARK INTER + INTRA:          -9.946
REMARK INTER:                  -8.784
REMARK INTRA:                  -1.162
REMARK UNBOUND:                -0.896
REMARK SMILES CCCCCCCCCCCCCC(=O)[O-]
REMARK SMILES IDX 8 1 9 2 10 3 11 4 12 5 13 6 14 7 15 8 16 9 7 10 6 11 5 12
REMARK SMILES IDX 4 13 3 14 2 15 1 16
REMARK H PARENT
REMARK Flexibility Score: inf
ROOT
ATOM      1  C   UNL     1       9.900 -12.772  29.065  1.00  0.00     0.000 C 
ENDROOT
BRANCH   1   2
ATOM      2  C   UNL     1       8.632 -13.482  28.560  1.00  0.00     0.000 C 
BRANCH   2   3
ATOM      3  C   UNL     1       8.414 -13.290  27.049  1.00  0.00     0.000 C 
BRANCH   3   4
ATOM      4  C   UNL     1       9.129 -12.044  26.493  1.00  0.00     0.000 C 
BRANCH   4   5
ATOM      5  C   UNL     1       9.599 -12.159  25.032  1.00  0.00     0.006 C 
BRANCH   5   6
ATOM      6  C   UNL     1      11.122 -12.046  24.881  1.00  0.00     0.053 C 
BRANCH   6   7
ATOM      7  C   UNL     1      11.633 -13.087  23.936  1.00  0.00     0.041 C 
ATOM      8  O   UNL     1      12.467 -13.945  24.328  1.00  0.00    -0.550 OA
ATOM      9  O   UNL     1      11.225 -13.080  22.608  1.00  0.00    -0.550 OA
ENDBRANCH   6   7
ENDBRANCH   5   6
ENDBRANCH   4   5
ENDBRANCH   3   4
ENDBRANCH   2   3
ENDBRANCH   1   2
BRANCH   1  10
ATOM     10  C   UNL     1      10.792 -13.694  29.915  1.00  0.00     0.000 C 
BRANCH  10  11
ATOM     11  C   UNL     1      12.266 -13.645  29.485  1.00  0.00    -0.000 C 
BRANCH  11  12
ATOM     12  C   UNL     1      12.436 -13.436  27.971  1.00  0.00    -0.000 C 
BRANCH  12  13
ATOM     13  C   UNL     1      13.912 -13.378  27.537  1.00  0.00    -0.000 C 
BRANCH  13  14
ATOM     14  C   UNL     1      14.916 -13.162  28.684  1.00  0.00    -0.000 C 
BRANCH  14  15
ATOM     15  C   UNL     1      16.378 -13.309  28.235  1.00  0.00    -0.003 C 
ATOM     16  C   UNL     1      16.573 -14.579  27.411  1.00  0.00     0.004 C 
ENDBRANCH  14  15
ENDBRANCH  13  14
ENDBRANCH  12  13
ENDBRANCH  11  12
ENDBRANCH  10  11
ENDBRANCH   1  10
TORSDOF 12
ENDMDL
MODEL 5
REMARK VINA RESULT:    -5.264      4.766      6.193
REMARK INTER + INTRA:          -9.852
REMARK INTER:                  -8.886
REMARK INTRA:                  -0.966
REMARK UNBOUND:                -0.896
REMARK SMILES CCCCCCCCCCCCCC(=O)[O-]
REMARK SMILES IDX 8 1 9 2 10 3 11 4 12 5 13 6 14 7 15 8 16 9 7 10 6 11 5 12
REMARK SMILES IDX 4 13 3 14 2 15 1 16
REMARK H PARENT
REMARK Flexibility Score: inf
ROOT
ATOM      1  C   UNL     1      12.951 -11.864  24.863  1.00  0.00     0.000 C 
ENDROOT
BRANCH   1   2
ATOM      2  C   UNL     1      13.787 -12.729  23.905  1.00  0.00     0.000 C 
BRANCH   2   3
ATOM      3  C   UNL     1      14.965 -13.421  24.614  1.00  0.00     0.000 C 
BRANCH   3   4
ATOM      4  C   UNL     1      14.709 -14.916  24.881  1.00  0.00     0.000 C 
BRANCH   4   5
ATOM      5  C   UNL     1      14.587 -15.302  26.366  1.00  0.00     0.006 C 
BRANCH   5   6
ATOM      6  C   UNL     1      15.486 -14.460  27.280  1.00  0.00     0.053 C 
BRANCH   6   7
ATOM      7  C   UNL     1      14.660 -13.553  28.136  1.00  0.00     0.041 C 
ATOM      8  O   UNL     1      13.403 -13.636  28.118  1.00  0.00    -0.550 OA
ATOM      9  O   UNL     1      15.274 -12.581  28.916  1.00  0.00    -0.550 OA
ENDBRANCH   6   7
ENDBRANCH   5   6
ENDBRANCH   4   5
ENDBRANCH   3   4
ENDBRANCH   2   3
ENDBRANCH   1   2
BRANCH   1  10
ATOM     10  C   UNL     1      11.628 -12.538  25.264  1.00  0.00     0.000 C 
BRANCH  10  11
ATOM     11  C   UNL     1      10.516 -12.314  24.228  1.00  0.00    -0.000 C 
BRANCH  11  12
ATOM     12  C   UNL     1       9.374 -11.434  24.763  1.00  0.00    -0.000 C 
BRANCH  12  13
ATOM     13  C   UNL     1       9.063 -11.696  26.248  1.00  0.00    -0.000 C 
BRANCH  13  14
ATOM     14  C   UNL     1       8.482 -13.089  26.552  1.00  0.00    -0.000 C 
BRANCH  14  15
ATOM     15  C   UNL     1       8.203 -13.307  28.047  1.00  0.00    -0.003 C 
ATOM     16  C   UNL     1       9.403 -12.896  28.895  1.00  0.00     0.004 C 
ENDBRANCH  14  15
ENDBRANCH  13  14
ENDBRANCH  12  13
ENDBRANCH  11  12
ENDBRANCH  10  11
ENDBRANCH   1  10
TORSDOF 12
ENDMDL
MODEL 6
REMARK VINA RESULT:    -5.207      3.105      4.972
REMARK INTER + INTRA:          -9.755
REMARK INTER:                  -8.610
REMARK INTRA:                  -1.145
REMARK UNBOUND:                -0.896
REMARK SMILES CCCCCCCCCCCCCC(=O)[O-]
REMARK SMILES IDX 8 1 9 2 10 3 11 4 12 5 13 6 14 7 15 8 16 9 7 10 6 11 5 12
REMARK SMILES IDX 4 13 3 14 2 15 1 16
REMARK H PARENT
REMARK Flexibility Score: inf
ROOT
ATOM      1  C   UNL     1      12.973 -13.807  28.337  1.00  0.00     0.000 C 
ENDROOT
BRANCH   1   2
ATOM      2  C   UNL     1      14.365 -13.196  28.096  1.00  0.00     0.000 C 
BRANCH   2   3
ATOM      3  C   UNL     1      14.792 -13.271  26.620  1.00  0.00     0.000 C 
BRANCH   3   4
ATOM      4  C   UNL     1      14.531 -11.960  25.854  1.00  0.00     0.000 C 
BRANCH   4   5
ATOM      5  C   UNL     1      13.167 -11.879  25.146  1.00  0.00     0.006 C 
BRANCH   5   6
ATOM      6  C   UNL     1      12.782 -13.184  24.434  1.00  0.00     0.053 C 
BRANCH   6   7
ATOM      7  C   UNL     1      12.220 -12.894  23.079  1.00  0.00     0.041 C 
ATOM      8  O   UNL     1      10.974 -12.796  22.917  1.00  0.00    -0.550 OA
ATOM      9  O   UNL     1      13.067 -12.781  21.984  1.00  0.00    -0.550 OA
ENDBRANCH   6   7
ENDBRANCH   5   6
ENDBRANCH   4   5
ENDBRANCH   3   4
ENDBRANCH   2   3
ENDBRANCH   1   2
BRANCH   1  10
ATOM     10  C   UNL     1      12.480 -13.598  29.779  1.00  0.00     0.000 C 
BRANCH  10  11
ATOM     11  C   UNL     1      10.947 -13.550  29.875  1.00  0.00    -0.000 C 
BRANCH  11  12
ATOM     12  C   UNL     1      10.290 -13.003  28.596  1.00  0.00    -0.000 C 
BRANCH  12  13
ATOM     13  C   UNL     1       8.783 -13.309  28.520  1.00  0.00    -0.000 C 
BRANCH  13  14
ATOM     14  C   UNL     1       8.195 -13.317  27.097  1.00  0.00    -0.000 C 
BRANCH  14  15
ATOM     15  C   UNL     1       9.214 -12.898  26.027  1.00  0.00    -0.003 C 
ATOM     16  C   UNL     1       8.971 -11.462  25.570  1.00  0.00     0.004 C 
ENDBRANCH  14  15
ENDBRANCH  13  14
ENDBRANCH  12  13
ENDBRANCH  11  12
ENDBRANCH  10  11
ENDBRANCH   1  10
TORSDOF 12
ENDMDL
MODEL 7
REMARK VINA RESULT:    -5.205      5.171      6.192
REMARK INTER + INTRA:          -9.751
REMARK INTER:                  -9.057
REMARK INTRA:                  -0.694
REMARK UNBOUND:                -0.896
REMARK SMILES CCCCCCCCCCCCCC(=O)[O-]
REMARK SMILES IDX 8 1 9 2 10 3 11 4 12 5 13 6 14 7 15 8 16 9 7 10 6 11 5 12
REMARK SMILES IDX 4 13 3 14 2 15 1 16
REMARK H PARENT
REMARK Flexibility Score: inf
ROOT
ATOM      1  C   UNL     1      12.534 -11.837  25.018  1.00  0.00     0.000 C 
ENDROOT
BRANCH   1   2
ATOM      2  C   UNL     1      13.759 -12.709  25.345  1.00  0.00     0.000 C 
BRANCH   2   3
ATOM      3  C   UNL     1      13.594 -14.160  24.862  1.00  0.00     0.000 C 
BRANCH   3   4
ATOM      4  C   UNL     1      14.219 -15.187  25.825  1.00  0.00     0.000 C 
BRANCH   4   5
ATOM      5  C   UNL     1      15.757 -15.201  25.854  1.00  0.00     0.006 C 
BRANCH   5   6
ATOM      6  C   UNL     1      16.384 -15.264  24.454  1.00  0.00     0.053 C 
BRANCH   6   7
ATOM      7  C   UNL     1      17.862 -15.469  24.551  1.00  0.00     0.041 C 
ATOM      8  O   UNL     1      18.344 -16.633  24.522  1.00  0.00    -0.550 OA
ATOM      9  O   UNL     1      18.705 -14.379  24.725  1.00  0.00    -0.550 OA
ENDBRANCH   6   7
ENDBRANCH   5   6
ENDBRANCH   4   5
ENDBRANCH   3   4
ENDBRANCH   2   3
ENDBRANCH   1   2
BRANCH   1  10
ATOM     10  C   UNL     1      11.250 -12.667  24.842  1.00  0.00     0.000 C 
BRANCH  10  11
ATOM     11  C   UNL     1      10.028 -11.796  24.514  1.00  0.00    -0.000 C 
BRANCH  11  12
ATOM     12  C   UNL     1       9.038 -11.696  25.687  1.00  0.00    -0.000 C 
BRANCH  12  13
ATOM     13  C   UNL     1       8.366 -13.041  26.019  1.00  0.00    -0.000 C 
BRANCH  13  14
ATOM     14  C   UNL     1       8.187 -13.321  27.522  1.00  0.00    -0.000 C 
BRANCH  14  15
ATOM     15  C   UNL     1       9.020 -12.382  28.408  1.00  0.00    -0.003 C 
ATOM     16  C   UNL     1       8.255 -11.998  29.672  1.00  0.00     0.004 C 
ENDBRANCH  14  15
ENDBRANCH  13  14
ENDBRANCH  12  13
ENDBRANCH  11  12
ENDBRANCH  10  11
ENDBRANCH   1  10
TORSDOF 12
ENDMDL
MODEL 8
REMARK VINA RESULT:    -5.139      4.471      7.073
REMARK INTER + INTRA:          -9.640
REMARK INTER:                  -8.679
REMARK INTRA:                  -0.961
REMARK UNBOUND:                -0.896
REMARK SMILES CCCCCCCCCCCCCC(=O)[O-]
REMARK SMILES IDX 8 1 9 2 10 3 11 4 12 5 13 6 14 7 15 8 16 9 7 10 6 11 5 12
REMARK SMILES IDX 4 13 3 14 2 15 1 16
REMARK H PARENT
REMARK Flexibility Score: inf
ROOT
ATOM      1  C   UNL     1      10.652 -12.831  23.661  1.00  0.00     0.000 C 
ENDROOT
BRANCH   1   2
ATOM      2  C   UNL     1       9.579 -11.758  23.913  1.00  0.00     0.000 C 
BRANCH   2   3
ATOM      3  C   UNL     1       9.142 -11.697  25.386  1.00  0.00     0.000 C 
BRANCH   3   4
ATOM      4  C   UNL     1       8.265 -12.894  25.801  1.00  0.00     0.000 C 
BRANCH   4   5
ATOM      5  C   UNL     1       8.365 -13.293  27.284  1.00  0.00     0.006 C 
BRANCH   5   6
ATOM      6  C   UNL     1       9.554 -12.640  28.002  1.00  0.00     0.053 C 
BRANCH   6   7
ATOM      7  C   UNL     1       9.315 -12.597  29.478  1.00  0.00     0.041 C 
ATOM      8  O   UNL     1      10.217 -12.963  30.277  1.00  0.00    -0.550 OA
ATOM      9  O   UNL     1       8.078 -12.199  29.971  1.00  0.00    -0.550 OA
ENDBRANCH   6   7
ENDBRANCH   5   6
ENDBRANCH   4   5
ENDBRANCH   3   4
ENDBRANCH   2   3
ENDBRANCH   1   2
BRANCH   1  10
ATOM     10  C   UNL     1      11.633 -12.970  24.838  1.00  0.00     0.000 C 
BRANCH  10  11
ATOM     11  C   UNL     1      12.680 -11.846  24.867  1.00  0.00    -0.000 C 
BRANCH  11  12
ATOM     12  C   UNL     1      13.983 -12.228  24.145  1.00  0.00    -0.000 C 
BRANCH  12  13
ATOM     13  C   UNL     1      15.116 -12.605  25.116  1.00  0.00    -0.000 C 
BRANCH  13  14
ATOM     14  C   UNL     1      14.807 -12.350  26.602  1.00  0.00    -0.000 C 
BRANCH  14  15
ATOM     15  C   UNL     1      14.404 -13.627  27.356  1.00  0.00    -0.003 C 
ATOM     16  C   UNL     1      15.235 -14.821  26.896  1.00  0.00     0.004 C 
ENDBRANCH  14  15
ENDBRANCH  13  14
ENDBRANCH  12  13
ENDBRANCH  11  12
ENDBRANCH  10  11
ENDBRANCH   1  10
TORSDOF 12
ENDMDL
MODEL 9
REMARK VINA RESULT:    -5.134      5.384      6.881
REMARK INTER + INTRA:          -9.631
REMARK INTER:                  -8.754
REMARK INTRA:                  -0.878
REMARK UNBOUND:                -0.896
REMARK SMILES CCCCCCCCCCCCCC(=O)[O-]
REMARK SMILES IDX 8 1 9 2 10 3 11 4 12 5 13 6 14 7 15 8 16 9 7 10 6 11 5 12
REMARK SMILES IDX 4 13 3 14 2 15 1 16
REMARK H PARENT
REMARK Flexibility Score: inf
ROOT
ATOM      1  C   UNL     1      12.718 -13.473  24.526  1.00  0.00     0.000 C 
ENDROOT
BRANCH   1   2
ATOM      2  C   UNL     1      13.244 -12.766  25.787  1.00  0.00     0.000 C 
BRANCH   2   3
ATOM      3  C   UNL     1      14.060 -13.707  26.690  1.00  0.00     0.000 C 
BRANCH   3   4
ATOM      4  C   UNL     1      13.756 -13.513  28.188  1.00  0.00     0.000 C 
BRANCH   4   5
ATOM      5  C   UNL     1      14.947 -13.035  29.038  1.00  0.00     0.006 C 
BRANCH   5   6
ATOM      6  C   UNL     1      16.167 -12.640  28.194  1.00  0.00     0.053 C 
BRANCH   6   7
ATOM      7  C   UNL     1      16.323 -11.153  28.164  1.00  0.00     0.041 C 
ATOM      8  O   UNL     1      16.037 -10.465  29.180  1.00  0.00    -0.550 OA
ATOM      9  O   UNL     1      16.737 -10.521  26.999  1.00  0.00    -0.550 OA
ENDBRANCH   6   7
ENDBRANCH   5   6
ENDBRANCH   4   5
ENDBRANCH   3   4
ENDBRANCH   2   3
ENDBRANCH   1   2
BRANCH   1  10
ATOM     10  C   UNL     1      11.246 -13.134  24.231  1.00  0.00     0.000 C 
BRANCH  10  11
ATOM     11  C   UNL     1      10.789 -11.844  24.930  1.00  0.00    -0.000 C 
BRANCH  11  12
ATOM     12  C   UNL     1       9.258 -11.714  24.993  1.00  0.00    -0.000 C 
BRANCH  12  13
ATOM     13  C   UNL     1       8.630 -12.579  26.102  1.00  0.00    -0.000 C 
BRANCH  13  14
ATOM     14  C   UNL     1       9.385 -12.561  27.443  1.00  0.00    -0.000 C 
BRANCH  14  15
ATOM     15  C   UNL     1       8.574 -13.176  28.594  1.00  0.00    -0.003 C 
ATOM     16  C   UNL     1       8.352 -12.161  29.712  1.00  0.00     0.004 C 
ENDBRANCH  14  15
ENDBRANCH  13  14
ENDBRANCH  12  13
ENDBRANCH  11  12
ENDBRANCH  10  11
ENDBRANCH   1  10
TORSDOF 12
ENDMDL
