MODEL 1
REMARK VINA RESULT:    -6.320      0.000      0.000
REMARK INTER + INTRA:          -7.632
REMARK INTER:                  -7.613
REMARK INTRA:                  -0.018
REMARK UNBOUND:                -0.018
REMARK SMILES O=c1c(O)c(-c2ccc(O)c(O)c2)oc2cc(O)cc(O)c12
REMARK SMILES IDX 5 1 3 2 2 3 1 4 22 5 20 6 19 7 17 8 16 9 15 10 14 11 6 12
REMARK SMILES IDX 7 13 8 14 9 15 13 16 11 17 10 18 12 20 4 22 21 24 18 26
REMARK H PARENT 10 19 12 21 4 23 21 25 18 27
REMARK Flexibility Score: inf
ROOT
ATOM      1  C   UNL     1      27.490  -2.193  35.540  1.00  0.00     0.180 A 
ATOM      2  C   UNL     1      27.332  -1.828  36.888  1.00  0.00     0.208 A 
ATOM      3  C   UNL     1      26.382  -0.849  37.222  1.00  0.00     0.238 A 
ATOM      4  O   UNL     1      26.193  -0.581  38.437  1.00  0.00    -0.285 OA
ATOM      5  C   UNL     1      25.642  -0.207  36.199  1.00  0.00     0.111 A 
ATOM      6  C   UNL     1      24.685   0.831  36.418  1.00  0.00     0.134 A 
ATOM      7  C   UNL     1      23.937   1.318  35.339  1.00  0.00     0.093 A 
ATOM      8  C   UNL     1      24.153   0.853  34.043  1.00  0.00     0.123 A 
ATOM      9  C   UNL     1      25.124  -0.121  33.810  1.00  0.00     0.094 A 
ATOM     10  C   UNL     1      25.860  -0.655  34.870  1.00  0.00     0.146 A 
ATOM     11  O   UNL     1      26.759  -1.596  34.606  1.00  0.00    -0.452 OA
ENDROOT
BRANCH   1  12
ATOM     12  C   UNL     1      28.459  -3.226  35.111  1.00  0.00     0.025 A 
ATOM     13  C   UNL     1      28.068  -4.307  34.305  1.00  0.00     0.016 A 
ATOM     14  C   UNL     1      29.006  -5.257  33.895  1.00  0.00     0.051 A 
ATOM     15  C   UNL     1      30.350  -5.142  34.268  1.00  0.00     0.157 A 
ATOM     16  C   UNL     1      29.811  -3.097  35.468  1.00  0.00     0.062 A 
ATOM     17  C   UNL     1      30.758  -4.044  35.062  1.00  0.00     0.158 A 
BRANCH  15  18
ATOM     18  O   UNL     1      31.236  -6.127  33.828  1.00  0.00    -0.504 OA
ATOM     19  H   UNL     1      31.263  -7.067  34.196  1.00  0.00     0.293 HD
ENDBRANCH  15  18
BRANCH  17  20
ATOM     20  O   UNL     1      32.082  -3.856  35.464  1.00  0.00    -0.504 OA
ATOM     21  H   UNL     1      32.560  -4.449  36.128  1.00  0.00     0.293 HD
ENDBRANCH  17  20
ENDBRANCH   1  12
BRANCH   2  22
ATOM     22  O   UNL     1      28.125  -2.419  37.875  1.00  0.00    -0.502 OA
ATOM     23  H   UNL     1      27.791  -2.583  38.816  1.00  0.00     0.293 HD
ENDBRANCH   2  22
BRANCH   6  24
ATOM     24  O   UNL     1      24.451   1.432  37.658  1.00  0.00    -0.507 OA
ATOM     25  H   UNL     1      24.146   2.384  37.791  1.00  0.00     0.293 HD
ENDBRANCH   6  24
BRANCH   8  26
ATOM     26  O   UNL     1      23.401   1.373  32.992  1.00  0.00    -0.508 OA
ATOM     27  H   UNL     1      23.841   1.813  32.191  1.00  0.00     0.293 HD
ENDBRANCH   8  26
TORSDOF 6
ENDMDL
MODEL 2
REMARK VINA RESULT:    -5.913      3.531      7.334
REMARK INTER + INTRA:          -7.141
REMARK INTER:                  -6.809
REMARK INTRA:                  -0.332
REMARK UNBOUND:                -0.018
REMARK SMILES O=c1c(O)c(-c2ccc(O)c(O)c2)oc2cc(O)cc(O)c12
REMARK SMILES IDX 5 1 3 2 2 3 1 4 22 5 20 6 19 7 17 8 16 9 15 10 14 11 6 12
REMARK SMILES IDX 7 13 8 14 9 15 13 16 11 17 10 18 12 20 4 22 21 24 18 26
REMARK H PARENT 10 19 12 21 4 23 21 25 18 27
REMARK Flexibility Score: inf
ROOT
ATOM      1  C   UNL     1      25.689   1.600  37.671  1.00  0.00     0.180 A 
ATOM      2  C   UNL     1      26.893   1.172  37.084  1.00  0.00     0.208 A 
ATOM      3  C   UNL     1      26.856   0.148  36.124  1.00  0.00     0.238 A 
ATOM      4  O   UNL     1      27.928  -0.178  35.550  1.00  0.00    -0.285 OA
ATOM      5  C   UNL     1      25.626  -0.476  35.804  1.00  0.00     0.111 A 
ATOM      6  C   UNL     1      25.478  -1.555  34.880  1.00  0.00     0.134 A 
ATOM      7  C   UNL     1      24.196  -2.021  34.564  1.00  0.00     0.093 A 
ATOM      8  C   UNL     1      23.064  -1.494  35.182  1.00  0.00     0.123 A 
ATOM      9  C   UNL     1      23.201  -0.477  36.128  1.00  0.00     0.094 A 
ATOM     10  C   UNL     1      24.463   0.036  36.437  1.00  0.00     0.146 A 
ATOM     11  O   UNL     1      24.546   1.018  37.326  1.00  0.00    -0.452 OA
ENDROOT
BRANCH   1  12
ATOM     12  C   UNL     1      25.644   2.683  38.678  1.00  0.00     0.025 A 
ATOM     13  C   UNL     1      25.549   4.032  38.298  1.00  0.00     0.016 A 
ATOM     14  C   UNL     1      25.485   5.035  39.267  1.00  0.00     0.051 A 
ATOM     15  C   UNL     1      25.500   4.714  40.630  1.00  0.00     0.157 A 
ATOM     16  C   UNL     1      25.637   2.358  40.043  1.00  0.00     0.062 A 
ATOM     17  C   UNL     1      25.573   3.357  41.022  1.00  0.00     0.158 A 
BRANCH  15  18
ATOM     18  O   UNL     1      25.438   5.765  41.548  1.00  0.00    -0.504 OA
ATOM     19  H   UNL     1      25.198   6.714  41.303  1.00  0.00     0.293 HD
ENDBRANCH  15  18
BRANCH  17  20
ATOM     20  O   UNL     1      25.582   2.960  42.361  1.00  0.00    -0.504 OA
ATOM     21  H   UNL     1      26.398   2.608  42.840  1.00  0.00     0.293 HD
ENDBRANCH  17  20
ENDBRANCH   1  12
BRANCH   2  22
ATOM     22  O   UNL     1      28.106   1.748  37.469  1.00  0.00    -0.502 OA
ATOM     23  H   UNL     1      28.852   1.210  37.893  1.00  0.00     0.293 HD
ENDBRANCH   2  22
BRANCH   6  24
ATOM     24  O   UNL     1      26.548  -2.215  34.269  1.00  0.00    -0.507 OA
ATOM     25  H   UNL     1      27.170  -1.804  33.590  1.00  0.00     0.293 HD
ENDBRANCH   6  24
BRANCH   8  26
ATOM     26  O   UNL     1      21.805  -1.994  34.855  1.00  0.00    -0.508 OA
ATOM     27  H   UNL     1      21.600  -2.349  33.928  1.00  0.00     0.293 HD
ENDBRANCH   8  26
TORSDOF 6
ENDMDL
MODEL 3
REMARK VINA RESULT:    -5.786      4.054      6.809
REMARK INTER + INTRA:          -6.989
REMARK INTER:                  -6.665
REMARK INTRA:                  -0.324
REMARK UNBOUND:                -0.018
REMARK SMILES O=c1c(O)c(-c2ccc(O)c(O)c2)oc2cc(O)cc(O)c12
REMARK SMILES IDX 5 1 3 2 2 3 1 4 22 5 20 6 19 7 17 8 16 9 15 10 14 11 6 12
REMARK SMILES IDX 7 13 8 14 9 15 13 16 11 17 10 18 12 20 4 22 21 24 18 26
REMARK H PARENT 10 19 12 21 4 23 21 25 18 27
REMARK Flexibility Score: inf
ROOT
ATOM      1  C   UNL     1      22.411   1.252  34.734  1.00  0.00     0.180 A 
ATOM      2  C   UNL     1      21.413   1.736  33.871  1.00  0.00     0.208 A 
ATOM      3  C   UNL     1      20.506   2.697  34.348  1.00  0.00     0.238 A 
ATOM      4  O   UNL     1      19.663   3.180  33.549  1.00  0.00    -0.285 OA
ATOM      5  C   UNL     1      20.574   3.121  35.698  1.00  0.00     0.111 A 
ATOM      6  C   UNL     1      19.679   4.056  36.302  1.00  0.00     0.134 A 
ATOM      7  C   UNL     1      19.908   4.480  37.617  1.00  0.00     0.093 A 
ATOM      8  C   UNL     1      20.958   3.958  38.370  1.00  0.00     0.123 A 
ATOM      9  C   UNL     1      21.805   3.002  37.809  1.00  0.00     0.094 A 
ATOM     10  C   UNL     1      21.627   2.587  36.487  1.00  0.00     0.146 A 
ATOM     11  O   UNL     1      22.469   1.693  35.985  1.00  0.00    -0.452 OA
ENDROOT
BRANCH   1  12
ATOM     12  C   UNL     1      23.411   0.251  34.300  1.00  0.00     0.025 A 
ATOM     13  C   UNL     1      24.579   0.631  33.620  1.00  0.00     0.016 A 
ATOM     14  C   UNL     1      25.518  -0.330  33.241  1.00  0.00     0.051 A 
ATOM     15  C   UNL     1      25.320  -1.682  33.543  1.00  0.00     0.157 A 
ATOM     16  C   UNL     1      23.220  -1.101  34.623  1.00  0.00     0.062 A 
ATOM     17  C   UNL     1      24.157  -2.072  34.248  1.00  0.00     0.158 A 
BRANCH  15  18
ATOM     18  O   UNL     1      26.296  -2.593  33.133  1.00  0.00    -0.504 OA
ATOM     19  H   UNL     1      26.455  -2.855  32.171  1.00  0.00     0.293 HD
ENDBRANCH  15  18
BRANCH  17  20
ATOM     20  O   UNL     1      23.894  -3.399  34.594  1.00  0.00    -0.504 OA
ATOM     21  H   UNL     1      24.601  -4.118  34.651  1.00  0.00     0.293 HD
ENDBRANCH  17  20
ENDBRANCH   1  12
BRANCH   2  22
ATOM     22  O   UNL     1      21.315   1.249  32.565  1.00  0.00    -0.502 OA
ATOM     23  H   UNL     1      20.445   1.253  32.047  1.00  0.00     0.293 HD
ENDBRANCH   2  22
BRANCH   6  24
ATOM     24  O   UNL     1      18.545   4.575  35.669  1.00  0.00    -0.507 OA
ATOM     25  H   UNL     1      17.623   4.168  35.710  1.00  0.00     0.293 HD
ENDBRANCH   6  24
BRANCH   8  26
ATOM     26  O   UNL     1      21.145   4.392  39.681  1.00  0.00    -0.508 OA
ATOM     27  H   UNL     1      20.361   4.608  40.286  1.00  0.00     0.293 HD
ENDBRANCH   8  26
TORSDOF 6
ENDMDL
MODEL 4
REMARK VINA RESULT:    -5.653      2.153      7.418
REMARK INTER + INTRA:          -6.828
REMARK INTER:                  -6.706
REMARK INTRA:                  -0.122
REMARK UNBOUND:                -0.018
REMARK SMILES O=c1c(O)c(-c2ccc(O)c(O)c2)oc2cc(O)cc(O)c12
REMARK SMILES IDX 5 1 3 2 2 3 1 4 22 5 20 6 19 7 17 8 16 9 15 10 14 11 6 12
REMARK SMILES IDX 7 13 8 14 9 15 13 16 11 17 10 18 12 20 4 22 21 24 18 26
REMARK H PARENT 10 19 12 21 4 23 21 25 18 27
REMARK Flexibility Score: inf
ROOT
ATOM      1  C   UNL     1      29.184  -3.088  35.017  1.00  0.00     0.180 A 
ATOM      2  C   UNL     1      29.326  -4.419  34.588  1.00  0.00     0.208 A 
ATOM      3  C   UNL     1      30.598  -4.881  34.214  1.00  0.00     0.238 A 
ATOM      4  O   UNL     1      30.732  -6.093  33.901  1.00  0.00    -0.285 OA
ATOM      5  C   UNL     1      31.702  -3.993  34.220  1.00  0.00     0.111 A 
ATOM      6  C   UNL     1      33.027  -4.342  33.817  1.00  0.00     0.134 A 
ATOM      7  C   UNL     1      34.061  -3.409  33.966  1.00  0.00     0.093 A 
ATOM      8  C   UNL     1      33.809  -2.123  34.442  1.00  0.00     0.123 A 
ATOM      9  C   UNL     1      32.508  -1.754  34.786  1.00  0.00     0.094 A 
ATOM     10  C   UNL     1      31.461  -2.674  34.685  1.00  0.00     0.146 A 
ATOM     11  O   UNL     1      30.243  -2.288  35.044  1.00  0.00    -0.452 OA
ENDROOT
BRANCH   1  12
ATOM     12  C   UNL     1      27.880  -2.532  35.442  1.00  0.00     0.025 A 
ATOM     13  C   UNL     1      27.688  -2.020  36.734  1.00  0.00     0.016 A 
ATOM     14  C   UNL     1      26.455  -1.480  37.104  1.00  0.00     0.051 A 
ATOM     15  C   UNL     1      25.395  -1.426  36.191  1.00  0.00     0.157 A 
ATOM     16  C   UNL     1      26.825  -2.460  34.517  1.00  0.00     0.062 A 
ATOM     17  C   UNL     1      25.585  -1.919  34.878  1.00  0.00     0.158 A 
BRANCH  15  18
ATOM     18  O   UNL     1      24.186  -0.877  36.624  1.00  0.00    -0.504 OA
ATOM     19  H   UNL     1      23.682  -0.158  36.126  1.00  0.00     0.293 HD
ENDBRANCH  15  18
BRANCH  17  20
ATOM     20  O   UNL     1      24.580  -1.891  33.910  1.00  0.00    -0.504 OA
ATOM     21  H   UNL     1      24.413  -1.110  33.292  1.00  0.00     0.293 HD
ENDBRANCH  17  20
ENDBRANCH   1  12
BRANCH   2  22
ATOM     22  O   UNL     1      28.212  -5.258  34.516  1.00  0.00    -0.502 OA
ATOM     23  H   UNL     1      27.647  -5.342  33.679  1.00  0.00     0.293 HD
ENDBRANCH   2  22
BRANCH   6  24
ATOM     24  O   UNL     1      33.375  -5.570  33.246  1.00  0.00    -0.507 OA
ATOM     25  H   UNL     1      34.313  -5.849  33.003  1.00  0.00     0.293 HD
ENDBRANCH   6  24
BRANCH   8  26
ATOM     26  O   UNL     1      34.860  -1.216  34.561  1.00  0.00    -0.508 OA
ATOM     27  H   UNL     1      35.306  -1.036  35.453  1.00  0.00     0.293 HD
ENDBRANCH   8  26
TORSDOF 6
ENDMDL
MODEL 5
REMARK VINA RESULT:    -5.644      4.597      8.247
REMARK INTER + INTRA:          -6.818
REMARK INTER:                  -6.513
REMARK INTRA:                  -0.305
REMARK UNBOUND:                -0.018
REMARK SMILES O=c1c(O)c(-c2ccc(O)c(O)c2)oc2cc(O)cc(O)c12
REMARK SMILES IDX 5 1 3 2 2 3 1 4 22 5 20 6 19 7 17 8 16 9 15 10 14 11 6 12
REMARK SMILES IDX 7 13 8 14 9 15 13 16 11 17 10 18 12 20 4 22 21 24 18 26
REMARK H PARENT 10 19 12 21 4 23 21 25 18 27
REMARK Flexibility Score: inf
ROOT
ATOM      1  C   UNL     1      23.842   2.471  38.350  1.00  0.00     0.180 A 
ATOM      2  C   UNL     1      22.765   3.082  37.684  1.00  0.00     0.208 A 
ATOM      3  C   UNL     1      22.184   2.427  36.586  1.00  0.00     0.238 A 
ATOM      4  O   UNL     1      21.174   2.945  36.041  1.00  0.00    -0.285 OA
ATOM      5  C   UNL     1      22.720   1.197  36.133  1.00  0.00     0.111 A 
ATOM      6  C   UNL     1      22.238   0.468  35.004  1.00  0.00     0.134 A 
ATOM      7  C   UNL     1      22.780  -0.790  34.713  1.00  0.00     0.093 A 
ATOM      8  C   UNL     1      23.825  -1.318  35.470  1.00  0.00     0.123 A 
ATOM      9  C   UNL     1      24.340  -0.589  36.542  1.00  0.00     0.094 A 
ATOM     10  C   UNL     1      23.796   0.652  36.881  1.00  0.00     0.146 A 
ATOM     11  O   UNL     1      24.302   1.302  37.922  1.00  0.00    -0.452 OA
ENDROOT
BRANCH   1  12
ATOM     12  C   UNL     1      24.498   3.092  39.523  1.00  0.00     0.025 A 
ATOM     13  C   UNL     1      25.659   3.868  39.387  1.00  0.00     0.016 A 
ATOM     14  C   UNL     1      26.246   4.462  40.506  1.00  0.00     0.051 A 
ATOM     15  C   UNL     1      25.681   4.306  41.777  1.00  0.00     0.157 A 
ATOM     16  C   UNL     1      23.917   2.952  40.793  1.00  0.00     0.062 A 
ATOM     17  C   UNL     1      24.497   3.544  41.921  1.00  0.00     0.158 A 
BRANCH  15  18
ATOM     18  O   UNL     1      26.319   4.923  42.856  1.00  0.00    -0.504 OA
ATOM     19  H   UNL     1      26.040   4.805  43.819  1.00  0.00     0.293 HD
ENDBRANCH  15  18
BRANCH  17  20
ATOM     20  O   UNL     1      23.870   3.353  43.154  1.00  0.00    -0.504 OA
ATOM     21  H   UNL     1      23.695   4.092  43.819  1.00  0.00     0.293 HD
ENDBRANCH  17  20
ENDBRANCH   1  12
BRANCH   2  22
ATOM     22  O   UNL     1      22.300   4.332  38.099  1.00  0.00    -0.502 OA
ATOM     23  H   UNL     1      21.381   4.680  37.853  1.00  0.00     0.293 HD
ENDBRANCH   2  22
BRANCH   6  24
ATOM     24  O   UNL     1      21.258   0.940  34.127  1.00  0.00    -0.507 OA
ATOM     25  H   UNL     1      21.280   1.835  33.661  1.00  0.00     0.293 HD
ENDBRANCH   6  24
BRANCH   8  26
ATOM     26  O   UNL     1      24.349  -2.566  35.141  1.00  0.00    -0.508 OA
ATOM     27  H   UNL     1      24.476  -2.852  34.177  1.00  0.00     0.293 HD
ENDBRANCH   8  26
TORSDOF 6
ENDMDL
MODEL 6
REMARK VINA RESULT:    -5.596      4.649      8.721
REMARK INTER + INTRA:          -6.759
REMARK INTER:                  -6.457
REMARK INTRA:                  -0.302
REMARK UNBOUND:                -0.018
REMARK SMILES O=c1c(O)c(-c2ccc(O)c(O)c2)oc2cc(O)cc(O)c12
REMARK SMILES IDX 5 1 3 2 2 3 1 4 22 5 20 6 19 7 17 8 16 9 15 10 14 11 6 12
REMARK SMILES IDX 7 13 8 14 9 15 13 16 11 17 10 18 12 20 4 22 21 24 18 26
REMARK H PARENT 10 19 12 21 4 23 21 25 18 27
REMARK Flexibility Score: inf
ROOT
ATOM      1  C   UNL     1      25.172   2.725  39.767  1.00  0.00     0.180 A 
ATOM      2  C   UNL     1      26.570   2.861  39.684  1.00  0.00     0.208 A 
ATOM      3  C   UNL     1      27.236   2.367  38.551  1.00  0.00     0.238 A 
ATOM      4  O   UNL     1      28.475   2.558  38.449  1.00  0.00    -0.285 OA
ATOM      5  C   UNL     1      26.505   1.695  37.540  1.00  0.00     0.111 A 
ATOM      6  C   UNL     1      27.083   1.116  36.370  1.00  0.00     0.134 A 
ATOM      7  C   UNL     1      26.248   0.569  35.387  1.00  0.00     0.093 A 
ATOM      8  C   UNL     1      24.866   0.522  35.559  1.00  0.00     0.123 A 
ATOM      9  C   UNL     1      24.295   1.036  36.724  1.00  0.00     0.094 A 
ATOM     10  C   UNL     1      25.097   1.623  37.706  1.00  0.00     0.146 A 
ATOM     11  O   UNL     1      24.511   2.119  38.789  1.00  0.00    -0.452 OA
ENDROOT
BRANCH   1  12
ATOM     12  C   UNL     1      24.399   3.232  40.922  1.00  0.00     0.025 A 
ATOM     13  C   UNL     1      23.695   4.445  40.856  1.00  0.00     0.016 A 
ATOM     14  C   UNL     1      22.954   4.892  41.952  1.00  0.00     0.051 A 
ATOM     15  C   UNL     1      22.886   4.133  43.126  1.00  0.00     0.157 A 
ATOM     16  C   UNL     1      24.315   2.459  42.091  1.00  0.00     0.062 A 
ATOM     17  C   UNL     1      23.573   2.898  43.195  1.00  0.00     0.158 A 
BRANCH  15  18
ATOM     18  O   UNL     1      22.130   4.638  44.187  1.00  0.00    -0.504 OA
ATOM     19  H   UNL     1      21.668   4.061  44.874  1.00  0.00     0.293 HD
ENDBRANCH  15  18
BRANCH  17  20
ATOM     20  O   UNL     1      23.545   2.082  44.327  1.00  0.00    -0.504 OA
ATOM     21  H   UNL     1      24.049   1.211  44.408  1.00  0.00     0.293 HD
ENDBRANCH  17  20
ENDBRANCH   1  12
BRANCH   2  22
ATOM     22  O   UNL     1      27.281   3.459  40.727  1.00  0.00    -0.502 OA
ATOM     23  H   UNL     1      27.701   4.376  40.643  1.00  0.00     0.293 HD
ENDBRANCH   2  22
BRANCH   6  24
ATOM     24  O   UNL     1      28.459   1.028  36.136  1.00  0.00    -0.507 OA
ATOM     25  H   UNL     1      29.173   1.145  36.839  1.00  0.00     0.293 HD
ENDBRANCH   6  24
BRANCH   8  26
ATOM     26  O   UNL     1      24.069  -0.045  34.567  1.00  0.00    -0.508 OA
ATOM     27  H   UNL     1      24.472  -0.462  33.736  1.00  0.00     0.293 HD
ENDBRANCH   8  26
TORSDOF 6
ENDMDL
MODEL 7
REMARK VINA RESULT:    -5.568      8.580     11.589
REMARK INTER + INTRA:          -6.725
REMARK INTER:                  -6.395
REMARK INTRA:                  -0.330
REMARK UNBOUND:                -0.018
REMARK SMILES O=c1c(O)c(-c2ccc(O)c(O)c2)oc2cc(O)cc(O)c12
REMARK SMILES IDX 5 1 3 2 2 3 1 4 22 5 20 6 19 7 17 8 16 9 15 10 14 11 6 12
REMARK SMILES IDX 7 13 8 14 9 15 13 16 11 17 10 18 12 20 4 22 21 24 18 26
REMARK H PARENT 10 19 12 21 4 23 21 25 18 27
REMARK Flexibility Score: inf
ROOT
ATOM      1  C   UNL     1      33.937   1.929  41.805  1.00  0.00     0.180 A 
ATOM      2  C   UNL     1      34.356   0.888  42.652  1.00  0.00     0.208 A 
ATOM      3  C   UNL     1      34.803  -0.316  42.082  1.00  0.00     0.238 A 
ATOM      4  O   UNL     1      35.246  -1.215  42.842  1.00  0.00    -0.285 OA
ATOM      5  C   UNL     1      34.772  -0.484  40.676  1.00  0.00     0.111 A 
ATOM      6  C   UNL     1      35.159  -1.677  39.992  1.00  0.00     0.134 A 
ATOM      7  C   UNL     1      35.187  -1.691  38.592  1.00  0.00     0.093 A 
ATOM      8  C   UNL     1      34.785  -0.582  37.851  1.00  0.00     0.123 A 
ATOM      9  C   UNL     1      34.352   0.571  38.509  1.00  0.00     0.094 A 
ATOM     10  C   UNL     1      34.349   0.630  39.905  1.00  0.00     0.146 A 
ATOM     11  O   UNL     1      33.951   1.753  40.490  1.00  0.00    -0.452 OA
ENDROOT
BRANCH   1  12
ATOM     12  C   UNL     1      33.467   3.231  42.330  1.00  0.00     0.025 A 
ATOM     13  C   UNL     1      34.361   4.283  42.583  1.00  0.00     0.016 A 
ATOM     14  C   UNL     1      33.891   5.509  43.057  1.00  0.00     0.051 A 
ATOM     15  C   UNL     1      32.524   5.716  43.273  1.00  0.00     0.157 A 
ATOM     16  C   UNL     1      32.093   3.442  42.525  1.00  0.00     0.062 A 
ATOM     17  C   UNL     1      31.613   4.669  42.999  1.00  0.00     0.158 A 
BRANCH  15  18
ATOM     18  O   UNL     1      32.119   6.964  43.751  1.00  0.00    -0.504 OA
ATOM     19  H   UNL     1      31.394   7.096  44.441  1.00  0.00     0.293 HD
ENDBRANCH  15  18
BRANCH  17  20
ATOM     20  O   UNL     1      30.234   4.803  43.179  1.00  0.00    -0.504 OA
ATOM     21  H   UNL     1      29.694   5.587  42.844  1.00  0.00     0.293 HD
ENDBRANCH  17  20
ENDBRANCH   1  12
BRANCH   2  22
ATOM     22  O   UNL     1      34.307   1.046  44.039  1.00  0.00    -0.502 OA
ATOM     23  H   UNL     1      35.135   1.008  44.621  1.00  0.00     0.293 HD
ENDBRANCH   2  22
BRANCH   6  24
ATOM     24  O   UNL     1      35.496  -2.873  40.633  1.00  0.00    -0.507 OA
ATOM     25  H   UNL     1      34.913  -3.356  41.299  1.00  0.00     0.293 HD
ENDBRANCH   6  24
BRANCH   8  26
ATOM     26  O   UNL     1      34.810  -0.638  36.459  1.00  0.00    -0.508 OA
ATOM     27  H   UNL     1      35.409  -1.290  35.966  1.00  0.00     0.293 HD
ENDBRANCH   8  26
TORSDOF 6
ENDMDL
MODEL 8
REMARK VINA RESULT:    -5.562      4.773      8.115
REMARK INTER + INTRA:          -6.719
REMARK INTER:                  -6.387
REMARK INTRA:                  -0.331
REMARK UNBOUND:                -0.018
REMARK SMILES O=c1c(O)c(-c2ccc(O)c(O)c2)oc2cc(O)cc(O)c12
REMARK SMILES IDX 5 1 3 2 2 3 1 4 22 5 20 6 19 7 17 8 16 9 15 10 14 11 6 12
REMARK SMILES IDX 7 13 8 14 9 15 13 16 11 17 10 18 12 20 4 22 21 24 18 26
REMARK H PARENT 10 19 12 21 4 23 21 25 18 27
REMARK Flexibility Score: inf
ROOT
ATOM      1  C   UNL     1      22.967   2.488  38.268  1.00  0.00     0.180 A 
ATOM      2  C   UNL     1      22.282   3.671  37.939  1.00  0.00     0.208 A 
ATOM      3  C   UNL     1      21.921   4.558  38.966  1.00  0.00     0.238 A 
ATOM      4  O   UNL     1      21.375   5.649  38.657  1.00  0.00    -0.285 OA
ATOM      5  C   UNL     1      22.199   4.225  40.315  1.00  0.00     0.111 A 
ATOM      6  C   UNL     1      21.838   5.027  41.440  1.00  0.00     0.134 A 
ATOM      7  C   UNL     1      22.259   4.648  42.721  1.00  0.00     0.093 A 
ATOM      8  C   UNL     1      22.971   3.467  42.926  1.00  0.00     0.123 A 
ATOM      9  C   UNL     1      23.280   2.647  41.840  1.00  0.00     0.094 A 
ATOM     10  C   UNL     1      22.908   3.017  40.545  1.00  0.00     0.146 A 
ATOM     11  O   UNL     1      23.242   2.219  39.538  1.00  0.00    -0.452 OA
ENDROOT
BRANCH   1  12
ATOM     12  C   UNL     1      23.394   1.512  37.240  1.00  0.00     0.025 A 
ATOM     13  C   UNL     1      24.648   1.607  36.617  1.00  0.00     0.016 A 
ATOM     14  C   UNL     1      25.037   0.661  35.667  1.00  0.00     0.051 A 
ATOM     15  C   UNL     1      24.192  -0.403  35.330  1.00  0.00     0.157 A 
ATOM     16  C   UNL     1      22.554   0.434  36.920  1.00  0.00     0.062 A 
ATOM     17  C   UNL     1      22.936  -0.520  35.968  1.00  0.00     0.158 A 
BRANCH  15  18
ATOM     18  O   UNL     1      24.640  -1.313  34.369  1.00  0.00    -0.504 OA
ATOM     19  H   UNL     1      24.155  -1.504  33.504  1.00  0.00     0.293 HD
ENDBRANCH  15  18
BRANCH  17  20
ATOM     20  O   UNL     1      22.044  -1.558  35.692  1.00  0.00    -0.504 OA
ATOM     21  H   UNL     1      21.279  -1.486  35.037  1.00  0.00     0.293 HD
ENDBRANCH  17  20
ENDBRANCH   1  12
BRANCH   2  22
ATOM     22  O   UNL     1      21.950   3.945  36.610  1.00  0.00    -0.502 OA
ATOM     23  H   UNL     1      20.993   4.072  36.303  1.00  0.00     0.293 HD
ENDBRANCH   2  22
BRANCH   6  24
ATOM     24  O   UNL     1      21.053   6.181  41.360  1.00  0.00    -0.507 OA
ATOM     25  H   UNL     1      21.054   6.828  40.586  1.00  0.00     0.293 HD
ENDBRANCH   6  24
BRANCH   8  26
ATOM     26  O   UNL     1      23.358   3.113  44.216  1.00  0.00    -0.508 OA
ATOM     27  H   UNL     1      23.689   3.805  44.880  1.00  0.00     0.293 HD
ENDBRANCH   8  26
TORSDOF 6
ENDMDL
MODEL 9
REMARK VINA RESULT:    -5.437      4.199      8.005
REMARK INTER + INTRA:          -6.567
REMARK INTER:                  -6.305
REMARK INTRA:                  -0.263
REMARK UNBOUND:                -0.018
REMARK SMILES O=c1c(O)c(-c2ccc(O)c(O)c2)oc2cc(O)cc(O)c12
REMARK SMILES IDX 5 1 3 2 2 3 1 4 22 5 20 6 19 7 17 8 16 9 15 10 14 11 6 12
REMARK SMILES IDX 7 13 8 14 9 15 13 16 11 17 10 18 12 20 4 22 21 24 18 26
REMARK H PARENT 10 19 12 21 4 23 21 25 18 27
REMARK Flexibility Score: inf
ROOT
ATOM      1  C   UNL     1      24.695   2.259  38.028  1.00  0.00     0.180 A 
ATOM      2  C   UNL     1      25.901   2.295  37.305  1.00  0.00     0.208 A 
ATOM      3  C   UNL     1      26.063   1.432  36.209  1.00  0.00     0.238 A 
ATOM      4  O   UNL     1      27.114   1.521  35.523  1.00  0.00    -0.285 OA
ATOM      5  C   UNL     1      25.043   0.505  35.884  1.00  0.00     0.111 A 
ATOM      6  C   UNL     1      25.119  -0.447  34.822  1.00  0.00     0.134 A 
ATOM      7  C   UNL     1      24.004  -1.241  34.527  1.00  0.00     0.093 A 
ATOM      8  C   UNL     1      22.841  -1.164  35.290  1.00  0.00     0.123 A 
ATOM      9  C   UNL     1      22.775  -0.277  36.365  1.00  0.00     0.094 A 
ATOM     10  C   UNL     1      23.857   0.557  36.662  1.00  0.00     0.146 A 
ATOM     11  O   UNL     1      23.744   1.402  37.678  1.00  0.00    -0.452 OA
ENDROOT
BRANCH   1  12
ATOM     12  C   UNL     1      24.444   3.147  39.185  1.00  0.00     0.025 A 
ATOM     13  C   UNL     1      23.565   4.238  39.093  1.00  0.00     0.016 A 
ATOM     14  C   UNL     1      23.326   5.048  40.205  1.00  0.00     0.051 A 
ATOM     15  C   UNL     1      23.946   4.779  41.431  1.00  0.00     0.157 A 
ATOM     16  C   UNL     1      25.049   2.863  40.419  1.00  0.00     0.062 A 
ATOM     17  C   UNL     1      24.815   3.669  41.540  1.00  0.00     0.158 A 
BRANCH  15  18
ATOM     18  O   UNL     1      23.667   5.630  42.503  1.00  0.00    -0.504 OA
ATOM     19  H   UNL     1      24.353   5.922  43.184  1.00  0.00     0.293 HD
ENDBRANCH  15  18
BRANCH  17  20
ATOM     20  O   UNL     1      25.462   3.332  42.731  1.00  0.00    -0.504 OA
ATOM     21  H   UNL     1      25.802   2.406  42.947  1.00  0.00     0.293 HD
ENDBRANCH  17  20
ENDBRANCH   1  12
BRANCH   2  22
ATOM     22  O   UNL     1      26.926   3.162  37.689  1.00  0.00    -0.502 OA
ATOM     23  H   UNL     1      27.850   3.130  37.276  1.00  0.00     0.293 HD
ENDBRANCH   2  22
BRANCH   6  24
ATOM     24  O   UNL     1      26.263  -0.670  34.050  1.00  0.00    -0.507 OA
ATOM     25  H   UNL     1      27.020  -0.013  33.935  1.00  0.00     0.293 HD
ENDBRANCH   6  24
BRANCH   8  26
ATOM     26  O   UNL     1      21.757  -1.982  34.977  1.00  0.00    -0.508 OA
ATOM     27  H   UNL     1      21.694  -2.934  35.319  1.00  0.00     0.293 HD
ENDBRANCH   8  26
TORSDOF 6
ENDMDL
