MODEL 1
REMARK VINA RESULT:    -4.946      0.000      0.000
REMARK INTER + INTRA:          -7.873
REMARK INTER:                  -7.548
REMARK INTRA:                  -0.325
REMARK UNBOUND:                -0.325
REMARK SMILES O=C([O-])CCCCCCCCC(=O)[O-]
REMARK SMILES IDX 7 1 6 2 5 3 4 4 2 5 1 6 3 7 8 8 9 9 10 10 11 11 12 12 13 13
REMARK SMILES IDX 14 14
REMARK H PARENT
REMARK Flexibility Score: inf
ROOT
ATOM      1  C   UNL     1     -13.650  -6.918  36.723  1.00  0.00     0.000 C 
ENDROOT
BRANCH   1   2
ATOM      2  C   UNL     1     -14.835  -6.054  37.191  1.00  0.00     0.000 C 
BRANCH   2   3
ATOM      3  C   UNL     1     -14.998  -6.049  38.717  1.00  0.00     0.006 C 
BRANCH   3   4
ATOM      4  C   UNL     1     -16.338  -5.426  39.122  1.00  0.00     0.053 C 
BRANCH   4   5
ATOM      5  C   UNL     1     -17.232  -6.457  39.735  1.00  0.00     0.041 C 
ATOM      6  O   UNL     1     -17.756  -7.349  39.017  1.00  0.00    -0.550 OA
ATOM      7  O   UNL     1     -17.447  -6.464  41.108  1.00  0.00    -0.550 OA
ENDBRANCH   4   5
ENDBRANCH   3   4
ENDBRANCH   2   3
ENDBRANCH   1   2
BRANCH   1   8
ATOM      8  C   UNL     1     -12.781  -7.410  37.893  1.00  0.00     0.000 C 
BRANCH   8   9
ATOM      9  C   UNL     1     -11.482  -8.091  37.428  1.00  0.00     0.000 C 
BRANCH   9  10
ATOM     10  C   UNL     1     -11.105  -9.377  38.192  1.00  0.00     0.006 C 
BRANCH  10  11
ATOM     11  C   UNL     1     -10.678  -9.152  39.651  1.00  0.00     0.053 C 
BRANCH  11  12
ATOM     12  C   UNL     1      -9.732 -10.210  40.127  1.00  0.00     0.041 C 
ATOM     13  O   UNL     1      -8.823 -10.637  39.367  1.00  0.00    -0.550 OA
ATOM     14  O   UNL     1      -9.833 -10.702  41.422  1.00  0.00    -0.550 OA
ENDBRANCH  11  12
ENDBRANCH  10  11
ENDBRANCH   9  10
ENDBRANCH   8   9
ENDBRANCH   1   8
TORSDOF 9
ENDMDL
MODEL 2
REMARK VINA RESULT:    -4.893      0.970      6.492
REMARK INTER + INTRA:          -7.792
REMARK INTER:                  -7.437
REMARK INTRA:                  -0.355
REMARK UNBOUND:                -0.325
REMARK SMILES O=C([O-])CCCCCCCCC(=O)[O-]
REMARK SMILES IDX 7 1 6 2 5 3 4 4 2 5 1 6 3 7 8 8 9 9 10 10 11 11 12 12 13 13
REMARK SMILES IDX 14 14
REMARK H PARENT
REMARK Flexibility Score: inf
ROOT
ATOM      1  C   UNL     1     -12.856  -7.400  37.744  1.00  0.00     0.000 C 
ENDROOT
BRANCH   1   2
ATOM      2  C   UNL     1     -11.838  -8.399  37.168  1.00  0.00     0.000 C 
BRANCH   2   3
ATOM      3  C   UNL     1     -11.064  -9.151  38.260  1.00  0.00     0.006 C 
BRANCH   3   4
ATOM      4  C   UNL     1     -11.216  -8.455  39.617  1.00  0.00     0.053 C 
BRANCH   4   5
ATOM      5  C   UNL     1     -10.437  -9.180  40.669  1.00  0.00     0.041 C 
ATOM      6  O   UNL     1      -9.900 -10.288  40.409  1.00  0.00    -0.550 OA
ATOM      7  O   UNL     1     -10.263  -8.607  41.923  1.00  0.00    -0.550 OA
ENDBRANCH   4   5
ENDBRANCH   3   4
ENDBRANCH   2   3
ENDBRANCH   1   2
BRANCH   1   8
ATOM      8  C   UNL     1     -13.832  -6.872  36.678  1.00  0.00     0.000 C 
BRANCH   8   9
ATOM      9  C   UNL     1     -14.798  -5.806  37.225  1.00  0.00     0.000 C 
BRANCH   9  10
ATOM     10  C   UNL     1     -15.944  -6.347  38.104  1.00  0.00     0.006 C 
BRANCH  10  11
ATOM     11  C   UNL     1     -16.264  -5.488  39.338  1.00  0.00     0.053 C 
BRANCH  11  12
ATOM     12  C   UNL     1     -16.924  -6.285  40.419  1.00  0.00     0.041 C 
ATOM     13  O   UNL     1     -16.442  -6.301  41.582  1.00  0.00    -0.550 OA
ATOM     14  O   UNL     1     -18.093  -6.986  40.150  1.00  0.00    -0.550 OA
ENDBRANCH  11  12
ENDBRANCH  10  11
ENDBRANCH   9  10
ENDBRANCH   8   9
ENDBRANCH   1   8
TORSDOF 9
ENDMDL
MODEL 3
REMARK VINA RESULT:    -4.890      1.296      7.252
REMARK INTER + INTRA:          -7.789
REMARK INTER:                  -7.365
REMARK INTRA:                  -0.424
REMARK UNBOUND:                -0.325
REMARK SMILES O=C([O-])CCCCCCCCC(=O)[O-]
REMARK SMILES IDX 7 1 6 2 5 3 4 4 2 5 1 6 3 7 8 8 9 9 10 10 11 11 12 12 13 13
REMARK SMILES IDX 14 14
REMARK H PARENT
REMARK Flexibility Score: inf
ROOT
ATOM      1  C   UNL     1     -11.924  -7.865  37.680  1.00  0.00     0.000 C 
ENDROOT
BRANCH   1   2
ATOM      2  C   UNL     1     -11.820  -7.992  39.209  1.00  0.00     0.000 C 
BRANCH   2   3
ATOM      3  C   UNL     1     -10.757  -9.008  39.649  1.00  0.00     0.006 C 
BRANCH   3   4
ATOM      4  C   UNL     1     -10.299  -9.867  38.466  1.00  0.00     0.053 C 
BRANCH   4   5
ATOM      5  C   UNL     1      -8.810  -9.820  38.328  1.00  0.00     0.041 C 
ATOM      6  O   UNL     1      -8.158 -10.877  38.122  1.00  0.00    -0.550 OA
ATOM      7  O   UNL     1      -8.145  -8.600  38.378  1.00  0.00    -0.550 OA
ENDBRANCH   4   5
ENDBRANCH   3   4
ENDBRANCH   2   3
ENDBRANCH   1   2
BRANCH   1   8
ATOM      8  C   UNL     1     -13.269  -7.271  37.227  1.00  0.00     0.000 C 
BRANCH   8   9
ATOM      9  C   UNL     1     -13.949  -6.427  38.319  1.00  0.00     0.000 C 
BRANCH   9  10
ATOM     10  C   UNL     1     -15.373  -5.939  37.982  1.00  0.00     0.006 C 
BRANCH  10  11
ATOM     11  C   UNL     1     -16.175  -5.424  39.188  1.00  0.00     0.053 C 
BRANCH  11  12
ATOM     12  C   UNL     1     -17.305  -6.340  39.541  1.00  0.00     0.041 C 
ATOM     13  O   UNL     1     -17.977  -6.146  40.587  1.00  0.00    -0.550 OA
ATOM     14  O   UNL     1     -17.639  -7.390  38.694  1.00  0.00    -0.550 OA
ENDBRANCH  11  12
ENDBRANCH  10  11
ENDBRANCH   9  10
ENDBRANCH   8   9
ENDBRANCH   1   8
TORSDOF 9
ENDMDL
MODEL 4
REMARK VINA RESULT:    -4.823      1.606      2.209
REMARK INTER + INTRA:          -7.686
REMARK INTER:                  -7.275
REMARK INTRA:                  -0.411
REMARK UNBOUND:                -0.325
REMARK SMILES O=C([O-])CCCCCCCCC(=O)[O-]
REMARK SMILES IDX 7 1 6 2 5 3 4 4 2 5 1 6 3 7 8 8 9 9 10 10 11 11 12 12 13 13
REMARK SMILES IDX 14 14
REMARK H PARENT
REMARK Flexibility Score: inf
ROOT
ATOM      1  C   UNL     1     -13.447  -7.185  37.172  1.00  0.00     0.000 C 
ENDROOT
BRANCH   1   2
ATOM      2  C   UNL     1     -14.585  -6.168  36.980  1.00  0.00     0.000 C 
BRANCH   2   3
ATOM      3  C   UNL     1     -15.168  -5.673  38.311  1.00  0.00     0.006 C 
BRANCH   3   4
ATOM      4  C   UNL     1     -16.607  -6.165  38.494  1.00  0.00     0.053 C 
BRANCH   4   5
ATOM      5  C   UNL     1     -16.942  -6.279  39.949  1.00  0.00     0.041 C 
ATOM      6  O   UNL     1     -18.117  -6.552  40.309  1.00  0.00    -0.550 OA
ATOM      7  O   UNL     1     -15.944  -6.133  40.905  1.00  0.00    -0.550 OA
ENDBRANCH   4   5
ENDBRANCH   3   4
ENDBRANCH   2   3
ENDBRANCH   1   2
BRANCH   1   8
ATOM      8  C   UNL     1     -12.832  -7.124  38.581  1.00  0.00     0.000 C 
BRANCH   8   9
ATOM      9  C   UNL     1     -11.752  -8.196  38.810  1.00  0.00     0.000 C 
BRANCH   9  10
ATOM     10  C   UNL     1     -11.378  -9.028  37.566  1.00  0.00     0.006 C 
BRANCH  10  11
ATOM     11  C   UNL     1     -10.127  -8.534  36.820  1.00  0.00     0.053 C 
BRANCH  11  12
ATOM     12  C   UNL     1      -9.017  -9.537  36.865  1.00  0.00     0.041 C 
ATOM     13  O   UNL     1      -8.807 -10.206  37.910  1.00  0.00    -0.550 OA
ATOM     14  O   UNL     1      -8.233  -9.757  35.739  1.00  0.00    -0.550 OA
ENDBRANCH  11  12
ENDBRANCH  10  11
ENDBRANCH   9  10
ENDBRANCH   8   9
ENDBRANCH   1   8
TORSDOF 9
ENDMDL
MODEL 5
REMARK VINA RESULT:    -4.764      2.056      2.604
REMARK INTER + INTRA:          -7.596
REMARK INTER:                  -7.219
REMARK INTRA:                  -0.376
REMARK UNBOUND:                -0.325
REMARK SMILES O=C([O-])CCCCCCCCC(=O)[O-]
REMARK SMILES IDX 7 1 6 2 5 3 4 4 2 5 1 6 3 7 8 8 9 9 10 10 11 11 12 12 13 13
REMARK SMILES IDX 14 14
REMARK H PARENT
REMARK Flexibility Score: inf
ROOT
ATOM      1  C   UNL     1     -14.809  -5.782  37.949  1.00  0.00     0.000 C 
ENDROOT
BRANCH   1   2
ATOM      2  C   UNL     1     -16.188  -6.418  38.194  1.00  0.00     0.000 C 
BRANCH   2   3
ATOM      3  C   UNL     1     -17.026  -5.639  39.218  1.00  0.00     0.006 C 
BRANCH   3   4
ATOM      4  C   UNL     1     -17.819  -6.593  40.116  1.00  0.00     0.053 C 
BRANCH   4   5
ATOM      5  C   UNL     1     -17.147  -6.744  41.445  1.00  0.00     0.041 C 
ATOM      6  O   UNL     1     -16.053  -6.163  41.671  1.00  0.00    -0.550 OA
ATOM      7  O   UNL     1     -17.754  -7.487  42.450  1.00  0.00    -0.550 OA
ENDBRANCH   4   5
ENDBRANCH   3   4
ENDBRANCH   2   3
ENDBRANCH   1   2
BRANCH   1   8
ATOM      8  C   UNL     1     -13.676  -6.822  37.918  1.00  0.00     0.000 C 
BRANCH   8   9
ATOM      9  C   UNL     1     -12.842  -6.838  39.210  1.00  0.00     0.000 C 
BRANCH   9  10
ATOM     10  C   UNL     1     -11.813  -7.983  39.314  1.00  0.00     0.006 C 
BRANCH  10  11
ATOM     11  C   UNL     1     -10.541  -7.777  38.474  1.00  0.00     0.053 C 
BRANCH  11  12
ATOM     12  C   UNL     1     -10.511  -8.674  37.276  1.00  0.00     0.041 C 
ATOM     13  O   UNL     1     -10.209  -8.212  36.145  1.00  0.00    -0.550 OA
ATOM     14  O   UNL     1     -10.783 -10.029  37.416  1.00  0.00    -0.550 OA
ENDBRANCH  11  12
ENDBRANCH  10  11
ENDBRANCH   9  10
ENDBRANCH   8   9
ENDBRANCH   1   8
TORSDOF 9
ENDMDL
MODEL 6
REMARK VINA RESULT:    -4.761      2.000      3.097
REMARK INTER + INTRA:          -7.591
REMARK INTER:                  -7.110
REMARK INTRA:                  -0.481
REMARK UNBOUND:                -0.325
REMARK SMILES O=C([O-])CCCCCCCCC(=O)[O-]
REMARK SMILES IDX 7 1 6 2 5 3 4 4 2 5 1 6 3 7 8 8 9 9 10 10 11 11 12 12 13 13
REMARK SMILES IDX 14 14
REMARK H PARENT
REMARK Flexibility Score: inf
ROOT
ATOM      1  C   UNL     1     -15.775  -5.581  38.992  1.00  0.00     0.000 C 
ENDROOT
BRANCH   1   2
ATOM      2  C   UNL     1     -17.274  -5.727  39.300  1.00  0.00     0.000 C 
BRANCH   2   3
ATOM      3  C   UNL     1     -17.544  -6.615  40.524  1.00  0.00     0.006 C 
BRANCH   3   4
ATOM      4  C   UNL     1     -16.452  -6.432  41.583  1.00  0.00     0.053 C 
BRANCH   4   5
ATOM      5  C   UNL     1     -16.917  -6.947  42.909  1.00  0.00     0.041 C 
ATOM      6  O   UNL     1     -17.380  -8.113  43.010  1.00  0.00    -0.550 OA
ATOM      7  O   UNL     1     -16.792  -6.155  44.045  1.00  0.00    -0.550 OA
ENDBRANCH   4   5
ENDBRANCH   3   4
ENDBRANCH   2   3
ENDBRANCH   1   2
BRANCH   1   8
ATOM      8  C   UNL     1     -15.393  -6.174  37.625  1.00  0.00     0.000 C 
BRANCH   8   9
ATOM      9  C   UNL     1     -13.906  -6.558  37.533  1.00  0.00     0.000 C 
BRANCH   9  10
ATOM     10  C   UNL     1     -13.234  -6.909  38.877  1.00  0.00     0.006 C 
BRANCH  10  11
ATOM     11  C   UNL     1     -11.924  -7.704  38.748  1.00  0.00     0.053 C 
BRANCH  11  12
ATOM     12  C   UNL     1     -11.458  -8.232  40.069  1.00  0.00     0.041 C 
ATOM     13  O   UNL     1     -10.744  -9.267  40.123  1.00  0.00    -0.550 OA
ATOM     14  O   UNL     1     -11.785  -7.560  41.240  1.00  0.00    -0.550 OA
ENDBRANCH  11  12
ENDBRANCH  10  11
ENDBRANCH   9  10
ENDBRANCH   8   9
ENDBRANCH   1   8
TORSDOF 9
ENDMDL
MODEL 7
REMARK VINA RESULT:    -4.734      3.995      6.182
REMARK INTER + INTRA:          -7.550
REMARK INTER:                  -7.297
REMARK INTRA:                  -0.253
REMARK UNBOUND:                -0.325
REMARK SMILES O=C([O-])CCCCCCCCC(=O)[O-]
REMARK SMILES IDX 7 1 6 2 5 3 4 4 2 5 1 6 3 7 8 8 9 9 10 10 11 11 12 12 13 13
REMARK SMILES IDX 14 14
REMARK H PARENT
REMARK Flexibility Score: inf
ROOT
ATOM      1  C   UNL     1     -17.801  -6.759  40.372  1.00  0.00     0.000 C 
ENDROOT
BRANCH   1   2
ATOM      2  C   UNL     1     -17.185  -5.733  39.405  1.00  0.00     0.000 C 
BRANCH   2   3
ATOM      3  C   UNL     1     -16.327  -6.390  38.313  1.00  0.00     0.006 C 
BRANCH   3   4
ATOM      4  C   UNL     1     -14.921  -5.781  38.282  1.00  0.00     0.053 C 
BRANCH   4   5
ATOM      5  C   UNL     1     -14.038  -6.547  37.348  1.00  0.00     0.041 C 
ATOM      6  O   UNL     1     -14.209  -6.465  36.103  1.00  0.00    -0.550 OA
ATOM      7  O   UNL     1     -12.994  -7.314  37.850  1.00  0.00    -0.550 OA
ENDBRANCH   4   5
ENDBRANCH   3   4
ENDBRANCH   2   3
ENDBRANCH   1   2
BRANCH   1   8
ATOM      8  C   UNL     1     -17.107  -6.765  41.745  1.00  0.00     0.000 C 
BRANCH   8   9
ATOM      9  C   UNL     1     -18.004  -7.318  42.866  1.00  0.00     0.000 C 
BRANCH   9  10
ATOM     10  C   UNL     1     -17.567  -8.678  43.447  1.00  0.00     0.006 C 
BRANCH  10  11
ATOM     11  C   UNL     1     -16.434  -8.597  44.483  1.00  0.00     0.053 C 
BRANCH  11  12
ATOM     12  C   UNL     1     -15.872  -9.946  44.805  1.00  0.00     0.041 C 
ATOM     13  O   UNL     1     -14.766 -10.048  45.397  1.00  0.00    -0.550 OA
ATOM     14  O   UNL     1     -16.588 -11.092  44.480  1.00  0.00    -0.550 OA
ENDBRANCH  11  12
ENDBRANCH  10  11
ENDBRANCH   9  10
ENDBRANCH   8   9
ENDBRANCH   1   8
TORSDOF 9
ENDMDL
MODEL 8
REMARK VINA RESULT:    -4.702      2.066      6.950
REMARK INTER + INTRA:          -7.501
REMARK INTER:                  -7.245
REMARK INTRA:                  -0.256
REMARK UNBOUND:                -0.325
REMARK SMILES O=C([O-])CCCCCCCCC(=O)[O-]
REMARK SMILES IDX 7 1 6 2 5 3 4 4 2 5 1 6 3 7 8 8 9 9 10 10 11 11 12 12 13 13
REMARK SMILES IDX 14 14
REMARK H PARENT
REMARK Flexibility Score: inf
ROOT
ATOM      1  C   UNL     1     -14.162  -6.502  37.092  1.00  0.00     0.000 C 
ENDROOT
BRANCH   1   2
ATOM      2  C   UNL     1     -13.076  -7.253  37.881  1.00  0.00     0.000 C 
BRANCH   2   3
ATOM      3  C   UNL     1     -12.217  -8.162  36.990  1.00  0.00     0.006 C 
BRANCH   3   4
ATOM      4  C   UNL     1     -11.347  -9.096  37.837  1.00  0.00     0.053 C 
BRANCH   4   5
ATOM      5  C   UNL     1     -10.096  -9.459  37.101  1.00  0.00     0.041 C 
ATOM      6  O   UNL     1      -9.217 -10.168  37.657  1.00  0.00    -0.550 OA
ATOM      7  O   UNL     1      -9.923  -9.055  35.783  1.00  0.00    -0.550 OA
ENDBRANCH   4   5
ENDBRANCH   3   4
ENDBRANCH   2   3
ENDBRANCH   1   2
BRANCH   1   8
ATOM      8  C   UNL     1     -14.922  -5.483  37.958  1.00  0.00     0.000 C 
BRANCH   8   9
ATOM      9  C   UNL     1     -16.123  -6.101  38.695  1.00  0.00     0.000 C 
BRANCH   9  10
ATOM     10  C   UNL     1     -16.017  -6.106  40.234  1.00  0.00     0.006 C 
BRANCH  10  11
ATOM     11  C   UNL     1     -17.285  -6.586  40.959  1.00  0.00     0.053 C 
BRANCH  11  12
ATOM     12  C   UNL     1     -17.128  -6.543  42.448  1.00  0.00     0.041 C 
ATOM     13  O   UNL     1     -18.125  -6.324  43.185  1.00  0.00    -0.550 OA
ATOM     14  O   UNL     1     -15.886  -6.779  43.022  1.00  0.00    -0.550 OA
ENDBRANCH  11  12
ENDBRANCH  10  11
ENDBRANCH   9  10
ENDBRANCH   8   9
ENDBRANCH   1   8
TORSDOF 9
ENDMDL
MODEL 9
REMARK VINA RESULT:    -4.653      4.054      6.602
REMARK INTER + INTRA:          -7.427
REMARK INTER:                  -6.906
REMARK INTRA:                  -0.521
REMARK UNBOUND:                -0.325
REMARK SMILES O=C([O-])CCCCCCCCC(=O)[O-]
REMARK SMILES IDX 7 1 6 2 5 3 4 4 2 5 1 6 3 7 8 8 9 9 10 10 11 11 12 12 13 13
REMARK SMILES IDX 14 14
REMARK H PARENT
REMARK Flexibility Score: inf
ROOT
ATOM      1  C   UNL     1     -16.953  -6.820  42.734  1.00  0.00     0.000 C 
ENDROOT
BRANCH   1   2
ATOM      2  C   UNL     1     -18.050  -7.881  42.540  1.00  0.00     0.000 C 
BRANCH   2   3
ATOM      3  C   UNL     1     -17.791  -9.156  43.355  1.00  0.00     0.006 C 
BRANCH   3   4
ATOM      4  C   UNL     1     -16.712  -8.919  44.416  1.00  0.00     0.053 C 
BRANCH   4   5
ATOM      5  C   UNL     1     -17.304  -8.982  45.789  1.00  0.00     0.041 C 
ATOM      6  O   UNL     1     -17.755  -7.940  46.334  1.00  0.00    -0.550 OA
ATOM      7  O   UNL     1     -17.402 -10.202  46.448  1.00  0.00    -0.550 OA
ENDBRANCH   4   5
ENDBRANCH   3   4
ENDBRANCH   2   3
ENDBRANCH   1   2
BRANCH   1   8
ATOM      8  C   UNL     1     -16.404  -6.288  41.399  1.00  0.00     0.000 C 
BRANCH   8   9
ATOM      9  C   UNL     1     -17.277  -6.680  40.194  1.00  0.00     0.000 C 
BRANCH   9  10
ATOM     10  C   UNL     1     -16.880  -6.026  38.855  1.00  0.00     0.006 C 
BRANCH  10  11
ATOM     11  C   UNL     1     -15.482  -5.387  38.845  1.00  0.00     0.053 C 
BRANCH  11  12
ATOM     12  C   UNL     1     -14.523  -6.153  37.988  1.00  0.00     0.041 C 
ATOM     13  O   UNL     1     -13.610  -6.840  38.515  1.00  0.00    -0.550 OA
ATOM     14  O   UNL     1     -14.658  -6.133  36.605  1.00  0.00    -0.550 OA
ENDBRANCH  11  12
ENDBRANCH  10  11
ENDBRANCH   9  10
ENDBRANCH   8   9
ENDBRANCH   1   8
TORSDOF 9
ENDMDL
