MODEL 1
REMARK VINA RESULT:    -4.854      0.000      0.000
REMARK INTER + INTRA:          -5.624
REMARK INTER:                  -5.421
REMARK INTRA:                  -0.203
REMARK UNBOUND:                -0.203
REMARK SMILES O=C([O-])c1ccccc1C(=O)[O-]
REMARK SMILES IDX 4 1 9 2 5 3 8 4 6 5 7 6 2 7 1 8 3 9 10 10 11 11 12 12
REMARK H PARENT
REMARK Flexibility Score: inf
ROOT
ATOM      1  C   UNL     1      35.916  18.810  10.278  1.00  0.00     0.006 A 
ATOM      2  C   UNL     1      35.247  18.968  11.523  1.00  0.00     0.006 A 
ATOM      3  C   UNL     1      35.488  19.567   9.171  1.00  0.00     0.010 A 
ATOM      4  C   UNL     1      34.136  19.829  11.599  1.00  0.00     0.010 A 
ATOM      5  C   UNL     1      34.398  20.431   9.275  1.00  0.00     0.001 A 
ATOM      6  C   UNL     1      33.717  20.554  10.483  1.00  0.00     0.001 A 
ENDROOT
BRANCH   1   7
ATOM      7  C   UNL     1      37.002  17.824  10.072  1.00  0.00     0.072 C 
ATOM      8  O   UNL     1      36.730  16.601   9.941  1.00  0.00    -0.545 OA
ATOM      9  O   UNL     1      38.333  18.221  10.085  1.00  0.00    -0.545 OA
ENDBRANCH   1   7
BRANCH   2  10
ATOM     10  C   UNL     1      35.707  18.320  12.773  1.00  0.00     0.072 C 
ATOM     11  O   UNL     1      35.118  17.304  13.226  1.00  0.00    -0.545 OA
ATOM     12  O   UNL     1      36.840  18.790  13.427  1.00  0.00    -0.545 OA
ENDBRANCH   2  10
TORSDOF 2
ENDMDL
MODEL 2
REMARK VINA RESULT:    -4.828      0.171      2.999
REMARK INTER + INTRA:          -5.595
REMARK INTER:                  -5.421
REMARK INTRA:                  -0.175
REMARK UNBOUND:                -0.203
REMARK SMILES O=C([O-])c1ccccc1C(=O)[O-]
REMARK SMILES IDX 4 1 9 2 5 3 8 4 6 5 7 6 2 7 1 8 3 9 10 10 11 11 12 12
REMARK H PARENT
REMARK Flexibility Score: inf
ROOT
ATOM      1  C   UNL     1      35.240  18.950  11.501  1.00  0.00     0.006 A 
ATOM      2  C   UNL     1      35.860  18.852  10.225  1.00  0.00     0.006 A 
ATOM      3  C   UNL     1      34.098  19.759  11.646  1.00  0.00     0.010 A 
ATOM      4  C   UNL     1      35.353  19.616   9.157  1.00  0.00     0.010 A 
ATOM      5  C   UNL     1      33.599  20.491  10.568  1.00  0.00     0.001 A 
ATOM      6  C   UNL     1      34.232  20.428   9.329  1.00  0.00     0.001 A 
ENDROOT
BRANCH   1   7
ATOM      7  C   UNL     1      35.789  18.293  12.710  1.00  0.00     0.072 C 
ATOM      8  O   UNL     1      35.214  17.284  13.198  1.00  0.00    -0.545 OA
ATOM      9  O   UNL     1      36.901  18.815  13.358  1.00  0.00    -0.545 OA
ENDBRANCH   1   7
BRANCH   2  10
ATOM     10  C   UNL     1      36.981  17.925   9.942  1.00  0.00     0.072 C 
ATOM     11  O   UNL     1      38.140  18.365   9.721  1.00  0.00    -0.545 OA
ATOM     12  O   UNL     1      36.777  16.551   9.982  1.00  0.00    -0.545 OA
ENDBRANCH   2  10
TORSDOF 2
ENDMDL
MODEL 3
REMARK VINA RESULT:    -4.809      1.918      3.728
REMARK INTER + INTRA:          -5.574
REMARK INTER:                  -5.380
REMARK INTRA:                  -0.194
REMARK UNBOUND:                -0.203
REMARK SMILES O=C([O-])c1ccccc1C(=O)[O-]
REMARK SMILES IDX 4 1 9 2 5 3 8 4 6 5 7 6 2 7 1 8 3 9 10 10 11 11 12 12
REMARK H PARENT
REMARK Flexibility Score: inf
ROOT
ATOM      1  C   UNL     1      37.281  18.183  10.476  1.00  0.00     0.006 A 
ATOM      2  C   UNL     1      38.191  18.530   9.440  1.00  0.00     0.006 A 
ATOM      3  C   UNL     1      35.932  18.569  10.358  1.00  0.00     0.010 A 
ATOM      4  C   UNL     1      37.734  19.304   8.357  1.00  0.00     0.010 A 
ATOM      5  C   UNL     1      35.496  19.317   9.264  1.00  0.00     0.001 A 
ATOM      6  C   UNL     1      36.397  19.693   8.272  1.00  0.00     0.001 A 
ENDROOT
BRANCH   1   7
ATOM      7  C   UNL     1      37.704  17.494  11.717  1.00  0.00     0.072 C 
ATOM      8  O   UNL     1      37.353  16.303  11.931  1.00  0.00    -0.545 OA
ATOM      9  O   UNL     1      38.436  18.167  12.688  1.00  0.00    -0.545 OA
ENDBRANCH   1   7
BRANCH   2  10
ATOM     10  C   UNL     1      39.594  18.055   9.408  1.00  0.00     0.072 C 
ATOM     11  O   UNL     1      39.925  17.073   8.693  1.00  0.00    -0.545 OA
ATOM     12  O   UNL     1      40.577  18.734  10.118  1.00  0.00    -0.545 OA
ENDBRANCH   2  10
TORSDOF 2
ENDMDL
MODEL 4
REMARK VINA RESULT:    -4.805      1.588      3.161
REMARK INTER + INTRA:          -5.569
REMARK INTER:                  -5.394
REMARK INTRA:                  -0.175
REMARK UNBOUND:                -0.203
REMARK SMILES O=C([O-])c1ccccc1C(=O)[O-]
REMARK SMILES IDX 4 1 9 2 5 3 8 4 6 5 7 6 2 7 1 8 3 9 10 10 11 11 12 12
REMARK H PARENT
REMARK Flexibility Score: inf
ROOT
ATOM      1  C   UNL     1      35.782  18.766  10.418  1.00  0.00     0.006 A 
ATOM      2  C   UNL     1      37.107  18.268  10.552  1.00  0.00     0.006 A 
ATOM      3  C   UNL     1      35.377  19.307   9.183  1.00  0.00     0.010 A 
ATOM      4  C   UNL     1      37.996  18.385   9.468  1.00  0.00     0.010 A 
ATOM      5  C   UNL     1      36.269  19.393   8.114  1.00  0.00     0.001 A 
ATOM      6  C   UNL     1      37.579  18.944   8.259  1.00  0.00     0.001 A 
ENDROOT
BRANCH   1   7
ATOM      7  C   UNL     1      34.826  18.811  11.548  1.00  0.00     0.072 C 
ATOM      8  O   UNL     1      34.624  19.891  12.165  1.00  0.00    -0.545 OA
ATOM      9  O   UNL     1      34.188  17.656  11.985  1.00  0.00    -0.545 OA
ENDBRANCH   1   7
BRANCH   2  10
ATOM     10  C   UNL     1      37.584  17.560  11.764  1.00  0.00     0.072 C 
ATOM     11  O   UNL     1      37.322  16.341  11.942  1.00  0.00    -0.545 OA
ATOM     12  O   UNL     1      38.385  18.220  12.688  1.00  0.00    -0.545 OA
ENDBRANCH   2  10
TORSDOF 2
ENDMDL
MODEL 5
REMARK VINA RESULT:    -4.789      1.580      2.591
REMARK INTER + INTRA:          -5.552
REMARK INTER:                  -5.378
REMARK INTRA:                  -0.174
REMARK UNBOUND:                -0.203
REMARK SMILES O=C([O-])c1ccccc1C(=O)[O-]
REMARK SMILES IDX 4 1 9 2 5 3 8 4 6 5 7 6 2 7 1 8 3 9 10 10 11 11 12 12
REMARK H PARENT
REMARK Flexibility Score: inf
ROOT
ATOM      1  C   UNL     1      37.106  18.197  10.496  1.00  0.00     0.006 A 
ATOM      2  C   UNL     1      35.788  18.722  10.401  1.00  0.00     0.006 A 
ATOM      3  C   UNL     1      37.962  18.295   9.382  1.00  0.00     0.010 A 
ATOM      4  C   UNL     1      35.354  19.267   9.179  1.00  0.00     0.010 A 
ATOM      5  C   UNL     1      37.518  18.859   8.187  1.00  0.00     0.001 A 
ATOM      6  C   UNL     1      36.213  19.334   8.082  1.00  0.00     0.001 A 
ENDROOT
BRANCH   1   7
ATOM      7  C   UNL     1      37.599  17.481  11.695  1.00  0.00     0.072 C 
ATOM      8  O   UNL     1      37.270  16.283  11.897  1.00  0.00    -0.545 OA
ATOM      9  O   UNL     1      38.375  18.136  12.644  1.00  0.00    -0.545 OA
ENDBRANCH   1   7
BRANCH   2  10
ATOM     10  C   UNL     1      34.862  18.788  11.556  1.00  0.00     0.072 C 
ATOM     11  O   UNL     1      34.626  19.885  12.130  1.00  0.00    -0.545 OA
ATOM     12  O   UNL     1      34.190  17.648  11.979  1.00  0.00    -0.545 OA
ENDBRANCH   2  10
TORSDOF 2
ENDMDL
MODEL 6
REMARK VINA RESULT:    -4.770      1.605      3.262
REMARK INTER + INTRA:          -5.530
REMARK INTER:                  -5.371
REMARK INTRA:                  -0.159
REMARK UNBOUND:                -0.203
REMARK SMILES O=C([O-])c1ccccc1C(=O)[O-]
REMARK SMILES IDX 4 1 9 2 5 3 8 4 6 5 7 6 2 7 1 8 3 9 10 10 11 11 12 12
REMARK H PARENT
REMARK Flexibility Score: inf
ROOT
ATOM      1  C   UNL     1      35.718  18.811  10.330  1.00  0.00     0.006 A 
ATOM      2  C   UNL     1      35.218  19.552   9.223  1.00  0.00     0.006 A 
ATOM      3  C   UNL     1      35.176  19.044  11.608  1.00  0.00     0.010 A 
ATOM      4  C   UNL     1      34.241  20.541   9.445  1.00  0.00     0.010 A 
ATOM      5  C   UNL     1      34.193  20.015  11.802  1.00  0.00     0.001 A 
ATOM      6  C   UNL     1      33.734  20.769  10.724  1.00  0.00     0.001 A 
ENDROOT
BRANCH   1   7
ATOM      7  C   UNL     1      36.840  17.854  10.211  1.00  0.00     0.072 C 
ATOM      8  O   UNL     1      36.614  16.616  10.159  1.00  0.00    -0.545 OA
ATOM      9  O   UNL     1      38.157  18.298  10.220  1.00  0.00    -0.545 OA
ENDBRANCH   1   7
BRANCH   2  10
ATOM     10  C   UNL     1      35.625  19.284   7.824  1.00  0.00     0.072 C 
ATOM     11  O   UNL     1      34.818  18.771   7.005  1.00  0.00    -0.545 OA
ATOM     12  O   UNL     1      36.888  19.658   7.381  1.00  0.00    -0.545 OA
ENDBRANCH   2  10
TORSDOF 2
ENDMDL
MODEL 7
REMARK VINA RESULT:    -4.739      1.558      2.684
REMARK INTER + INTRA:          -5.496
REMARK INTER:                  -5.320
REMARK INTRA:                  -0.176
REMARK UNBOUND:                -0.203
REMARK SMILES O=C([O-])c1ccccc1C(=O)[O-]
REMARK SMILES IDX 4 1 9 2 5 3 8 4 6 5 7 6 2 7 1 8 3 9 10 10 11 11 12 12
REMARK H PARENT
REMARK Flexibility Score: inf
ROOT
ATOM      1  C   UNL     1      35.237  19.596   9.456  1.00  0.00     0.006 A 
ATOM      2  C   UNL     1      35.669  18.793  10.548  1.00  0.00     0.006 A 
ATOM      3  C   UNL     1      34.253  20.578   9.677  1.00  0.00     0.010 A 
ATOM      4  C   UNL     1      35.057  18.959  11.804  1.00  0.00     0.010 A 
ATOM      5  C   UNL     1      33.675  20.740  10.936  1.00  0.00     0.001 A 
ATOM      6  C   UNL     1      34.069  19.925  11.995  1.00  0.00     0.001 A 
ENDROOT
BRANCH   1   7
ATOM      7  C   UNL     1      35.724  19.394   8.072  1.00  0.00     0.072 C 
ATOM      8  O   UNL     1      36.844  19.854   7.722  1.00  0.00    -0.545 OA
ATOM      9  O   UNL     1      34.931  18.757   7.126  1.00  0.00    -0.545 OA
ENDBRANCH   1   7
BRANCH   2  10
ATOM     10  C   UNL     1      36.791  17.831  10.446  1.00  0.00     0.072 C 
ATOM     11  O   UNL     1      36.574  16.612  10.215  1.00  0.00    -0.545 OA
ATOM     12  O   UNL     1      38.104  18.276  10.540  1.00  0.00    -0.545 OA
ENDBRANCH   2  10
TORSDOF 2
ENDMDL
MODEL 8
REMARK VINA RESULT:    -4.674      6.875      8.354
REMARK INTER + INTRA:          -5.423
REMARK INTER:                  -5.210
REMARK INTRA:                  -0.213
REMARK UNBOUND:                -0.203
REMARK SMILES O=C([O-])c1ccccc1C(=O)[O-]
REMARK SMILES IDX 4 1 9 2 5 3 8 4 6 5 7 6 2 7 1 8 3 9 10 10 11 11 12 12
REMARK H PARENT
REMARK Flexibility Score: inf
ROOT
ATOM      1  C   UNL     1      31.391  14.721  14.710  1.00  0.00     0.006 A 
ATOM      2  C   UNL     1      31.710  13.354  14.942  1.00  0.00     0.006 A 
ATOM      3  C   UNL     1      32.427  15.675  14.716  1.00  0.00     0.010 A 
ATOM      4  C   UNL     1      33.040  13.001  15.233  1.00  0.00     0.010 A 
ATOM      5  C   UNL     1      33.743  15.298  14.986  1.00  0.00     0.001 A 
ATOM      6  C   UNL     1      34.047  13.966  15.255  1.00  0.00     0.001 A 
ENDROOT
BRANCH   1   7
ATOM      7  C   UNL     1      30.001  15.201  14.535  1.00  0.00     0.072 C 
ATOM      8  O   UNL     1      29.578  15.510  13.390  1.00  0.00    -0.545 OA
ATOM      9  O   UNL     1      29.168  15.379  15.633  1.00  0.00    -0.545 OA
ENDBRANCH   1   7
BRANCH   2  10
ATOM     10  C   UNL     1      30.714  12.263  14.821  1.00  0.00     0.072 C 
ATOM     11  O   UNL     1      30.428  11.774  13.696  1.00  0.00    -0.545 OA
ATOM     12  O   UNL     1      30.132  11.721  15.960  1.00  0.00    -0.545 OA
ENDBRANCH   2  10
TORSDOF 2
ENDMDL
MODEL 9
REMARK VINA RESULT:    -4.671      7.002      8.331
REMARK INTER + INTRA:          -5.420
REMARK INTER:                  -5.194
REMARK INTRA:                  -0.226
REMARK UNBOUND:                -0.203
REMARK SMILES O=C([O-])c1ccccc1C(=O)[O-]
REMARK SMILES IDX 4 1 9 2 5 3 8 4 6 5 7 6 2 7 1 8 3 9 10 10 11 11 12 12
REMARK H PARENT
REMARK Flexibility Score: inf
ROOT
ATOM      1  C   UNL     1      31.676  13.337  14.966  1.00  0.00     0.006 A 
ATOM      2  C   UNL     1      31.315  14.703  14.801  1.00  0.00     0.006 A 
ATOM      3  C   UNL     1      33.027  13.009  15.187  1.00  0.00     0.010 A 
ATOM      4  C   UNL     1      32.325  15.683  14.799  1.00  0.00     0.010 A 
ATOM      5  C   UNL     1      34.009  13.999  15.203  1.00  0.00     0.001 A 
ATOM      6  C   UNL     1      33.661  15.332  14.998  1.00  0.00     0.001 A 
ENDROOT
BRANCH   1   7
ATOM      7  C   UNL     1      30.699  12.231  14.843  1.00  0.00     0.072 C 
ATOM      8  O   UNL     1      30.363  11.807  13.705  1.00  0.00    -0.545 OA
ATOM      9  O   UNL     1      30.093  11.689  15.970  1.00  0.00    -0.545 OA
ENDBRANCH   1   7
BRANCH   2  10
ATOM     10  C   UNL     1      29.909  15.159  14.700  1.00  0.00     0.072 C 
ATOM     11  O   UNL     1      29.377  15.362  13.577  1.00  0.00    -0.545 OA
ATOM     12  O   UNL     1      29.138  15.304  15.848  1.00  0.00    -0.545 OA
ENDBRANCH   2  10
TORSDOF 2
ENDMDL
