MODEL 1
REMARK VINA RESULT:    -3.057      0.000      0.000
REMARK INTER + INTRA:          -3.609
REMARK INTER:                  -3.593
REMARK INTRA:                  -0.016
REMARK UNBOUND:                -0.016
REMARK SMILES CCCCC(=O)[O-]
REMARK SMILES IDX 4 1 5 2 6 3 7 4 3 5 2 6 1 7
REMARK H PARENT
REMARK Flexibility Score: inf
ROOT
ATOM      1  C   UNL     1     182.303 195.078 190.552  1.00  0.00     0.053 C 
ENDROOT
BRANCH   1   2
ATOM      2  C   UNL     1     183.548 195.873 190.317  1.00  0.00     0.041 C 
ATOM      3  O   UNL     1     184.642 195.288 190.103  1.00  0.00    -0.550 OA
ATOM      4  O   UNL     1     183.511 197.259 190.384  1.00  0.00    -0.550 OA
ENDBRANCH   1   2
BRANCH   1   5
ATOM      5  C   UNL     1     181.668 195.461 191.894  1.00  0.00     0.006 C 
BRANCH   5   6
ATOM      6  C   UNL     1     180.475 194.564 192.260  1.00  0.00    -0.003 C 
ATOM      7  C   UNL     1     180.470 194.160 193.734  1.00  0.00     0.004 C 
ENDBRANCH   5   6
ENDBRANCH   1   5
TORSDOF 3
ENDMDL
MODEL 2
REMARK VINA RESULT:    -2.886      2.984      4.145
REMARK INTER + INTRA:          -3.409
REMARK INTER:                  -3.380
REMARK INTRA:                  -0.029
REMARK UNBOUND:                -0.016
REMARK SMILES CCCCC(=O)[O-]
REMARK SMILES IDX 4 1 5 2 6 3 7 4 3 5 2 6 1 7
REMARK H PARENT
REMARK Flexibility Score: inf
ROOT
ATOM      1  C   UNL     1     181.520 195.367 191.944  1.00  0.00     0.053 C 
ENDROOT
BRANCH   1   2
ATOM      2  C   UNL     1     180.496 194.579 192.699  1.00  0.00     0.041 C 
ATOM      3  O   UNL     1     180.747 194.164 193.861  1.00  0.00    -0.550 OA
ATOM      4  O   UNL     1     179.284 194.262 192.101  1.00  0.00    -0.550 OA
ENDBRANCH   1   2
BRANCH   1   5
ATOM      5  C   UNL     1     181.859 194.673 190.619  1.00  0.00     0.006 C 
BRANCH   5   6
ATOM      6  C   UNL     1     183.084 195.290 189.926  1.00  0.00    -0.003 C 
ATOM      7  C   UNL     1     183.483 196.638 190.524  1.00  0.00     0.004 C 
ENDBRANCH   5   6
ENDBRANCH   1   5
TORSDOF 3
ENDMDL
MODEL 3
REMARK VINA RESULT:    -2.876      1.630      2.245
REMARK INTER + INTRA:          -3.396
REMARK INTER:                  -3.371
REMARK INTRA:                  -0.025
REMARK UNBOUND:                -0.016
REMARK SMILES CCCCC(=O)[O-]
REMARK SMILES IDX 4 1 5 2 6 3 7 4 3 5 2 6 1 7
REMARK H PARENT
REMARK Flexibility Score: inf
ROOT
ATOM      1  C   UNL     1     183.835 195.971 189.506  1.00  0.00     0.053 C 
ENDROOT
BRANCH   1   2
ATOM      2  C   UNL     1     185.129 195.247 189.713  1.00  0.00     0.041 C 
ATOM      3  O   UNL     1     186.203 195.730 189.267  1.00  0.00    -0.550 OA
ATOM      4  O   UNL     1     185.141 194.016 190.354  1.00  0.00    -0.550 OA
ENDBRANCH   1   2
BRANCH   1   5
ATOM      5  C   UNL     1     183.071 196.091 190.830  1.00  0.00     0.006 C 
BRANCH   5   6
ATOM      6  C   UNL     1     181.919 195.081 190.940  1.00  0.00    -0.003 C 
ATOM      7  C   UNL     1     181.171 195.181 192.269  1.00  0.00     0.004 C 
ENDBRANCH   5   6
ENDBRANCH   1   5
TORSDOF 3
ENDMDL
MODEL 4
REMARK VINA RESULT:    -2.874     16.843     17.498
REMARK INTER + INTRA:          -3.394
REMARK INTER:                  -3.325
REMARK INTRA:                  -0.069
REMARK UNBOUND:                -0.016
REMARK SMILES CCCCC(=O)[O-]
REMARK SMILES IDX 4 1 5 2 6 3 7 4 3 5 2 6 1 7
REMARK H PARENT
REMARK Flexibility Score: inf
ROOT
ATOM      1  C   UNL     1     185.675 180.217 200.000  1.00  0.00     0.053 C 
ENDROOT
BRANCH   1   2
ATOM      2  C   UNL     1     186.775 181.116 199.531  1.00  0.00     0.041 C 
ATOM      3  O   UNL     1     186.982 181.275 198.300  1.00  0.00    -0.550 OA
ATOM      4  O   UNL     1     187.604 181.741 200.454  1.00  0.00    -0.550 OA
ENDBRANCH   1   2
BRANCH   1   5
ATOM      5  C   UNL     1     185.658 180.146 201.532  1.00  0.00     0.006 C 
BRANCH   5   6
ATOM      6  C   UNL     1     184.285 180.501 202.124  1.00  0.00    -0.003 C 
ATOM      7  C   UNL     1     183.456 181.391 201.199  1.00  0.00     0.004 C 
ENDBRANCH   5   6
ENDBRANCH   1   5
TORSDOF 3
ENDMDL
MODEL 5
REMARK VINA RESULT:    -2.866      2.970      3.798
REMARK INTER + INTRA:          -3.384
REMARK INTER:                  -3.316
REMARK INTRA:                  -0.069
REMARK UNBOUND:                -0.016
REMARK SMILES CCCCC(=O)[O-]
REMARK SMILES IDX 4 1 5 2 6 3 7 4 3 5 2 6 1 7
REMARK H PARENT
REMARK Flexibility Score: inf
ROOT
ATOM      1  C   UNL     1     185.114 194.191 190.110  1.00  0.00     0.053 C 
ENDROOT
BRANCH   1   2
ATOM      2  C   UNL     1     186.233 194.632 189.221  1.00  0.00     0.041 C 
ATOM      3  O   UNL     1     187.186 195.308 189.690  1.00  0.00    -0.550 OA
ATOM      4  O   UNL     1     186.200 194.338 187.864  1.00  0.00    -0.550 OA
ENDBRANCH   1   2
BRANCH   1   5
ATOM      5  C   UNL     1     183.767 194.670 189.554  1.00  0.00     0.006 C 
BRANCH   5   6
ATOM      6  C   UNL     1     183.103 195.730 190.446  1.00  0.00    -0.003 C 
ATOM      7  C   UNL     1     183.709 197.120 190.261  1.00  0.00     0.004 C 
ENDBRANCH   5   6
ENDBRANCH   1   5
TORSDOF 3
ENDMDL
MODEL 6
REMARK VINA RESULT:    -2.858     17.455     17.996
REMARK INTER + INTRA:          -3.375
REMARK INTER:                  -3.269
REMARK INTRA:                  -0.106
REMARK UNBOUND:                -0.016
REMARK SMILES CCCCC(=O)[O-]
REMARK SMILES IDX 4 1 5 2 6 3 7 4 3 5 2 6 1 7
REMARK H PARENT
REMARK Flexibility Score: inf
ROOT
ATOM      1  C   UNL     1     186.811 181.104 202.124  1.00  0.00     0.053 C 
ENDROOT
BRANCH   1   2
ATOM      2  C   UNL     1     187.535 181.785 201.005  1.00  0.00     0.041 C 
ATOM      3  O   UNL     1     187.242 181.523 199.809  1.00  0.00    -0.550 OA
ATOM      4  O   UNL     1     188.567 182.671 201.282  1.00  0.00    -0.550 OA
ENDBRANCH   1   2
BRANCH   1   5
ATOM      5  C   UNL     1     185.298 181.309 201.986  1.00  0.00     0.006 C 
BRANCH   5   6
ATOM      6  C   UNL     1     184.515 179.989 202.054  1.00  0.00    -0.003 C 
ATOM      7  C   UNL     1     184.909 179.011 200.947  1.00  0.00     0.004 C 
ENDBRANCH   5   6
ENDBRANCH   1   5
TORSDOF 3
ENDMDL
MODEL 7
REMARK VINA RESULT:    -2.851     16.569     17.503
REMARK INTER + INTRA:          -3.367
REMARK INTER:                  -3.341
REMARK INTRA:                  -0.025
REMARK UNBOUND:                -0.016
REMARK SMILES CCCCC(=O)[O-]
REMARK SMILES IDX 4 1 5 2 6 3 7 4 3 5 2 6 1 7
REMARK H PARENT
REMARK Flexibility Score: inf
ROOT
ATOM      1  C   UNL     1     191.257 184.811 202.124  1.00  0.00     0.053 C 
ENDROOT
BRANCH   1   2
ATOM      2  C   UNL     1     191.082 183.356 201.821  1.00  0.00     0.041 C 
ATOM      3  O   UNL     1     190.000 182.937 201.332  1.00  0.00    -0.550 OA
ATOM      4  O   UNL     1     192.094 182.456 202.125  1.00  0.00    -0.550 OA
ENDBRANCH   1   2
BRANCH   1   5
ATOM      5  C   UNL     1     190.510 185.667 201.093  1.00  0.00     0.006 C 
BRANCH   5   6
ATOM      6  C   UNL     1     191.241 186.980 200.775  1.00  0.00    -0.003 C 
ATOM      7  C   UNL     1     191.706 187.716 202.032  1.00  0.00     0.004 C 
ENDBRANCH   5   6
ENDBRANCH   1   5
TORSDOF 3
ENDMDL
MODEL 8
REMARK VINA RESULT:    -2.814      2.701      4.894
REMARK INTER + INTRA:          -3.323
REMARK INTER:                  -3.285
REMARK INTRA:                  -0.038
REMARK UNBOUND:                -0.016
REMARK SMILES CCCCC(=O)[O-]
REMARK SMILES IDX 4 1 5 2 6 3 7 4 3 5 2 6 1 7
REMARK H PARENT
REMARK Flexibility Score: inf
ROOT
ATOM      1  C   UNL     1     184.303 195.080 189.861  1.00  0.00     0.053 C 
ENDROOT
BRANCH   1   2
ATOM      2  C   UNL     1     183.412 196.133 190.441  1.00  0.00     0.041 C 
ATOM      3  O   UNL     1     183.710 197.351 190.321  1.00  0.00    -0.550 OA
ATOM      4  O   UNL     1     182.278 195.769 191.155  1.00  0.00    -0.550 OA
ENDBRANCH   1   2
BRANCH   1   5
ATOM      5  C   UNL     1     185.512 195.722 189.171  1.00  0.00     0.006 C 
BRANCH   5   6
ATOM      6  C   UNL     1     186.847 195.125 189.644  1.00  0.00    -0.003 C 
ATOM      7  C   UNL     1     187.951 195.244 188.594  1.00  0.00     0.004 C 
ENDBRANCH   5   6
ENDBRANCH   1   5
TORSDOF 3
ENDMDL
MODEL 9
REMARK VINA RESULT:    -2.797     15.078     15.687
REMARK INTER + INTRA:          -3.304
REMARK INTER:                  -3.249
REMARK INTRA:                  -0.054
REMARK UNBOUND:                -0.016
REMARK SMILES CCCCC(=O)[O-]
REMARK SMILES IDX 4 1 5 2 6 3 7 4 3 5 2 6 1 7
REMARK H PARENT
REMARK Flexibility Score: inf
ROOT
ATOM      1  C   UNL     1     193.561 197.760 201.203  1.00  0.00     0.053 C 
ENDROOT
BRANCH   1   2
ATOM      2  C   UNL     1     193.231 197.607 199.751  1.00  0.00     0.041 C 
ATOM      3  O   UNL     1     193.692 196.636 199.096  1.00  0.00    -0.550 OA
ATOM      4  O   UNL     1     192.454 198.563 199.110  1.00  0.00    -0.550 OA
ENDBRANCH   1   2
BRANCH   1   5
ATOM      5  C   UNL     1     194.999 198.263 201.375  1.00  0.00     0.006 C 
BRANCH   5   6
ATOM      6  C   UNL     1     195.890 197.260 202.122  1.00  0.00    -0.003 C 
ATOM      7  C   UNL     1     197.248 197.062 201.450  1.00  0.00     0.004 C 
ENDBRANCH   5   6
ENDBRANCH   1   5
TORSDOF 3
ENDMDL
