MODEL 1
REMARK VINA RESULT:    -4.082      0.000      0.000
REMARK INTER + INTRA:          -7.157
REMARK INTER:                  -6.230
REMARK INTRA:                  -0.926
REMARK UNBOUND:                -0.926
REMARK SMILES CCCCCCCCCCC(=O)[O-]
REMARK SMILES IDX 7 1 8 2 9 3 10 4 11 5 12 6 13 7 6 8 5 9 4 10 3 11 2 12 1 13
REMARK H PARENT
REMARK Flexibility Score: inf
ROOT
ATOM      1  C   UNL     1      39.622  22.231   4.201  1.00  0.00     0.000 C 
ENDROOT
BRANCH   1   2
ATOM      2  C   UNL     1      40.097  20.834   4.615  1.00  0.00     0.000 C 
BRANCH   2   3
ATOM      3  C   UNL     1      40.023  20.657   6.139  1.00  0.00     0.006 C 
BRANCH   3   4
ATOM      4  C   UNL     1      38.990  19.600   6.551  1.00  0.00     0.053 C 
BRANCH   4   5
ATOM      5  C   UNL     1      37.852  20.202   7.319  1.00  0.00     0.041 C 
ATOM      6  O   UNL     1      37.044  19.460   7.937  1.00  0.00    -0.550 OA
ATOM      7  O   UNL     1      37.666  21.578   7.322  1.00  0.00    -0.550 OA
ENDBRANCH   4   5
ENDBRANCH   3   4
ENDBRANCH   2   3
ENDBRANCH   1   2
BRANCH   1   8
ATOM      8  C   UNL     1      38.125  22.228   3.870  1.00  0.00     0.000 C 
BRANCH   8   9
ATOM      9  C   UNL     1      37.709  20.912   3.202  1.00  0.00    -0.000 C 
BRANCH   9  10
ATOM     10  C   UNL     1      36.358  20.422   3.745  1.00  0.00    -0.000 C 
BRANCH  10  11
ATOM     11  C   UNL     1      35.361  20.079   2.628  1.00  0.00    -0.000 C 
BRANCH  11  12
ATOM     12  C   UNL     1      34.376  21.223   2.343  1.00  0.00    -0.003 C 
ATOM     13  C   UNL     1      34.782  21.998   1.092  1.00  0.00     0.004 C 
ENDBRANCH  11  12
ENDBRANCH  10  11
ENDBRANCH   9  10
ENDBRANCH   8   9
ENDBRANCH   1   8
TORSDOF 9
ENDMDL
MODEL 2
REMARK VINA RESULT:    -4.029      1.349      1.984
REMARK INTER + INTRA:          -7.075
REMARK INTER:                  -5.997
REMARK INTRA:                  -1.077
REMARK UNBOUND:                -0.926
REMARK SMILES CCCCCCCCCCC(=O)[O-]
REMARK SMILES IDX 7 1 8 2 9 3 10 4 11 5 12 6 13 7 6 8 5 9 4 10 3 11 2 12 1 13
REMARK H PARENT
REMARK Flexibility Score: inf
ROOT
ATOM      1  C   UNL     1      38.816  21.086   3.108  1.00  0.00     0.000 C 
ENDROOT
BRANCH   1   2
ATOM      2  C   UNL     1      38.605  20.010   4.179  1.00  0.00     0.000 C 
BRANCH   2   3
ATOM      3  C   UNL     1      37.297  20.249   4.949  1.00  0.00     0.006 C 
BRANCH   3   4
ATOM      4  C   UNL     1      37.380  19.760   6.401  1.00  0.00     0.053 C 
BRANCH   4   5
ATOM      5  C   UNL     1      38.587  20.303   7.103  1.00  0.00     0.041 C 
ATOM      6  O   UNL     1      39.444  19.517   7.589  1.00  0.00    -0.550 OA
ATOM      7  O   UNL     1      38.748  21.674   7.252  1.00  0.00    -0.550 OA
ENDBRANCH   4   5
ENDBRANCH   3   4
ENDBRANCH   2   3
ENDBRANCH   1   2
BRANCH   1   8
ATOM      8  C   UNL     1      38.108  22.391   3.491  1.00  0.00     0.000 C 
BRANCH   8   9
ATOM      9  C   UNL     1      37.384  23.001   2.285  1.00  0.00    -0.000 C 
BRANCH   9  10
ATOM     10  C   UNL     1      36.744  21.908   1.416  1.00  0.00    -0.000 C 
BRANCH  10  11
ATOM     11  C   UNL     1      35.228  22.092   1.254  1.00  0.00    -0.000 C 
BRANCH  11  12
ATOM     12  C   UNL     1      34.417  21.111   2.113  1.00  0.00    -0.003 C 
ATOM     13  C   UNL     1      35.066  19.729   2.128  1.00  0.00     0.004 C 
ENDBRANCH  11  12
ENDBRANCH  10  11
ENDBRANCH   9  10
ENDBRANCH   8   9
ENDBRANCH   1   8
TORSDOF 9
ENDMDL
MODEL 3
REMARK VINA RESULT:    -3.970      1.207      1.495
REMARK INTER + INTRA:          -6.985
REMARK INTER:                  -6.260
REMARK INTRA:                  -0.724
REMARK UNBOUND:                -0.926
REMARK SMILES CCCCCCCCCCC(=O)[O-]
REMARK SMILES IDX 7 1 8 2 9 3 10 4 11 5 12 6 13 7 6 8 5 9 4 10 3 11 2 12 1 13
REMARK H PARENT
REMARK Flexibility Score: inf
ROOT
ATOM      1  C   UNL     1      39.603  21.557   3.139  1.00  0.00     0.000 C 
ENDROOT
BRANCH   1   2
ATOM      2  C   UNL     1      39.531  20.231   3.905  1.00  0.00     0.000 C 
BRANCH   2   3
ATOM      3  C   UNL     1      39.297  20.474   5.403  1.00  0.00     0.006 C 
BRANCH   3   4
ATOM      4  C   UNL     1      38.011  19.804   5.906  1.00  0.00     0.053 C 
BRANCH   4   5
ATOM      5  C   UNL     1      38.111  19.419   7.350  1.00  0.00     0.041 C 
ATOM      6  O   UNL     1      39.221  19.085   7.841  1.00  0.00    -0.550 OA
ATOM      7  O   UNL     1      36.971  19.396   8.144  1.00  0.00    -0.550 OA
ENDBRANCH   4   5
ENDBRANCH   3   4
ENDBRANCH   2   3
ENDBRANCH   1   2
BRANCH   1   8
ATOM      8  C   UNL     1      38.477  22.504   3.570  1.00  0.00     0.000 C 
BRANCH   8   9
ATOM      9  C   UNL     1      37.609  22.910   2.373  1.00  0.00    -0.000 C 
BRANCH   9  10
ATOM     10  C   UNL     1      36.915  21.687   1.755  1.00  0.00    -0.000 C 
BRANCH  10  11
ATOM     11  C   UNL     1      35.999  20.959   2.752  1.00  0.00    -0.000 C 
BRANCH  11  12
ATOM     12  C   UNL     1      34.509  21.154   2.436  1.00  0.00    -0.003 C 
ATOM     13  C   UNL     1      34.321  21.939   1.140  1.00  0.00     0.004 C 
ENDBRANCH  11  12
ENDBRANCH  10  11
ENDBRANCH   9  10
ENDBRANCH   8   9
ENDBRANCH   1   8
TORSDOF 9
ENDMDL
MODEL 4
REMARK VINA RESULT:    -3.817      1.361      2.223
REMARK INTER + INTRA:          -6.751
REMARK INTER:                  -5.903
REMARK INTRA:                  -0.848
REMARK UNBOUND:                -0.926
REMARK SMILES CCCCCCCCCCC(=O)[O-]
REMARK SMILES IDX 7 1 8 2 9 3 10 4 11 5 12 6 13 7 6 8 5 9 4 10 3 11 2 12 1 13
REMARK H PARENT
REMARK Flexibility Score: inf
ROOT
ATOM      1  C   UNL     1      39.766  21.383   5.059  1.00  0.00     0.000 C 
ENDROOT
BRANCH   1   2
ATOM      2  C   UNL     1      39.879  21.924   6.489  1.00  0.00     0.000 C 
BRANCH   2   3
ATOM      3  C   UNL     1      38.532  21.826   7.222  1.00  0.00     0.006 C 
BRANCH   3   4
ATOM      4  C   UNL     1      37.660  20.683   6.684  1.00  0.00     0.053 C 
BRANCH   4   5
ATOM      5  C   UNL     1      37.596  19.532   7.640  1.00  0.00     0.041 C 
ATOM      6  O   UNL     1      36.617  19.414   8.423  1.00  0.00    -0.550 OA
ATOM      7  O   UNL     1      38.634  18.611   7.691  1.00  0.00    -0.550 OA
ENDBRANCH   4   5
ENDBRANCH   3   4
ENDBRANCH   2   3
ENDBRANCH   1   2
BRANCH   1   8
ATOM      8  C   UNL     1      40.398  22.352   4.053  1.00  0.00     0.000 C 
BRANCH   8   9
ATOM      9  C   UNL     1      39.354  22.872   3.057  1.00  0.00    -0.000 C 
BRANCH   9  10
ATOM     10  C   UNL     1      37.949  22.370   3.420  1.00  0.00    -0.000 C 
BRANCH  10  11
ATOM     11  C   UNL     1      36.979  22.412   2.228  1.00  0.00    -0.000 C 
BRANCH  11  12
ATOM     12  C   UNL     1      36.007  21.224   2.215  1.00  0.00    -0.003 C 
ATOM     13  C   UNL     1      36.183  20.356   3.459  1.00  0.00     0.004 C 
ENDBRANCH  11  12
ENDBRANCH  10  11
ENDBRANCH   9  10
ENDBRANCH   8   9
ENDBRANCH   1   8
TORSDOF 9
ENDMDL
MODEL 5
REMARK VINA RESULT:    -3.810      1.511      3.459
REMARK INTER + INTRA:          -6.740
REMARK INTER:                  -5.712
REMARK INTRA:                  -1.028
REMARK UNBOUND:                -0.926
REMARK SMILES CCCCCCCCCCC(=O)[O-]
REMARK SMILES IDX 7 1 8 2 9 3 10 4 11 5 12 6 13 7 6 8 5 9 4 10 3 11 2 12 1 13
REMARK H PARENT
REMARK Flexibility Score: inf
ROOT
ATOM      1  C   UNL     1      35.870  20.235   2.789  1.00  0.00     0.000 C 
ENDROOT
BRANCH   1   2
ATOM      2  C   UNL     1      36.151  20.327   4.293  1.00  0.00     0.000 C 
BRANCH   2   3
ATOM      3  C   UNL     1      37.641  20.097   4.589  1.00  0.00     0.006 C 
BRANCH   3   4
ATOM      4  C   UNL     1      37.937  20.073   6.095  1.00  0.00     0.053 C 
BRANCH   4   5
ATOM      5  C   UNL     1      38.439  21.396   6.586  1.00  0.00     0.041 C 
ATOM      6  O   UNL     1      37.737  22.088   7.370  1.00  0.00    -0.550 OA
ATOM      7  O   UNL     1      39.665  21.880   6.150  1.00  0.00    -0.550 OA
ENDBRANCH   4   5
ENDBRANCH   3   4
ENDBRANCH   2   3
ENDBRANCH   1   2
BRANCH   1   8
ATOM      8  C   UNL     1      34.688  21.128   2.394  1.00  0.00     0.000 C 
BRANCH   8   9
ATOM      9  C   UNL     1      35.051  22.033   1.211  1.00  0.00    -0.000 C 
BRANCH   9  10
ATOM     10  C   UNL     1      36.571  22.077   0.997  1.00  0.00    -0.000 C 
BRANCH  10  11
ATOM     11  C   UNL     1      37.186  23.429   1.388  1.00  0.00    -0.000 C 
BRANCH  11  12
ATOM     12  C   UNL     1      37.773  23.424   2.807  1.00  0.00    -0.003 C 
ATOM     13  C   UNL     1      39.232  22.975   2.796  1.00  0.00     0.004 C 
ENDBRANCH  11  12
ENDBRANCH  10  11
ENDBRANCH   9  10
ENDBRANCH   8   9
ENDBRANCH   1   8
TORSDOF 9
ENDMDL
MODEL 6
REMARK VINA RESULT:    -3.784      2.597      5.232
REMARK INTER + INTRA:          -6.701
REMARK INTER:                  -5.960
REMARK INTRA:                  -0.741
REMARK UNBOUND:                -0.926
REMARK SMILES CCCCCCCCCCC(=O)[O-]
REMARK SMILES IDX 7 1 8 2 9 3 10 4 11 5 12 6 13 7 6 8 5 9 4 10 3 11 2 12 1 13
REMARK H PARENT
REMARK Flexibility Score: inf
ROOT
ATOM      1  C   UNL     1      38.459  22.055   4.578  1.00  0.00     0.000 C 
ENDROOT
BRANCH   1   2
ATOM      2  C   UNL     1      38.225  22.633   3.177  1.00  0.00     0.000 C 
BRANCH   2   3
ATOM      3  C   UNL     1      37.396  21.668   2.316  1.00  0.00     0.006 C 
BRANCH   3   4
ATOM      4  C   UNL     1      36.484  20.771   3.163  1.00  0.00     0.053 C 
BRANCH   4   5
ATOM      5  C   UNL     1      35.166  20.526   2.495  1.00  0.00     0.041 C 
ATOM      6  O   UNL     1      34.330  21.461   2.380  1.00  0.00    -0.550 OA
ATOM      7  O   UNL     1      34.847  19.256   2.031  1.00  0.00    -0.550 OA
ENDBRANCH   4   5
ENDBRANCH   3   4
ENDBRANCH   2   3
ENDBRANCH   1   2
BRANCH   1   8
ATOM      8  C   UNL     1      39.894  21.538   4.728  1.00  0.00     0.000 C 
BRANCH   8   9
ATOM      9  C   UNL     1      40.499  21.968   6.070  1.00  0.00    -0.000 C 
BRANCH   9  10
ATOM     10  C   UNL     1      39.826  21.231   7.238  1.00  0.00    -0.000 C 
BRANCH  10  11
ATOM     11  C   UNL     1      40.033  19.710   7.177  1.00  0.00    -0.000 C 
BRANCH  11  12
ATOM     12  C   UNL     1      38.709  18.932   7.186  1.00  0.00    -0.003 C 
ATOM     13  C   UNL     1      37.533  19.854   7.496  1.00  0.00     0.004 C 
ENDBRANCH  11  12
ENDBRANCH  10  11
ENDBRANCH   9  10
ENDBRANCH   8   9
ENDBRANCH   1   8
TORSDOF 9
ENDMDL
MODEL 7
REMARK VINA RESULT:    -3.718      1.571      3.343
REMARK INTER + INTRA:          -6.601
REMARK INTER:                  -5.676
REMARK INTRA:                  -0.925
REMARK UNBOUND:                -0.926
REMARK SMILES CCCCCCCCCCC(=O)[O-]
REMARK SMILES IDX 7 1 8 2 9 3 10 4 11 5 12 6 13 7 6 8 5 9 4 10 3 11 2 12 1 13
REMARK H PARENT
REMARK Flexibility Score: inf
ROOT
ATOM      1  C   UNL     1      36.460  20.288   3.947  1.00  0.00     0.000 C 
ENDROOT
BRANCH   1   2
ATOM      2  C   UNL     1      37.993  20.318   3.950  1.00  0.00     0.000 C 
BRANCH   2   3
ATOM      3  C   UNL     1      38.544  20.157   5.375  1.00  0.00     0.006 C 
BRANCH   3   4
ATOM      4  C   UNL     1      37.465  20.380   6.443  1.00  0.00     0.053 C 
BRANCH   4   5
ATOM      5  C   UNL     1      37.625  19.445   7.602  1.00  0.00     0.041 C 
ATOM      6  O   UNL     1      36.696  19.311   8.441  1.00  0.00    -0.550 OA
ATOM      7  O   UNL     1      38.814  18.748   7.774  1.00  0.00    -0.550 OA
ENDBRANCH   4   5
ENDBRANCH   3   4
ENDBRANCH   2   3
ENDBRANCH   1   2
BRANCH   1   8
ATOM      8  C   UNL     1      35.899  20.948   2.683  1.00  0.00     0.000 C 
BRANCH   8   9
ATOM      9  C   UNL     1      37.026  21.480   1.790  1.00  0.00    -0.000 C 
BRANCH   9  10
ATOM     10  C   UNL     1      36.940  23.007   1.646  1.00  0.00    -0.000 C 
BRANCH  10  11
ATOM     11  C   UNL     1      37.981  23.742   2.504  1.00  0.00    -0.000 C 
BRANCH  11  12
ATOM     12  C   UNL     1      39.424  23.380   2.122  1.00  0.00    -0.003 C 
ATOM     13  C   UNL     1      40.293  23.207   3.364  1.00  0.00     0.004 C 
ENDBRANCH  11  12
ENDBRANCH  10  11
ENDBRANCH   9  10
ENDBRANCH   8   9
ENDBRANCH   1   8
TORSDOF 9
ENDMDL
MODEL 8
REMARK VINA RESULT:    -3.502      2.899      5.763
REMARK INTER + INTRA:          -6.270
REMARK INTER:                  -5.806
REMARK INTRA:                  -0.464
REMARK UNBOUND:                -0.926
REMARK SMILES CCCCCCCCCCC(=O)[O-]
REMARK SMILES IDX 7 1 8 2 9 3 10 4 11 5 12 6 13 7 6 8 5 9 4 10 3 11 2 12 1 13
REMARK H PARENT
REMARK Flexibility Score: inf
ROOT
ATOM      1  C   UNL     1      35.925  20.333   3.613  1.00  0.00     0.000 C 
ENDROOT
BRANCH   1   2
ATOM      2  C   UNL     1      35.999  21.191   2.346  1.00  0.00     0.000 C 
BRANCH   2   3
ATOM      3  C   UNL     1      37.351  21.915   2.249  1.00  0.00     0.006 C 
BRANCH   3   4
ATOM      4  C   UNL     1      37.199  23.371   1.790  1.00  0.00     0.053 C 
BRANCH   4   5
ATOM      5  C   UNL     1      38.253  24.256   2.383  1.00  0.00     0.041 C 
ATOM      6  O   UNL     1      39.316  23.756   2.838  1.00  0.00    -0.550 OA
ATOM      7  O   UNL     1      38.046  25.627   2.463  1.00  0.00    -0.550 OA
ENDBRANCH   4   5
ENDBRANCH   3   4
ENDBRANCH   2   3
ENDBRANCH   1   2
BRANCH   1   8
ATOM      8  C   UNL     1      37.245  20.384   4.391  1.00  0.00     0.000 C 
BRANCH   8   9
ATOM      9  C   UNL     1      37.115  19.679   5.746  1.00  0.00    -0.000 C 
BRANCH   9  10
ATOM     10  C   UNL     1      38.077  20.287   6.778  1.00  0.00    -0.000 C 
BRANCH  10  11
ATOM     11  C   UNL     1      39.139  19.286   7.260  1.00  0.00    -0.000 C 
BRANCH  11  12
ATOM     12  C   UNL     1      40.479  19.960   7.591  1.00  0.00    -0.003 C 
ATOM     13  C   UNL     1      40.474  21.428   7.173  1.00  0.00     0.004 C 
ENDBRANCH  11  12
ENDBRANCH  10  11
ENDBRANCH   9  10
ENDBRANCH   8   9
ENDBRANCH   1   8
TORSDOF 9
ENDMDL
MODEL 9
REMARK VINA RESULT:    -3.458      2.190      3.187
REMARK INTER + INTRA:          -6.203
REMARK INTER:                  -5.242
REMARK INTRA:                  -0.960
REMARK UNBOUND:                -0.926
REMARK SMILES CCCCCCCCCCC(=O)[O-]
REMARK SMILES IDX 7 1 8 2 9 3 10 4 11 5 12 6 13 7 6 8 5 9 4 10 3 11 2 12 1 13
REMARK H PARENT
REMARK Flexibility Score: inf
ROOT
ATOM      1  C   UNL     1      37.919  20.810   4.717  1.00  0.00     0.000 C 
ENDROOT
BRANCH   1   2
ATOM      2  C   UNL     1      37.414  19.912   5.852  1.00  0.00     0.000 C 
BRANCH   2   3
ATOM      3  C   UNL     1      38.087  20.279   7.184  1.00  0.00     0.006 C 
BRANCH   3   4
ATOM      4  C   UNL     1      38.661  21.702   7.171  1.00  0.00     0.053 C 
BRANCH   4   5
ATOM      5  C   UNL     1      40.157  21.700   7.243  1.00  0.00     0.041 C 
ATOM      6  O   UNL     1      40.771  20.673   7.636  1.00  0.00    -0.550 OA
ATOM      7  O   UNL     1      40.871  22.844   6.911  1.00  0.00    -0.550 OA
ENDBRANCH   4   5
ENDBRANCH   3   4
ENDBRANCH   2   3
ENDBRANCH   1   2
BRANCH   1   8
ATOM      8  C   UNL     1      39.058  20.134   3.945  1.00  0.00     0.000 C 
BRANCH   8   9
ATOM      9  C   UNL     1      40.054  21.171   3.412  1.00  0.00    -0.000 C 
BRANCH   9  10
ATOM     10  C   UNL     1      39.532  22.599   3.629  1.00  0.00    -0.000 C 
BRANCH  10  11
ATOM     11  C   UNL     1      39.150  23.295   2.313  1.00  0.00    -0.000 C 
BRANCH  11  12
ATOM     12  C   UNL     1      37.672  23.711   2.273  1.00  0.00    -0.003 C 
ATOM     13  C   UNL     1      36.801  22.590   1.711  1.00  0.00     0.004 C 
ENDBRANCH  11  12
ENDBRANCH  10  11
ENDBRANCH   9  10
ENDBRANCH   8   9
ENDBRANCH   1   8
TORSDOF 9
ENDMDL
