MODEL 1
REMARK VINA RESULT:    -4.309      0.000      0.000
REMARK INTER + INTRA:          -9.238
REMARK INTER:                  -6.576
REMARK INTRA:                  -2.663
REMARK UNBOUND:                -2.663
REMARK SMILES CC(=O)CCC=C(C)CCC=C(C)CCC=C(C)C
REMARK SMILES IDX 10 1 11 2 12 3 13 4 14 5 15 6 16 7 18 8 17 9 19 10 9 11 7 12
REMARK SMILES IDX 6 13 8 14 5 15 4 16 2 17 3 18 1 19
REMARK H PARENT
REMARK Flexibility Score: inf
ROOT
ATOM      1  C   UNL     1      -2.896  -8.930 -42.946  1.00  0.00     0.032 C 
ENDROOT
BRANCH   1   2
ATOM      2  C   UNL     1      -4.140  -9.782 -42.998  1.00  0.00    -0.028 C 
ATOM      3  C   UNL     1      -4.157 -11.132 -42.912  1.00  0.00    -0.077 C 
ATOM      4  C   UNL     1      -5.483 -11.836 -43.036  1.00  0.00     0.039 C 
BRANCH   3   5
ATOM      5  C   UNL     1      -2.908 -11.959 -42.663  1.00  0.00     0.034 C 
BRANCH   5   6
ATOM      6  C   UNL     1      -3.111 -12.985 -41.539  1.00  0.00     0.032 C 
BRANCH   6   7
ATOM      7  C   UNL     1      -2.223 -12.683 -40.353  1.00  0.00    -0.028 C 
ATOM      8  C   UNL     1      -1.633 -11.733 -38.145  1.00  0.00     0.039 C 
ATOM      9  C   UNL     1      -2.579 -11.904 -39.306  1.00  0.00    -0.080 C 
ATOM     10  C   UNL     1      -3.915 -11.208 -39.236  1.00  0.00     0.039 C 
ENDBRANCH   6   7
ENDBRANCH   5   6
ENDBRANCH   3   5
ENDBRANCH   1   2
BRANCH   1  11
ATOM     11  C   UNL     1      -2.728  -8.299 -41.559  1.00  0.00     0.034 C 
BRANCH  11  12
ATOM     12  C   UNL     1      -1.461  -8.791 -40.895  1.00  0.00    -0.077 C 
ATOM     13  C   UNL     1      -0.658  -9.647 -41.567  1.00  0.00    -0.028 C 
ATOM     14  C   UNL     1      -1.118  -8.295 -39.510  1.00  0.00     0.039 C 
BRANCH  13  15
ATOM     15  C   UNL     1       0.613 -10.239 -41.011  1.00  0.00     0.035 C 
BRANCH  15  16
ATOM     16  C   UNL     1       1.824  -9.805 -41.844  1.00  0.00     0.079 C 
BRANCH  16  17
ATOM     17  C   UNL     1       2.682 -10.989 -42.194  1.00  0.00     0.130 C 
ATOM     18  O   UNL     1       3.799 -11.094 -41.710  1.00  0.00    -0.300 OA
ATOM     19  C   UNL     1       2.183 -12.032 -43.147  1.00  0.00     0.087 C 
ENDBRANCH  16  17
ENDBRANCH  15  16
ENDBRANCH  13  15
ENDBRANCH  11  12
ENDBRANCH   1  11
TORSDOF 9
ENDMDL
MODEL 2
REMARK VINA RESULT:    -4.270      1.615      3.338
REMARK INTER + INTRA:          -9.179
REMARK INTER:                  -6.922
REMARK INTRA:                  -2.257
REMARK UNBOUND:                -2.663
REMARK SMILES CC(=O)CCC=C(C)CCC=C(C)CCC=C(C)C
REMARK SMILES IDX 10 1 11 2 12 3 13 4 14 5 15 6 16 7 18 8 17 9 19 10 9 11 7 12
REMARK SMILES IDX 6 13 8 14 5 15 4 16 2 17 3 18 1 19
REMARK H PARENT
REMARK Flexibility Score: inf
ROOT
ATOM      1  C   UNL     1      -2.945  -8.997 -40.744  1.00  0.00     0.032 C 
ENDROOT
BRANCH   1   2
ATOM      2  C   UNL     1      -2.304  -7.959 -39.857  1.00  0.00    -0.028 C 
ATOM      3  C   UNL     1      -1.273  -8.193 -39.012  1.00  0.00    -0.077 C 
ATOM      4  C   UNL     1      -0.784  -7.056 -38.153  1.00  0.00     0.039 C 
BRANCH   3   5
ATOM      5  C   UNL     1      -0.571  -9.537 -38.919  1.00  0.00     0.034 C 
BRANCH   5   6
ATOM      6  C   UNL     1      -1.406 -10.571 -38.151  1.00  0.00     0.032 C 
BRANCH   6   7
ATOM      7  C   UNL     1      -1.452 -11.893 -38.883  1.00  0.00    -0.028 C 
ATOM      8  C   UNL     1      -2.511 -13.836 -39.992  1.00  0.00     0.039 C 
ATOM      9  C   UNL     1      -2.587 -12.558 -39.196  1.00  0.00    -0.080 C 
ATOM     10  C   UNL     1      -3.952 -12.055 -38.798  1.00  0.00     0.039 C 
ENDBRANCH   6   7
ENDBRANCH   5   6
ENDBRANCH   3   5
ENDBRANCH   1   2
BRANCH   1  11
ATOM     11  C   UNL     1      -2.462  -8.847 -42.191  1.00  0.00     0.034 C 
BRANCH  11  12
ATOM     12  C   UNL     1      -1.265  -9.734 -42.452  1.00  0.00    -0.077 C 
ATOM     13  C   UNL     1      -0.054  -9.164 -42.644  1.00  0.00    -0.028 C 
ATOM     14  C   UNL     1      -1.452 -11.234 -42.467  1.00  0.00     0.039 C 
BRANCH  13  15
ATOM     15  C   UNL     1       1.211  -9.927 -42.946  1.00  0.00     0.035 C 
BRANCH  15  16
ATOM     16  C   UNL     1       2.156  -9.910 -41.739  1.00  0.00     0.079 C 
BRANCH  16  17
ATOM     17  C   UNL     1       2.957 -11.181 -41.671  1.00  0.00     0.130 C 
ATOM     18  O   UNL     1       4.174 -11.128 -41.572  1.00  0.00    -0.300 OA
ATOM     19  C   UNL     1       2.273 -12.512 -41.743  1.00  0.00     0.087 C 
ENDBRANCH  16  17
ENDBRANCH  15  16
ENDBRANCH  13  15
ENDBRANCH  11  12
ENDBRANCH   1  11
TORSDOF 9
ENDMDL
MODEL 3
REMARK VINA RESULT:    -4.149      3.560      6.092
REMARK INTER + INTRA:          -8.994
REMARK INTER:                  -7.625
REMARK INTRA:                  -1.369
REMARK UNBOUND:                -2.663
REMARK SMILES CC(=O)CCC=C(C)CCC=C(C)CCC=C(C)C
REMARK SMILES IDX 10 1 11 2 12 3 13 4 14 5 15 6 16 7 18 8 17 9 19 10 9 11 7 12
REMARK SMILES IDX 6 13 8 14 5 15 4 16 2 17 3 18 1 19
REMARK H PARENT
REMARK Flexibility Score: inf
ROOT
ATOM      1  C   UNL     1      -0.767  -8.726 -39.134  1.00  0.00     0.032 C 
ENDROOT
BRANCH   1   2
ATOM      2  C   UNL     1      -1.603  -8.390 -40.343  1.00  0.00    -0.028 C 
ATOM      3  C   UNL     1      -1.980  -9.276 -41.293  1.00  0.00    -0.077 C 
ATOM      4  C   UNL     1      -2.771  -8.764 -42.469  1.00  0.00     0.039 C 
BRANCH   3   5
ATOM      5  C   UNL     1      -1.671 -10.760 -41.207  1.00  0.00     0.034 C 
BRANCH   5   6
ATOM      6  C   UNL     1      -0.822 -11.241 -42.392  1.00  0.00     0.032 C 
BRANCH   6   7
ATOM      7  C   UNL     1       0.632 -11.384 -42.004  1.00  0.00    -0.028 C 
ATOM      8  C   UNL     1       2.992 -10.683 -41.753  1.00  0.00     0.039 C 
ATOM      9  C   UNL     1       1.588 -10.460 -42.252  1.00  0.00    -0.080 C 
ATOM     10  C   UNL     1       1.298  -9.180 -42.996  1.00  0.00     0.039 C 
ENDBRANCH   6   7
ENDBRANCH   5   6
ENDBRANCH   3   5
ENDBRANCH   1   2
BRANCH   1  11
ATOM     11  C   UNL     1      -0.758  -7.560 -38.139  1.00  0.00     0.034 C 
BRANCH  11  12
ATOM     12  C   UNL     1      -0.829  -8.068 -36.716  1.00  0.00    -0.077 C 
ATOM     13  C   UNL     1      -0.504  -9.356 -36.461  1.00  0.00    -0.028 C 
ATOM     14  C   UNL     1      -1.241  -7.117 -35.616  1.00  0.00     0.039 C 
BRANCH  13  15
ATOM     15  C   UNL     1      -0.563  -9.998 -35.098  1.00  0.00     0.035 C 
BRANCH  15  16
ATOM     16  C   UNL     1      -1.526 -11.190 -35.100  1.00  0.00     0.079 C 
BRANCH  16  17
ATOM     17  C   UNL     1      -2.038 -11.465 -33.714  1.00  0.00     0.130 C 
ATOM     18  O   UNL     1      -3.220 -11.724 -33.543  1.00  0.00    -0.300 OA
ATOM     19  C   UNL     1      -1.111 -11.404 -32.537  1.00  0.00     0.087 C 
ENDBRANCH  16  17
ENDBRANCH  15  16
ENDBRANCH  13  15
ENDBRANCH  11  12
ENDBRANCH   1  11
TORSDOF 9
ENDMDL
MODEL 4
REMARK VINA RESULT:    -4.118      3.014      5.186
REMARK INTER + INTRA:          -8.948
REMARK INTER:                  -7.990
REMARK INTRA:                  -0.958
REMARK UNBOUND:                -2.663
REMARK SMILES CC(=O)CCC=C(C)CCC=C(C)CCC=C(C)C
REMARK SMILES IDX 10 1 11 2 12 3 13 4 14 5 15 6 16 7 18 8 17 9 19 10 9 11 7 12
REMARK SMILES IDX 6 13 8 14 5 15 4 16 2 17 3 18 1 19
REMARK H PARENT
REMARK Flexibility Score: inf
ROOT
ATOM      1  C   UNL     1      -0.746  -8.035 -38.830  1.00  0.00     0.032 C 
ENDROOT
BRANCH   1   2
ATOM      2  C   UNL     1      -1.269  -7.396 -37.568  1.00  0.00    -0.028 C 
ATOM      3  C   UNL     1      -1.111  -7.900 -36.323  1.00  0.00    -0.077 C 
ATOM      4  C   UNL     1      -1.744  -7.163 -35.171  1.00  0.00     0.039 C 
BRANCH   3   5
ATOM      5  C   UNL     1      -0.300  -9.151 -36.035  1.00  0.00     0.034 C 
BRANCH   5   6
ATOM      6  C   UNL     1      -1.170 -10.287 -35.478  1.00  0.00     0.032 C 
BRANCH   6   7
ATOM      7  C   UNL     1      -0.672 -10.748 -34.127  1.00  0.00    -0.028 C 
ATOM      8  C   UNL     1      -0.827 -11.787 -31.887  1.00  0.00     0.039 C 
ATOM      9  C   UNL     1      -1.451 -11.300 -33.169  1.00  0.00    -0.080 C 
ATOM     10  C   UNL     1      -2.938 -11.477 -33.342  1.00  0.00     0.039 C 
ENDBRANCH   6   7
ENDBRANCH   5   6
ENDBRANCH   3   5
ENDBRANCH   1   2
BRANCH   1  11
ATOM     11  C   UNL     1      -1.878  -8.242 -39.843  1.00  0.00     0.034 C 
BRANCH  11  12
ATOM     12  C   UNL     1      -1.378  -8.985 -41.062  1.00  0.00    -0.077 C 
ATOM     13  C   UNL     1      -0.145  -9.539 -41.034  1.00  0.00    -0.028 C 
ATOM     14  C   UNL     1      -2.281  -9.108 -42.268  1.00  0.00     0.039 C 
BRANCH  13  15
ATOM     15  C   UNL     1       0.487 -10.275 -42.189  1.00  0.00     0.035 C 
BRANCH  15  16
ATOM     16  C   UNL     1       1.973  -9.919 -42.312  1.00  0.00     0.079 C 
BRANCH  16  17
ATOM     17  C   UNL     1       2.834 -11.054 -41.832  1.00  0.00     0.130 C 
ATOM     18  O   UNL     1       4.018 -10.861 -41.598  1.00  0.00    -0.300 OA
ATOM     19  C   UNL     1       2.255 -12.425 -41.657  1.00  0.00     0.087 C 
ENDBRANCH  16  17
ENDBRANCH  15  16
ENDBRANCH  13  15
ENDBRANCH  11  12
ENDBRANCH   1  11
TORSDOF 9
ENDMDL
MODEL 5
REMARK VINA RESULT:    -4.035      1.383      3.146
REMARK INTER + INTRA:          -8.821
REMARK INTER:                  -5.925
REMARK INTRA:                  -2.896
REMARK UNBOUND:                -2.663
REMARK SMILES CC(=O)CCC=C(C)CCC=C(C)CCC=C(C)C
REMARK SMILES IDX 10 1 11 2 12 3 13 4 14 5 15 6 16 7 18 8 17 9 19 10 9 11 7 12
REMARK SMILES IDX 6 13 8 14 5 15 4 16 2 17 3 18 1 19
REMARK H PARENT
REMARK Flexibility Score: inf
ROOT
ATOM      1  C   UNL     1      -1.985 -12.038 -38.509  1.00  0.00     0.032 C 
ENDROOT
BRANCH   1   2
ATOM      2  C   UNL     1      -3.453 -12.333 -38.692  1.00  0.00    -0.028 C 
ATOM      3  C   UNL     1      -4.046 -12.601 -39.878  1.00  0.00    -0.077 C 
ATOM      4  C   UNL     1      -5.536 -12.822 -39.895  1.00  0.00     0.039 C 
BRANCH   3   5
ATOM      5  C   UNL     1      -3.272 -12.721 -41.180  1.00  0.00     0.034 C 
BRANCH   5   6
ATOM      6  C   UNL     1      -3.950 -11.957 -42.326  1.00  0.00     0.032 C 
BRANCH   6   7
ATOM      7  C   UNL     1      -3.173 -10.714 -42.693  1.00  0.00    -0.028 C 
ATOM      8  C   UNL     1      -2.468  -8.347 -42.526  1.00  0.00     0.039 C 
ATOM      9  C   UNL     1      -3.354  -9.499 -42.126  1.00  0.00    -0.080 C 
ATOM     10  C   UNL     1      -4.405  -9.249 -41.074  1.00  0.00     0.039 C 
ENDBRANCH   6   7
ENDBRANCH   5   6
ENDBRANCH   3   5
ENDBRANCH   1   2
BRANCH   1  11
ATOM     11  C   UNL     1      -1.768 -10.559 -38.168  1.00  0.00     0.034 C 
BRANCH  11  12
ATOM     12  C   UNL     1      -0.957  -9.874 -39.245  1.00  0.00    -0.077 C 
ATOM     13  C   UNL     1      -0.353 -10.627 -40.193  1.00  0.00    -0.028 C 
ATOM     14  C   UNL     1      -0.863  -8.365 -39.246  1.00  0.00     0.039 C 
BRANCH  13  15
ATOM     15  C   UNL     1       0.509 -10.076 -41.300  1.00  0.00     0.035 C 
BRANCH  15  16
ATOM     16  C   UNL     1       0.517 -11.023 -42.505  1.00  0.00     0.079 C 
BRANCH  16  17
ATOM     17  C   UNL     1       1.926 -11.340 -42.924  1.00  0.00     0.130 C 
ATOM     18  O   UNL     1       2.131 -11.898 -43.991  1.00  0.00    -0.300 OA
ATOM     19  C   UNL     1       3.079 -10.993 -42.032  1.00  0.00     0.087 C 
ENDBRANCH  16  17
ENDBRANCH  15  16
ENDBRANCH  13  15
ENDBRANCH  11  12
ENDBRANCH   1  11
TORSDOF 9
ENDMDL
MODEL 6
REMARK VINA RESULT:    -4.001      3.040      5.191
REMARK INTER + INTRA:          -8.768
REMARK INTER:                  -7.387
REMARK INTRA:                  -1.381
REMARK UNBOUND:                -2.663
REMARK SMILES CC(=O)CCC=C(C)CCC=C(C)CCC=C(C)C
REMARK SMILES IDX 10 1 11 2 12 3 13 4 14 5 15 6 16 7 18 8 17 9 19 10 9 11 7 12
REMARK SMILES IDX 6 13 8 14 5 15 4 16 2 17 3 18 1 19
REMARK H PARENT
REMARK Flexibility Score: inf
ROOT
ATOM      1  C   UNL     1      -3.020  -8.465 -43.167  1.00  0.00     0.032 C 
ENDROOT
BRANCH   1   2
ATOM      2  C   UNL     1      -4.146  -9.263 -43.775  1.00  0.00    -0.028 C 
ATOM      3  C   UNL     1      -5.150  -8.741 -44.517  1.00  0.00    -0.077 C 
ATOM      4  C   UNL     1      -6.230  -9.671 -45.007  1.00  0.00     0.039 C 
BRANCH   3   5
ATOM      5  C   UNL     1      -5.216  -7.274 -44.903  1.00  0.00     0.034 C 
BRANCH   5   6
ATOM      6  C   UNL     1      -5.328  -7.082 -46.421  1.00  0.00     0.032 C 
BRANCH   6   7
ATOM      7  C   UNL     1      -4.049  -7.482 -47.121  1.00  0.00    -0.028 C 
ATOM      8  C   UNL     1      -2.638  -8.722 -48.732  1.00  0.00     0.039 C 
ATOM      9  C   UNL     1      -3.956  -8.460 -48.051  1.00  0.00    -0.080 C 
ATOM     10  C   UNL     1      -5.141  -9.298 -48.460  1.00  0.00     0.039 C 
ENDBRANCH   6   7
ENDBRANCH   5   6
ENDBRANCH   3   5
ENDBRANCH   1   2
BRANCH   1  11
ATOM     11  C   UNL     1      -2.981  -8.653 -41.646  1.00  0.00     0.034 C 
BRANCH  11  12
ATOM     12  C   UNL     1      -1.579  -8.980 -41.181  1.00  0.00    -0.077 C 
ATOM     13  C   UNL     1      -0.782  -9.729 -41.975  1.00  0.00    -0.028 C 
ATOM     14  C   UNL     1      -1.103  -8.440 -39.852  1.00  0.00     0.039 C 
BRANCH  13  15
ATOM     15  C   UNL     1       0.621 -10.154 -41.619  1.00  0.00     0.035 C 
BRANCH  15  16
ATOM     16  C   UNL     1       1.634  -9.565 -42.606  1.00  0.00     0.079 C 
BRANCH  16  17
ATOM     17  C   UNL     1       1.969 -10.560 -43.683  1.00  0.00     0.130 C 
ATOM     18  O   UNL     1       2.226 -10.169 -44.812  1.00  0.00    -0.300 OA
ATOM     19  C   UNL     1       1.970 -12.028 -43.385  1.00  0.00     0.087 C 
ENDBRANCH  16  17
ENDBRANCH  15  16
ENDBRANCH  13  15
ENDBRANCH  11  12
ENDBRANCH   1  11
TORSDOF 9
ENDMDL
MODEL 7
REMARK VINA RESULT:    -3.987      2.088      3.655
REMARK INTER + INTRA:          -8.748
REMARK INTER:                  -6.141
REMARK INTRA:                  -2.607
REMARK UNBOUND:                -2.663
REMARK SMILES CC(=O)CCC=C(C)CCC=C(C)CCC=C(C)C
REMARK SMILES IDX 10 1 11 2 12 3 13 4 14 5 15 6 16 7 18 8 17 9 19 10 9 11 7 12
REMARK SMILES IDX 6 13 8 14 5 15 4 16 2 17 3 18 1 19
REMARK H PARENT
REMARK Flexibility Score: inf
ROOT
ATOM      1  C   UNL     1      -4.597  -7.629 -44.588  1.00  0.00     0.032 C 
ENDROOT
BRANCH   1   2
ATOM      2  C   UNL     1      -5.205  -8.522 -45.640  1.00  0.00    -0.028 C 
ATOM      3  C   UNL     1      -6.144  -9.467 -45.405  1.00  0.00    -0.077 C 
ATOM      4  C   UNL     1      -6.608 -10.314 -46.561  1.00  0.00     0.039 C 
BRANCH   3   5
ATOM      5  C   UNL     1      -6.771  -9.686 -44.039  1.00  0.00     0.034 C 
BRANCH   5   6
ATOM      6  C   UNL     1      -6.653 -11.145 -43.577  1.00  0.00     0.032 C 
BRANCH   6   7
ATOM      7  C   UNL     1      -5.208 -11.586 -43.517  1.00  0.00    -0.028 C 
ATOM      8  C   UNL     1      -3.067 -12.198 -42.438  1.00  0.00     0.039 C 
ATOM      9  C   UNL     1      -4.479 -11.677 -42.381  1.00  0.00    -0.080 C 
ATOM     10  C   UNL     1      -5.038 -11.296 -41.033  1.00  0.00     0.039 C 
ENDBRANCH   6   7
ENDBRANCH   5   6
ENDBRANCH   3   5
ENDBRANCH   1   2
BRANCH   1  11
ATOM     11  C   UNL     1      -3.379  -8.300 -43.943  1.00  0.00     0.034 C 
BRANCH  11  12
ATOM     12  C   UNL     1      -3.437  -8.182 -42.436  1.00  0.00    -0.077 C 
ATOM     13  C   UNL     1      -2.380  -8.600 -41.704  1.00  0.00    -0.028 C 
ATOM     14  C   UNL     1      -4.664  -7.578 -41.794  1.00  0.00     0.039 C 
BRANCH  13  15
ATOM     15  C   UNL     1      -2.320  -8.569 -40.197  1.00  0.00     0.035 C 
BRANCH  15  16
ATOM     16  C   UNL     1      -0.871  -8.672 -39.709  1.00  0.00     0.079 C 
BRANCH  16  17
ATOM     17  C   UNL     1      -0.255  -9.975 -40.136  1.00  0.00     0.130 C 
ATOM     18  O   UNL     1       0.727  -9.974 -40.864  1.00  0.00    -0.300 OA
ATOM     19  C   UNL     1      -0.850 -11.276 -39.691  1.00  0.00     0.087 C 
ENDBRANCH  16  17
ENDBRANCH  15  16
ENDBRANCH  13  15
ENDBRANCH  11  12
ENDBRANCH   1  11
TORSDOF 9
ENDMDL
MODEL 8
REMARK VINA RESULT:    -3.918      1.522      3.539
REMARK INTER + INTRA:          -8.642
REMARK INTER:                  -7.005
REMARK INTRA:                  -1.637
REMARK UNBOUND:                -2.663
REMARK SMILES CC(=O)CCC=C(C)CCC=C(C)CCC=C(C)C
REMARK SMILES IDX 10 1 11 2 12 3 13 4 14 5 15 6 16 7 18 8 17 9 19 10 9 11 7 12
REMARK SMILES IDX 6 13 8 14 5 15 4 16 2 17 3 18 1 19
REMARK H PARENT
REMARK Flexibility Score: inf
ROOT
ATOM      1  C   UNL     1      -3.380 -11.797 -41.205  1.00  0.00     0.032 C 
ENDROOT
BRANCH   1   2
ATOM      2  C   UNL     1      -2.397 -12.830 -40.713  1.00  0.00    -0.028 C 
ATOM      3  C   UNL     1      -1.728 -12.763 -39.539  1.00  0.00    -0.077 C 
ATOM      4  C   UNL     1      -0.738 -13.854 -39.221  1.00  0.00     0.039 C 
BRANCH   3   5
ATOM      5  C   UNL     1      -1.956 -11.660 -38.520  1.00  0.00     0.034 C 
BRANCH   5   6
ATOM      6  C   UNL     1      -1.059 -10.442 -38.780  1.00  0.00     0.032 C 
BRANCH   6   7
ATOM      7  C   UNL     1      -0.825  -9.652 -37.512  1.00  0.00    -0.028 C 
ATOM      8  C   UNL     1      -0.633  -7.626 -36.105  1.00  0.00     0.039 C 
ATOM      9  C   UNL     1      -0.806  -8.302 -37.440  1.00  0.00    -0.080 C 
ATOM     10  C   UNL     1      -0.980  -7.428 -38.657  1.00  0.00     0.039 C 
ENDBRANCH   6   7
ENDBRANCH   5   6
ENDBRANCH   3   5
ENDBRANCH   1   2
BRANCH   1  11
ATOM     11  C   UNL     1      -2.900 -11.173 -42.520  1.00  0.00     0.034 C 
BRANCH  11  12
ATOM     12  C   UNL     1      -1.804 -10.162 -42.266  1.00  0.00    -0.077 C 
ATOM     13  C   UNL     1      -0.513 -10.556 -42.357  1.00  0.00    -0.028 C 
ATOM     14  C   UNL     1      -2.182  -8.736 -41.940  1.00  0.00     0.039 C 
BRANCH  13  15
ATOM     15  C   UNL     1       0.672  -9.660 -42.096  1.00  0.00     0.035 C 
BRANCH  15  16
ATOM     16  C   UNL     1       1.917 -10.181 -42.824  1.00  0.00     0.079 C 
BRANCH  16  17
ATOM     17  C   UNL     1       2.717 -11.087 -41.931  1.00  0.00     0.130 C 
ATOM     18  O   UNL     1       3.812 -10.727 -41.525  1.00  0.00    -0.300 OA
ATOM     19  C   UNL     1       2.189 -12.437 -41.551  1.00  0.00     0.087 C 
ENDBRANCH  16  17
ENDBRANCH  15  16
ENDBRANCH  13  15
ENDBRANCH  11  12
ENDBRANCH   1  11
TORSDOF 9
ENDMDL
MODEL 9
REMARK VINA RESULT:    -3.862      1.628      2.319
REMARK INTER + INTRA:          -8.557
REMARK INTER:                  -5.872
REMARK INTRA:                  -2.685
REMARK UNBOUND:                -2.663
REMARK SMILES CC(=O)CCC=C(C)CCC=C(C)CCC=C(C)C
REMARK SMILES IDX 10 1 11 2 12 3 13 4 14 5 15 6 16 7 18 8 17 9 19 10 9 11 7 12
REMARK SMILES IDX 6 13 8 14 5 15 4 16 2 17 3 18 1 19
REMARK H PARENT
REMARK Flexibility Score: inf
ROOT
ATOM      1  C   UNL     1      -4.232  -7.605 -42.166  1.00  0.00     0.032 C 
ENDROOT
BRANCH   1   2
ATOM      2  C   UNL     1      -5.665  -7.994 -42.431  1.00  0.00    -0.028 C 
ATOM      3  C   UNL     1      -6.057  -8.990 -43.258  1.00  0.00    -0.077 C 
ATOM      4  C   UNL     1      -7.533  -9.214 -43.455  1.00  0.00     0.039 C 
BRANCH   3   5
ATOM      5  C   UNL     1      -5.075  -9.908 -43.967  1.00  0.00     0.034 C 
BRANCH   5   6
ATOM      6  C   UNL     1      -5.245 -11.372 -43.540  1.00  0.00     0.032 C 
BRANCH   6   7
ATOM      7  C   UNL     1      -4.122 -11.812 -42.628  1.00  0.00    -0.028 C 
ATOM      8  C   UNL     1      -3.048 -12.419 -40.483  1.00  0.00     0.039 C 
ATOM      9  C   UNL     1      -4.215 -11.899 -41.282  1.00  0.00    -0.080 C 
ATOM     10  C   UNL     1      -5.468 -11.517 -40.534  1.00  0.00     0.039 C 
ENDBRANCH   6   7
ENDBRANCH   5   6
ENDBRANCH   3   5
ENDBRANCH   1   2
BRANCH   1  11
ATOM     11  C   UNL     1      -3.730  -8.240 -40.864  1.00  0.00     0.034 C 
BRANCH  11  12
ATOM     12  C   UNL     1      -2.268  -8.613 -40.978  1.00  0.00    -0.077 C 
ATOM     13  C   UNL     1      -1.788  -9.032 -42.171  1.00  0.00    -0.028 C 
ATOM     14  C   UNL     1      -1.381  -8.484 -39.761  1.00  0.00     0.039 C 
BRANCH  13  15
ATOM     15  C   UNL     1      -0.364  -9.464 -42.414  1.00  0.00     0.035 C 
BRANCH  15  16
ATOM     16  C   UNL     1      -0.264 -10.992 -42.477  1.00  0.00     0.079 C 
BRANCH  16  17
ATOM     17  C   UNL     1       1.174 -11.431 -42.514  1.00  0.00     0.130 C 
ATOM     18  O   UNL     1       1.706 -11.855 -41.499  1.00  0.00    -0.300 OA
ATOM     19  C   UNL     1       1.964 -11.332 -43.784  1.00  0.00     0.087 C 
ENDBRANCH  16  17
ENDBRANCH  15  16
ENDBRANCH  13  15
ENDBRANCH  11  12
ENDBRANCH   1  11
TORSDOF 9
ENDMDL
