MODEL 1
REMARK VINA RESULT:     4.618      0.000      0.000
REMARK INTER + INTRA:           5.406
REMARK INTER:                   5.023
REMARK INTRA:                   0.383
REMARK UNBOUND:                 0.383
REMARK SMILES CC1(C)CC[C@]2(C(=O)[O-])CC[C@]3(C)C(=CC[C@H]4[C@@]5(C)CC[C@H](O)C(C)(C)[C@H]5CC[C@]43C)[C@H]2C1
REMARK SMILES IDX 6 1 5 2 10 3 32 4 4 5 11 6 14 7 33 8 2 9 12 10 15 11 1 12
REMARK SMILES IDX 3 13 13 14 30 15 16 16 17 17 29 18 31 19 18 20 28 21 27 22
REMARK SMILES IDX 20 23 19 24 24 25 21 26 22 27 25 28 26 29 7 30 8 31 9 32
REMARK SMILES IDX 23 33
REMARK H PARENT 23 34
REMARK Flexibility Score: inf
ROOT
ATOM      1  C   UNL     1     -19.487   4.018 -17.938  1.00  0.00     0.017 C 
ATOM      2  C   UNL     1     -20.899   4.563 -17.580  1.00  0.00     0.014 C 
ATOM      3  C   UNL     1     -19.380   2.476 -17.666  1.00  0.00     0.014 C 
ATOM      4  C   UNL     1     -18.489   4.800 -17.023  1.00  0.00     0.028 C 
ATOM      5  C   UNL     1     -21.006   6.088 -17.833  1.00  0.00     0.007 C 
ATOM      6  C   UNL     1     -18.692   2.140 -16.332  1.00  0.00     0.013 C 
ATOM      7  C   UNL     1     -17.164   4.053 -16.947  1.00  0.00    -0.064 C 
ATOM      8  C   UNL     1     -18.484   6.312 -17.337  1.00  0.00     0.015 C 
ATOM      9  C   UNL     1     -19.900   6.940 -17.133  1.00  0.00    -0.035 C 
ATOM     10  C   UNL     1     -17.192   2.692 -16.206  1.00  0.00    -0.006 C 
ATOM     11  C   UNL     1     -16.148   4.431 -17.739  1.00  0.00    -0.027 C 
ATOM     12  C   UNL     1     -20.227   7.094 -15.627  1.00  0.00     0.011 C 
ATOM     13  C   UNL     1     -19.897   8.353 -17.754  1.00  0.00     0.011 C 
ATOM     14  C   UNL     1     -17.009   3.016 -14.691  1.00  0.00     0.017 C 
ATOM     15  C   UNL     1     -16.024   1.653 -16.720  1.00  0.00    -0.020 C 
ATOM     16  C   UNL     1     -15.080   3.495 -18.179  1.00  0.00     0.032 C 
ATOM     17  C   UNL     1     -15.571   2.009 -18.192  1.00  0.00     0.006 C 
ATOM     18  C   UNL     1     -14.723   1.699 -15.840  1.00  0.00     0.008 C 
ATOM     19  C   UNL     1     -16.567   0.201 -16.589  1.00  0.00     0.012 C 
ATOM     20  C   UNL     1     -14.526   0.980 -18.863  1.00  0.00    -0.025 C 
ATOM     21  C   UNL     1     -13.400   1.234 -16.508  1.00  0.00     0.005 C 
ATOM     22  C   UNL     1     -13.501   0.371 -17.802  1.00  0.00     0.003 C 
ATOM     23  C   UNL     1     -13.758   1.634 -20.071  1.00  0.00     0.010 C 
ATOM     24  C   UNL     1     -15.354  -0.179 -19.516  1.00  0.00     0.012 C 
ATOM     25  C   UNL     1     -12.064   0.021 -18.395  1.00  0.00    -0.006 C 
ATOM     26  C   UNL     1     -12.423   2.274 -19.684  1.00  0.00     0.033 C 
ATOM     27  C   UNL     1     -11.411   1.265 -19.105  1.00  0.00     0.120 C 
ATOM     28  C   UNL     1     -12.162  -1.194 -19.369  1.00  0.00     0.014 C 
ATOM     29  C   UNL     1     -11.102  -0.452 -17.265  1.00  0.00     0.014 C 
ENDROOT
BRANCH   1  30
ATOM     30  C   UNL     1     -19.235   4.217 -19.435  1.00  0.00     0.048 C 
ATOM     31  O   UNL     1     -20.031   4.909 -20.125  1.00  0.00    -0.550 OA
ATOM     32  O   UNL     1     -18.214   3.542 -20.090  1.00  0.00    -0.550 OA
ENDBRANCH   1  30
BRANCH  27  33
ATOM     33  O   UNL     1     -10.527   0.865 -20.125  1.00  0.00    -0.393 OA
ATOM     34  H   UNL     1      -9.857   0.263 -19.711  1.00  0.00     0.210 HD
ENDBRANCH  27  33
TORSDOF 2
ENDMDL
