MODEL 1
REMARK VINA RESULT:    -5.520      0.000      0.000
REMARK INTER + INTRA:         -13.241
REMARK INTER:                 -10.683
REMARK INTRA:                  -2.558
REMARK UNBOUND:                -2.558
REMARK SMILES CCCCCCCCCCCCCCCCCC(=O)[O-]
REMARK SMILES IDX 10 1 11 2 12 3 13 4 14 5 15 6 16 7 17 8 18 9 19 10 20 11
REMARK SMILES IDX 9 12 8 13 7 14 6 15 5 16 4 17 3 18 2 19 1 20
REMARK H PARENT
REMARK Flexibility Score: inf
ROOT
ATOM      1  C   UNL     1     167.350 153.430 153.448  1.00  0.00     0.000 C 
ENDROOT
BRANCH   1   2
ATOM      2  C   UNL     1     166.207 153.711 154.439  1.00  0.00     0.000 C 
BRANCH   2   3
ATOM      3  C   UNL     1     164.829 153.170 154.014  1.00  0.00     0.000 C 
BRANCH   3   4
ATOM      4  C   UNL     1     163.794 154.286 153.789  1.00  0.00     0.000 C 
BRANCH   4   5
ATOM      5  C   UNL     1     163.221 154.272 152.362  1.00  0.00     0.000 C 
BRANCH   5   6
ATOM      6  C   UNL     1     164.084 155.059 151.349  1.00  0.00     0.000 C 
BRANCH   6   7
ATOM      7  C   UNL     1     164.823 156.257 151.973  1.00  0.00     0.006 C 
BRANCH   7   8
ATOM      8  C   UNL     1     165.768 156.979 151.001  1.00  0.00     0.053 C 
BRANCH   8   9
ATOM      9  C   UNL     1     165.655 158.470 151.115  1.00  0.00     0.041 C 
ATOM     10  O   UNL     1     164.522 159.018 151.139  1.00  0.00    -0.550 OA
ATOM     11  O   UNL     1     166.798 159.256 151.172  1.00  0.00    -0.550 OA
ENDBRANCH   8   9
ENDBRANCH   7   8
ENDBRANCH   6   7
ENDBRANCH   5   6
ENDBRANCH   4   5
ENDBRANCH   3   4
ENDBRANCH   2   3
ENDBRANCH   1   2
BRANCH   1  12
ATOM     12  C   UNL     1     166.848 153.185 152.014  1.00  0.00     0.000 C 
BRANCH  12  13
ATOM     13  C   UNL     1     167.875 153.598 150.946  1.00  0.00    -0.000 C 
BRANCH  13  14
ATOM     14  C   UNL     1     167.282 153.633 149.529  1.00  0.00    -0.000 C 
BRANCH  14  15
ATOM     15  C   UNL     1     166.630 152.288 149.174  1.00  0.00    -0.000 C 
BRANCH  15  16
ATOM     16  C   UNL     1     165.286 152.456 148.447  1.00  0.00    -0.000 C 
BRANCH  16  17
ATOM     17  C   UNL     1     164.098 151.941 149.274  1.00  0.00    -0.000 C 
BRANCH  17  18
ATOM     18  C   UNL     1     164.578 151.252 150.557  1.00  0.00    -0.000 C 
BRANCH  18  19
ATOM     19  C   UNL     1     163.438 150.474 151.225  1.00  0.00    -0.003 C 
ATOM     20  C   UNL     1     163.277 149.088 150.607  1.00  0.00     0.004 C 
ENDBRANCH  18  19
ENDBRANCH  17  18
ENDBRANCH  16  17
ENDBRANCH  15  16
ENDBRANCH  14  15
ENDBRANCH  13  14
ENDBRANCH  12  13
ENDBRANCH   1  12
TORSDOF 16
ENDMDL
MODEL 2
REMARK VINA RESULT:    -5.457      2.992      5.715
REMARK INTER + INTRA:         -13.119
REMARK INTER:                 -10.151
REMARK INTRA:                  -2.968
REMARK UNBOUND:                -2.558
REMARK SMILES CCCCCCCCCCCCCCCCCC(=O)[O-]
REMARK SMILES IDX 10 1 11 2 12 3 13 4 14 5 15 6 16 7 17 8 18 9 19 10 20 11
REMARK SMILES IDX 9 12 8 13 7 14 6 15 5 16 4 17 3 18 2 19 1 20
REMARK H PARENT
REMARK Flexibility Score: inf
ROOT
ATOM      1  C   UNL     1     164.539 151.438 151.000  1.00  0.00     0.000 C 
ENDROOT
BRANCH   1   2
ATOM      2  C   UNL     1     163.988 150.449 149.958  1.00  0.00     0.000 C 
BRANCH   2   3
ATOM      3  C   UNL     1     164.518 150.648 148.526  1.00  0.00     0.000 C 
BRANCH   3   4
ATOM      4  C   UNL     1     164.490 152.121 148.079  1.00  0.00     0.000 C 
BRANCH   4   5
ATOM      5  C   UNL     1     165.873 152.618 147.626  1.00  0.00     0.000 C 
BRANCH   5   6
ATOM      6  C   UNL     1     166.507 153.636 148.603  1.00  0.00     0.000 C 
BRANCH   6   7
ATOM      7  C   UNL     1     167.489 152.998 149.602  1.00  0.00     0.006 C 
BRANCH   7   8
ATOM      8  C   UNL     1     168.946 153.444 149.414  1.00  0.00     0.053 C 
BRANCH   8   9
ATOM      9  C   UNL     1     169.631 152.673 148.325  1.00  0.00     0.041 C 
ATOM     10  O   UNL     1     170.535 153.217 147.638  1.00  0.00    -0.550 OA
ATOM     11  O   UNL     1     169.257 151.365 148.052  1.00  0.00    -0.550 OA
ENDBRANCH   8   9
ENDBRANCH   7   8
ENDBRANCH   6   7
ENDBRANCH   5   6
ENDBRANCH   4   5
ENDBRANCH   3   4
ENDBRANCH   2   3
ENDBRANCH   1   2
BRANCH   1  12
ATOM     12  C   UNL     1     163.522 151.763 152.109  1.00  0.00     0.000 C 
BRANCH  12  13
ATOM     13  C   UNL     1     163.258 153.271 152.249  1.00  0.00    -0.000 C 
BRANCH  13  14
ATOM     14  C   UNL     1     163.958 154.103 151.163  1.00  0.00    -0.000 C 
BRANCH  14  15
ATOM     15  C   UNL     1     164.367 155.481 151.706  1.00  0.00    -0.000 C 
BRANCH  15  16
ATOM     16  C   UNL     1     165.885 155.609 151.910  1.00  0.00    -0.000 C 
BRANCH  16  17
ATOM     17  C   UNL     1     166.343 155.087 153.281  1.00  0.00    -0.000 C 
BRANCH  17  18
ATOM     18  C   UNL     1     167.042 153.729 153.148  1.00  0.00    -0.000 C 
BRANCH  18  19
ATOM     19  C   UNL     1     166.481 152.719 154.156  1.00  0.00    -0.003 C 
ATOM     20  C   UNL     1     165.586 153.404 155.185  1.00  0.00     0.004 C 
ENDBRANCH  18  19
ENDBRANCH  17  18
ENDBRANCH  16  17
ENDBRANCH  15  16
ENDBRANCH  14  15
ENDBRANCH  13  14
ENDBRANCH  12  13
ENDBRANCH   1  12
TORSDOF 16
ENDMDL
MODEL 3
REMARK VINA RESULT:    -5.453      4.144      6.580
REMARK INTER + INTRA:         -13.111
REMARK INTER:                 -10.195
REMARK INTRA:                  -2.916
REMARK UNBOUND:                -2.558
REMARK SMILES CCCCCCCCCCCCCCCCCC(=O)[O-]
REMARK SMILES IDX 10 1 11 2 12 3 13 4 14 5 15 6 16 7 17 8 18 9 19 10 20 11
REMARK SMILES IDX 9 12 8 13 7 14 6 15 5 16 4 17 3 18 2 19 1 20
REMARK H PARENT
REMARK Flexibility Score: inf
ROOT
ATOM      1  C   UNL     1     167.358 154.690 150.653  1.00  0.00     0.000 C 
ENDROOT
BRANCH   1   2
ATOM      2  C   UNL     1     167.535 153.243 150.160  1.00  0.00     0.000 C 
BRANCH   2   3
ATOM      3  C   UNL     1     166.846 152.922 148.821  1.00  0.00     0.000 C 
BRANCH   3   4
ATOM      4  C   UNL     1     165.890 151.720 148.915  1.00  0.00     0.000 C 
BRANCH   4   5
ATOM      5  C   UNL     1     164.609 151.928 148.090  1.00  0.00     0.000 C 
BRANCH   5   6
ATOM      6  C   UNL     1     163.465 150.965 148.482  1.00  0.00     0.000 C 
BRANCH   6   7
ATOM      7  C   UNL     1     163.958 149.573 148.920  1.00  0.00     0.006 C 
BRANCH   7   8
ATOM      8  C   UNL     1     163.414 149.122 150.283  1.00  0.00     0.053 C 
BRANCH   8   9
ATOM      9  C   UNL     1     162.863 147.728 150.232  1.00  0.00     0.041 C 
ATOM     10  O   UNL     1     162.353 147.213 151.261  1.00  0.00    -0.550 OA
ATOM     11  O   UNL     1     162.932 146.991 149.058  1.00  0.00    -0.550 OA
ENDBRANCH   8   9
ENDBRANCH   7   8
ENDBRANCH   6   7
ENDBRANCH   5   6
ENDBRANCH   4   5
ENDBRANCH   3   4
ENDBRANCH   2   3
ENDBRANCH   1   2
BRANCH   1  12
ATOM     12  C   UNL     1     165.924 155.214 150.459  1.00  0.00     0.000 C 
BRANCH  12  13
ATOM     13  C   UNL     1     165.309 155.759 151.758  1.00  0.00    -0.000 C 
BRANCH  13  14
ATOM     14  C   UNL     1     163.997 155.058 152.139  1.00  0.00    -0.000 C 
BRANCH  14  15
ATOM     15  C   UNL     1     163.691 153.904 151.172  1.00  0.00    -0.000 C 
BRANCH  15  16
ATOM     16  C   UNL     1     163.657 152.537 151.875  1.00  0.00    -0.000 C 
BRANCH  16  17
ATOM     17  C   UNL     1     164.995 152.183 152.542  1.00  0.00    -0.000 C 
BRANCH  17  18
ATOM     18  C   UNL     1     164.796 151.828 154.020  1.00  0.00    -0.000 C 
BRANCH  18  19
ATOM     19  C   UNL     1     165.774 152.603 154.910  1.00  0.00    -0.003 C 
ATOM     20  C   UNL     1     166.765 153.407 154.073  1.00  0.00     0.004 C 
ENDBRANCH  18  19
ENDBRANCH  17  18
ENDBRANCH  16  17
ENDBRANCH  15  16
ENDBRANCH  14  15
ENDBRANCH  13  14
ENDBRANCH  12  13
ENDBRANCH   1  12
TORSDOF 16
ENDMDL
MODEL 4
REMARK VINA RESULT:    -5.447      2.461      5.389
REMARK INTER + INTRA:         -13.100
REMARK INTER:                 -10.645
REMARK INTRA:                  -2.455
REMARK UNBOUND:                -2.558
REMARK SMILES CCCCCCCCCCCCCCCCCC(=O)[O-]
REMARK SMILES IDX 10 1 11 2 12 3 13 4 14 5 15 6 16 7 17 8 18 9 19 10 20 11
REMARK SMILES IDX 9 12 8 13 7 14 6 15 5 16 4 17 3 18 2 19 1 20
REMARK H PARENT
REMARK Flexibility Score: inf
ROOT
ATOM      1  C   UNL     1     167.033 151.506 147.379  1.00  0.00     0.000 C 
ENDROOT
BRANCH   1   2
ATOM      2  C   UNL     1     165.900 152.542 147.281  1.00  0.00     0.000 C 
BRANCH   2   3
ATOM      3  C   UNL     1     164.856 152.474 148.411  1.00  0.00     0.000 C 
BRANCH   3   4
ATOM      4  C   UNL     1     165.217 151.445 149.496  1.00  0.00     0.000 C 
BRANCH   4   5
ATOM      5  C   UNL     1     164.004 150.602 149.926  1.00  0.00     0.000 C 
BRANCH   5   6
ATOM      6  C   UNL     1     163.672 150.733 151.431  1.00  0.00     0.000 C 
BRANCH   6   7
ATOM      7  C   UNL     1     164.204 152.031 152.066  1.00  0.00     0.006 C 
BRANCH   7   8
ATOM      8  C   UNL     1     164.781 151.841 153.476  1.00  0.00     0.053 C 
BRANCH   8   9
ATOM      9  C   UNL     1     165.018 153.151 154.165  1.00  0.00     0.041 C 
ATOM     10  O   UNL     1     164.238 154.119 153.967  1.00  0.00    -0.550 OA
ATOM     11  O   UNL     1     166.110 153.313 155.006  1.00  0.00    -0.550 OA
ENDBRANCH   8   9
ENDBRANCH   7   8
ENDBRANCH   6   7
ENDBRANCH   5   6
ENDBRANCH   4   5
ENDBRANCH   3   4
ENDBRANCH   2   3
ENDBRANCH   1   2
BRANCH   1  12
ATOM     12  C   UNL     1     168.428 152.130 147.195  1.00  0.00     0.000 C 
BRANCH  12  13
ATOM     13  C   UNL     1     169.236 152.174 148.502  1.00  0.00    -0.000 C 
BRANCH  13  14
ATOM     14  C   UNL     1     169.073 153.500 149.261  1.00  0.00    -0.000 C 
BRANCH  14  15
ATOM     15  C   UNL     1     168.873 153.252 150.763  1.00  0.00    -0.000 C 
BRANCH  15  16
ATOM     16  C   UNL     1     167.480 153.680 151.253  1.00  0.00    -0.000 C 
BRANCH  16  17
ATOM     17  C   UNL     1     166.836 154.742 150.349  1.00  0.00    -0.000 C 
BRANCH  17  18
ATOM     18  C   UNL     1     165.542 155.282 150.969  1.00  0.00    -0.000 C 
BRANCH  18  19
ATOM     19  C   UNL     1     165.615 156.801 151.161  1.00  0.00    -0.003 C 
ATOM     20  C   UNL     1     165.500 157.178 152.635  1.00  0.00     0.004 C 
ENDBRANCH  18  19
ENDBRANCH  17  18
ENDBRANCH  16  17
ENDBRANCH  15  16
ENDBRANCH  14  15
ENDBRANCH  13  14
ENDBRANCH  12  13
ENDBRANCH   1  12
TORSDOF 16
ENDMDL
MODEL 5
REMARK VINA RESULT:    -5.427      1.322      4.026
REMARK INTER + INTRA:         -13.061
REMARK INTER:                 -10.375
REMARK INTRA:                  -2.686
REMARK UNBOUND:                -2.558
REMARK SMILES CCCCCCCCCCCCCCCCCC(=O)[O-]
REMARK SMILES IDX 10 1 11 2 12 3 13 4 14 5 15 6 16 7 17 8 18 9 19 10 20 11
REMARK SMILES IDX 9 12 8 13 7 14 6 15 5 16 4 17 3 18 2 19 1 20
REMARK H PARENT
REMARK Flexibility Score: inf
ROOT
ATOM      1  C   UNL     1     164.277 151.712 147.479  1.00  0.00     0.000 C 
ENDROOT
BRANCH   1   2
ATOM      2  C   UNL     1     163.625 151.279 148.805  1.00  0.00     0.000 C 
BRANCH   2   3
ATOM      3  C   UNL     1     164.598 151.114 149.986  1.00  0.00     0.000 C 
BRANCH   3   4
ATOM      4  C   UNL     1     164.045 151.691 151.301  1.00  0.00     0.000 C 
BRANCH   4   5
ATOM      5  C   UNL     1     163.737 153.194 151.194  1.00  0.00     0.000 C 
BRANCH   5   6
ATOM      6  C   UNL     1     163.114 153.784 152.480  1.00  0.00     0.000 C 
BRANCH   6   7
ATOM      7  C   UNL     1     163.677 155.167 152.855  1.00  0.00     0.006 C 
BRANCH   7   8
ATOM      8  C   UNL     1     164.499 155.827 151.738  1.00  0.00     0.053 C 
BRANCH   8   9
ATOM      9  C   UNL     1     165.187 157.073 152.212  1.00  0.00     0.041 C 
ATOM     10  O   UNL     1     165.860 157.057 153.275  1.00  0.00    -0.550 OA
ATOM     11  O   UNL     1     165.068 158.255 151.494  1.00  0.00    -0.550 OA
ENDBRANCH   8   9
ENDBRANCH   7   8
ENDBRANCH   6   7
ENDBRANCH   5   6
ENDBRANCH   4   5
ENDBRANCH   3   4
ENDBRANCH   2   3
ENDBRANCH   1   2
BRANCH   1  12
ATOM     12  C   UNL     1     165.683 151.116 147.286  1.00  0.00     0.000 C 
BRANCH  12  13
ATOM     13  C   UNL     1     166.783 152.189 147.251  1.00  0.00    -0.000 C 
BRANCH  13  14
ATOM     14  C   UNL     1     166.255 153.597 147.567  1.00  0.00    -0.000 C 
BRANCH  14  15
ATOM     15  C   UNL     1     166.913 154.158 148.837  1.00  0.00    -0.000 C 
BRANCH  15  16
ATOM     16  C   UNL     1     168.162 153.364 149.255  1.00  0.00    -0.000 C 
BRANCH  16  17
ATOM     17  C   UNL     1     168.468 153.492 150.755  1.00  0.00    -0.000 C 
BRANCH  17  18
ATOM     18  C   UNL     1     167.210 153.246 151.597  1.00  0.00    -0.000 C 
BRANCH  18  19
ATOM     19  C   UNL     1     167.339 153.892 152.981  1.00  0.00    -0.003 C 
ATOM     20  C   UNL     1     166.475 153.170 154.011  1.00  0.00     0.004 C 
ENDBRANCH  18  19
ENDBRANCH  17  18
ENDBRANCH  16  17
ENDBRANCH  15  16
ENDBRANCH  14  15
ENDBRANCH  13  14
ENDBRANCH  12  13
ENDBRANCH   1  12
TORSDOF 16
ENDMDL
MODEL 6
REMARK VINA RESULT:    -5.420      1.846      4.012
REMARK INTER + INTRA:         -13.047
REMARK INTER:                 -10.612
REMARK INTRA:                  -2.435
REMARK UNBOUND:                -2.558
REMARK SMILES CCCCCCCCCCCCCCCCCC(=O)[O-]
REMARK SMILES IDX 10 1 11 2 12 3 13 4 14 5 15 6 16 7 17 8 18 9 19 10 20 11
REMARK SMILES IDX 9 12 8 13 7 14 6 15 5 16 4 17 3 18 2 19 1 20
REMARK H PARENT
REMARK Flexibility Score: inf
ROOT
ATOM      1  C   UNL     1     163.589 150.485 151.495  1.00  0.00     0.000 C 
ENDROOT
BRANCH   1   2
ATOM      2  C   UNL     1     163.846 151.873 152.108  1.00  0.00     0.000 C 
BRANCH   2   3
ATOM      3  C   UNL     1     164.704 151.871 153.387  1.00  0.00     0.000 C 
BRANCH   3   4
ATOM      4  C   UNL     1     165.907 152.828 153.300  1.00  0.00     0.000 C 
BRANCH   4   5
ATOM      5  C   UNL     1     166.527 152.858 151.893  1.00  0.00     0.000 C 
BRANCH   5   6
ATOM      6  C   UNL     1     166.769 154.290 151.362  1.00  0.00     0.000 C 
BRANCH   6   7
ATOM      7  C   UNL     1     165.501 154.958 150.800  1.00  0.00     0.006 C 
BRANCH   7   8
ATOM      8  C   UNL     1     165.261 156.381 151.328  1.00  0.00     0.053 C 
BRANCH   8   9
ATOM      9  C   UNL     1     165.179 156.414 152.825  1.00  0.00     0.041 C 
ATOM     10  O   UNL     1     164.113 156.082 153.407  1.00  0.00    -0.550 OA
ATOM     11  O   UNL     1     166.268 156.834 153.577  1.00  0.00    -0.550 OA
ENDBRANCH   8   9
ENDBRANCH   7   8
ENDBRANCH   6   7
ENDBRANCH   5   6
ENDBRANCH   4   5
ENDBRANCH   3   4
ENDBRANCH   2   3
ENDBRANCH   1   2
BRANCH   1  12
ATOM     12  C   UNL     1     163.906 150.432 149.989  1.00  0.00     0.000 C 
BRANCH  12  13
ATOM     13  C   UNL     1     164.059 151.829 149.365  1.00  0.00    -0.000 C 
BRANCH  13  14
ATOM     14  C   UNL     1     164.532 151.781 147.904  1.00  0.00    -0.000 C 
BRANCH  14  15
ATOM     15  C   UNL     1     165.465 152.960 147.591  1.00  0.00    -0.000 C 
BRANCH  15  16
ATOM     16  C   UNL     1     166.841 152.504 147.078  1.00  0.00    -0.000 C 
BRANCH  16  17
ATOM     17  C   UNL     1     167.623 151.695 148.124  1.00  0.00    -0.000 C 
BRANCH  17  18
ATOM     18  C   UNL     1     169.133 151.924 147.982  1.00  0.00    -0.000 C 
BRANCH  18  19
ATOM     19  C   UNL     1     169.576 153.170 148.757  1.00  0.00    -0.003 C 
ATOM     20  C   UNL     1     169.913 152.831 150.206  1.00  0.00     0.004 C 
ENDBRANCH  18  19
ENDBRANCH  17  18
ENDBRANCH  16  17
ENDBRANCH  15  16
ENDBRANCH  14  15
ENDBRANCH  13  14
ENDBRANCH  12  13
ENDBRANCH   1  12
TORSDOF 16
ENDMDL
MODEL 7
REMARK VINA RESULT:    -5.411      1.394      3.262
REMARK INTER + INTRA:         -13.030
REMARK INTER:                 -11.026
REMARK INTRA:                  -2.004
REMARK UNBOUND:                -2.558
REMARK SMILES CCCCCCCCCCCCCCCCCC(=O)[O-]
REMARK SMILES IDX 10 1 11 2 12 3 13 4 14 5 15 6 16 7 17 8 18 9 19 10 20 11
REMARK SMILES IDX 9 12 8 13 7 14 6 15 5 16 4 17 3 18 2 19 1 20
REMARK H PARENT
REMARK Flexibility Score: inf
ROOT
ATOM      1  C   UNL     1     165.334 152.147 152.146  1.00  0.00     0.000 C 
ENDROOT
BRANCH   1   2
ATOM      2  C   UNL     1     165.400 152.323 153.674  1.00  0.00     0.000 C 
BRANCH   2   3
ATOM      3  C   UNL     1     166.473 153.310 154.170  1.00  0.00     0.000 C 
BRANCH   3   4
ATOM      4  C   UNL     1     166.799 154.405 153.139  1.00  0.00     0.000 C 
BRANCH   4   5
ATOM      5  C   UNL     1     165.905 155.646 153.306  1.00  0.00     0.000 C 
BRANCH   5   6
ATOM      6  C   UNL     1     165.023 155.935 152.069  1.00  0.00     0.000 C 
BRANCH   6   7
ATOM      7  C   UNL     1     165.618 156.995 151.125  1.00  0.00     0.006 C 
BRANCH   7   8
ATOM      8  C   UNL     1     165.858 158.357 151.792  1.00  0.00     0.053 C 
BRANCH   8   9
ATOM      9  C   UNL     1     166.359 159.378 150.815  1.00  0.00     0.041 C 
ATOM     10  O   UNL     1     167.415 160.020 151.057  1.00  0.00    -0.550 OA
ATOM     11  O   UNL     1     165.652 159.638 149.649  1.00  0.00    -0.550 OA
ENDBRANCH   8   9
ENDBRANCH   7   8
ENDBRANCH   6   7
ENDBRANCH   5   6
ENDBRANCH   4   5
ENDBRANCH   3   4
ENDBRANCH   2   3
ENDBRANCH   1   2
BRANCH   1  12
ATOM     12  C   UNL     1     164.014 151.507 151.678  1.00  0.00     0.000 C 
BRANCH  12  13
ATOM     13  C   UNL     1     164.096 150.960 150.243  1.00  0.00    -0.000 C 
BRANCH  13  14
ATOM     14  C   UNL     1     164.172 152.070 149.184  1.00  0.00    -0.000 C 
BRANCH  14  15
ATOM     15  C   UNL     1     164.732 151.527 147.860  1.00  0.00    -0.000 C 
BRANCH  15  16
ATOM     16  C   UNL     1     165.448 152.609 147.034  1.00  0.00    -0.000 C 
BRANCH  16  17
ATOM     17  C   UNL     1     166.824 152.976 147.608  1.00  0.00    -0.000 C 
BRANCH  17  18
ATOM     18  C   UNL     1     166.791 154.354 148.279  1.00  0.00    -0.000 C 
BRANCH  18  19
ATOM     19  C   UNL     1     167.639 154.366 149.557  1.00  0.00    -0.003 C 
ATOM     20  C   UNL     1     168.157 152.970 149.889  1.00  0.00     0.004 C 
ENDBRANCH  18  19
ENDBRANCH  17  18
ENDBRANCH  16  17
ENDBRANCH  15  16
ENDBRANCH  14  15
ENDBRANCH  13  14
ENDBRANCH  12  13
ENDBRANCH   1  12
TORSDOF 16
ENDMDL
MODEL 8
REMARK VINA RESULT:    -5.390      3.411      6.355
REMARK INTER + INTRA:         -12.989
REMARK INTER:                 -10.262
REMARK INTRA:                  -2.727
REMARK UNBOUND:                -2.558
REMARK SMILES CCCCCCCCCCCCCCCCCC(=O)[O-]
REMARK SMILES IDX 10 1 11 2 12 3 13 4 14 5 15 6 16 7 17 8 18 9 19 10 20 11
REMARK SMILES IDX 9 12 8 13 7 14 6 15 5 16 4 17 3 18 2 19 1 20
REMARK H PARENT
REMARK Flexibility Score: inf
ROOT
ATOM      1  C   UNL     1     167.423 154.227 149.797  1.00  0.00     0.000 C 
ENDROOT
BRANCH   1   2
ATOM      2  C   UNL     1     168.438 153.486 150.685  1.00  0.00     0.000 C 
BRANCH   2   3
ATOM      3  C   UNL     1     169.644 152.887 149.936  1.00  0.00     0.000 C 
BRANCH   3   4
ATOM      4  C   UNL     1     169.961 153.629 148.626  1.00  0.00     0.000 C 
BRANCH   4   5
ATOM      5  C   UNL     1     170.299 152.665 147.477  1.00  0.00     0.000 C 
BRANCH   5   6
ATOM      6  C   UNL     1     169.406 151.403 147.454  1.00  0.00     0.000 C 
BRANCH   6   7
ATOM      7  C   UNL     1     168.128 151.571 146.612  1.00  0.00     0.006 C 
BRANCH   7   8
ATOM      8  C   UNL     1     166.982 150.637 147.029  1.00  0.00     0.053 C 
BRANCH   8   9
ATOM      9  C   UNL     1     165.641 151.205 146.672  1.00  0.00     0.041 C 
ATOM     10  O   UNL     1     165.557 152.177 145.876  1.00  0.00    -0.550 OA
ATOM     11  O   UNL     1     164.486 150.677 147.232  1.00  0.00    -0.550 OA
ENDBRANCH   8   9
ENDBRANCH   7   8
ENDBRANCH   6   7
ENDBRANCH   5   6
ENDBRANCH   4   5
ENDBRANCH   3   4
ENDBRANCH   2   3
ENDBRANCH   1   2
BRANCH   1  12
ATOM     12  C   UNL     1     166.140 153.413 149.553  1.00  0.00     0.000 C 
BRANCH  12  13
ATOM     13  C   UNL     1     166.096 152.113 150.374  1.00  0.00    -0.000 C 
BRANCH  13  14
ATOM     14  C   UNL     1     164.675 151.549 150.523  1.00  0.00    -0.000 C 
BRANCH  14  15
ATOM     15  C   UNL     1     164.199 151.643 151.981  1.00  0.00    -0.000 C 
BRANCH  15  16
ATOM     16  C   UNL     1     163.497 152.977 152.287  1.00  0.00    -0.000 C 
BRANCH  16  17
ATOM     17  C   UNL     1     164.276 153.837 153.294  1.00  0.00    -0.000 C 
BRANCH  17  18
ATOM     18  C   UNL     1     165.275 152.987 154.088  1.00  0.00    -0.000 C 
BRANCH  18  19
ATOM     19  C   UNL     1     166.702 153.524 153.933  1.00  0.00    -0.003 C 
ATOM     20  C   UNL     1     166.699 154.984 153.488  1.00  0.00     0.004 C 
ENDBRANCH  18  19
ENDBRANCH  17  18
ENDBRANCH  16  17
ENDBRANCH  15  16
ENDBRANCH  14  15
ENDBRANCH  13  14
ENDBRANCH  12  13
ENDBRANCH   1  12
TORSDOF 16
ENDMDL
MODEL 9
REMARK VINA RESULT:    -5.389      3.972      6.740
REMARK INTER + INTRA:         -12.988
REMARK INTER:                 -10.447
REMARK INTRA:                  -2.541
REMARK UNBOUND:                -2.558
REMARK SMILES CCCCCCCCCCCCCCCCCC(=O)[O-]
REMARK SMILES IDX 10 1 11 2 12 3 13 4 14 5 15 6 16 7 17 8 18 9 19 10 20 11
REMARK SMILES IDX 9 12 8 13 7 14 6 15 5 16 4 17 3 18 2 19 1 20
REMARK H PARENT
REMARK Flexibility Score: inf
ROOT
ATOM      1  C   UNL     1     166.021 152.059 147.643  1.00  0.00     0.000 C 
ENDROOT
BRANCH   1   2
ATOM      2  C   UNL     1     166.571 153.495 147.712  1.00  0.00     0.000 C 
BRANCH   2   3
ATOM      3  C   UNL     1     166.583 154.121 149.119  1.00  0.00     0.000 C 
BRANCH   3   4
ATOM      4  C   UNL     1     168.004 154.437 149.619  1.00  0.00     0.000 C 
BRANCH   4   5
ATOM      5  C   UNL     1     168.592 153.294 150.463  1.00  0.00     0.000 C 
BRANCH   5   6
ATOM      6  C   UNL     1     169.986 152.831 149.981  1.00  0.00     0.000 C 
BRANCH   6   7
ATOM      7  C   UNL     1     170.097 152.712 148.449  1.00  0.00     0.006 C 
BRANCH   7   8
ATOM      8  C   UNL     1     169.828 151.298 147.915  1.00  0.00     0.053 C 
BRANCH   8   9
ATOM      9  C   UNL     1     171.097 150.593 147.537  1.00  0.00     0.041 C 
ATOM     10  O   UNL     1     171.278 150.212 146.350  1.00  0.00    -0.550 OA
ATOM     11  O   UNL     1     172.068 150.337 148.495  1.00  0.00    -0.550 OA
ENDBRANCH   8   9
ENDBRANCH   7   8
ENDBRANCH   6   7
ENDBRANCH   5   6
ENDBRANCH   4   5
ENDBRANCH   3   4
ENDBRANCH   2   3
ENDBRANCH   1   2
BRANCH   1  12
ATOM     12  C   UNL     1     164.541 152.008 147.223  1.00  0.00     0.000 C 
BRANCH  12  13
ATOM     13  C   UNL     1     163.622 151.503 148.348  1.00  0.00    -0.000 C 
BRANCH  13  14
ATOM     14  C   UNL     1     164.398 150.878 149.518  1.00  0.00    -0.000 C 
BRANCH  14  15
ATOM     15  C   UNL     1     164.071 151.593 150.837  1.00  0.00    -0.000 C 
BRANCH  15  16
ATOM     16  C   UNL     1     165.325 151.883 151.678  1.00  0.00    -0.000 C 
BRANCH  16  17
ATOM     17  C   UNL     1     165.114 153.029 152.679  1.00  0.00    -0.000 C 
BRANCH  17  18
ATOM     18  C   UNL     1     166.408 153.344 153.438  1.00  0.00    -0.000 C 
BRANCH  18  19
ATOM     19  C   UNL     1     166.730 154.842 153.383  1.00  0.00    -0.003 C 
ATOM     20  C   UNL     1     165.760 155.583 152.468  1.00  0.00     0.004 C 
ENDBRANCH  18  19
ENDBRANCH  17  18
ENDBRANCH  16  17
ENDBRANCH  15  16
ENDBRANCH  14  15
ENDBRANCH  13  14
ENDBRANCH  12  13
ENDBRANCH   1  12
TORSDOF 16
ENDMDL
