MODEL 1
REMARK VINA RESULT:    12.858      0.000      0.000
REMARK INTER + INTRA:          14.267
REMARK INTER:                  13.985
REMARK INTRA:                   0.281
REMARK UNBOUND:                 0.281
REMARK SMILES C[C@H]1[C@H](C)CC[C@]2(C(=O)[O-])CC[C@@]3(C)C(=CC[C@H]4[C@@]5(C)CC[C@@H](O)C(C)(C)[C@@H]5CC[C@]43C)[C@H]12
REMARK SMILES IDX 7 1 6 2 11 3 33 4 5 5 12 6 15 7 2 8 3 9 13 10 16 11 1 12
REMARK SMILES IDX 4 13 14 14 31 15 17 16 18 17 30 18 32 19 19 20 29 21 28 22
REMARK SMILES IDX 21 23 20 24 25 25 22 26 23 27 26 28 27 29 8 30 9 31 10 32
REMARK SMILES IDX 24 33
REMARK H PARENT 24 34
REMARK Flexibility Score: inf
ROOT
ATOM      1  C   UNL     1     -44.257 -27.787   0.327  1.00  0.00     0.017 C 
ATOM      2  C   UNL     1     -43.184 -27.805   1.481  1.00  0.00     0.014 C 
ATOM      3  C   UNL     1     -44.960 -29.194   0.237  1.00  0.00     0.014 C 
ATOM      4  C   UNL     1     -43.617 -27.408  -1.058  1.00  0.00     0.030 C 
ATOM      5  C   UNL     1     -41.776 -27.409   1.033  1.00  0.00     0.004 C 
ATOM      6  C   UNL     1     -45.364 -29.684  -1.172  1.00  0.00     0.013 C 
ATOM      7  C   UNL     1     -44.668 -27.491  -2.177  1.00  0.00    -0.063 C 
ATOM      8  C   UNL     1     -42.306 -28.202  -1.378  1.00  0.00    -0.003 C 
ATOM      9  C   UNL     1     -41.300 -28.233  -0.176  1.00  0.00    -0.011 C 
ATOM     10  C   UNL     1     -45.771 -28.565  -2.195  1.00  0.00    -0.006 C 
ATOM     11  C   UNL     1     -44.640 -26.581  -3.162  1.00  0.00    -0.027 C 
ATOM     12  C   UNL     1     -41.594 -27.632  -2.622  1.00  0.00     0.008 C 
ATOM     13  C   UNL     1     -40.952 -29.676   0.226  1.00  0.00     0.008 C 
ATOM     14  C   UNL     1     -47.122 -27.939  -1.710  1.00  0.00     0.017 C 
ATOM     15  C   UNL     1     -45.923 -29.117  -3.711  1.00  0.00    -0.020 C 
ATOM     16  C   UNL     1     -45.761 -26.498  -4.141  1.00  0.00     0.032 C 
ATOM     17  C   UNL     1     -46.174 -27.887  -4.745  1.00  0.00     0.006 C 
ATOM     18  C   UNL     1     -44.628 -29.927  -4.083  1.00  0.00     0.008 C 
ATOM     19  C   UNL     1     -47.125 -30.125  -3.770  1.00  0.00     0.012 C 
ATOM     20  C   UNL     1     -45.730 -28.136  -6.270  1.00  0.00    -0.025 C 
ATOM     21  C   UNL     1     -44.336 -30.123  -5.571  1.00  0.00     0.005 C 
ATOM     22  C   UNL     1     -44.308 -28.768  -6.304  1.00  0.00     0.003 C 
ATOM     23  C   UNL     1     -45.640 -26.817  -7.091  1.00  0.00     0.010 C 
ATOM     24  C   UNL     1     -46.824 -29.030  -6.945  1.00  0.00     0.012 C 
ATOM     25  C   UNL     1     -43.523 -28.719  -7.715  1.00  0.00    -0.006 C 
ATOM     26  C   UNL     1     -45.389 -27.034  -8.588  1.00  0.00     0.033 C 
ATOM     27  C   UNL     1     -44.404 -28.191  -8.912  1.00  0.00     0.120 C 
ATOM     28  C   UNL     1     -42.983 -30.112  -8.140  1.00  0.00     0.014 C 
ATOM     29  C   UNL     1     -42.279 -27.803  -7.552  1.00  0.00     0.014 C 
ENDROOT
BRANCH   1  30
ATOM     30  C   UNL     1     -45.268 -26.702   0.709  1.00  0.00     0.048 C 
ATOM     31  O   UNL     1     -46.498 -26.959   0.826  1.00  0.00    -0.550 OA
ATOM     32  O   UNL     1     -44.826 -25.428   1.054  1.00  0.00    -0.550 OA
ENDBRANCH   1  30
BRANCH  27  33
ATOM     33  O   UNL     1     -43.617 -27.880 -10.042  1.00  0.00    -0.393 OA
ATOM     34  H   UNL     1     -43.903 -28.452 -10.799  1.00  0.00     0.210 HD
ENDBRANCH  27  33
TORSDOF 2
ENDMDL
