MODEL 1
REMARK VINA RESULT:    -4.016      0.000      0.000
REMARK INTER + INTRA:          -4.386
REMARK INTER:                  -4.368
REMARK INTRA:                  -0.018
REMARK UNBOUND:                -0.018
REMARK SMILES OCc1ccco1
REMARK SMILES IDX 2 1 3 2 5 3 6 4 4 5 7 6 1 7
REMARK H PARENT 1 8
REMARK Flexibility Score: inf
ROOT
ATOM      1  C   UNL     1      23.762  23.578  33.744  1.00  0.00     0.231 C 
ENDROOT
BRANCH   1   2
ATOM      2  C   UNL     1      22.822  24.715  33.987  1.00  0.00     0.129 A 
ATOM      3  C   UNL     1      21.978  26.647  34.603  1.00  0.00     0.042 A 
ATOM      4  C   UNL     1      21.045  25.892  33.920  1.00  0.00     0.195 A 
ATOM      5  C   UNL     1      23.128  25.890  34.644  1.00  0.00     0.048 A 
ATOM      6  O   UNL     1      21.580  24.747  33.563  1.00  0.00    -0.467 OA
ENDBRANCH   1   2
BRANCH   1   7
ATOM      7  O   UNL     1      23.724  23.204  32.395  1.00  0.00    -0.388 OA
ATOM      8  H   UNL     1      23.217  23.912  31.918  1.00  0.00     0.211 HD
ENDBRANCH   1   7
TORSDOF 2
ENDMDL
MODEL 2
REMARK VINA RESULT:    -3.966      9.619     10.454
REMARK INTER + INTRA:          -4.332
REMARK INTER:                  -4.314
REMARK INTRA:                  -0.018
REMARK UNBOUND:                -0.018
REMARK SMILES OCc1ccco1
REMARK SMILES IDX 2 1 3 2 5 3 6 4 4 5 7 6 1 7
REMARK H PARENT 1 8
REMARK Flexibility Score: inf
ROOT
ATOM      1  C   UNL     1      22.623  35.579  28.621  1.00  0.00     0.231 C 
ENDROOT
BRANCH   1   2
ATOM      2  C   UNL     1      22.042  34.269  29.049  1.00  0.00     0.129 A 
ATOM      3  C   UNL     1      21.037  32.695  30.204  1.00  0.00     0.042 A 
ATOM      4  C   UNL     1      21.401  32.238  28.953  1.00  0.00     0.195 A 
ATOM      5  C   UNL     1      21.446  34.010  30.267  1.00  0.00     0.048 A 
ATOM      6  O   UNL     1      21.996  33.201  28.287  1.00  0.00    -0.467 OA
ENDBRANCH   1   2
BRANCH   1   7
ATOM      7  O   UNL     1      23.825  35.370  27.933  1.00  0.00    -0.388 OA
ATOM      8  H   UNL     1      23.735  34.501  27.461  1.00  0.00     0.211 HD
ENDBRANCH   1   7
TORSDOF 2
ENDMDL
MODEL 3
REMARK VINA RESULT:    -3.806     12.063     12.714
REMARK INTER + INTRA:          -4.158
REMARK INTER:                  -4.145
REMARK INTRA:                  -0.013
REMARK UNBOUND:                -0.018
REMARK SMILES OCc1ccco1
REMARK SMILES IDX 2 1 3 2 5 3 6 4 4 5 7 6 1 7
REMARK H PARENT 1 8
REMARK Flexibility Score: inf
ROOT
ATOM      1  C   UNL     1      22.588  19.697  21.910  1.00  0.00     0.231 C 
ENDROOT
BRANCH   1   2
ATOM      2  C   UNL     1      21.215  20.258  22.092  1.00  0.00     0.129 A 
ATOM      3  C   UNL     1      19.205  21.056  21.709  1.00  0.00     0.042 A 
ATOM      4  C   UNL     1      19.433  20.912  23.063  1.00  0.00     0.195 A 
ATOM      5  C   UNL     1      20.353  20.630  21.079  1.00  0.00     0.048 A 
ATOM      6  O   UNL     1      20.639  20.432  23.259  1.00  0.00    -0.467 OA
ENDBRANCH   1   2
BRANCH   1   7
ATOM      7  O   UNL     1      23.536  20.729  21.935  1.00  0.00    -0.388 OA
ATOM      8  H   UNL     1      24.018  20.693  21.067  1.00  0.00     0.211 HD
ENDBRANCH   1   7
TORSDOF 2
ENDMDL
MODEL 4
REMARK VINA RESULT:    -3.787     17.341     17.689
REMARK INTER + INTRA:          -4.137
REMARK INTER:                  -4.123
REMARK INTRA:                  -0.014
REMARK UNBOUND:                -0.018
REMARK SMILES OCc1ccco1
REMARK SMILES IDX 2 1 3 2 5 3 6 4 4 5 7 6 1 7
REMARK H PARENT 1 8
REMARK Flexibility Score: inf
ROOT
ATOM      1  C   UNL     1      34.206  33.157  23.167  1.00  0.00     0.231 C 
ENDROOT
BRANCH   1   2
ATOM      2  C   UNL     1      33.097  33.119  22.165  1.00  0.00     0.129 A 
ATOM      3  C   UNL     1      31.618  33.694  20.647  1.00  0.00     0.042 A 
ATOM      4  C   UNL     1      31.583  32.335  20.885  1.00  0.00     0.195 A 
ATOM      5  C   UNL     1      32.599  34.203  21.470  1.00  0.00     0.048 A 
ATOM      6  O   UNL     1      32.479  32.022  21.793  1.00  0.00    -0.467 OA
ENDBRANCH   1   2
BRANCH   1   7
ATOM      7  O   UNL     1      33.686  33.061  24.464  1.00  0.00    -0.388 OA
ATOM      8  H   UNL     1      34.447  33.205  25.086  1.00  0.00     0.211 HD
ENDBRANCH   1   7
TORSDOF 2
ENDMDL
MODEL 5
REMARK VINA RESULT:    -3.748     17.297     17.553
REMARK INTER + INTRA:          -4.095
REMARK INTER:                  -4.080
REMARK INTRA:                  -0.014
REMARK UNBOUND:                -0.018
REMARK SMILES OCc1ccco1
REMARK SMILES IDX 2 1 3 2 5 3 6 4 4 5 7 6 1 7
REMARK H PARENT 1 8
REMARK Flexibility Score: inf
ROOT
ATOM      1  C   UNL     1      27.499  30.587  17.968  1.00  0.00     0.231 C 
ENDROOT
BRANCH   1   2
ATOM      2  C   UNL     1      26.321  29.859  17.405  1.00  0.00     0.129 A 
ATOM      3  C   UNL     1      25.061  28.439  16.300  1.00  0.00     0.042 A 
ATOM      4  C   UNL     1      24.294  29.281  17.080  1.00  0.00     0.195 A 
ATOM      5  C   UNL     1      26.372  28.808  16.512  1.00  0.00     0.048 A 
ATOM      6  O   UNL     1      25.074  30.115  17.729  1.00  0.00    -0.467 OA
ENDBRANCH   1   2
BRANCH   1   7
ATOM      7  O   UNL     1      27.889  30.005  19.181  1.00  0.00    -0.388 OA
ATOM      8  H   UNL     1      28.256  30.737  19.742  1.00  0.00     0.211 HD
ENDBRANCH   1   7
TORSDOF 2
ENDMDL
MODEL 6
REMARK VINA RESULT:    -3.739     17.708     18.047
REMARK INTER + INTRA:          -4.085
REMARK INTER:                  -4.063
REMARK INTRA:                  -0.021
REMARK UNBOUND:                -0.018
REMARK SMILES OCc1ccco1
REMARK SMILES IDX 2 1 3 2 5 3 6 4 4 5 7 6 1 7
REMARK H PARENT 1 8
REMARK Flexibility Score: inf
ROOT
ATOM      1  C   UNL     1      29.150  31.317  18.329  1.00  0.00     0.231 C 
ENDROOT
BRANCH   1   2
ATOM      2  C   UNL     1      30.404  31.657  19.069  1.00  0.00     0.129 A 
ATOM      3  C   UNL     1      32.492  32.131  19.556  1.00  0.00     0.042 A 
ATOM      4  C   UNL     1      31.692  32.202  20.678  1.00  0.00     0.195 A 
ATOM      5  C   UNL     1      31.661  31.783  18.513  1.00  0.00     0.048 A 
ATOM      6  O   UNL     1      30.452  31.917  20.355  1.00  0.00    -0.467 OA
ENDBRANCH   1   2
BRANCH   1   7
ATOM      7  O   UNL     1      28.071  31.241  19.220  1.00  0.00    -0.388 OA
ATOM      8  H   UNL     1      28.383  31.633  20.077  1.00  0.00     0.211 HD
ENDBRANCH   1   7
TORSDOF 2
ENDMDL
MODEL 7
REMARK VINA RESULT:    -3.708     17.665     17.959
REMARK INTER + INTRA:          -4.052
REMARK INTER:                  -4.032
REMARK INTRA:                  -0.020
REMARK UNBOUND:                -0.018
REMARK SMILES OCc1ccco1
REMARK SMILES IDX 2 1 3 2 5 3 6 4 4 5 7 6 1 7
REMARK H PARENT 1 8
REMARK Flexibility Score: inf
ROOT
ATOM      1  C   UNL     1      30.677  32.059  19.627  1.00  0.00     0.231 C 
ENDROOT
BRANCH   1   2
ATOM      2  C   UNL     1      29.669  31.401  18.742  1.00  0.00     0.129 A 
ATOM      3  C   UNL     1      28.659  30.520  17.002  1.00  0.00     0.042 A 
ATOM      4  C   UNL     1      27.891  30.389  18.141  1.00  0.00     0.195 A 
ATOM      5  C   UNL     1      29.811  31.169  17.388  1.00  0.00     0.048 A 
ATOM      6  O   UNL     1      28.521  30.922  19.162  1.00  0.00    -0.467 OA
ENDBRANCH   1   2
BRANCH   1   7
ATOM      7  O   UNL     1      30.040  32.648  20.727  1.00  0.00    -0.388 OA
ATOM      8  H   UNL     1      29.524  31.927  21.176  1.00  0.00     0.211 HD
ENDBRANCH   1   7
TORSDOF 2
ENDMDL
MODEL 8
REMARK VINA RESULT:    -3.605     12.347     12.789
REMARK INTER + INTRA:          -3.940
REMARK INTER:                  -3.919
REMARK INTRA:                  -0.020
REMARK UNBOUND:                -0.018
REMARK SMILES OCc1ccco1
REMARK SMILES IDX 2 1 3 2 5 3 6 4 4 5 7 6 1 7
REMARK H PARENT 1 8
REMARK Flexibility Score: inf
ROOT
ATOM      1  C   UNL     1      28.249  34.895  29.672  1.00  0.00     0.231 C 
ENDROOT
BRANCH   1   2
ATOM      2  C   UNL     1      27.292  35.642  28.799  1.00  0.00     0.129 A 
ATOM      3  C   UNL     1      26.426  36.822  27.162  1.00  0.00     0.042 A 
ATOM      4  C   UNL     1      25.451  36.414  28.050  1.00  0.00     0.195 A 
ATOM      5  C   UNL     1      27.617  36.321  27.641  1.00  0.00     0.048 A 
ATOM      6  O   UNL     1      25.999  35.710  29.013  1.00  0.00    -0.467 OA
ENDBRANCH   1   2
BRANCH   1   7
ATOM      7  O   UNL     1      27.599  33.815  30.284  1.00  0.00    -0.388 OA
ATOM      8  H   UNL     1      26.975  33.440  29.608  1.00  0.00     0.211 HD
ENDBRANCH   1   7
TORSDOF 2
ENDMDL
MODEL 9
REMARK VINA RESULT:    -3.569     17.532     17.894
REMARK INTER + INTRA:          -3.900
REMARK INTER:                  -3.887
REMARK INTRA:                  -0.014
REMARK UNBOUND:                -0.018
REMARK SMILES OCc1ccco1
REMARK SMILES IDX 2 1 3 2 5 3 6 4 4 5 7 6 1 7
REMARK H PARENT 1 8
REMARK Flexibility Score: inf
ROOT
ATOM      1  C   UNL     1      31.022  31.956  19.983  1.00  0.00     0.231 C 
ENDROOT
BRANCH   1   2
ATOM      2  C   UNL     1      32.004  32.679  20.848  1.00  0.00     0.129 A 
ATOM      3  C   UNL     1      33.211  34.252  21.792  1.00  0.00     0.042 A 
ATOM      4  C   UNL     1      33.448  33.025  22.378  1.00  0.00     0.195 A 
ATOM      5  C   UNL     1      32.274  34.032  20.805  1.00  0.00     0.048 A 
ATOM      6  O   UNL     1      32.711  32.108  21.795  1.00  0.00    -0.467 OA
ENDBRANCH   1   2
BRANCH   1   7
ATOM      7  O   UNL     1      29.715  32.325  20.327  1.00  0.00    -0.388 OA
ATOM      8  H   UNL     1      29.157  31.509  20.238  1.00  0.00     0.211 HD
ENDBRANCH   1   7
TORSDOF 2
ENDMDL
