MODEL 1
REMARK VINA RESULT:    -6.276      0.000      0.000
REMARK INTER + INTRA:         -12.783
REMARK INTER:                 -10.863
REMARK INTRA:                  -1.920
REMARK UNBOUND:                -1.920
REMARK SMILES OC[C@@H]1O[C@@H](O[C@H]2[C@H](O)[C@@H](O)[C@H](O[C@H]3[C@@H](O)[C@@H](O)[C@@H](O)O[C@@H]3CO)O[C@@H]2CO)[C@H](O)[C@@H](O)[C@@H]1O
REMARK SMILES IDX 7 1 26 2 25 3 12 4 10 5 8 6 6 7 5 8 3 9 33 10 4 11 31 12
REMARK SMILES IDX 29 13 2 14 1 15 34 17 32 19 30 21 27 23 28 24 9 26 11 28
REMARK SMILES IDX 13 30 14 31 22 32 15 33 21 34 17 35 19 36 23 37 24 38 16 40
REMARK SMILES IDX 18 42 20 44
REMARK H PARENT 1 16 34 18 32 20 30 22 28 25 9 27 11 29 24 39 16 41 18 43
REMARK H PARENT 20 45
REMARK Flexibility Score: inf
ROOT
ATOM      1  C   UNL     1      36.064   3.289  42.110  1.00  0.00     0.184 C 
ATOM      2  C   UNL     1      36.307   3.622  43.631  1.00  0.00     0.178 C 
ATOM      3  O   UNL     1      36.561   4.995  43.893  1.00  0.00    -0.341 OA
ATOM      4  C   UNL     1      37.126   5.742  42.814  1.00  0.00     0.282 C 
ATOM      5  C   UNL     1      38.076   4.909  41.924  1.00  0.00     0.202 C 
ATOM      6  C   UNL     1      37.249   3.806  41.226  1.00  0.00     0.180 C 
ENDROOT
BRANCH   1   7
ATOM      7  O   UNL     1      34.875   3.900  41.581  1.00  0.00    -0.341 OA
BRANCH   7   8
ATOM      8  C   UNL     1      33.773   3.015  41.450  1.00  0.00     0.282 C 
ATOM      9  C   UNL     1      32.275   1.586  42.622  1.00  0.00     0.178 C 
ATOM     10  C   UNL     1      31.774   1.181  41.195  1.00  0.00     0.177 C 
ATOM     11  O   UNL     1      33.426   2.442  42.697  1.00  0.00    -0.341 OA
ATOM     12  C   UNL     1      32.969   0.895  40.248  1.00  0.00     0.179 C 
ATOM     13  C   UNL     1      34.145   1.898  40.462  1.00  0.00     0.202 C 
BRANCH   9  14
ATOM     14  C   UNL     1      31.153   2.197  43.471  1.00  0.00     0.191 C 
BRANCH  14  15
ATOM     15  O   UNL     1      29.985   1.439  43.352  1.00  0.00    -0.394 OA
ATOM     16  H   UNL     1      30.278   0.570  42.978  1.00  0.00     0.210 HD
ENDBRANCH  14  15
ENDBRANCH   9  14
BRANCH  10  17
ATOM     17  O   UNL     1      30.965   2.192  40.635  1.00  0.00    -0.387 OA
ATOM     18  H   UNL     1      30.275   2.436  41.302  1.00  0.00     0.211 HD
ENDBRANCH  10  17
BRANCH  12  19
ATOM     19  O   UNL     1      33.413  -0.428  40.454  1.00  0.00    -0.387 OA
ATOM     20  H   UNL     1      33.378  -0.581  41.433  1.00  0.00     0.211 HD
ENDBRANCH  12  19
BRANCH  13  21
ATOM     21  O   UNL     1      34.584   2.429  39.242  1.00  0.00    -0.385 OA
ATOM     22  H   UNL     1      35.572   2.495  39.284  1.00  0.00     0.211 HD
ENDBRANCH  13  21
ENDBRANCH   7   8
ENDBRANCH   1   7
BRANCH   2  23
ATOM     23  C   UNL     1      37.402   2.749  44.305  1.00  0.00     0.191 C 
BRANCH  23  24
ATOM     24  O   UNL     1      37.702   3.239  45.590  1.00  0.00    -0.394 OA
ATOM     25  H   UNL     1      37.475   2.521  46.233  1.00  0.00     0.210 HD
ENDBRANCH  23  24
ENDBRANCH   2  23
BRANCH   6  26
ATOM     26  O   UNL     1      38.061   2.760  40.727  1.00  0.00    -0.387 OA
ATOM     27  H   UNL     1      37.475   2.155  40.200  1.00  0.00     0.211 HD
ENDBRANCH   6  26
BRANCH   5  28
ATOM     28  O   UNL     1      38.668   5.745  40.958  1.00  0.00    -0.385 OA
ATOM     29  H   UNL     1      39.464   5.277  40.592  1.00  0.00     0.211 HD
ENDBRANCH   5  28
BRANCH   4  30
ATOM     30  O   UNL     1      37.847   6.848  43.338  1.00  0.00    -0.341 OA
BRANCH  30  31
ATOM     31  C   UNL     1      37.046   8.020  43.422  1.00  0.00     0.184 C 
ATOM     32  C   UNL     1      37.869   9.214  42.879  1.00  0.00     0.178 C 
ATOM     33  C   UNL     1      36.569   8.290  44.877  1.00  0.00     0.180 C 
ATOM     34  O   UNL     1      37.280  10.431  43.301  1.00  0.00    -0.342 OA
ATOM     35  C   UNL     1      37.452   9.357  45.572  1.00  0.00     0.201 C 
ATOM     36  C   UNL     1      37.474  10.653  44.702  1.00  0.00     0.279 C 
BRANCH  32  37
ATOM     37  C   UNL     1      37.945   9.184  41.352  1.00  0.00     0.191 C 
BRANCH  37  38
ATOM     38  O   UNL     1      39.050   8.421  40.937  1.00  0.00    -0.394 OA
ATOM     39  H   UNL     1      39.300   7.836  41.712  1.00  0.00     0.210 HD
ENDBRANCH  37  38
ENDBRANCH  32  37
BRANCH  33  40
ATOM     40  O   UNL     1      36.518   7.109  45.640  1.00  0.00    -0.387 OA
ATOM     41  H   UNL     1      37.096   6.442  45.174  1.00  0.00     0.211 HD
ENDBRANCH  33  40
BRANCH  35  42
ATOM     42  O   UNL     1      38.768   8.907  45.807  1.00  0.00    -0.385 OA
ATOM     43  H   UNL     1      38.706   8.051  46.311  1.00  0.00     0.211 HD
ENDBRANCH  35  42
BRANCH  36  44
ATOM     44  O   UNL     1      38.651  11.383  44.897  1.00  0.00    -0.366 OA
ATOM     45  H   UNL     1      38.864  11.831  44.037  1.00  0.00     0.213 HD
ENDBRANCH  36  44
ENDBRANCH  30  31
ENDBRANCH   4  30
TORSDOF 18
ENDMDL
MODEL 2
REMARK VINA RESULT:    -6.246      1.319      2.104
REMARK INTER + INTRA:         -12.731
REMARK INTER:                 -11.136
REMARK INTRA:                  -1.596
REMARK UNBOUND:                -1.920
REMARK SMILES OC[C@@H]1O[C@@H](O[C@H]2[C@H](O)[C@@H](O)[C@H](O[C@H]3[C@@H](O)[C@@H](O)[C@@H](O)O[C@@H]3CO)O[C@@H]2CO)[C@H](O)[C@@H](O)[C@@H]1O
REMARK SMILES IDX 7 1 26 2 25 3 12 4 10 5 8 6 6 7 5 8 3 9 33 10 4 11 31 12
REMARK SMILES IDX 29 13 2 14 1 15 34 17 32 19 30 21 27 23 28 24 9 26 11 28
REMARK SMILES IDX 13 30 14 31 22 32 15 33 21 34 17 35 19 36 23 37 24 38 16 40
REMARK SMILES IDX 18 42 20 44
REMARK H PARENT 1 16 34 18 32 20 30 22 28 25 9 27 11 29 24 39 16 41 18 43
REMARK H PARENT 20 45
REMARK Flexibility Score: inf
ROOT
ATOM      1  C   UNL     1      36.420   3.167  42.076  1.00  0.00     0.184 C 
ATOM      2  C   UNL     1      36.563   3.470  43.616  1.00  0.00     0.178 C 
ATOM      3  O   UNL     1      36.738   4.845  43.925  1.00  0.00    -0.341 OA
ATOM      4  C   UNL     1      37.327   5.646  42.899  1.00  0.00     0.282 C 
ATOM      5  C   UNL     1      38.362   4.881  42.044  1.00  0.00     0.202 C 
ATOM      6  C   UNL     1      37.627   3.760  41.274  1.00  0.00     0.180 C 
ENDROOT
BRANCH   1   7
ATOM      7  O   UNL     1      35.235   3.739  41.496  1.00  0.00    -0.341 OA
BRANCH   7   8
ATOM      8  C   UNL     1      34.330   2.786  40.958  1.00  0.00     0.282 C 
ATOM      9  C   UNL     1      34.063   1.041  39.364  1.00  0.00     0.178 C 
ATOM     10  C   UNL     1      32.558   1.074  39.794  1.00  0.00     0.177 C 
ATOM     11  O   UNL     1      34.923   2.059  39.897  1.00  0.00    -0.341 OA
ATOM     12  C   UNL     1      32.030   2.532  39.850  1.00  0.00     0.179 C 
ATOM     13  C   UNL     1      33.085   3.521  40.437  1.00  0.00     0.202 C 
BRANCH   9  14
ATOM     14  C   UNL     1      34.703  -0.329  39.625  1.00  0.00     0.191 C 
BRANCH  14  15
ATOM     15  O   UNL     1      33.840  -1.353  39.225  1.00  0.00    -0.394 OA
ATOM     16  H   UNL     1      32.935  -1.043  39.480  1.00  0.00     0.210 HD
ENDBRANCH  14  15
ENDBRANCH   9  14
BRANCH  10  17
ATOM     17  O   UNL     1      32.376   0.463  41.052  1.00  0.00    -0.387 OA
ATOM     18  H   UNL     1      31.830   1.071  41.612  1.00  0.00     0.211 HD
ENDBRANCH  10  17
BRANCH  12  19
ATOM     19  O   UNL     1      31.655   2.935  38.550  1.00  0.00    -0.387 OA
ATOM     20  H   UNL     1      30.664   2.946  38.541  1.00  0.00     0.211 HD
ENDBRANCH  12  19
BRANCH  13  21
ATOM     21  O   UNL     1      32.520   4.326  41.435  1.00  0.00    -0.385 OA
ATOM     22  H   UNL     1      31.714   3.859  41.775  1.00  0.00     0.211 HD
ENDBRANCH  13  21
ENDBRANCH   7   8
ENDBRANCH   1   7
BRANCH   2  23
ATOM     23  C   UNL     1      37.658   2.629  44.329  1.00  0.00     0.191 C 
BRANCH  23  24
ATOM     24  O   UNL     1      37.802   3.040  45.667  1.00  0.00    -0.394 OA
ATOM     25  H   UNL     1      36.890   3.149  46.036  1.00  0.00     0.210 HD
ENDBRANCH  23  24
ENDBRANCH   2  23
BRANCH   6  26
ATOM     26  O   UNL     1      38.512   2.766  40.796  1.00  0.00    -0.387 OA
ATOM     27  H   UNL     1      38.388   2.706  39.812  1.00  0.00     0.211 HD
ENDBRANCH   6  26
BRANCH   5  28
ATOM     28  O   UNL     1      38.967   5.768  41.133  1.00  0.00    -0.385 OA
ATOM     29  H   UNL     1      39.662   5.267  40.630  1.00  0.00     0.211 HD
ENDBRANCH   5  28
BRANCH   4  30
ATOM     30  O   UNL     1      37.966   6.768  43.490  1.00  0.00    -0.341 OA
BRANCH  30  31
ATOM     31  C   UNL     1      37.151   7.933  43.448  1.00  0.00     0.184 C 
ATOM     32  C   UNL     1      37.997   9.101  42.885  1.00  0.00     0.178 C 
ATOM     33  C   UNL     1      36.578   8.287  44.850  1.00  0.00     0.180 C 
ATOM     34  O   UNL     1      37.372  10.334  43.192  1.00  0.00    -0.342 OA
ATOM     35  C   UNL     1      37.406   9.406  45.531  1.00  0.00     0.201 C 
ATOM     36  C   UNL     1      37.473  10.646  44.585  1.00  0.00     0.279 C 
BRANCH  32  37
ATOM     37  C   UNL     1      38.172   8.977  41.372  1.00  0.00     0.191 C 
BRANCH  37  38
ATOM     38  O   UNL     1      37.778  10.169  40.738  1.00  0.00    -0.394 OA
ATOM     39  H   UNL     1      36.904  10.436  41.151  1.00  0.00     0.210 HD
ENDBRANCH  37  38
ENDBRANCH  32  37
BRANCH  33  40
ATOM     40  O   UNL     1      36.489   7.155  45.681  1.00  0.00    -0.387 OA
ATOM     41  H   UNL     1      36.176   7.478  46.572  1.00  0.00     0.211 HD
ENDBRANCH  33  40
BRANCH  35  42
ATOM     42  O   UNL     1      38.707   8.988  45.878  1.00  0.00    -0.385 OA
ATOM     43  H   UNL     1      39.104   8.548  45.079  1.00  0.00     0.211 HD
ENDBRANCH  35  42
BRANCH  36  44
ATOM     44  O   UNL     1      38.629  11.401  44.809  1.00  0.00    -0.366 OA
ATOM     45  H   UNL     1      38.564  11.769  45.729  1.00  0.00     0.213 HD
ENDBRANCH  36  44
ENDBRANCH  30  31
ENDBRANCH   4  30
TORSDOF 18
ENDMDL
MODEL 3
REMARK VINA RESULT:    -6.245      2.214      8.736
REMARK INTER + INTRA:         -12.729
REMARK INTER:                 -10.253
REMARK INTRA:                  -2.476
REMARK UNBOUND:                -1.920
REMARK SMILES OC[C@@H]1O[C@@H](O[C@H]2[C@H](O)[C@@H](O)[C@H](O[C@H]3[C@@H](O)[C@@H](O)[C@@H](O)O[C@@H]3CO)O[C@@H]2CO)[C@H](O)[C@@H](O)[C@@H]1O
REMARK SMILES IDX 7 1 26 2 25 3 12 4 10 5 8 6 6 7 5 8 3 9 33 10 4 11 31 12
REMARK SMILES IDX 29 13 2 14 1 15 34 17 32 19 30 21 27 23 28 24 9 26 11 28
REMARK SMILES IDX 13 30 14 31 22 32 15 33 21 34 17 35 19 36 23 37 24 38 16 40
REMARK SMILES IDX 18 42 20 44
REMARK H PARENT 1 16 34 18 32 20 30 22 28 25 9 27 11 29 24 39 16 41 18 43
REMARK H PARENT 20 45
REMARK Flexibility Score: inf
ROOT
ATOM      1  C   UNL     1      33.718   4.464  41.700  1.00  0.00     0.184 C 
ATOM      2  C   UNL     1      33.701   2.933  42.076  1.00  0.00     0.178 C 
ATOM      3  O   UNL     1      33.957   2.062  40.983  1.00  0.00    -0.341 OA
ATOM      4  C   UNL     1      33.621   2.569  39.689  1.00  0.00     0.282 C 
ATOM      5  C   UNL     1      32.388   3.499  39.699  1.00  0.00     0.202 C 
ATOM      6  C   UNL     1      32.733   4.762  40.519  1.00  0.00     0.180 C 
ENDROOT
BRANCH   1   7
ATOM      7  O   UNL     1      35.009   4.925  41.271  1.00  0.00    -0.341 OA
BRANCH   7   8
ATOM      8  C   UNL     1      36.010   4.880  42.277  1.00  0.00     0.282 C 
ATOM      9  C   UNL     1      37.382   6.185  43.716  1.00  0.00     0.178 C 
ATOM     10  C   UNL     1      38.053   4.818  44.079  1.00  0.00     0.177 C 
ATOM     11  O   UNL     1      36.414   6.183  42.655  1.00  0.00    -0.341 OA
ATOM     12  C   UNL     1      38.361   3.994  42.800  1.00  0.00     0.179 C 
ATOM     13  C   UNL     1      37.224   4.107  41.737  1.00  0.00     0.202 C 
BRANCH   9  14
ATOM     14  C   UNL     1      36.762   6.863  44.945  1.00  0.00     0.191 C 
BRANCH  14  15
ATOM     15  O   UNL     1      37.648   7.804  45.479  1.00  0.00    -0.394 OA
ATOM     16  H   UNL     1      38.298   7.987  44.755  1.00  0.00     0.210 HD
ENDBRANCH  14  15
ENDBRANCH   9  14
BRANCH  10  17
ATOM     17  O   UNL     1      37.228   4.060  44.936  1.00  0.00    -0.387 OA
ATOM     18  H   UNL     1      37.297   3.110  44.666  1.00  0.00     0.211 HD
ENDBRANCH  10  17
BRANCH  12  19
ATOM     19  O   UNL     1      39.585   4.435  42.253  1.00  0.00    -0.387 OA
ATOM     20  H   UNL     1      40.105   3.617  42.047  1.00  0.00     0.211 HD
ENDBRANCH  12  19
BRANCH  13  21
ATOM     21  O   UNL     1      36.848   2.842  41.266  1.00  0.00    -0.385 OA
ATOM     22  H   UNL     1      35.878   2.876  41.062  1.00  0.00     0.211 HD
ENDBRANCH  13  21
ENDBRANCH   7   8
ENDBRANCH   1   7
BRANCH   2  23
ATOM     23  C   UNL     1      32.415   2.475  42.819  1.00  0.00     0.191 C 
BRANCH  23  24
ATOM     24  O   UNL     1      32.246   1.083  42.700  1.00  0.00    -0.394 OA
ATOM     25  H   UNL     1      31.639   0.803  43.430  1.00  0.00     0.210 HD
ENDBRANCH  23  24
ENDBRANCH   2  23
BRANCH   6  26
ATOM     26  O   UNL     1      31.579   5.469  40.930  1.00  0.00    -0.387 OA
ATOM     27  H   UNL     1      31.090   4.892  41.572  1.00  0.00     0.211 HD
ENDBRANCH   6  26
BRANCH   5  28
ATOM     28  O   UNL     1      32.064   3.863  38.377  1.00  0.00    -0.385 OA
ATOM     29  H   UNL     1      32.910   3.936  37.862  1.00  0.00     0.211 HD
ENDBRANCH   5  28
BRANCH   4  30
ATOM     30  O   UNL     1      33.364   1.480  38.814  1.00  0.00    -0.341 OA
BRANCH  30  31
ATOM     31  C   UNL     1      33.811   0.242  39.351  1.00  0.00     0.184 C 
ATOM     32  C   UNL     1      34.689  -0.464  38.289  1.00  0.00     0.178 C 
ATOM     33  C   UNL     1      32.623  -0.664  39.781  1.00  0.00     0.180 C 
ATOM     34  O   UNL     1      34.822  -1.836  38.614  1.00  0.00    -0.342 OA
ATOM     35  C   UNL     1      32.308  -1.731  38.702  1.00  0.00     0.201 C 
ATOM     36  C   UNL     1      33.601  -2.551  38.396  1.00  0.00     0.279 C 
BRANCH  32  37
ATOM     37  C   UNL     1      36.073   0.179  38.199  1.00  0.00     0.191 C 
BRANCH  37  38
ATOM     38  O   UNL     1      36.404   0.790  39.420  1.00  0.00    -0.394 OA
ATOM     39  H   UNL     1      37.405   0.788  39.478  1.00  0.00     0.210 HD
ENDBRANCH  37  38
ENDBRANCH  32  37
BRANCH  33  40
ATOM     40  O   UNL     1      31.475   0.089  40.090  1.00  0.00    -0.387 OA
ATOM     41  H   UNL     1      31.602   0.988  39.676  1.00  0.00     0.211 HD
ENDBRANCH  33  40
BRANCH  35  42
ATOM     42  O   UNL     1      31.794  -1.171  37.515  1.00  0.00    -0.385 OA
ATOM     43  H   UNL     1      30.811  -1.316  37.515  1.00  0.00     0.211 HD
ENDBRANCH  35  42
BRANCH  36  44
ATOM     44  O   UNL     1      33.588  -3.063  37.095  1.00  0.00    -0.366 OA
ATOM     45  H   UNL     1      33.110  -2.405  36.526  1.00  0.00     0.213 HD
ENDBRANCH  36  44
ENDBRANCH  30  31
ENDBRANCH   4  30
TORSDOF 18
ENDMDL
MODEL 4
REMARK VINA RESULT:    -5.756     14.358     16.006
REMARK INTER + INTRA:         -11.882
REMARK INTER:                 -10.095
REMARK INTRA:                  -1.787
REMARK UNBOUND:                -1.920
REMARK SMILES OC[C@@H]1O[C@@H](O[C@H]2[C@H](O)[C@@H](O)[C@H](O[C@H]3[C@@H](O)[C@@H](O)[C@@H](O)O[C@@H]3CO)O[C@@H]2CO)[C@H](O)[C@@H](O)[C@@H]1O
REMARK SMILES IDX 7 1 26 2 25 3 12 4 10 5 8 6 6 7 5 8 3 9 33 10 4 11 31 12
REMARK SMILES IDX 29 13 2 14 1 15 34 17 32 19 30 21 27 23 28 24 9 26 11 28
REMARK SMILES IDX 13 30 14 31 22 32 15 33 21 34 17 35 19 36 23 37 24 38 16 40
REMARK SMILES IDX 18 42 20 44
REMARK H PARENT 1 16 34 18 32 20 30 22 28 25 9 27 11 29 24 39 16 41 18 43
REMARK H PARENT 20 45
REMARK Flexibility Score: inf
ROOT
ATOM      1  C   UNL     1      22.200   0.773  34.834  1.00  0.00     0.184 C 
ATOM      2  C   UNL     1      21.971   2.308  35.109  1.00  0.00     0.178 C 
ATOM      3  O   UNL     1      21.917   2.651  36.486  1.00  0.00    -0.341 OA
ATOM      4  C   UNL     1      21.495   1.612  37.372  1.00  0.00     0.282 C 
ATOM      5  C   UNL     1      20.455   0.658  36.744  1.00  0.00     0.202 C 
ATOM      6  C   UNL     1      21.126  -0.095  35.573  1.00  0.00     0.180 C 
ENDROOT
BRANCH   1   7
ATOM      7  O   UNL     1      23.478   0.302  35.291  1.00  0.00    -0.341 OA
BRANCH   7   8
ATOM      8  C   UNL     1      23.441  -0.970  35.920  1.00  0.00     0.282 C 
ATOM      9  C   UNL     1      23.957  -2.174  37.906  1.00  0.00     0.178 C 
ATOM     10  C   UNL     1      23.539  -3.435  37.077  1.00  0.00     0.177 C 
ATOM     11  O   UNL     1      24.029  -0.922  37.207  1.00  0.00    -0.341 OA
ATOM     12  C   UNL     1      24.186  -3.412  35.667  1.00  0.00     0.179 C 
ATOM     13  C   UNL     1      24.205  -1.980  35.049  1.00  0.00     0.202 C 
BRANCH   9  14
ATOM     14  C   UNL     1      23.082  -1.992  39.152  1.00  0.00     0.191 C 
BRANCH  14  15
ATOM     15  O   UNL     1      22.968  -3.199  39.848  1.00  0.00    -0.394 OA
ATOM     16  H   UNL     1      22.903  -2.941  40.802  1.00  0.00     0.210 HD
ENDBRANCH  14  15
ENDBRANCH   9  14
BRANCH  10  17
ATOM     17  O   UNL     1      22.137  -3.514  36.946  1.00  0.00    -0.387 OA
ATOM     18  H   UNL     1      21.933  -3.863  36.042  1.00  0.00     0.211 HD
ENDBRANCH  10  17
BRANCH  12  19
ATOM     19  O   UNL     1      25.500  -3.921  35.756  1.00  0.00    -0.387 OA
ATOM     20  H   UNL     1      25.687  -4.355  34.884  1.00  0.00     0.211 HD
ENDBRANCH  12  19
BRANCH  13  21
ATOM     21  O   UNL     1      23.711  -1.990  33.738  1.00  0.00    -0.385 OA
ATOM     22  H   UNL     1      22.770  -2.299  33.776  1.00  0.00     0.211 HD
ENDBRANCH  13  21
ENDBRANCH   7   8
ENDBRANCH   1   7
BRANCH   2  23
ATOM     23  C   UNL     1      20.742   2.909  34.371  1.00  0.00     0.191 C 
BRANCH  23  24
ATOM     24  O   UNL     1      21.008   4.231  33.967  1.00  0.00    -0.394 OA
ATOM     25  H   UNL     1      21.748   4.563  34.536  1.00  0.00     0.210 HD
ENDBRANCH  23  24
ENDBRANCH   2  23
BRANCH   6  26
ATOM     26  O   UNL     1      20.181  -0.670  34.691  1.00  0.00    -0.387 OA
ATOM     27  H   UNL     1      20.216  -0.156  33.842  1.00  0.00     0.211 HD
ENDBRANCH   6  26
BRANCH   5  28
ATOM     28  O   UNL     1      20.017  -0.264  37.714  1.00  0.00    -0.385 OA
ATOM     29  H   UNL     1      19.180  -0.686  37.384  1.00  0.00     0.211 HD
ENDBRANCH   5  28
BRANCH   4  30
ATOM     30  O   UNL     1      20.933   2.193  38.540  1.00  0.00    -0.341 OA
BRANCH  30  31
ATOM     31  C   UNL     1      21.858   2.230  39.619  1.00  0.00     0.184 C 
ATOM     32  C   UNL     1      21.123   1.788  40.909  1.00  0.00     0.178 C 
ATOM     33  C   UNL     1      22.486   3.641  39.793  1.00  0.00     0.180 C 
ATOM     34  O   UNL     1      21.871   2.183  42.044  1.00  0.00    -0.342 OA
ATOM     35  C   UNL     1      21.784   4.436  40.924  1.00  0.00     0.201 C 
ATOM     36  C   UNL     1      21.824   3.600  42.242  1.00  0.00     0.279 C 
BRANCH  32  37
ATOM     37  C   UNL     1      20.911   0.275  40.934  1.00  0.00     0.191 C 
BRANCH  37  38
ATOM     38  O   UNL     1      20.750  -0.171  42.257  1.00  0.00    -0.394 OA
ATOM     39  H   UNL     1      19.835  -0.579  42.311  1.00  0.00     0.210 HD
ENDBRANCH  37  38
ENDBRANCH  32  37
BRANCH  33  40
ATOM     40  O   UNL     1      22.477   4.371  38.591  1.00  0.00    -0.387 OA
ATOM     41  H   UNL     1      22.645   3.716  37.857  1.00  0.00     0.211 HD
ENDBRANCH  33  40
BRANCH  35  42
ATOM     42  O   UNL     1      20.454   4.778  40.605  1.00  0.00    -0.385 OA
ATOM     43  H   UNL     1      19.879   4.002  40.843  1.00  0.00     0.211 HD
ENDBRANCH  35  42
BRANCH  36  44
ATOM     44  O   UNL     1      20.753   3.915  43.083  1.00  0.00    -0.366 OA
ATOM     45  H   UNL     1      21.032   4.693  43.633  1.00  0.00     0.213 HD
ENDBRANCH  36  44
ENDBRANCH  30  31
ENDBRANCH   4  30
TORSDOF 18
ENDMDL
MODEL 5
REMARK VINA RESULT:    -5.674      1.359      8.455
REMARK INTER + INTRA:         -11.740
REMARK INTER:                  -9.854
REMARK INTRA:                  -1.886
REMARK UNBOUND:                -1.920
REMARK SMILES OC[C@@H]1O[C@@H](O[C@H]2[C@H](O)[C@@H](O)[C@H](O[C@H]3[C@@H](O)[C@@H](O)[C@@H](O)O[C@@H]3CO)O[C@@H]2CO)[C@H](O)[C@@H](O)[C@@H]1O
REMARK SMILES IDX 7 1 26 2 25 3 12 4 10 5 8 6 6 7 5 8 3 9 33 10 4 11 31 12
REMARK SMILES IDX 29 13 2 14 1 15 34 17 32 19 30 21 27 23 28 24 9 26 11 28
REMARK SMILES IDX 13 30 14 31 22 32 15 33 21 34 17 35 19 36 23 37 24 38 16 40
REMARK SMILES IDX 18 42 20 44
REMARK H PARENT 1 16 34 18 32 20 30 22 28 25 9 27 11 29 24 39 16 41 18 43
REMARK H PARENT 20 45
REMARK Flexibility Score: inf
ROOT
ATOM      1  C   UNL     1      37.556   5.493  43.106  1.00  0.00     0.184 C 
ATOM      2  C   UNL     1      37.806   4.848  41.689  1.00  0.00     0.178 C 
ATOM      3  O   UNL     1      36.761   3.996  41.245  1.00  0.00    -0.341 OA
ATOM      4  C   UNL     1      35.974   3.385  42.270  1.00  0.00     0.282 C 
ATOM      5  C   UNL     1      36.780   3.062  43.548  1.00  0.00     0.202 C 
ATOM      6  C   UNL     1      37.253   4.392  44.177  1.00  0.00     0.180 C 
ENDROOT
BRANCH   1   7
ATOM      7  O   UNL     1      36.434   6.391  43.127  1.00  0.00    -0.341 OA
BRANCH   7   8
ATOM      8  C   UNL     1      36.756   7.720  43.508  1.00  0.00     0.282 C 
ATOM      9  C   UNL     1      38.121   9.607  43.021  1.00  0.00     0.178 C 
ATOM     10  C   UNL     1      37.513  10.204  44.334  1.00  0.00     0.177 C 
ATOM     11  O   UNL     1      37.804   8.241  42.710  1.00  0.00    -0.341 OA
ATOM     12  C   UNL     1      37.539   9.161  45.482  1.00  0.00     0.179 C 
ATOM     13  C   UNL     1      37.190   7.724  44.982  1.00  0.00     0.202 C 
BRANCH   9  14
ATOM     14  C   UNL     1      37.805  10.474  41.796  1.00  0.00     0.191 C 
BRANCH  14  15
ATOM     15  O   UNL     1      38.203   9.825  40.624  1.00  0.00    -0.394 OA
ATOM     16  H   UNL     1      39.121  10.150  40.448  1.00  0.00     0.210 HD
ENDBRANCH  14  15
ENDBRANCH   9  14
BRANCH  10  17
ATOM     17  O   UNL     1      36.187  10.639  44.127  1.00  0.00    -0.387 OA
ATOM     18  H   UNL     1      35.579   9.914  44.417  1.00  0.00     0.211 HD
ENDBRANCH  10  17
BRANCH  12  19
ATOM     19  O   UNL     1      38.815   9.171  46.083  1.00  0.00    -0.387 OA
ATOM     20  H   UNL     1      39.286   9.963  45.718  1.00  0.00     0.211 HD
ENDBRANCH  12  19
BRANCH  13  21
ATOM     21  O   UNL     1      36.216   7.131  45.796  1.00  0.00    -0.385 OA
ATOM     22  H   UNL     1      36.456   6.174  45.899  1.00  0.00     0.211 HD
ENDBRANCH  13  21
ENDBRANCH   7   8
ENDBRANCH   1   7
BRANCH   2  23
ATOM     23  C   UNL     1      39.170   4.116  41.558  1.00  0.00     0.191 C 
BRANCH  23  24
ATOM     24  O   UNL     1      40.053   4.532  42.572  1.00  0.00    -0.394 OA
ATOM     25  H   UNL     1      40.752   3.835  42.650  1.00  0.00     0.210 HD
ENDBRANCH  23  24
ENDBRANCH   2  23
BRANCH   6  26
ATOM     26  O   UNL     1      38.316   4.207  45.092  1.00  0.00    -0.387 OA
ATOM     27  H   UNL     1      39.149   4.102  44.562  1.00  0.00     0.211 HD
ENDBRANCH   6  26
BRANCH   5  28
ATOM     28  O   UNL     1      35.960   2.369  44.459  1.00  0.00    -0.385 OA
ATOM     29  H   UNL     1      36.520   2.092  45.230  1.00  0.00     0.211 HD
ENDBRANCH   5  28
BRANCH   4  30
ATOM     30  O   UNL     1      35.410   2.181  41.772  1.00  0.00    -0.341 OA
BRANCH  30  31
ATOM     31  C   UNL     1      34.310   2.422  40.904  1.00  0.00     0.184 C 
ATOM     32  C   UNL     1      33.040   1.809  41.542  1.00  0.00     0.178 C 
ATOM     33  C   UNL     1      34.556   1.840  39.484  1.00  0.00     0.180 C 
ATOM     34  O   UNL     1      32.029   1.675  40.559  1.00  0.00    -0.342 OA
ATOM     35  C   UNL     1      33.850   0.472  39.305  1.00  0.00     0.201 C 
ATOM     36  C   UNL     1      32.331   0.630  39.628  1.00  0.00     0.279 C 
BRANCH  32  37
ATOM     37  C   UNL     1      32.526   2.673  42.692  1.00  0.00     0.191 C 
BRANCH  37  38
ATOM     38  O   UNL     1      33.065   2.229  43.912  1.00  0.00    -0.394 OA
ATOM     39  H   UNL     1      32.313   2.237  44.576  1.00  0.00     0.210 HD
ENDBRANCH  37  38
ENDBRANCH  32  37
BRANCH  33  40
ATOM     40  O   UNL     1      35.928   1.735  39.190  1.00  0.00    -0.387 OA
ATOM     41  H   UNL     1      36.251   0.898  39.625  1.00  0.00     0.211 HD
ENDBRANCH  33  40
BRANCH  35  42
ATOM     42  O   UNL     1      34.414  -0.542  40.106  1.00  0.00    -0.385 OA
ATOM     43  H   UNL     1      34.646  -0.137  40.984  1.00  0.00     0.211 HD
ENDBRANCH  35  42
BRANCH  36  44
ATOM     44  O   UNL     1      31.774  -0.570  40.081  1.00  0.00    -0.366 OA
ATOM     45  H   UNL     1      30.875  -0.650  39.667  1.00  0.00     0.213 HD
ENDBRANCH  36  44
ENDBRANCH  30  31
ENDBRANCH   4  30
TORSDOF 18
ENDMDL
MODEL 6
REMARK VINA RESULT:    -5.651      1.658      8.416
REMARK INTER + INTRA:         -11.702
REMARK INTER:                  -9.794
REMARK INTRA:                  -1.907
REMARK UNBOUND:                -1.920
REMARK SMILES OC[C@@H]1O[C@@H](O[C@H]2[C@H](O)[C@@H](O)[C@H](O[C@H]3[C@@H](O)[C@@H](O)[C@@H](O)O[C@@H]3CO)O[C@@H]2CO)[C@H](O)[C@@H](O)[C@@H]1O
REMARK SMILES IDX 7 1 26 2 25 3 12 4 10 5 8 6 6 7 5 8 3 9 33 10 4 11 31 12
REMARK SMILES IDX 29 13 2 14 1 15 34 17 32 19 30 21 27 23 28 24 9 26 11 28
REMARK SMILES IDX 13 30 14 31 22 32 15 33 21 34 17 35 19 36 23 37 24 38 16 40
REMARK SMILES IDX 18 42 20 44
REMARK H PARENT 1 16 34 18 32 20 30 22 28 25 9 27 11 29 24 39 16 41 18 43
REMARK H PARENT 20 45
REMARK Flexibility Score: inf
ROOT
ATOM      1  C   UNL     1      37.907   5.589  43.304  1.00  0.00     0.184 C 
ATOM      2  C   UNL     1      38.286   5.067  41.865  1.00  0.00     0.178 C 
ATOM      3  O   UNL     1      37.369   4.124  41.328  1.00  0.00    -0.341 OA
ATOM      4  C   UNL     1      36.627   3.361  42.282  1.00  0.00     0.282 C 
ATOM      5  C   UNL     1      37.420   3.059  43.573  1.00  0.00     0.202 C 
ATOM      6  C   UNL     1      37.703   4.395  44.297  1.00  0.00     0.180 C 
ENDROOT
BRANCH   1   7
ATOM      7  O   UNL     1      36.683   6.342  43.327  1.00  0.00    -0.341 OA
BRANCH   7   8
ATOM      8  C   UNL     1      36.848   7.713  43.658  1.00  0.00     0.282 C 
ATOM      9  C   UNL     1      38.026   9.713  43.136  1.00  0.00     0.178 C 
ATOM     10  C   UNL     1      37.303  10.296  44.396  1.00  0.00     0.177 C 
ATOM     11  O   UNL     1      37.867   8.309  42.877  1.00  0.00    -0.341 OA
ATOM     12  C   UNL     1      37.391   9.310  45.591  1.00  0.00     0.179 C 
ATOM     13  C   UNL     1      37.216   7.825  45.146  1.00  0.00     0.202 C 
BRANCH   9  14
ATOM     14  C   UNL     1      37.671  10.490  41.861  1.00  0.00     0.191 C 
BRANCH  14  15
ATOM     15  O   UNL     1      38.164   9.826  40.734  1.00  0.00    -0.394 OA
ATOM     16  H   UNL     1      38.907   9.264  41.070  1.00  0.00     0.210 HD
ENDBRANCH  14  15
ENDBRANCH   9  14
BRANCH  10  17
ATOM     17  O   UNL     1      35.949  10.577  44.121  1.00  0.00    -0.387 OA
ATOM     18  H   UNL     1      35.883  10.871  43.177  1.00  0.00     0.211 HD
ENDBRANCH  10  17
BRANCH  12  19
ATOM     19  O   UNL     1      38.633   9.482  46.239  1.00  0.00    -0.387 OA
ATOM     20  H   UNL     1      39.049   8.583  46.280  1.00  0.00     0.211 HD
ENDBRANCH  12  19
BRANCH  13  21
ATOM     21  O   UNL     1      36.277   7.165  45.950  1.00  0.00    -0.385 OA
ATOM     22  H   UNL     1      36.145   6.258  45.570  1.00  0.00     0.211 HD
ENDBRANCH  13  21
ENDBRANCH   7   8
ENDBRANCH   1   7
BRANCH   2  23
ATOM     23  C   UNL     1      39.733   4.513  41.751  1.00  0.00     0.191 C 
BRANCH  23  24
ATOM     24  O   UNL     1      39.816   3.559  40.720  1.00  0.00    -0.394 OA
ATOM     25  H   UNL     1      39.381   3.956  39.924  1.00  0.00     0.210 HD
ENDBRANCH  23  24
ENDBRANCH   2  23
BRANCH   6  26
ATOM     26  O   UNL     1      38.747   4.283  45.245  1.00  0.00    -0.387 OA
ATOM     27  H   UNL     1      38.528   4.888  46.001  1.00  0.00     0.211 HD
ENDBRANCH   6  26
BRANCH   5  28
ATOM     28  O   UNL     1      36.658   2.217  44.406  1.00  0.00    -0.385 OA
ATOM     29  H   UNL     1      37.051   1.306  44.365  1.00  0.00     0.211 HD
ENDBRANCH   5  28
BRANCH   4  30
ATOM     30  O   UNL     1      36.233   2.131  41.692  1.00  0.00    -0.341 OA
BRANCH  30  31
ATOM     31  C   UNL     1      35.857   2.286  40.329  1.00  0.00     0.184 C 
ATOM     32  C   UNL     1      34.402   1.783  40.163  1.00  0.00     0.178 C 
ATOM     33  C   UNL     1      36.820   1.525  39.375  1.00  0.00     0.180 C 
ATOM     34  O   UNL     1      34.131   1.549  38.793  1.00  0.00    -0.342 OA
ATOM     35  C   UNL     1      36.226   0.161  38.942  1.00  0.00     0.201 C 
ATOM     36  C   UNL     1      34.818   0.390  38.309  1.00  0.00     0.279 C 
BRANCH  32  37
ATOM     37  C   UNL     1      33.400   2.795  40.719  1.00  0.00     0.191 C 
BRANCH  37  38
ATOM     38  O   UNL     1      33.243   2.612  42.103  1.00  0.00    -0.394 OA
ATOM     39  H   UNL     1      32.394   3.081  42.359  1.00  0.00     0.210 HD
ENDBRANCH  37  38
ENDBRANCH  32  37
BRANCH  33  40
ATOM     40  O   UNL     1      38.096   1.356  39.942  1.00  0.00    -0.387 OA
ATOM     41  H   UNL     1      38.668   2.093  39.586  1.00  0.00     0.211 HD
ENDBRANCH  33  40
BRANCH  35  42
ATOM     42  O   UNL     1      36.135  -0.757  40.009  1.00  0.00    -0.385 OA
ATOM     43  H   UNL     1      37.041  -1.141  40.153  1.00  0.00     0.211 HD
ENDBRANCH  35  42
BRANCH  36  44
ATOM     44  O   UNL     1      33.997  -0.732  38.459  1.00  0.00    -0.366 OA
ATOM     45  H   UNL     1      33.135  -0.526  38.012  1.00  0.00     0.213 HD
ENDBRANCH  36  44
ENDBRANCH  30  31
ENDBRANCH   4  30
TORSDOF 18
ENDMDL
MODEL 7
REMARK VINA RESULT:    -5.584      3.186      4.639
REMARK INTER + INTRA:         -11.585
REMARK INTER:                  -9.800
REMARK INTRA:                  -1.785
REMARK UNBOUND:                -1.920
REMARK SMILES OC[C@@H]1O[C@@H](O[C@H]2[C@H](O)[C@@H](O)[C@H](O[C@H]3[C@@H](O)[C@@H](O)[C@@H](O)O[C@@H]3CO)O[C@@H]2CO)[C@H](O)[C@@H](O)[C@@H]1O
REMARK SMILES IDX 7 1 26 2 25 3 12 4 10 5 8 6 6 7 5 8 3 9 33 10 4 11 31 12
REMARK SMILES IDX 29 13 2 14 1 15 34 17 32 19 30 21 27 23 28 24 9 26 11 28
REMARK SMILES IDX 13 30 14 31 22 32 15 33 21 34 17 35 19 36 23 37 24 38 16 40
REMARK SMILES IDX 18 42 20 44
REMARK H PARENT 1 16 34 18 32 20 30 22 28 25 9 27 11 29 24 39 16 41 18 43
REMARK H PARENT 20 45
REMARK Flexibility Score: inf
ROOT
ATOM      1  C   UNL     1      38.788   3.295  43.083  1.00  0.00     0.184 C 
ATOM      2  C   UNL     1      37.467   4.119  42.841  1.00  0.00     0.178 C 
ATOM      3  O   UNL     1      37.654   5.527  42.822  1.00  0.00    -0.341 OA
ATOM      4  C   UNL     1      38.774   6.018  43.562  1.00  0.00     0.282 C 
ATOM      5  C   UNL     1      39.082   5.187  44.827  1.00  0.00     0.202 C 
ATOM      6  C   UNL     1      39.513   3.769  44.388  1.00  0.00     0.180 C 
ENDROOT
BRANCH   1   7
ATOM      7  O   UNL     1      39.745   3.437  42.020  1.00  0.00    -0.341 OA
BRANCH   7   8
ATOM      8  C   UNL     1      39.335   2.869  40.785  1.00  0.00     0.282 C 
ATOM      9  C   UNL     1      39.677   1.076  39.260  1.00  0.00     0.178 C 
ATOM     10  C   UNL     1      38.687   1.863  38.337  1.00  0.00     0.177 C 
ATOM     11  O   UNL     1      40.100   1.719  40.472  1.00  0.00    -0.341 OA
ATOM     12  C   UNL     1      39.057   3.369  38.284  1.00  0.00     0.179 C 
ATOM     13  C   UNL     1      39.512   3.915  39.673  1.00  0.00     0.202 C 
BRANCH   9  14
ATOM     14  C   UNL     1      39.149  -0.323  39.604  1.00  0.00     0.191 C 
BRANCH  14  15
ATOM     15  O   UNL     1      38.324  -0.267  40.731  1.00  0.00    -0.394 OA
ATOM     16  H   UNL     1      37.748  -1.070  40.669  1.00  0.00     0.210 HD
ENDBRANCH  14  15
ENDBRANCH   9  14
BRANCH  10  17
ATOM     17  O   UNL     1      37.357   1.725  38.785  1.00  0.00    -0.387 OA
ATOM     18  H   UNL     1      37.262   0.826  39.189  1.00  0.00     0.211 HD
ENDBRANCH  10  17
BRANCH  12  19
ATOM     19  O   UNL     1      40.078   3.558  37.328  1.00  0.00    -0.387 OA
ATOM     20  H   UNL     1      40.778   4.098  37.776  1.00  0.00     0.211 HD
ENDBRANCH  12  19
BRANCH  13  21
ATOM     21  O   UNL     1      38.844   5.106  39.990  1.00  0.00    -0.385 OA
ATOM     22  H   UNL     1      38.601   5.548  39.136  1.00  0.00     0.211 HD
ENDBRANCH  13  21
ENDBRANCH   7   8
ENDBRANCH   1   7
BRANCH   2  23
ATOM     23  C   UNL     1      36.306   3.758  43.809  1.00  0.00     0.191 C 
BRANCH  23  24
ATOM     24  O   UNL     1      36.599   2.571  44.507  1.00  0.00    -0.394 OA
ATOM     25  H   UNL     1      36.688   2.814  45.463  1.00  0.00     0.210 HD
ENDBRANCH  23  24
ENDBRANCH   2  23
BRANCH   6  26
ATOM     26  O   UNL     1      39.421   2.828  45.441  1.00  0.00    -0.387 OA
ATOM     27  H   UNL     1      38.459   2.719  45.659  1.00  0.00     0.211 HD
ENDBRANCH   6  26
BRANCH   5  28
ATOM     28  O   UNL     1      40.125   5.799  45.549  1.00  0.00    -0.385 OA
ATOM     29  H   UNL     1      39.969   6.780  45.543  1.00  0.00     0.211 HD
ENDBRANCH   5  28
BRANCH   4  30
ATOM     30  O   UNL     1      38.525   7.361  43.949  1.00  0.00    -0.341 OA
BRANCH  30  31
ATOM     31  C   UNL     1      37.281   7.841  43.456  1.00  0.00     0.184 C 
ATOM     32  C   UNL     1      37.506   9.248  42.849  1.00  0.00     0.178 C 
ATOM     33  C   UNL     1      36.196   7.883  44.568  1.00  0.00     0.180 C 
ATOM     34  O   UNL     1      36.263   9.913  42.712  1.00  0.00    -0.342 OA
ATOM     35  C   UNL     1      36.035   9.312  45.146  1.00  0.00     0.201 C 
ATOM     36  C   UNL     1      35.732  10.306  43.982  1.00  0.00     0.279 C 
BRANCH  32  37
ATOM     37  C   UNL     1      38.193   9.159  41.486  1.00  0.00     0.191 C 
BRANCH  37  38
ATOM     38  O   UNL     1      37.865  10.279  40.703  1.00  0.00    -0.394 OA
ATOM     39  H   UNL     1      37.414  10.933  41.316  1.00  0.00     0.210 HD
ENDBRANCH  37  38
ENDBRANCH  32  37
BRANCH  33  40
ATOM     40  O   UNL     1      36.460   6.956  45.594  1.00  0.00    -0.387 OA
ATOM     41  H   UNL     1      35.665   6.356  45.649  1.00  0.00     0.211 HD
ENDBRANCH  33  40
BRANCH  35  42
ATOM     42  O   UNL     1      37.168   9.739  45.869  1.00  0.00    -0.385 OA
ATOM     43  H   UNL     1      36.874   9.934  46.799  1.00  0.00     0.211 HD
ENDBRANCH  35  42
BRANCH  36  44
ATOM     44  O   UNL     1      36.167  11.601  44.285  1.00  0.00    -0.366 OA
ATOM     45  H   UNL     1      35.367  12.123  44.556  1.00  0.00     0.213 HD
ENDBRANCH  36  44
ENDBRANCH  30  31
ENDBRANCH   4  30
TORSDOF 18
ENDMDL
MODEL 8
REMARK VINA RESULT:    -5.373      2.356      8.705
REMARK INTER + INTRA:         -11.219
REMARK INTER:                  -9.816
REMARK INTRA:                  -1.404
REMARK UNBOUND:                -1.920
REMARK SMILES OC[C@@H]1O[C@@H](O[C@H]2[C@H](O)[C@@H](O)[C@H](O[C@H]3[C@@H](O)[C@@H](O)[C@@H](O)O[C@@H]3CO)O[C@@H]2CO)[C@H](O)[C@@H](O)[C@@H]1O
REMARK SMILES IDX 7 1 26 2 25 3 12 4 10 5 8 6 6 7 5 8 3 9 33 10 4 11 31 12
REMARK SMILES IDX 29 13 2 14 1 15 34 17 32 19 30 21 27 23 28 24 9 26 11 28
REMARK SMILES IDX 13 30 14 31 22 32 15 33 21 34 17 35 19 36 23 37 24 38 16 40
REMARK SMILES IDX 18 42 20 44
REMARK H PARENT 1 16 34 18 32 20 30 22 28 25 9 27 11 29 24 39 16 41 18 43
REMARK H PARENT 20 45
REMARK Flexibility Score: inf
ROOT
ATOM      1  C   UNL     1      34.080   4.455  41.886  1.00  0.00     0.184 C 
ATOM      2  C   UNL     1      33.982   2.917  42.216  1.00  0.00     0.178 C 
ATOM      3  O   UNL     1      34.162   2.067  41.092  1.00  0.00    -0.341 OA
ATOM      4  C   UNL     1      33.827   2.632  39.822  1.00  0.00     0.282 C 
ATOM      5  C   UNL     1      32.651   3.632  39.890  1.00  0.00     0.202 C 
ATOM      6  C   UNL     1      33.088   4.846  40.739  1.00  0.00     0.180 C 
ENDROOT
BRANCH   1   7
ATOM      7  O   UNL     1      35.387   4.854  41.439  1.00  0.00    -0.341 OA
BRANCH   7   8
ATOM      8  C   UNL     1      36.371   4.881  42.462  1.00  0.00     0.282 C 
ATOM      9  C   UNL     1      37.171   3.796  44.421  1.00  0.00     0.178 C 
ATOM     10  C   UNL     1      38.141   5.020  44.529  1.00  0.00     0.177 C 
ATOM     11  O   UNL     1      36.161   3.843  43.401  1.00  0.00    -0.341 OA
ATOM     12  C   UNL     1      37.378   6.353  44.307  1.00  0.00     0.179 C 
ATOM     13  C   UNL     1      36.305   6.239  43.180  1.00  0.00     0.202 C 
BRANCH   9  14
ATOM     14  C   UNL     1      37.934   2.471  44.295  1.00  0.00     0.191 C 
BRANCH  14  15
ATOM     15  O   UNL     1      37.514   1.573  45.281  1.00  0.00    -0.394 OA
ATOM     16  H   UNL     1      37.395   2.122  46.096  1.00  0.00     0.210 HD
ENDBRANCH  14  15
ENDBRANCH   9  14
BRANCH  10  17
ATOM     17  O   UNL     1      39.190   4.921  43.591  1.00  0.00    -0.387 OA
ATOM     18  H   UNL     1      39.830   5.655  43.769  1.00  0.00     0.211 HD
ENDBRANCH  10  17
BRANCH  12  19
ATOM     19  O   UNL     1      36.771   6.743  45.520  1.00  0.00    -0.387 OA
ATOM     20  H   UNL     1      36.917   5.995  46.153  1.00  0.00     0.211 HD
ENDBRANCH  12  19
BRANCH  13  21
ATOM     21  O   UNL     1      36.416   7.298  42.269  1.00  0.00    -0.385 OA
ATOM     22  H   UNL     1      37.382   7.460  42.117  1.00  0.00     0.211 HD
ENDBRANCH  13  21
ENDBRANCH   7   8
ENDBRANCH   1   7
BRANCH   2  23
ATOM     23  C   UNL     1      32.688   2.512  42.977  1.00  0.00     0.191 C 
BRANCH  23  24
ATOM     24  O   UNL     1      32.386   1.157  42.748  1.00  0.00    -0.394 OA
ATOM     25  H   UNL     1      31.688   0.902  43.403  1.00  0.00     0.210 HD
ENDBRANCH  23  24
ENDBRANCH   2  23
BRANCH   6  26
ATOM     26  O   UNL     1      31.988   5.607  41.198  1.00  0.00    -0.387 OA
ATOM     27  H   UNL     1      31.368   5.725  40.431  1.00  0.00     0.211 HD
ENDBRANCH   6  26
BRANCH   5  28
ATOM     28  O   UNL     1      32.319   4.055  38.588  1.00  0.00    -0.385 OA
ATOM     29  H   UNL     1      31.702   3.384  38.194  1.00  0.00     0.211 HD
ENDBRANCH   5  28
BRANCH   4  30
ATOM     30  O   UNL     1      33.486   1.589  38.922  1.00  0.00    -0.341 OA
BRANCH  30  31
ATOM     31  C   UNL     1      33.848   0.308  39.422  1.00  0.00     0.184 C 
ATOM     32  C   UNL     1      34.675  -0.425  38.338  1.00  0.00     0.178 C 
ATOM     33  C   UNL     1      32.601  -0.527  39.829  1.00  0.00     0.180 C 
ATOM     34  O   UNL     1      34.714  -1.812  38.624  1.00  0.00    -0.342 OA
ATOM     35  C   UNL     1      32.214  -1.539  38.721  1.00  0.00     0.201 C 
ATOM     36  C   UNL     1      33.447  -2.435  38.389  1.00  0.00     0.279 C 
BRANCH  32  37
ATOM     37  C   UNL     1      36.100   0.124  38.265  1.00  0.00     0.191 C 
BRANCH  37  38
ATOM     38  O   UNL     1      36.473   0.673  39.503  1.00  0.00    -0.394 OA
ATOM     39  H   UNL     1      36.986  -0.039  39.989  1.00  0.00     0.210 HD
ENDBRANCH  37  38
ENDBRANCH  32  37
BRANCH  33  40
ATOM     40  O   UNL     1      31.506   0.293  40.161  1.00  0.00    -0.387 OA
ATOM     41  H   UNL     1      30.886  -0.265  40.708  1.00  0.00     0.211 HD
ENDBRANCH  33  40
BRANCH  35  42
ATOM     42  O   UNL     1      31.739  -0.911  37.550  1.00  0.00    -0.385 OA
ATOM     43  H   UNL     1      31.291  -1.606  36.998  1.00  0.00     0.211 HD
ENDBRANCH  35  42
BRANCH  36  44
ATOM     44  O   UNL     1      33.400  -2.908  37.073  1.00  0.00    -0.366 OA
ATOM     45  H   UNL     1      32.906  -2.234  36.538  1.00  0.00     0.213 HD
ENDBRANCH  36  44
ENDBRANCH  30  31
ENDBRANCH   4  30
TORSDOF 18
ENDMDL
MODEL 9
REMARK VINA RESULT:    -5.357      2.189      4.561
REMARK INTER + INTRA:         -11.191
REMARK INTER:                  -9.927
REMARK INTRA:                  -1.264
REMARK UNBOUND:                -1.920
REMARK SMILES OC[C@@H]1O[C@@H](O[C@H]2[C@H](O)[C@@H](O)[C@H](O[C@H]3[C@@H](O)[C@@H](O)[C@@H](O)O[C@@H]3CO)O[C@@H]2CO)[C@H](O)[C@@H](O)[C@@H]1O
REMARK SMILES IDX 7 1 26 2 25 3 12 4 10 5 8 6 6 7 5 8 3 9 33 10 4 11 31 12
REMARK SMILES IDX 29 13 2 14 1 15 34 17 32 19 30 21 27 23 28 24 9 26 11 28
REMARK SMILES IDX 13 30 14 31 22 32 15 33 21 34 17 35 19 36 23 37 24 38 16 40
REMARK SMILES IDX 18 42 20 44
REMARK H PARENT 1 16 34 18 32 20 30 22 28 25 9 27 11 29 24 39 16 41 18 43
REMARK H PARENT 20 45
REMARK Flexibility Score: inf
ROOT
ATOM      1  C   UNL     1      33.620   2.875  40.502  1.00  0.00     0.184 C 
ATOM      2  C   UNL     1      33.614   4.451  40.472  1.00  0.00     0.178 C 
ATOM      3  O   UNL     1      34.729   5.050  41.116  1.00  0.00    -0.341 OA
ATOM      4  C   UNL     1      35.344   4.275  42.148  1.00  0.00     0.282 C 
ATOM      5  C   UNL     1      34.344   3.398  42.933  1.00  0.00     0.202 C 
ATOM      6  C   UNL     1      33.757   2.343  41.968  1.00  0.00     0.180 C 
ENDROOT
BRANCH   1   7
ATOM      7  O   UNL     1      34.712   2.300  39.764  1.00  0.00    -0.341 OA
BRANCH   7   8
ATOM      8  C   UNL     1      34.478   0.975  39.313  1.00  0.00     0.282 C 
ATOM      9  C   UNL     1      32.954  -0.852  39.347  1.00  0.00     0.178 C 
ATOM     10  C   UNL     1      34.093  -1.629  38.605  1.00  0.00     0.177 C 
ATOM     11  O   UNL     1      33.261   0.466  39.828  1.00  0.00    -0.341 OA
ATOM     12  C   UNL     1      35.464  -1.395  39.294  1.00  0.00     0.179 C 
ATOM     13  C   UNL     1      35.639   0.080  39.775  1.00  0.00     0.202 C 
BRANCH   9  14
ATOM     14  C   UNL     1      31.670  -0.783  38.511  1.00  0.00     0.191 C 
BRANCH  14  15
ATOM     15  O   UNL     1      30.833  -1.861  38.814  1.00  0.00    -0.394 OA
ATOM     16  H   UNL     1      31.443  -2.629  38.954  1.00  0.00     0.210 HD
ENDBRANCH  14  15
ENDBRANCH   9  14
BRANCH  10  17
ATOM     17  O   UNL     1      34.177  -1.237  37.253  1.00  0.00    -0.387 OA
ATOM     18  H   UNL     1      33.794  -0.327  37.173  1.00  0.00     0.211 HD
ENDBRANCH  10  17
BRANCH  12  19
ATOM     19  O   UNL     1      35.587  -2.281  40.385  1.00  0.00    -0.387 OA
ATOM     20  H   UNL     1      35.695  -1.713  41.191  1.00  0.00     0.211 HD
ENDBRANCH  12  19
BRANCH  13  21
ATOM     21  O   UNL     1      36.873   0.601  39.363  1.00  0.00    -0.385 OA
ATOM     22  H   UNL     1      37.383   0.840  40.179  1.00  0.00     0.211 HD
ENDBRANCH  13  21
ENDBRANCH   7   8
ENDBRANCH   1   7
BRANCH   2  23
ATOM     23  C   UNL     1      32.299   5.091  40.999  1.00  0.00     0.191 C 
BRANCH  23  24
ATOM     24  O   UNL     1      31.235   4.829  40.115  1.00  0.00    -0.394 OA
ATOM     25  H   UNL     1      31.521   5.139  39.219  1.00  0.00     0.210 HD
ENDBRANCH  23  24
ENDBRANCH   2  23
BRANCH   6  26
ATOM     26  O   UNL     1      32.560   1.770  42.461  1.00  0.00    -0.387 OA
ATOM     27  H   UNL     1      32.622   0.789  42.320  1.00  0.00     0.211 HD
ENDBRANCH   6  26
BRANCH   5  28
ATOM     28  O   UNL     1      35.013   2.756  43.993  1.00  0.00    -0.385 OA
ATOM     29  H   UNL     1      34.470   1.972  44.270  1.00  0.00     0.211 HD
ENDBRANCH   5  28
BRANCH   4  30
ATOM     30  O   UNL     1      35.998   5.146  43.059  1.00  0.00    -0.341 OA
BRANCH  30  31
ATOM     31  C   UNL     1      37.357   5.370  42.706  1.00  0.00     0.184 C 
ATOM     32  C   UNL     1      38.251   4.507  43.630  1.00  0.00     0.178 C 
ATOM     33  C   UNL     1      37.741   6.873  42.809  1.00  0.00     0.180 C 
ATOM     34  O   UNL     1      39.583   4.984  43.588  1.00  0.00    -0.342 OA
ATOM     35  C   UNL     1      38.478   7.178  44.138  1.00  0.00     0.201 C 
ATOM     36  C   UNL     1      39.717   6.238  44.267  1.00  0.00     0.279 C 
BRANCH  32  37
ATOM     37  C   UNL     1      38.220   3.036  43.213  1.00  0.00     0.191 C 
BRANCH  37  38
ATOM     38  O   UNL     1      37.881   2.227  44.311  1.00  0.00    -0.394 OA
ATOM     39  H   UNL     1      37.909   2.819  45.120  1.00  0.00     0.210 HD
ENDBRANCH  37  38
ENDBRANCH  32  37
BRANCH  33  40
ATOM     40  O   UNL     1      36.621   7.712  42.656  1.00  0.00    -0.387 OA
ATOM     41  H   UNL     1      36.945   8.647  42.780  1.00  0.00     0.211 HD
ENDBRANCH  33  40
BRANCH  35  42
ATOM     42  O   UNL     1      37.644   7.042  45.268  1.00  0.00    -0.385 OA
ATOM     43  H   UNL     1      36.801   6.609  44.968  1.00  0.00     0.211 HD
ENDBRANCH  35  42
BRANCH  36  44
ATOM     44  O   UNL     1      40.051   6.007  45.605  1.00  0.00    -0.366 OA
ATOM     45  H   UNL     1      40.810   5.367  45.611  1.00  0.00     0.213 HD
ENDBRANCH  36  44
ENDBRANCH  30  31
ENDBRANCH   4  30
TORSDOF 18
ENDMDL
