MODEL 1
REMARK VINA RESULT:    -7.521      0.000      0.000
REMARK INTER + INTRA:         -13.700
REMARK INTER:                 -11.918
REMARK INTRA:                  -1.782
REMARK UNBOUND:                -1.782
REMARK SMILES C[C@H]1O[C@@H](O[C@@H]2[C@@H](Oc3cc(O)c4c(c3)O[C@H](c3ccc(O)cc3)CC4=O)O[C@H](CO)[C@@H](O)[C@H]2O)[C@H](O)[C@H](O)[C@H]1O
REMARK SMILES IDX 6 1 34 2 32 3 29 4 28 5 7 6 5 7 4 8 1 9 2 10 40 11 3 12
REMARK SMILES IDX 38 13 36 14 41 15 39 17 37 19 35 21 8 23 9 24 10 25 15 26
REMARK SMILES IDX 11 27 14 28 13 29 16 30 26 31 17 32 27 33 25 34 12 35 18 37
REMARK SMILES IDX 19 38 24 39 20 40 23 41 21 42 22 43 33 45 30 47 31 48
REMARK H PARENT 41 16 39 18 37 20 35 22 12 36 22 44 33 46 31 49
REMARK Flexibility Score: inf
ROOT
ATOM      1  C   UNL     1      12.523 -22.339 -38.396  1.00  0.00     0.221 C 
ATOM      2  C   UNL     1      13.224 -23.491 -39.137  1.00  0.00     0.181 C 
ATOM      3  C   UNL     1      14.746 -23.473 -38.844  1.00  0.00     0.177 C 
ATOM      4  C   UNL     1      15.335 -22.054 -39.024  1.00  0.00     0.179 C 
ATOM      5  O   UNL     1      14.581 -21.080 -38.311  1.00  0.00    -0.332 OA
ATOM      6  C   UNL     1      13.238 -21.018 -38.741  1.00  0.00     0.339 C 
ENDROOT
BRANCH   1   7
ATOM      7  O   UNL     1      11.168 -22.227 -38.797  1.00  0.00    -0.337 OA
BRANCH   7   8
ATOM      8  C   UNL     1      10.246 -22.996 -38.023  1.00  0.00     0.282 C 
ATOM      9  C   UNL     1       7.517 -20.962 -37.203  1.00  0.00     0.041 C 
ATOM     10  C   UNL     1       7.972 -22.437 -37.210  1.00  0.00     0.150 C 
ATOM     11  C   UNL     1       8.411 -22.931 -35.819  1.00  0.00     0.174 C 
ATOM     12  O   UNL     1       8.882 -22.637 -38.290  1.00  0.00    -0.344 OA
ATOM     13  C   UNL     1       9.830 -22.447 -35.543  1.00  0.00     0.179 C 
ATOM     14  C   UNL     1      10.746 -23.125 -36.546  1.00  0.00     0.202 C 
BRANCH  11  15
ATOM     15  O   UNL     1       7.529 -22.459 -34.840  1.00  0.00    -0.388 OA
ATOM     16  H   UNL     1       6.617 -22.657 -35.169  1.00  0.00     0.211 HD
ENDBRANCH  11  15
BRANCH  13  17
ATOM     17  O   UNL     1      10.230 -22.809 -34.245  1.00  0.00    -0.387 OA
ATOM     18  H   UNL     1      10.578 -23.744 -34.298  1.00  0.00     0.211 HD
ENDBRANCH  13  17
BRANCH  14  19
ATOM     19  O   UNL     1      10.902 -24.479 -36.194  1.00  0.00    -0.385 OA
ATOM     20  H   UNL     1      10.036 -24.755 -35.791  1.00  0.00     0.211 HD
ENDBRANCH  14  19
ENDBRANCH   7   8
ENDBRANCH   1   7
BRANCH   2  21
ATOM     21  O   UNL     1      12.673 -24.712 -38.739  1.00  0.00    -0.387 OA
ATOM     22  H   UNL     1      12.016 -24.973 -39.435  1.00  0.00     0.211 HD
ENDBRANCH   2  21
BRANCH   6  23
ATOM     23  O   UNL     1      12.564 -19.925 -38.086  1.00  0.00    -0.462 OA
BRANCH  23  24
ATOM     24  C   UNL     1      11.449 -19.274 -38.631  1.00  0.00     0.130 A 
ATOM     25  C   UNL     1      11.346 -19.107 -40.024  1.00  0.00     0.093 A 
ATOM     26  C   UNL     1      10.429 -18.773 -37.813  1.00  0.00     0.094 A 
ATOM     27  C   UNL     1      10.250 -18.435 -40.593  1.00  0.00     0.133 A 
ATOM     28  C   UNL     1       9.349 -18.079 -38.365  1.00  0.00     0.138 A 
ATOM     29  C   UNL     1       9.221 -17.938 -39.755  1.00  0.00     0.102 A 
ATOM     30  O   UNL     1       8.390 -17.539 -37.514  1.00  0.00    -0.484 OA
ATOM     31  C   UNL     1       7.977 -17.304 -40.271  1.00  0.00     0.174 C 
ATOM     32  C   UNL     1       7.425 -16.586 -37.947  1.00  0.00     0.211 C 
ATOM     33  O   UNL     1       7.815 -17.071 -41.502  1.00  0.00    -0.294 OA
ATOM     34  C   UNL     1       6.844 -17.002 -39.312  1.00  0.00     0.131 C 
BRANCH  27  35
ATOM     35  O   UNL     1      10.179 -18.270 -41.972  1.00  0.00    -0.507 OA
ATOM     36  H   UNL     1       9.430 -17.743 -42.407  1.00  0.00     0.293 HD
ENDBRANCH  27  35
BRANCH  32  37
ATOM     37  C   UNL     1       6.408 -16.453 -36.842  1.00  0.00    -0.007 A 
ATOM     38  C   UNL     1       6.071 -15.169 -36.367  1.00  0.00     0.011 A 
ATOM     39  C   UNL     1       6.059 -17.575 -36.061  1.00  0.00     0.011 A 
ATOM     40  C   UNL     1       5.496 -15.006 -35.097  1.00  0.00     0.046 A 
ATOM     41  C   UNL     1       5.462 -17.412 -34.802  1.00  0.00     0.046 A 
ATOM     42  C   UNL     1       5.250 -16.124 -34.291  1.00  0.00     0.115 A 
BRANCH  42  43
ATOM     43  O   UNL     1       4.803 -15.952 -32.970  1.00  0.00    -0.508 OA
ATOM     44  H   UNL     1       4.980 -16.659 -32.263  1.00  0.00     0.293 HD
ENDBRANCH  42  43
ENDBRANCH  32  37
ENDBRANCH  23  24
ENDBRANCH   6  23
BRANCH   3  45
ATOM     45  O   UNL     1      14.967 -23.886 -37.518  1.00  0.00    -0.387 OA
ATOM     46  H   UNL     1      15.856 -23.524 -37.245  1.00  0.00     0.211 HD
ENDBRANCH   3  45
BRANCH   4  47
ATOM     47  C   UNL     1      15.572 -21.670 -40.503  1.00  0.00     0.191 C 
BRANCH  47  48
ATOM     48  O   UNL     1      16.876 -22.031 -40.877  1.00  0.00    -0.394 OA
ATOM     49  H   UNL     1      17.460 -21.307 -40.556  1.00  0.00     0.210 HD
ENDBRANCH  47  48
ENDBRANCH   4  47
TORSDOF 14
ENDMDL
MODEL 2
REMARK VINA RESULT:    -7.466      1.453      1.921
REMARK INTER + INTRA:         -13.613
REMARK INTER:                 -11.715
REMARK INTRA:                  -1.898
REMARK UNBOUND:                -1.782
REMARK SMILES C[C@H]1O[C@@H](O[C@@H]2[C@@H](Oc3cc(O)c4c(c3)O[C@H](c3ccc(O)cc3)CC4=O)O[C@H](CO)[C@@H](O)[C@H]2O)[C@H](O)[C@H](O)[C@H]1O
REMARK SMILES IDX 6 1 34 2 32 3 29 4 28 5 7 6 5 7 4 8 1 9 2 10 40 11 3 12
REMARK SMILES IDX 38 13 36 14 41 15 39 17 37 19 35 21 8 23 9 24 10 25 15 26
REMARK SMILES IDX 11 27 14 28 13 29 16 30 26 31 17 32 27 33 25 34 12 35 18 37
REMARK SMILES IDX 19 38 24 39 20 40 23 41 21 42 22 43 33 45 30 47 31 48
REMARK H PARENT 41 16 39 18 37 20 35 22 12 36 22 44 33 46 31 49
REMARK Flexibility Score: inf
ROOT
ATOM      1  C   UNL     1      12.890 -21.171 -39.032  1.00  0.00     0.221 C 
ATOM      2  C   UNL     1      13.496 -22.374 -39.775  1.00  0.00     0.181 C 
ATOM      3  C   UNL     1      14.864 -21.993 -40.394  1.00  0.00     0.177 C 
ATOM      4  C   UNL     1      14.777 -20.655 -41.167  1.00  0.00     0.179 C 
ATOM      5  O   UNL     1      14.176 -19.634 -40.379  1.00  0.00    -0.332 OA
ATOM      6  C   UNL     1      12.860 -19.961 -39.986  1.00  0.00     0.339 C 
ENDROOT
BRANCH   1   7
ATOM      7  O   UNL     1      11.561 -21.443 -38.620  1.00  0.00    -0.337 OA
BRANCH   7   8
ATOM      8  C   UNL     1      11.399 -21.665 -37.219  1.00  0.00     0.282 C 
ATOM      9  C   UNL     1       9.156 -24.314 -36.765  1.00  0.00     0.041 C 
ATOM     10  C   UNL     1      10.186 -23.453 -36.004  1.00  0.00     0.150 C 
ATOM     11  C   UNL     1       9.527 -22.350 -35.155  1.00  0.00     0.174 C 
ATOM     12  O   UNL     1      11.215 -23.054 -36.907  1.00  0.00    -0.344 OA
ATOM     13  C   UNL     1       9.152 -21.181 -36.060  1.00  0.00     0.179 C 
ATOM     14  C   UNL     1      10.443 -20.592 -36.602  1.00  0.00     0.202 C 
BRANCH  11  15
ATOM     15  O   UNL     1       8.396 -22.854 -34.504  1.00  0.00    -0.388 OA
ATOM     16  H   UNL     1       8.551 -23.824 -34.389  1.00  0.00     0.211 HD
ENDBRANCH  11  15
BRANCH  13  17
ATOM     17  O   UNL     1       8.472 -20.191 -35.329  1.00  0.00    -0.387 OA
ATOM     18  H   UNL     1       7.553 -20.126 -35.714  1.00  0.00     0.211 HD
ENDBRANCH  13  17
BRANCH  14  19
ATOM     19  O   UNL     1      11.095 -19.878 -35.579  1.00  0.00    -0.385 OA
ATOM     20  H   UNL     1      12.067 -20.039 -35.715  1.00  0.00     0.211 HD
ENDBRANCH  14  19
ENDBRANCH   7   8
ENDBRANCH   1   7
BRANCH   2  21
ATOM     21  O   UNL     1      13.650 -23.445 -38.890  1.00  0.00    -0.387 OA
ATOM     22  H   UNL     1      14.294 -23.154 -38.194  1.00  0.00     0.211 HD
ENDBRANCH   2  21
BRANCH   6  23
ATOM     23  O   UNL     1      12.255 -18.837 -39.316  1.00  0.00    -0.462 OA
BRANCH  23  24
ATOM     24  C   UNL     1      10.961 -18.380 -39.599  1.00  0.00     0.130 A 
ATOM     25  C   UNL     1      10.536 -18.263 -40.934  1.00  0.00     0.093 A 
ATOM     26  C   UNL     1      10.075 -18.026 -38.574  1.00  0.00     0.094 A 
ATOM     27  C   UNL     1       9.251 -17.782 -41.244  1.00  0.00     0.133 A 
ATOM     28  C   UNL     1       8.807 -17.521 -38.871  1.00  0.00     0.138 A 
ATOM     29  C   UNL     1       8.362 -17.432 -40.199  1.00  0.00     0.102 A 
ATOM     30  O   UNL     1       7.981 -17.116 -37.826  1.00  0.00    -0.484 OA
ATOM     31  C   UNL     1       6.953 -17.011 -40.425  1.00  0.00     0.174 C 
ATOM     32  C   UNL     1       6.808 -16.336 -38.029  1.00  0.00     0.211 C 
ATOM     33  O   UNL     1       6.494 -16.833 -41.589  1.00  0.00    -0.294 OA
ATOM     34  C   UNL     1       6.019 -16.867 -39.241  1.00  0.00     0.131 C 
BRANCH  27  35
ATOM     35  O   UNL     1       8.860 -17.661 -42.574  1.00  0.00    -0.507 OA
ATOM     36  H   UNL     1       7.982 -17.224 -42.833  1.00  0.00     0.293 HD
ENDBRANCH  27  35
BRANCH  32  37
ATOM     37  C   UNL     1       6.045 -16.337 -36.728  1.00  0.00    -0.007 A 
ATOM     38  C   UNL     1       5.754 -15.110 -36.100  1.00  0.00     0.011 A 
ATOM     39  C   UNL     1       5.928 -17.525 -35.977  1.00  0.00     0.011 A 
ATOM     40  C   UNL     1       5.455 -15.063 -34.729  1.00  0.00     0.046 A 
ATOM     41  C   UNL     1       5.606 -17.480 -34.613  1.00  0.00     0.046 A 
ATOM     42  C   UNL     1       5.443 -16.242 -33.974  1.00  0.00     0.115 A 
BRANCH  42  43
ATOM     43  O   UNL     1       5.281 -16.181 -32.580  1.00  0.00    -0.508 OA
ATOM     44  H   UNL     1       5.728 -15.450 -32.035  1.00  0.00     0.293 HD
ENDBRANCH  42  43
ENDBRANCH  32  37
ENDBRANCH  23  24
ENDBRANCH   6  23
BRANCH   3  45
ATOM     45  O   UNL     1      15.814 -21.856 -39.367  1.00  0.00    -0.387 OA
ATOM     46  H   UNL     1      16.674 -21.591 -39.799  1.00  0.00     0.211 HD
ENDBRANCH   3  45
BRANCH   4  47
ATOM     47  C   UNL     1      14.135 -20.794 -42.567  1.00  0.00     0.191 C 
BRANCH  47  48
ATOM     48  O   UNL     1      14.611 -21.961 -43.186  1.00  0.00    -0.394 OA
ATOM     49  H   UNL     1      15.520 -22.101 -42.836  1.00  0.00     0.210 HD
ENDBRANCH  47  48
ENDBRANCH   4  47
TORSDOF 14
ENDMDL
MODEL 3
REMARK VINA RESULT:    -7.461      1.438      4.580
REMARK INTER + INTRA:         -13.606
REMARK INTER:                 -12.424
REMARK INTRA:                  -1.181
REMARK UNBOUND:                -1.782
REMARK SMILES C[C@H]1O[C@@H](O[C@@H]2[C@@H](Oc3cc(O)c4c(c3)O[C@H](c3ccc(O)cc3)CC4=O)O[C@H](CO)[C@@H](O)[C@H]2O)[C@H](O)[C@H](O)[C@H]1O
REMARK SMILES IDX 6 1 34 2 32 3 29 4 28 5 7 6 5 7 4 8 1 9 2 10 40 11 3 12
REMARK SMILES IDX 38 13 36 14 41 15 39 17 37 19 35 21 8 23 9 24 10 25 15 26
REMARK SMILES IDX 11 27 14 28 13 29 16 30 26 31 17 32 27 33 25 34 12 35 18 37
REMARK SMILES IDX 19 38 24 39 20 40 23 41 21 42 22 43 33 45 30 47 31 48
REMARK H PARENT 41 16 39 18 37 20 35 22 12 36 22 44 33 46 31 49
REMARK Flexibility Score: inf
ROOT
ATOM      1  C   UNL     1      10.482 -23.584 -38.544  1.00  0.00     0.221 C 
ATOM      2  C   UNL     1      10.962 -24.228 -37.232  1.00  0.00     0.181 C 
ATOM      3  C   UNL     1       9.763 -24.472 -36.281  1.00  0.00     0.177 C 
ATOM      4  C   UNL     1       8.872 -23.213 -36.167  1.00  0.00     0.179 C 
ATOM      5  O   UNL     1       8.520 -22.702 -37.448  1.00  0.00    -0.332 OA
ATOM      6  C   UNL     1       9.650 -22.331 -38.208  1.00  0.00     0.339 C 
ENDROOT
BRANCH   1   7
ATOM      7  O   UNL     1      11.581 -23.184 -39.346  1.00  0.00    -0.337 OA
BRANCH   7   8
ATOM      8  C   UNL     1      12.793 -22.944 -38.629  1.00  0.00     0.282 C 
ATOM      9  C   UNL     1      14.118 -19.879 -39.681  1.00  0.00     0.041 C 
ATOM     10  C   UNL     1      14.260 -20.947 -38.577  1.00  0.00     0.150 C 
ATOM     11  C   UNL     1      15.455 -21.890 -38.813  1.00  0.00     0.174 C 
ATOM     12  O   UNL     1      12.989 -21.551 -38.346  1.00  0.00    -0.344 OA
ATOM     13  C   UNL     1      15.063 -22.943 -39.843  1.00  0.00     0.179 C 
ATOM     14  C   UNL     1      13.962 -23.792 -39.232  1.00  0.00     0.202 C 
BRANCH  11  15
ATOM     15  O   UNL     1      16.566 -21.160 -39.250  1.00  0.00    -0.388 OA
ATOM     16  H   UNL     1      17.157 -21.056 -38.464  1.00  0.00     0.211 HD
ENDBRANCH  11  15
BRANCH  13  17
ATOM     17  O   UNL     1      16.159 -23.770 -40.145  1.00  0.00    -0.387 OA
ATOM     18  H   UNL     1      16.172 -24.497 -39.460  1.00  0.00     0.211 HD
ENDBRANCH  13  17
BRANCH  14  19
ATOM     19  O   UNL     1      14.514 -24.637 -38.252  1.00  0.00    -0.385 OA
ATOM     20  H   UNL     1      14.102 -24.358 -37.391  1.00  0.00     0.211 HD
ENDBRANCH  14  19
ENDBRANCH   7   8
ENDBRANCH   1   7
BRANCH   2  21
ATOM     21  O   UNL     1      11.610 -25.434 -37.509  1.00  0.00    -0.387 OA
ATOM     22  H   UNL     1      11.585 -25.974 -36.676  1.00  0.00     0.211 HD
ENDBRANCH   2  21
BRANCH   6  23
ATOM     23  O   UNL     1       9.230 -21.693 -39.431  1.00  0.00    -0.462 OA
BRANCH  23  24
ATOM     24  C   UNL     1       8.712 -20.391 -39.480  1.00  0.00     0.130 A 
ATOM     25  C   UNL     1       8.842 -19.629 -40.654  1.00  0.00     0.093 A 
ATOM     26  C   UNL     1       8.070 -19.824 -38.372  1.00  0.00     0.094 A 
ATOM     27  C   UNL     1       8.355 -18.312 -40.718  1.00  0.00     0.133 A 
ATOM     28  C   UNL     1       7.606 -18.506 -38.416  1.00  0.00     0.138 A 
ATOM     29  C   UNL     1       7.701 -17.750 -39.594  1.00  0.00     0.102 A 
ATOM     30  O   UNL     1       7.034 -17.956 -37.272  1.00  0.00    -0.484 OA
ATOM     31  C   UNL     1       7.065 -16.405 -39.600  1.00  0.00     0.174 C 
ATOM     32  C   UNL     1       6.798 -16.560 -37.126  1.00  0.00     0.211 C 
ATOM     33  O   UNL     1       7.168 -15.629 -40.592  1.00  0.00    -0.294 OA
ATOM     34  C   UNL     1       6.207 -15.981 -38.426  1.00  0.00     0.131 C 
BRANCH  27  35
ATOM     35  O   UNL     1       8.509 -17.573 -41.887  1.00  0.00    -0.507 OA
ATOM     36  H   UNL     1       7.714 -17.165 -42.368  1.00  0.00     0.293 HD
ENDBRANCH  27  35
BRANCH  32  37
ATOM     37  C   UNL     1       5.930 -16.384 -35.905  1.00  0.00    -0.007 A 
ATOM     38  C   UNL     1       5.678 -15.085 -35.421  1.00  0.00     0.011 A 
ATOM     39  C   UNL     1       5.664 -17.483 -35.062  1.00  0.00     0.011 A 
ATOM     40  C   UNL     1       5.270 -14.886 -34.093  1.00  0.00     0.046 A 
ATOM     41  C   UNL     1       5.232 -17.284 -33.742  1.00  0.00     0.046 A 
ATOM     42  C   UNL     1       5.108 -15.982 -33.237  1.00  0.00     0.115 A 
BRANCH  42  43
ATOM     43  O   UNL     1       4.834 -15.774 -31.875  1.00  0.00    -0.508 OA
ATOM     44  H   UNL     1       4.951 -14.858 -31.453  1.00  0.00     0.293 HD
ENDBRANCH  42  43
ENDBRANCH  32  37
ENDBRANCH  23  24
ENDBRANCH   6  23
BRANCH   3  45
ATOM     45  O   UNL     1       8.983 -25.530 -36.784  1.00  0.00    -0.387 OA
ATOM     46  H   UNL     1       8.995 -25.453 -37.779  1.00  0.00     0.211 HD
ENDBRANCH   3  45
BRANCH   4  47
ATOM     47  C   UNL     1       9.452 -22.132 -35.225  1.00  0.00     0.191 C 
BRANCH  47  48
ATOM     48  O   UNL     1      10.080 -22.752 -34.133  1.00  0.00    -0.394 OA
ATOM     49  H   UNL     1      11.047 -22.626 -34.271  1.00  0.00     0.210 HD
ENDBRANCH  47  48
ENDBRANCH   4  47
TORSDOF 14
ENDMDL
MODEL 4
REMARK VINA RESULT:    -7.093      5.366      9.770
REMARK INTER + INTRA:         -13.022
REMARK INTER:                 -11.357
REMARK INTRA:                  -1.665
REMARK UNBOUND:                -1.782
REMARK SMILES C[C@H]1O[C@@H](O[C@@H]2[C@@H](Oc3cc(O)c4c(c3)O[C@H](c3ccc(O)cc3)CC4=O)O[C@H](CO)[C@@H](O)[C@H]2O)[C@H](O)[C@H](O)[C@H]1O
REMARK SMILES IDX 6 1 34 2 32 3 29 4 28 5 7 6 5 7 4 8 1 9 2 10 40 11 3 12
REMARK SMILES IDX 38 13 36 14 41 15 39 17 37 19 35 21 8 23 9 24 10 25 15 26
REMARK SMILES IDX 11 27 14 28 13 29 16 30 26 31 17 32 27 33 25 34 12 35 18 37
REMARK SMILES IDX 19 38 24 39 20 40 23 41 21 42 22 43 33 45 30 47 31 48
REMARK H PARENT 41 16 39 18 37 20 35 22 12 36 22 44 33 46 31 49
REMARK Flexibility Score: inf
ROOT
ATOM      1  C   UNL     1       8.823 -14.269 -44.766  1.00  0.00     0.221 C 
ATOM      2  C   UNL     1       8.624 -14.396 -46.287  1.00  0.00     0.181 C 
ATOM      3  C   UNL     1       7.195 -13.947 -46.683  1.00  0.00     0.177 C 
ATOM      4  C   UNL     1       6.128 -14.601 -45.772  1.00  0.00     0.179 C 
ATOM      5  O   UNL     1       6.443 -14.435 -44.394  1.00  0.00    -0.332 OA
ATOM      6  C   UNL     1       7.682 -15.018 -44.051  1.00  0.00     0.339 C 
ENDROOT
BRANCH   1   7
ATOM      7  O   UNL     1      10.054 -14.848 -44.364  1.00  0.00    -0.337 OA
BRANCH   7   8
ATOM      8  C   UNL     1      10.958 -13.951 -43.720  1.00  0.00     0.282 C 
ATOM      9  C   UNL     1      10.233 -10.693 -44.776  1.00  0.00     0.041 C 
ATOM     10  C   UNL     1      11.030 -11.473 -43.710  1.00  0.00     0.150 C 
ATOM     11  C   UNL     1      12.531 -11.573 -44.045  1.00  0.00     0.174 C 
ATOM     12  O   UNL     1      10.346 -12.689 -43.415  1.00  0.00    -0.344 OA
ATOM     13  C   UNL     1      12.739 -12.678 -45.075  1.00  0.00     0.179 C 
ATOM     14  C   UNL     1      12.359 -13.993 -44.416  1.00  0.00     0.202 C 
BRANCH  11  15
ATOM     15  O   UNL     1      12.998 -10.348 -44.534  1.00  0.00    -0.388 OA
ATOM     16  H   UNL     1      13.265 -10.507 -45.473  1.00  0.00     0.211 HD
ENDBRANCH  11  15
BRANCH  13  17
ATOM     17  O   UNL     1      14.088 -12.739 -45.466  1.00  0.00    -0.387 OA
ATOM     18  H   UNL     1      14.566 -12.010 -44.977  1.00  0.00     0.211 HD
ENDBRANCH  13  17
BRANCH  14  19
ATOM     19  O   UNL     1      13.358 -14.358 -43.495  1.00  0.00    -0.385 OA
ATOM     20  H   UNL     1      13.637 -15.278 -43.750  1.00  0.00     0.211 HD
ENDBRANCH  14  19
ENDBRANCH   7   8
ENDBRANCH   1   7
BRANCH   2  21
ATOM     21  O   UNL     1       9.574 -13.618 -46.953  1.00  0.00    -0.387 OA
ATOM     22  H   UNL     1      10.259 -13.361 -46.283  1.00  0.00     0.211 HD
ENDBRANCH   2  21
BRANCH   6  23
ATOM     23  O   UNL     1       7.880 -14.943 -42.625  1.00  0.00    -0.462 OA
BRANCH  23  24
ATOM     24  C   UNL     1       7.530 -15.977 -41.746  1.00  0.00     0.130 A 
ATOM     25  C   UNL     1       7.433 -17.298 -42.220  1.00  0.00     0.093 A 
ATOM     26  C   UNL     1       7.263 -15.722 -40.395  1.00  0.00     0.094 A 
ATOM     27  C   UNL     1       7.058 -18.348 -41.363  1.00  0.00     0.133 A 
ATOM     28  C   UNL     1       6.862 -16.754 -39.541  1.00  0.00     0.138 A 
ATOM     29  C   UNL     1       6.796 -18.079 -39.997  1.00  0.00     0.102 A 
ATOM     30  O   UNL     1       6.540 -16.448 -38.222  1.00  0.00    -0.484 OA
ATOM     31  C   UNL     1       6.492 -19.136 -38.996  1.00  0.00     0.174 C 
ATOM     32  C   UNL     1       5.858 -17.359 -37.366  1.00  0.00     0.211 C 
ATOM     33  O   UNL     1       6.340 -20.344 -39.334  1.00  0.00    -0.294 OA
ATOM     34  C   UNL     1       6.440 -18.776 -37.525  1.00  0.00     0.131 C 
BRANCH  27  35
ATOM     35  O   UNL     1       6.955 -19.643 -41.860  1.00  0.00    -0.507 OA
ATOM     36  H   UNL     1       7.721 -20.304 -41.785  1.00  0.00     0.293 HD
ENDBRANCH  27  35
BRANCH  32  37
ATOM     37  C   UNL     1       5.938 -16.796 -35.969  1.00  0.00    -0.007 A 
ATOM     38  C   UNL     1       5.613 -17.622 -34.874  1.00  0.00     0.011 A 
ATOM     39  C   UNL     1       5.992 -15.401 -35.770  1.00  0.00     0.011 A 
ATOM     40  C   UNL     1       5.250 -17.061 -33.640  1.00  0.00     0.046 A 
ATOM     41  C   UNL     1       5.653 -14.842 -34.529  1.00  0.00     0.046 A 
ATOM     42  C   UNL     1       5.210 -15.669 -33.487  1.00  0.00     0.115 A 
BRANCH  42  43
ATOM     43  O   UNL     1       4.715 -15.108 -32.299  1.00  0.00    -0.508 OA
ATOM     44  H   UNL     1       4.311 -14.176 -32.290  1.00  0.00     0.293 HD
ENDBRANCH  42  43
ENDBRANCH  32  37
ENDBRANCH  23  24
ENDBRANCH   6  23
BRANCH   3  45
ATOM     45  O   UNL     1       7.097 -12.549 -46.555  1.00  0.00    -0.387 OA
ATOM     46  H   UNL     1       6.272 -12.269 -47.042  1.00  0.00     0.211 HD
ENDBRANCH   3  45
BRANCH   4  47
ATOM     47  C   UNL     1       5.816 -16.068 -46.148  1.00  0.00     0.191 C 
BRANCH  47  48
ATOM     48  O   UNL     1       4.505 -16.383 -45.757  1.00  0.00    -0.394 OA
ATOM     49  H   UNL     1       4.063 -16.743 -46.560  1.00  0.00     0.210 HD
ENDBRANCH  47  48
ENDBRANCH   4  47
TORSDOF 14
ENDMDL
MODEL 5
REMARK VINA RESULT:    -7.053      5.218      9.923
REMARK INTER + INTRA:         -12.959
REMARK INTER:                 -11.454
REMARK INTRA:                  -1.505
REMARK UNBOUND:                -1.782
REMARK SMILES C[C@H]1O[C@@H](O[C@@H]2[C@@H](Oc3cc(O)c4c(c3)O[C@H](c3ccc(O)cc3)CC4=O)O[C@H](CO)[C@@H](O)[C@H]2O)[C@H](O)[C@H](O)[C@H]1O
REMARK SMILES IDX 6 1 34 2 32 3 29 4 28 5 7 6 5 7 4 8 1 9 2 10 40 11 3 12
REMARK SMILES IDX 38 13 36 14 41 15 39 17 37 19 35 21 8 23 9 24 10 25 15 26
REMARK SMILES IDX 11 27 14 28 13 29 16 30 26 31 17 32 27 33 25 34 12 35 18 37
REMARK SMILES IDX 19 38 24 39 20 40 23 41 21 42 22 43 33 45 30 47 31 48
REMARK H PARENT 41 16 39 18 37 20 35 22 12 36 22 44 33 46 31 49
REMARK Flexibility Score: inf
ROOT
ATOM      1  C   UNL     1       9.218 -14.058 -46.102  1.00  0.00     0.221 C 
ATOM      2  C   UNL     1       9.109 -14.521 -47.566  1.00  0.00     0.181 C 
ATOM      3  C   UNL     1       7.654 -14.362 -48.074  1.00  0.00     0.177 C 
ATOM      4  C   UNL     1       6.640 -14.954 -47.067  1.00  0.00     0.179 C 
ATOM      5  O   UNL     1       6.865 -14.468 -45.749  1.00  0.00    -0.332 OA
ATOM      6  C   UNL     1       8.151 -14.793 -45.267  1.00  0.00     0.339 C 
ENDROOT
BRANCH   1   7
ATOM      7  O   UNL     1      10.493 -14.368 -45.564  1.00  0.00    -0.337 OA
BRANCH   7   8
ATOM      8  C   UNL     1      11.398 -13.266 -45.488  1.00  0.00     0.282 C 
ATOM      9  C   UNL     1      14.339 -14.350 -43.929  1.00  0.00     0.041 C 
ATOM     10  C   UNL     1      13.761 -13.177 -44.748  1.00  0.00     0.150 C 
ATOM     11  C   UNL     1      13.381 -11.970 -43.870  1.00  0.00     0.174 C 
ATOM     12  O   UNL     1      12.765 -13.676 -45.637  1.00  0.00    -0.344 OA
ATOM     13  C   UNL     1      12.029 -12.236 -43.215  1.00  0.00     0.179 C 
ATOM     14  C   UNL     1      10.992 -12.305 -44.322  1.00  0.00     0.202 C 
BRANCH  11  15
ATOM     15  O   UNL     1      14.365 -11.750 -42.900  1.00  0.00    -0.388 OA
ATOM     16  H   UNL     1      14.636 -10.802 -42.990  1.00  0.00     0.211 HD
ENDBRANCH  11  15
BRANCH  13  17
ATOM     17  O   UNL     1      11.691 -11.190 -42.340  1.00  0.00    -0.387 OA
ATOM     18  H   UNL     1      11.771 -10.340 -42.859  1.00  0.00     0.211 HD
ENDBRANCH  13  17
BRANCH  14  19
ATOM     19  O   UNL     1      10.748 -11.009 -44.813  1.00  0.00    -0.385 OA
ATOM     20  H   UNL     1      11.569 -10.749 -45.311  1.00  0.00     0.211 HD
ENDBRANCH  14  19
ENDBRANCH   7   8
ENDBRANCH   1   7
BRANCH   2  21
ATOM     21  O   UNL     1       9.981 -13.773 -48.362  1.00  0.00    -0.387 OA
ATOM     22  H   UNL     1      10.898 -14.099 -48.171  1.00  0.00     0.211 HD
ENDBRANCH   2  21
BRANCH   6  23
ATOM     23  O   UNL     1       8.271 -14.401 -43.886  1.00  0.00    -0.462 OA
BRANCH  23  24
ATOM     24  C   UNL     1       8.536 -15.308 -42.850  1.00  0.00     0.130 A 
ATOM     25  C   UNL     1       9.594 -16.225 -42.976  1.00  0.00     0.093 A 
ATOM     26  C   UNL     1       7.758 -15.327 -41.685  1.00  0.00     0.094 A 
ATOM     27  C   UNL     1       9.863 -17.161 -41.962  1.00  0.00     0.133 A 
ATOM     28  C   UNL     1       7.999 -16.272 -40.684  1.00  0.00     0.138 A 
ATOM     29  C   UNL     1       9.074 -17.168 -40.786  1.00  0.00     0.102 A 
ATOM     30  O   UNL     1       7.162 -16.303 -39.573  1.00  0.00    -0.484 OA
ATOM     31  C   UNL     1       9.345 -18.051 -39.620  1.00  0.00     0.174 C 
ATOM     32  C   UNL     1       7.144 -17.389 -38.653  1.00  0.00     0.211 C 
ATOM     33  O   UNL     1      10.245 -18.938 -39.656  1.00  0.00    -0.294 OA
ATOM     34  C   UNL     1       8.582 -17.836 -38.329  1.00  0.00     0.131 C 
BRANCH  27  35
ATOM     35  O   UNL     1      10.907 -18.068 -42.117  1.00  0.00    -0.507 OA
ATOM     36  H   UNL     1      11.873 -17.763 -42.179  1.00  0.00     0.293 HD
ENDBRANCH  27  35
BRANCH  32  37
ATOM     37  C   UNL     1       6.336 -16.945 -37.459  1.00  0.00    -0.007 A 
ATOM     38  C   UNL     1       6.228 -15.569 -37.175  1.00  0.00     0.011 A 
ATOM     39  C   UNL     1       5.989 -17.872 -36.454  1.00  0.00     0.011 A 
ATOM     40  C   UNL     1       5.882 -15.131 -35.887  1.00  0.00     0.046 A 
ATOM     41  C   UNL     1       5.621 -17.433 -35.174  1.00  0.00     0.046 A 
ATOM     42  C   UNL     1       5.640 -16.065 -34.871  1.00  0.00     0.115 A 
BRANCH  42  43
ATOM     43  O   UNL     1       5.431 -15.628 -33.553  1.00  0.00    -0.508 OA
ATOM     44  H   UNL     1       4.492 -15.462 -33.201  1.00  0.00     0.293 HD
ENDBRANCH  42  43
ENDBRANCH  32  37
ENDBRANCH  23  24
ENDBRANCH   6  23
BRANCH   3  45
ATOM     45  O   UNL     1       7.370 -12.995 -48.244  1.00  0.00    -0.387 OA
ATOM     46  H   UNL     1       7.552 -12.549 -47.370  1.00  0.00     0.211 HD
ENDBRANCH   3  45
BRANCH   4  47
ATOM     47  C   UNL     1       6.538 -16.496 -47.132  1.00  0.00     0.191 C 
BRANCH  47  48
ATOM     48  O   UNL     1       5.188 -16.875 -47.201  1.00  0.00    -0.394 OA
ATOM     49  H   UNL     1       4.672 -16.036 -47.202  1.00  0.00     0.210 HD
ENDBRANCH  47  48
ENDBRANCH   4  47
TORSDOF 14
ENDMDL
MODEL 6
REMARK VINA RESULT:    -7.024      6.327     10.429
REMARK INTER + INTRA:         -12.912
REMARK INTER:                 -12.576
REMARK INTRA:                  -0.336
REMARK UNBOUND:                -1.782
REMARK SMILES C[C@H]1O[C@@H](O[C@@H]2[C@@H](Oc3cc(O)c4c(c3)O[C@H](c3ccc(O)cc3)CC4=O)O[C@H](CO)[C@@H](O)[C@H]2O)[C@H](O)[C@H](O)[C@H]1O
REMARK SMILES IDX 6 1 34 2 32 3 29 4 28 5 7 6 5 7 4 8 1 9 2 10 40 11 3 12
REMARK SMILES IDX 38 13 36 14 41 15 39 17 37 19 35 21 8 23 9 24 10 25 15 26
REMARK SMILES IDX 11 27 14 28 13 29 16 30 26 31 17 32 27 33 25 34 12 35 18 37
REMARK SMILES IDX 19 38 24 39 20 40 23 41 21 42 22 43 33 45 30 47 31 48
REMARK H PARENT 41 16 39 18 37 20 35 22 12 36 22 44 33 46 31 49
REMARK Flexibility Score: inf
ROOT
ATOM      1  C   UNL     1      10.056 -12.300 -44.080  1.00  0.00     0.221 C 
ATOM      2  C   UNL     1      10.087 -11.384 -45.315  1.00  0.00     0.181 C 
ATOM      3  C   UNL     1       8.677 -11.289 -45.951  1.00  0.00     0.177 C 
ATOM      4  C   UNL     1       8.045 -12.691 -46.125  1.00  0.00     0.179 C 
ATOM      5  O   UNL     1       8.104 -13.445 -44.920  1.00  0.00    -0.332 OA
ATOM      6  C   UNL     1       9.428 -13.651 -44.477  1.00  0.00     0.339 C 
ENDROOT
BRANCH   1   7
ATOM      7  O   UNL     1      11.366 -12.547 -43.596  1.00  0.00    -0.337 OA
BRANCH   7   8
ATOM      8  C   UNL     1      12.407 -12.359 -44.556  1.00  0.00     0.282 C 
ATOM      9  C   UNL     1      14.409 -15.230 -44.601  1.00  0.00     0.041 C 
ATOM     10  C   UNL     1      14.125 -13.937 -45.393  1.00  0.00     0.150 C 
ATOM     11  C   UNL     1      15.175 -12.839 -45.137  1.00  0.00     0.174 C 
ATOM     12  O   UNL     1      12.754 -13.580 -45.225  1.00  0.00    -0.344 OA
ATOM     13  C   UNL     1      14.862 -12.150 -43.813  1.00  0.00     0.179 C 
ATOM     14  C   UNL     1      13.530 -11.439 -43.973  1.00  0.00     0.202 C 
BRANCH  11  15
ATOM     15  O   UNL     1      16.458 -13.397 -45.113  1.00  0.00    -0.388 OA
ATOM     16  H   UNL     1      16.854 -13.220 -46.002  1.00  0.00     0.211 HD
ENDBRANCH  11  15
BRANCH  13  17
ATOM     17  O   UNL     1      15.851 -11.199 -43.508  1.00  0.00    -0.387 OA
ATOM     18  H   UNL     1      15.909 -10.579 -44.289  1.00  0.00     0.211 HD
ENDBRANCH  13  17
BRANCH  14  19
ATOM     19  O   UNL     1      13.704 -10.299 -44.780  1.00  0.00    -0.385 OA
ATOM     20  H   UNL     1      13.323 -10.536 -45.668  1.00  0.00     0.211 HD
ENDBRANCH  14  19
ENDBRANCH   7   8
ENDBRANCH   1   7
BRANCH   2  21
ATOM     21  O   UNL     1      10.534 -10.112 -44.947  1.00  0.00    -0.387 OA
ATOM     22  H   UNL     1      10.951 -10.200 -44.051  1.00  0.00     0.211 HD
ENDBRANCH   2  21
BRANCH   6  23
ATOM     23  O   UNL     1       9.432 -14.534 -43.339  1.00  0.00    -0.462 OA
BRANCH  23  24
ATOM     24  C   UNL     1       8.263 -15.053 -42.765  1.00  0.00     0.130 A 
ATOM     25  C   UNL     1       7.195 -15.449 -43.589  1.00  0.00     0.093 A 
ATOM     26  C   UNL     1       8.130 -15.179 -41.377  1.00  0.00     0.094 A 
ATOM     27  C   UNL     1       6.002 -15.948 -43.036  1.00  0.00     0.133 A 
ATOM     28  C   UNL     1       6.939 -15.647 -40.815  1.00  0.00     0.138 A 
ATOM     29  C   UNL     1       5.881 -16.077 -41.630  1.00  0.00     0.102 A 
ATOM     30  O   UNL     1       6.822 -15.694 -39.429  1.00  0.00    -0.484 OA
ATOM     31  C   UNL     1       4.700 -16.686 -40.960  1.00  0.00     0.174 C 
ATOM     32  C   UNL     1       5.574 -15.878 -38.769  1.00  0.00     0.211 C 
ATOM     33  O   UNL     1       3.674 -17.030 -41.612  1.00  0.00    -0.294 OA
ATOM     34  C   UNL     1       4.755 -16.976 -39.474  1.00  0.00     0.131 C 
BRANCH  27  35
ATOM     35  O   UNL     1       4.954 -16.319 -43.872  1.00  0.00    -0.507 OA
ATOM     36  H   UNL     1       4.005 -16.413 -43.526  1.00  0.00     0.293 HD
ENDBRANCH  27  35
BRANCH  32  37
ATOM     37  C   UNL     1       5.878 -16.151 -37.317  1.00  0.00    -0.007 A 
ATOM     38  C   UNL     1       6.066 -17.481 -36.891  1.00  0.00     0.011 A 
ATOM     39  C   UNL     1       5.639 -15.158 -36.344  1.00  0.00     0.011 A 
ATOM     40  C   UNL     1       5.914 -17.826 -35.539  1.00  0.00     0.046 A 
ATOM     41  C   UNL     1       5.512 -15.499 -34.990  1.00  0.00     0.046 A 
ATOM     42  C   UNL     1       5.576 -16.844 -34.599  1.00  0.00     0.115 A 
BRANCH  42  43
ATOM     43  O   UNL     1       5.290 -17.211 -33.274  1.00  0.00    -0.508 OA
ATOM     44  H   UNL     1       6.026 -17.262 -32.576  1.00  0.00     0.293 HD
ENDBRANCH  42  43
ENDBRANCH  32  37
ENDBRANCH  23  24
ENDBRANCH   6  23
BRANCH   3  45
ATOM     45  O   UNL     1       7.844 -10.522 -45.117  1.00  0.00    -0.387 OA
ATOM     46  H   UNL     1       8.369  -9.719 -44.841  1.00  0.00     0.211 HD
ENDBRANCH   3  45
BRANCH   4  47
ATOM     47  C   UNL     1       8.591 -13.464 -47.348  1.00  0.00     0.191 C 
BRANCH  47  48
ATOM     48  O   UNL     1       7.654 -13.410 -48.393  1.00  0.00    -0.394 OA
ATOM     49  H   UNL     1       8.059 -13.900 -49.144  1.00  0.00     0.210 HD
ENDBRANCH  47  48
ENDBRANCH   4  47
TORSDOF 14
ENDMDL
MODEL 7
REMARK VINA RESULT:    -6.695      8.042     12.423
REMARK INTER + INTRA:         -12.391
REMARK INTER:                 -11.053
REMARK INTRA:                  -1.338
REMARK UNBOUND:                -1.782
REMARK SMILES C[C@H]1O[C@@H](O[C@@H]2[C@@H](Oc3cc(O)c4c(c3)O[C@H](c3ccc(O)cc3)CC4=O)O[C@H](CO)[C@@H](O)[C@H]2O)[C@H](O)[C@H](O)[C@H]1O
REMARK SMILES IDX 6 1 34 2 32 3 29 4 28 5 7 6 5 7 4 8 1 9 2 10 40 11 3 12
REMARK SMILES IDX 38 13 36 14 41 15 39 17 37 19 35 21 8 23 9 24 10 25 15 26
REMARK SMILES IDX 11 27 14 28 13 29 16 30 26 31 17 32 27 33 25 34 12 35 18 37
REMARK SMILES IDX 19 38 24 39 20 40 23 41 21 42 22 43 33 45 30 47 31 48
REMARK H PARENT 41 16 39 18 37 20 35 22 12 36 22 44 33 46 31 49
REMARK Flexibility Score: inf
ROOT
ATOM      1  C   UNL     1      12.494 -12.909 -44.491  1.00  0.00     0.221 C 
ATOM      2  C   UNL     1      12.923 -12.024 -43.308  1.00  0.00     0.181 C 
ATOM      3  C   UNL     1      14.096 -11.100 -43.723  1.00  0.00     0.177 C 
ATOM      4  C   UNL     1      15.205 -11.895 -44.452  1.00  0.00     0.179 C 
ATOM      5  O   UNL     1      14.674 -12.692 -45.505  1.00  0.00    -0.332 OA
ATOM      6  C   UNL     1      13.734 -13.638 -45.043  1.00  0.00     0.339 C 
ENDROOT
BRANCH   1   7
ATOM      7  O   UNL     1      11.552 -13.886 -44.079  1.00  0.00    -0.337 OA
BRANCH   7   8
ATOM      8  C   UNL     1      10.186 -13.482 -44.173  1.00  0.00     0.282 C 
ATOM      9  C   UNL     1       8.451 -15.858 -46.070  1.00  0.00     0.041 C 
ATOM     10  C   UNL     1       8.224 -14.657 -45.129  1.00  0.00     0.150 C 
ATOM     11  C   UNL     1       7.890 -13.359 -45.889  1.00  0.00     0.174 C 
ATOM     12  O   UNL     1       9.288 -14.601 -44.181  1.00  0.00    -0.344 OA
ATOM     13  C   UNL     1       9.180 -12.750 -46.427  1.00  0.00     0.179 C 
ATOM     14  C   UNL     1      10.024 -12.341 -45.232  1.00  0.00     0.202 C 
BRANCH  11  15
ATOM     15  O   UNL     1       6.998 -13.629 -46.933  1.00  0.00    -0.388 OA
ATOM     16  H   UNL     1       6.092 -13.606 -46.536  1.00  0.00     0.211 HD
ENDBRANCH  11  15
BRANCH  13  17
ATOM     17  O   UNL     1       8.902 -11.609 -47.198  1.00  0.00    -0.387 OA
ATOM     18  H   UNL     1       9.332 -10.834 -46.737  1.00  0.00     0.211 HD
ENDBRANCH  13  17
BRANCH  14  19
ATOM     19  O   UNL     1       9.468 -11.193 -44.640  1.00  0.00    -0.385 OA
ATOM     20  H   UNL     1       8.949 -10.742 -45.359  1.00  0.00     0.211 HD
ENDBRANCH  14  19
ENDBRANCH   7   8
ENDBRANCH   1   7
BRANCH   2  21
ATOM     21  O   UNL     1      11.838 -11.257 -42.874  1.00  0.00    -0.387 OA
ATOM     22  H   UNL     1      11.442 -10.836 -43.680  1.00  0.00     0.211 HD
ENDBRANCH   2  21
BRANCH   6  23
ATOM     23  O   UNL     1      13.338 -14.504 -46.125  1.00  0.00    -0.462 OA
BRANCH  23  24
ATOM     24  C   UNL     1      14.082 -15.623 -46.524  1.00  0.00     0.130 A 
ATOM     25  C   UNL     1      14.180 -15.948 -47.889  1.00  0.00     0.093 A 
ATOM     26  C   UNL     1      14.731 -16.436 -45.587  1.00  0.00     0.094 A 
ATOM     27  C   UNL     1      14.899 -17.080 -48.312  1.00  0.00     0.133 A 
ATOM     28  C   UNL     1      15.425 -17.578 -45.994  1.00  0.00     0.138 A 
ATOM     29  C   UNL     1      15.556 -17.892 -47.355  1.00  0.00     0.102 A 
ATOM     30  O   UNL     1      15.999 -18.398 -45.026  1.00  0.00    -0.484 OA
ATOM     31  C   UNL     1      16.421 -19.048 -47.714  1.00  0.00     0.174 C 
ATOM     32  C   UNL     1      16.469 -19.711 -45.310  1.00  0.00     0.211 C 
ATOM     33  O   UNL     1      16.534 -19.445 -48.908  1.00  0.00    -0.294 OA
ATOM     34  C   UNL     1      17.250 -19.720 -46.638  1.00  0.00     0.131 C 
BRANCH  27  35
ATOM     35  O   UNL     1      14.968 -17.389 -49.667  1.00  0.00    -0.507 OA
ATOM     36  H   UNL     1      14.766 -16.698 -50.382  1.00  0.00     0.293 HD
ENDBRANCH  27  35
BRANCH  32  37
ATOM     37  C   UNL     1      17.260 -20.167 -44.110  1.00  0.00    -0.007 A 
ATOM     38  C   UNL     1      16.594 -20.828 -43.058  1.00  0.00     0.011 A 
ATOM     39  C   UNL     1      18.550 -19.648 -43.872  1.00  0.00     0.011 A 
ATOM     40  C   UNL     1      17.160 -20.877 -41.775  1.00  0.00     0.046 A 
ATOM     41  C   UNL     1      19.125 -19.718 -42.595  1.00  0.00     0.046 A 
ATOM     42  C   UNL     1      18.397 -20.267 -41.530  1.00  0.00     0.115 A 
BRANCH  42  43
ATOM     43  O   UNL     1      18.897 -20.196 -40.220  1.00  0.00    -0.508 OA
ATOM     44  H   UNL     1      18.310 -20.427 -39.424  1.00  0.00     0.293 HD
ENDBRANCH  42  43
ENDBRANCH  32  37
ENDBRANCH  23  24
ENDBRANCH   6  23
BRANCH   3  45
ATOM     45  O   UNL     1      13.614 -10.104 -44.592  1.00  0.00    -0.387 OA
ATOM     46  H   UNL     1      13.653 -10.480 -45.516  1.00  0.00     0.211 HD
ENDBRANCH   3  45
BRANCH   4  47
ATOM     47  C   UNL     1      16.119 -12.694 -43.494  1.00  0.00     0.191 C 
BRANCH  47  48
ATOM     48  O   UNL     1      16.330 -11.952 -42.320  1.00  0.00    -0.394 OA
ATOM     49  H   UNL     1      15.485 -11.999 -41.816  1.00  0.00     0.210 HD
ENDBRANCH  47  48
ENDBRANCH   4  47
TORSDOF 14
ENDMDL
MODEL 8
REMARK VINA RESULT:    -6.626      1.685      5.056
REMARK INTER + INTRA:         -12.283
REMARK INTER:                 -10.454
REMARK INTRA:                  -1.829
REMARK UNBOUND:                -1.782
REMARK SMILES C[C@H]1O[C@@H](O[C@@H]2[C@@H](Oc3cc(O)c4c(c3)O[C@H](c3ccc(O)cc3)CC4=O)O[C@H](CO)[C@@H](O)[C@H]2O)[C@H](O)[C@H](O)[C@H]1O
REMARK SMILES IDX 6 1 34 2 32 3 29 4 28 5 7 6 5 7 4 8 1 9 2 10 40 11 3 12
REMARK SMILES IDX 38 13 36 14 41 15 39 17 37 19 35 21 8 23 9 24 10 25 15 26
REMARK SMILES IDX 11 27 14 28 13 29 16 30 26 31 17 32 27 33 25 34 12 35 18 37
REMARK SMILES IDX 19 38 24 39 20 40 23 41 21 42 22 43 33 45 30 47 31 48
REMARK H PARENT 41 16 39 18 37 20 35 22 12 36 22 44 33 46 31 49
REMARK Flexibility Score: inf
ROOT
ATOM      1  C   UNL     1      10.700 -22.598 -38.564  1.00  0.00     0.221 C 
ATOM      2  C   UNL     1      11.260 -23.216 -37.271  1.00  0.00     0.181 C 
ATOM      3  C   UNL     1      10.251 -24.231 -36.678  1.00  0.00     0.177 C 
ATOM      4  C   UNL     1       8.824 -23.635 -36.618  1.00  0.00     0.179 C 
ATOM      5  O   UNL     1       8.438 -23.074 -37.867  1.00  0.00    -0.332 OA
ATOM      6  C   UNL     1       9.296 -22.031 -38.277  1.00  0.00     0.339 C 
ENDROOT
BRANCH   1   7
ATOM      7  O   UNL     1      11.523 -21.536 -39.018  1.00  0.00    -0.337 OA
BRANCH   7   8
ATOM      8  C   UNL     1      12.236 -21.802 -40.226  1.00  0.00     0.282 C 
ATOM      9  C   UNL     1      15.663 -21.493 -39.583  1.00  0.00     0.041 C 
ATOM     10  C   UNL     1      14.670 -22.019 -40.640  1.00  0.00     0.150 C 
ATOM     11  C   UNL     1      14.496 -21.052 -41.826  1.00  0.00     0.174 C 
ATOM     12  O   UNL     1      13.485 -22.465 -39.984  1.00  0.00    -0.344 OA
ATOM     13  C   UNL     1      13.543 -19.933 -41.421  1.00  0.00     0.179 C 
ATOM     14  C   UNL     1      12.181 -20.561 -41.178  1.00  0.00     0.202 C 
BRANCH  11  15
ATOM     15  O   UNL     1      15.738 -20.530 -42.207  1.00  0.00    -0.388 OA
ATOM     16  H   UNL     1      15.581 -20.024 -43.043  1.00  0.00     0.211 HD
ENDBRANCH  11  15
BRANCH  13  17
ATOM     17  O   UNL     1      13.428 -18.986 -42.454  1.00  0.00    -0.387 OA
ATOM     18  H   UNL     1      13.491 -18.084 -42.029  1.00  0.00     0.211 HD
ENDBRANCH  13  17
BRANCH  14  19
ATOM     19  O   UNL     1      11.601 -20.910 -42.411  1.00  0.00    -0.385 OA
ATOM     20  H   UNL     1      11.197 -20.073 -42.766  1.00  0.00     0.211 HD
ENDBRANCH  14  19
ENDBRANCH   7   8
ENDBRANCH   1   7
BRANCH   2  21
ATOM     21  O   UNL     1      12.477 -23.848 -37.539  1.00  0.00    -0.387 OA
ATOM     22  H   UNL     1      12.842 -24.153 -36.668  1.00  0.00     0.211 HD
ENDBRANCH   2  21
BRANCH   6  23
ATOM     23  O   UNL     1       8.777 -21.411 -39.471  1.00  0.00    -0.462 OA
BRANCH  23  24
ATOM     24  C   UNL     1       8.237 -20.118 -39.492  1.00  0.00     0.130 A 
ATOM     25  C   UNL     1       8.325 -19.340 -40.660  1.00  0.00     0.093 A 
ATOM     26  C   UNL     1       7.613 -19.573 -38.362  1.00  0.00     0.094 A 
ATOM     27  C   UNL     1       7.814 -18.031 -40.697  1.00  0.00     0.133 A 
ATOM     28  C   UNL     1       7.127 -18.263 -38.379  1.00  0.00     0.138 A 
ATOM     29  C   UNL     1       7.180 -17.492 -39.550  1.00  0.00     0.102 A 
ATOM     30  O   UNL     1       6.575 -17.735 -37.215  1.00  0.00    -0.484 OA
ATOM     31  C   UNL     1       6.523 -16.158 -39.525  1.00  0.00     0.174 C 
ATOM     32  C   UNL     1       6.320 -16.345 -37.047  1.00  0.00     0.211 C 
ATOM     33  O   UNL     1       6.588 -15.370 -40.511  1.00  0.00    -0.294 OA
ATOM     34  C   UNL     1       5.687 -15.762 -38.325  1.00  0.00     0.131 C 
BRANCH  27  35
ATOM     35  O   UNL     1       7.927 -17.277 -41.861  1.00  0.00    -0.507 OA
ATOM     36  H   UNL     1       7.110 -16.935 -42.355  1.00  0.00     0.293 HD
ENDBRANCH  27  35
BRANCH  32  37
ATOM     37  C   UNL     1       5.480 -16.197 -35.803  1.00  0.00    -0.007 A 
ATOM     38  C   UNL     1       4.819 -14.977 -35.559  1.00  0.00     0.011 A 
ATOM     39  C   UNL     1       5.625 -17.112 -34.739  1.00  0.00     0.011 A 
ATOM     40  C   UNL     1       4.407 -14.636 -34.262  1.00  0.00     0.046 A 
ATOM     41  C   UNL     1       5.191 -16.780 -33.447  1.00  0.00     0.046 A 
ATOM     42  C   UNL     1       4.649 -15.511 -33.196  1.00  0.00     0.115 A 
BRANCH  42  43
ATOM     43  O   UNL     1       4.362 -15.111 -31.880  1.00  0.00    -0.508 OA
ATOM     44  H   UNL     1       3.952 -15.760 -31.215  1.00  0.00     0.293 HD
ENDBRANCH  42  43
ENDBRANCH  32  37
ENDBRANCH  23  24
ENDBRANCH   6  23
BRANCH   3  45
ATOM     45  O   UNL     1      10.223 -25.381 -37.487  1.00  0.00    -0.387 OA
ATOM     46  H   UNL     1      10.181 -25.069 -38.435  1.00  0.00     0.211 HD
ENDBRANCH   3  45
BRANCH   4  47
ATOM     47  C   UNL     1       8.612 -22.668 -35.430  1.00  0.00     0.191 C 
BRANCH  47  48
ATOM     48  O   UNL     1       9.310 -23.143 -34.308  1.00  0.00    -0.394 OA
ATOM     49  H   UNL     1       8.943 -22.655 -33.536  1.00  0.00     0.210 HD
ENDBRANCH  47  48
ENDBRANCH   4  47
TORSDOF 14
ENDMDL
MODEL 9
REMARK VINA RESULT:    -6.620      2.062      9.561
REMARK INTER + INTRA:         -12.273
REMARK INTER:                 -10.269
REMARK INTRA:                  -2.004
REMARK UNBOUND:                -1.782
REMARK SMILES C[C@H]1O[C@@H](O[C@@H]2[C@@H](Oc3cc(O)c4c(c3)O[C@H](c3ccc(O)cc3)CC4=O)O[C@H](CO)[C@@H](O)[C@H]2O)[C@H](O)[C@H](O)[C@H]1O
REMARK SMILES IDX 6 1 34 2 32 3 29 4 28 5 7 6 5 7 4 8 1 9 2 10 40 11 3 12
REMARK SMILES IDX 38 13 36 14 41 15 39 17 37 19 35 21 8 23 9 24 10 25 15 26
REMARK SMILES IDX 11 27 14 28 13 29 16 30 26 31 17 32 27 33 25 34 12 35 18 37
REMARK SMILES IDX 19 38 24 39 20 40 23 41 21 42 22 43 33 45 30 47 31 48
REMARK H PARENT 41 16 39 18 37 20 35 22 12 36 22 44 33 46 31 49
REMARK Flexibility Score: inf
ROOT
ATOM      1  C   UNL     1       4.908 -16.424 -37.613  1.00  0.00     0.221 C 
ATOM      2  C   UNL     1       3.684 -16.008 -36.779  1.00  0.00     0.181 C 
ATOM      3  C   UNL     1       4.107 -15.030 -35.653  1.00  0.00     0.177 C 
ATOM      4  C   UNL     1       5.341 -15.559 -34.885  1.00  0.00     0.179 C 
ATOM      5  O   UNL     1       6.390 -15.933 -35.771  1.00  0.00    -0.332 OA
ATOM      6  C   UNL     1       6.001 -16.954 -36.664  1.00  0.00     0.339 C 
ENDROOT
BRANCH   1   7
ATOM      7  O   UNL     1       4.574 -17.457 -38.526  1.00  0.00    -0.337 OA
BRANCH   7   8
ATOM      8  C   UNL     1       4.767 -17.129 -39.902  1.00  0.00     0.282 C 
ATOM      9  C   UNL     1       7.417 -19.053 -41.141  1.00  0.00     0.041 C 
ATOM     10  C   UNL     1       6.257 -18.146 -41.602  1.00  0.00     0.150 C 
ATOM     11  C   UNL     1       6.722 -16.723 -41.963  1.00  0.00     0.174 C 
ATOM     12  O   UNL     1       5.178 -18.265 -40.678  1.00  0.00    -0.344 OA
ATOM     13  C   UNL     1       6.901 -15.917 -40.680  1.00  0.00     0.179 C 
ATOM     14  C   UNL     1       5.532 -15.771 -40.039  1.00  0.00     0.202 C 
BRANCH  11  15
ATOM     15  O   UNL     1       7.920 -16.776 -42.684  1.00  0.00    -0.388 OA
ATOM     16  H   UNL     1       8.607 -17.112 -42.057  1.00  0.00     0.211 HD
ENDBRANCH  11  15
BRANCH  13  17
ATOM     17  O   UNL     1       7.407 -14.638 -40.969  1.00  0.00    -0.387 OA
ATOM     18  H   UNL     1       6.713 -14.166 -41.511  1.00  0.00     0.211 HD
ENDBRANCH  13  17
BRANCH  14  19
ATOM     19  O   UNL     1       4.769 -14.846 -40.776  1.00  0.00    -0.385 OA
ATOM     20  H   UNL     1       5.030 -14.977 -41.727  1.00  0.00     0.211 HD
ENDBRANCH  14  19
ENDBRANCH   7   8
ENDBRANCH   1   7
BRANCH   2  21
ATOM     21  O   UNL     1       2.732 -15.406 -37.606  1.00  0.00    -0.387 OA
ATOM     22  H   UNL     1       1.900 -15.940 -37.525  1.00  0.00     0.211 HD
ENDBRANCH   2  21
BRANCH   6  23
ATOM     23  O   UNL     1       7.137 -17.388 -37.438  1.00  0.00    -0.462 OA
BRANCH  23  24
ATOM     24  C   UNL     1       7.629 -18.700 -37.410  1.00  0.00     0.130 A 
ATOM     25  C   UNL     1       6.810 -19.746 -36.950  1.00  0.00     0.093 A 
ATOM     26  C   UNL     1       8.933 -18.995 -37.827  1.00  0.00     0.094 A 
ATOM     27  C   UNL     1       7.289 -21.066 -36.888  1.00  0.00     0.133 A 
ATOM     28  C   UNL     1       9.429 -20.299 -37.745  1.00  0.00     0.138 A 
ATOM     29  C   UNL     1       8.609 -21.354 -37.318  1.00  0.00     0.102 A 
ATOM     30  O   UNL     1      10.752 -20.540 -38.105  1.00  0.00    -0.484 OA
ATOM     31  C   UNL     1       9.168 -22.731 -37.385  1.00  0.00     0.174 C 
ATOM     32  C   UNL     1      11.426 -21.754 -37.790  1.00  0.00     0.211 C 
ATOM     33  O   UNL     1       8.525 -23.729 -36.951  1.00  0.00    -0.294 OA
ATOM     34  C   UNL     1      10.506 -22.959 -38.059  1.00  0.00     0.131 C 
BRANCH  27  35
ATOM     35  O   UNL     1       6.464 -22.081 -36.414  1.00  0.00    -0.507 OA
ATOM     36  H   UNL     1       5.623 -22.358 -36.910  1.00  0.00     0.293 HD
ENDBRANCH  27  35
BRANCH  32  37
ATOM     37  C   UNL     1      12.717 -21.757 -38.570  1.00  0.00    -0.007 A 
ATOM     38  C   UNL     1      13.616 -22.830 -38.408  1.00  0.00     0.011 A 
ATOM     39  C   UNL     1      13.183 -20.571 -39.174  1.00  0.00     0.011 A 
ATOM     40  C   UNL     1      14.970 -22.683 -38.746  1.00  0.00     0.046 A 
ATOM     41  C   UNL     1      14.531 -20.433 -39.533  1.00  0.00     0.046 A 
ATOM     42  C   UNL     1      15.439 -21.464 -39.250  1.00  0.00     0.115 A 
BRANCH  42  43
ATOM     43  O   UNL     1      16.815 -21.273 -39.457  1.00  0.00    -0.508 OA
ATOM     44  H   UNL     1      17.325 -21.839 -40.129  1.00  0.00     0.293 HD
ENDBRANCH  42  43
ENDBRANCH  32  37
ENDBRANCH  23  24
ENDBRANCH   6  23
BRANCH   3  45
ATOM     45  O   UNL     1       4.431 -13.784 -36.221  1.00  0.00    -0.387 OA
ATOM     46  H   UNL     1       3.569 -13.330 -36.438  1.00  0.00     0.211 HD
ENDBRANCH   3  45
BRANCH   4  47
ATOM     47  C   UNL     1       4.998 -16.661 -33.856  1.00  0.00     0.191 C 
BRANCH  47  48
ATOM     48  O   UNL     1       5.636 -16.379 -32.637  1.00  0.00    -0.394 OA
ATOM     49  H   UNL     1       6.550 -16.735 -32.722  1.00  0.00     0.210 HD
ENDBRANCH  47  48
ENDBRANCH   4  47
TORSDOF 14
ENDMDL
