MODEL 1
REMARK VINA RESULT:    -4.962      0.000      0.000
REMARK INTER + INTRA:          -5.684
REMARK INTER:                  -5.542
REMARK INTRA:                  -0.142
REMARK UNBOUND:                -0.142
REMARK SMILES O=C([O-])c1ccccc1C(=O)[O-]
REMARK SMILES IDX 4 1 9 2 5 3 8 4 6 5 7 6 2 7 1 8 3 9 10 10 11 11 12 12
REMARK H PARENT
REMARK Flexibility Score: inf
ROOT
ATOM      1  C   UNL     1     106.662 111.078  95.267  1.00  0.00     0.006 A 
ATOM      2  C   UNL     1     107.984 111.366  95.707  1.00  0.00     0.006 A 
ATOM      3  C   UNL     1     106.356 109.779  94.822  1.00  0.00     0.010 A 
ATOM      4  C   UNL     1     108.966 110.361  95.625  1.00  0.00     0.010 A 
ATOM      5  C   UNL     1     107.341 108.792  94.770  1.00  0.00     0.001 A 
ATOM      6  C   UNL     1     108.646 109.086  95.159  1.00  0.00     0.001 A 
ENDROOT
BRANCH   1   7
ATOM      7  C   UNL     1     105.598 112.106  95.186  1.00  0.00     0.072 C 
ATOM      8  O   UNL     1     105.597 112.962  94.263  1.00  0.00    -0.545 OA
ATOM      9  O   UNL     1     104.548 112.094  96.097  1.00  0.00    -0.545 OA
ENDBRANCH   1   7
BRANCH   2  10
ATOM     10  C   UNL     1     108.360 112.661  96.318  1.00  0.00     0.072 C 
ATOM     11  O   UNL     1     109.222 113.396  95.766  1.00  0.00    -0.545 OA
ATOM     12  O   UNL     1     107.820 113.053  97.538  1.00  0.00    -0.545 OA
ENDBRANCH   2  10
TORSDOF 2
ENDMDL
MODEL 2
REMARK VINA RESULT:    -4.951      2.069      2.160
REMARK INTER + INTRA:          -5.672
REMARK INTER:                  -5.452
REMARK INTRA:                  -0.220
REMARK UNBOUND:                -0.142
REMARK SMILES O=C([O-])c1ccccc1C(=O)[O-]
REMARK SMILES IDX 4 1 9 2 5 3 8 4 6 5 7 6 2 7 1 8 3 9 10 10 11 11 12 12
REMARK H PARENT
REMARK Flexibility Score: inf
ROOT
ATOM      1  C   UNL     1     107.253 111.366  93.852  1.00  0.00     0.006 A 
ATOM      2  C   UNL     1     108.614 111.534  94.229  1.00  0.00     0.006 A 
ATOM      3  C   UNL     1     106.956 110.765  92.615  1.00  0.00     0.010 A 
ATOM      4  C   UNL     1     109.627 111.154  93.328  1.00  0.00     0.010 A 
ATOM      5  C   UNL     1     107.976 110.376  91.746  1.00  0.00     0.001 A 
ATOM      6  C   UNL     1     109.308 110.580  92.097  1.00  0.00     0.001 A 
ENDROOT
BRANCH   1   7
ATOM      7  C   UNL     1     106.123 111.860  94.672  1.00  0.00     0.072 C 
ATOM      8  O   UNL     1     105.612 112.990  94.452  1.00  0.00    -0.545 OA
ATOM      9  O   UNL     1     105.567 111.048  95.654  1.00  0.00    -0.545 OA
ENDBRANCH   1   7
BRANCH   2  10
ATOM     10  C   UNL     1     109.019 112.028  95.566  1.00  0.00     0.072 C 
ATOM     11  O   UNL     1     109.248 111.214  96.500  1.00  0.00    -0.545 OA
ATOM     12  O   UNL     1     109.087 113.391  95.828  1.00  0.00    -0.545 OA
ENDBRANCH   2  10
TORSDOF 2
ENDMDL
MODEL 3
REMARK VINA RESULT:    -4.950      2.064      3.610
REMARK INTER + INTRA:          -5.671
REMARK INTER:                  -5.450
REMARK INTRA:                  -0.221
REMARK UNBOUND:                -0.142
REMARK SMILES O=C([O-])c1ccccc1C(=O)[O-]
REMARK SMILES IDX 4 1 9 2 5 3 8 4 6 5 7 6 2 7 1 8 3 9 10 10 11 11 12 12
REMARK H PARENT
REMARK Flexibility Score: inf
ROOT
ATOM      1  C   UNL     1     108.586 111.558  94.243  1.00  0.00     0.006 A 
ATOM      2  C   UNL     1     107.240 111.390  93.814  1.00  0.00     0.006 A 
ATOM      3  C   UNL     1     109.631 111.176  93.382  1.00  0.00     0.010 A 
ATOM      4  C   UNL     1     106.989 110.786  92.567  1.00  0.00     0.010 A 
ATOM      5  C   UNL     1     109.359 110.599  92.141  1.00  0.00     0.001 A 
ATOM      6  C   UNL     1     108.042 110.394  91.740  1.00  0.00     0.001 A 
ENDROOT
BRANCH   1   7
ATOM      7  C   UNL     1     108.946 112.055  95.591  1.00  0.00     0.072 C 
ATOM      8  O   UNL     1     109.223 111.254  96.522  1.00  0.00    -0.545 OA
ATOM      9  O   UNL     1     109.047 113.422  95.826  1.00  0.00    -0.545 OA
ENDBRANCH   1   7
BRANCH   2  10
ATOM     10  C   UNL     1     106.084 111.889  94.593  1.00  0.00     0.072 C 
ATOM     11  O   UNL     1     105.636 113.049  94.390  1.00  0.00    -0.545 OA
ATOM     12  O   UNL     1     105.519 111.115  95.600  1.00  0.00    -0.545 OA
ENDBRANCH   2  10
TORSDOF 2
ENDMDL
MODEL 4
REMARK VINA RESULT:    -4.685      6.314      7.543
REMARK INTER + INTRA:          -5.375
REMARK INTER:                  -5.311
REMARK INTRA:                  -0.065
REMARK UNBOUND:                -0.142
REMARK SMILES O=C([O-])c1ccccc1C(=O)[O-]
REMARK SMILES IDX 4 1 9 2 5 3 8 4 6 5 7 6 2 7 1 8 3 9 10 10 11 11 12 12
REMARK H PARENT
REMARK Flexibility Score: inf
ROOT
ATOM      1  C   UNL     1     102.664 106.364  98.382  1.00  0.00     0.006 A 
ATOM      2  C   UNL     1     103.775 105.676  97.820  1.00  0.00     0.006 A 
ATOM      3  C   UNL     1     102.347 106.160  99.737  1.00  0.00     0.010 A 
ATOM      4  C   UNL     1     104.488 104.761  98.618  1.00  0.00     0.010 A 
ATOM      5  C   UNL     1     103.081 105.264 100.515  1.00  0.00     0.001 A 
ATOM      6  C   UNL     1     104.142 104.558  99.954  1.00  0.00     0.001 A 
ENDROOT
BRANCH   1   7
ATOM      7  C   UNL     1     101.772 107.239  97.586  1.00  0.00     0.072 C 
ATOM      8  O   UNL     1     101.620 108.452  97.888  1.00  0.00    -0.545 OA
ATOM      9  O   UNL     1     101.143 106.743  96.449  1.00  0.00    -0.545 OA
ENDBRANCH   1   7
BRANCH   2  10
ATOM     10  C   UNL     1     104.265 105.933  96.446  1.00  0.00     0.072 C 
ATOM     11  O   UNL     1     104.864 107.008  96.177  1.00  0.00    -0.545 OA
ATOM     12  O   UNL     1     104.013 105.028  95.422  1.00  0.00    -0.545 OA
ENDBRANCH   2  10
TORSDOF 2
ENDMDL
MODEL 5
REMARK VINA RESULT:    -4.679      6.334      7.844
REMARK INTER + INTRA:          -5.369
REMARK INTER:                  -5.265
REMARK INTRA:                  -0.104
REMARK UNBOUND:                -0.142
REMARK SMILES O=C([O-])c1ccccc1C(=O)[O-]
REMARK SMILES IDX 4 1 9 2 5 3 8 4 6 5 7 6 2 7 1 8 3 9 10 10 11 11 12 12
REMARK H PARENT
REMARK Flexibility Score: inf
ROOT
ATOM      1  C   UNL     1     103.795 105.642  97.807  1.00  0.00     0.006 A 
ATOM      2  C   UNL     1     102.682 106.335  98.358  1.00  0.00     0.006 A 
ATOM      3  C   UNL     1     104.504 104.733  98.614  1.00  0.00     0.010 A 
ATOM      4  C   UNL     1     102.358 106.140  99.715  1.00  0.00     0.010 A 
ATOM      5  C   UNL     1     104.152 104.540  99.950  1.00  0.00     0.001 A 
ATOM      6  C   UNL     1     103.089 105.250 100.502  1.00  0.00     0.001 A 
ENDROOT
BRANCH   1   7
ATOM      7  C   UNL     1     104.295 105.884  96.434  1.00  0.00     0.072 C 
ATOM      8  O   UNL     1     105.067 106.848  96.188  1.00  0.00    -0.545 OA
ATOM      9  O   UNL     1     103.967 105.005  95.408  1.00  0.00    -0.545 OA
ENDBRANCH   1   7
BRANCH   2  10
ATOM     10  C   UNL     1     101.798 107.202  97.547  1.00  0.00     0.072 C 
ATOM     11  O   UNL     1     101.585 108.394  97.897  1.00  0.00    -0.545 OA
ATOM     12  O   UNL     1     101.139 106.699  96.432  1.00  0.00    -0.545 OA
ENDBRANCH   2  10
TORSDOF 2
ENDMDL
MODEL 6
REMARK VINA RESULT:    -4.632      8.225      9.016
REMARK INTER + INTRA:          -5.316
REMARK INTER:                  -5.106
REMARK INTRA:                  -0.210
REMARK UNBOUND:                -0.142
REMARK SMILES O=C([O-])c1ccccc1C(=O)[O-]
REMARK SMILES IDX 4 1 9 2 5 3 8 4 6 5 7 6 2 7 1 8 3 9 10 10 11 11 12 12
REMARK H PARENT
REMARK Flexibility Score: inf
ROOT
ATOM      1  C   UNL     1     101.885 106.843 101.387  1.00  0.00     0.006 A 
ATOM      2  C   UNL     1     103.028 107.584 101.799  1.00  0.00     0.006 A 
ATOM      3  C   UNL     1     102.043 105.805 100.452  1.00  0.00     0.010 A 
ATOM      4  C   UNL     1     104.275 107.301 101.210  1.00  0.00     0.010 A 
ATOM      5  C   UNL     1     103.293 105.527  99.897  1.00  0.00     0.001 A 
ATOM      6  C   UNL     1     104.405 106.281 100.267  1.00  0.00     0.001 A 
ENDROOT
BRANCH   1   7
ATOM      7  C   UNL     1     100.513 107.159 101.846  1.00  0.00     0.072 C 
ATOM      8  O   UNL     1      99.930 106.428 102.691  1.00  0.00    -0.545 OA
ATOM      9  O   UNL     1      99.875 108.310 101.397  1.00  0.00    -0.545 OA
ENDBRANCH   1   7
BRANCH   2  10
ATOM     10  C   UNL     1     102.979 108.598 102.877  1.00  0.00     0.072 C 
ATOM     11  O   UNL     1     103.096 108.248 104.082  1.00  0.00    -0.545 OA
ATOM     12  O   UNL     1     102.738 109.935 102.583  1.00  0.00    -0.545 OA
ENDBRANCH   2  10
TORSDOF 2
ENDMDL
MODEL 7
REMARK VINA RESULT:    -4.565      6.932      8.108
REMARK INTER + INTRA:          -5.241
REMARK INTER:                  -5.046
REMARK INTRA:                  -0.195
REMARK UNBOUND:                -0.142
REMARK SMILES O=C([O-])c1ccccc1C(=O)[O-]
REMARK SMILES IDX 4 1 9 2 5 3 8 4 6 5 7 6 2 7 1 8 3 9 10 10 11 11 12 12
REMARK H PARENT
REMARK Flexibility Score: inf
ROOT
ATOM      1  C   UNL     1     103.086 107.762  99.450  1.00  0.00     0.006 A 
ATOM      2  C   UNL     1     102.731 107.535 100.809  1.00  0.00     0.006 A 
ATOM      3  C   UNL     1     104.357 108.287  99.153  1.00  0.00     0.010 A 
ATOM      4  C   UNL     1     103.636 107.903 101.823  1.00  0.00     0.010 A 
ATOM      5  C   UNL     1     105.247 108.625 100.174  1.00  0.00     0.001 A 
ATOM      6  C   UNL     1     104.882 108.443 101.506  1.00  0.00     0.001 A 
ENDROOT
BRANCH   1   7
ATOM      7  C   UNL     1     102.150 107.536  98.324  1.00  0.00     0.072 C 
ATOM      8  O   UNL     1     101.423 108.469  97.892  1.00  0.00    -0.545 OA
ATOM      9  O   UNL     1     102.113 106.302  97.686  1.00  0.00    -0.545 OA
ENDBRANCH   1   7
BRANCH   2  10
ATOM     10  C   UNL     1     101.475 106.860 101.206  1.00  0.00     0.072 C 
ATOM     11  O   UNL     1     101.349 105.615 101.056  1.00  0.00    -0.545 OA
ATOM     12  O   UNL     1     100.395 107.594 101.684  1.00  0.00    -0.545 OA
ENDBRANCH   2  10
TORSDOF 2
ENDMDL
MODEL 8
REMARK VINA RESULT:    -4.554     14.183     14.989
REMARK INTER + INTRA:          -5.229
REMARK INTER:                  -4.997
REMARK INTRA:                  -0.232
REMARK UNBOUND:                -0.142
REMARK SMILES O=C([O-])c1ccccc1C(=O)[O-]
REMARK SMILES IDX 4 1 9 2 5 3 8 4 6 5 7 6 2 7 1 8 3 9 10 10 11 11 12 12
REMARK H PARENT
REMARK Flexibility Score: inf
ROOT
ATOM      1  C   UNL     1     101.447 110.873 108.331  1.00  0.00     0.006 A 
ATOM      2  C   UNL     1     101.616 110.345 109.641  1.00  0.00     0.006 A 
ATOM      3  C   UNL     1     101.049 112.214 108.180  1.00  0.00     0.010 A 
ATOM      4  C   UNL     1     101.318 111.158 110.751  1.00  0.00     0.010 A 
ATOM      5  C   UNL     1     100.779 113.008 109.295  1.00  0.00     0.001 A 
ATOM      6  C   UNL     1     100.903 112.478 110.577  1.00  0.00     0.001 A 
ENDROOT
BRANCH   1   7
ATOM      7  C   UNL     1     101.603 110.055 107.106  1.00  0.00     0.072 C 
ATOM      8  O   UNL     1     102.694 110.034 106.478  1.00  0.00    -0.545 OA
ATOM      9  O   UNL     1     100.560 109.244 106.672  1.00  0.00    -0.545 OA
ENDBRANCH   1   7
BRANCH   2  10
ATOM     10  C   UNL     1     102.163 108.992 109.894  1.00  0.00     0.072 C 
ATOM     11  O   UNL     1     103.409 108.809 109.932  1.00  0.00    -0.545 OA
ATOM     12  O   UNL     1     101.317 107.897 110.025  1.00  0.00    -0.545 OA
ENDBRANCH   2  10
TORSDOF 2
ENDMDL
MODEL 9
REMARK VINA RESULT:    -4.549     14.188     15.110
REMARK INTER + INTRA:          -5.223
REMARK INTER:                  -5.005
REMARK INTRA:                  -0.217
REMARK UNBOUND:                -0.142
REMARK SMILES O=C([O-])c1ccccc1C(=O)[O-]
REMARK SMILES IDX 4 1 9 2 5 3 8 4 6 5 7 6 2 7 1 8 3 9 10 10 11 11 12 12
REMARK H PARENT
REMARK Flexibility Score: inf
ROOT
ATOM      1  C   UNL     1     101.594 110.326 109.623  1.00  0.00     0.006 A 
ATOM      2  C   UNL     1     101.403 110.885 108.329  1.00  0.00     0.006 A 
ATOM      3  C   UNL     1     101.294 111.105 110.756  1.00  0.00     0.010 A 
ATOM      4  C   UNL     1     100.982 112.224 108.217  1.00  0.00     0.010 A 
ATOM      5  C   UNL     1     100.857 112.423 110.621  1.00  0.00     0.001 A 
ATOM      6  C   UNL     1     100.712 112.985 109.354  1.00  0.00     0.001 A 
ENDROOT
BRANCH   1   7
ATOM      7  C   UNL     1     102.164 108.976 109.842  1.00  0.00     0.072 C 
ATOM      8  O   UNL     1     103.409 108.808 109.929  1.00  0.00    -0.545 OA
ATOM      9  O   UNL     1     101.322 107.885 110.020  1.00  0.00    -0.545 OA
ENDBRANCH   1   7
BRANCH   2  10
ATOM     10  C   UNL     1     101.560 110.096 107.085  1.00  0.00     0.072 C 
ATOM     11  O   UNL     1     102.577 110.255 106.358  1.00  0.00    -0.545 OA
ATOM     12  O   UNL     1     100.562 109.223 106.669  1.00  0.00    -0.545 OA
ENDBRANCH   2  10
TORSDOF 2
ENDMDL
