MODEL 1
REMARK VINA RESULT:    -1.986      0.000      0.000
REMARK INTER + INTRA:          -1.986
REMARK INTER:                  -1.986
REMARK INTRA:                   0.000
REMARK UNBOUND:                 0.000
REMARK SMILES CC(=O)[O-]
REMARK SMILES IDX 1 1 2 2 3 3 4 4
REMARK H PARENT
REMARK Flexibility Score: inf
ROOT
ATOM      1  C   UNL     1      30.152  11.734  28.869  1.00  0.00     0.063 C 
ATOM      2  C   UNL     1      28.828  11.368  28.290  1.00  0.00     0.038 C 
ATOM      3  O   UNL     1      27.815  11.282  29.034  1.00  0.00    -0.550 OA
ATOM      4  O   UNL     1      28.716  11.070  26.938  1.00  0.00    -0.550 OA
ENDROOT
TORSDOF 0
ENDMDL
MODEL 2
REMARK VINA RESULT:    -1.954      8.960      9.585
REMARK INTER + INTRA:          -1.954
REMARK INTER:                  -1.954
REMARK INTRA:                   0.000
REMARK UNBOUND:                 0.000
REMARK SMILES CC(=O)[O-]
REMARK SMILES IDX 1 1 2 2 3 3 4 4
REMARK H PARENT
REMARK Flexibility Score: inf
ROOT
ATOM      1  C   UNL     1      26.881  16.559  20.545  1.00  0.00     0.063 C 
ATOM      2  C   UNL     1      28.363  16.688  20.641  1.00  0.00     0.038 C 
ATOM      3  O   UNL     1      29.027  17.092  19.650  1.00  0.00    -0.550 OA
ATOM      4  O   UNL     1      29.021  16.312  21.804  1.00  0.00    -0.550 OA
ENDROOT
TORSDOF 0
ENDMDL
MODEL 3
REMARK VINA RESULT:    -1.935      1.923      2.431
REMARK INTER + INTRA:          -1.935
REMARK INTER:                  -1.935
REMARK INTRA:                   0.000
REMARK UNBOUND:                 0.000
REMARK SMILES CC(=O)[O-]
REMARK SMILES IDX 1 1 2 2 3 3 4 4
REMARK H PARENT
REMARK Flexibility Score: inf
ROOT
ATOM      1  C   UNL     1      27.652  12.186  30.802  1.00  0.00     0.063 C 
ATOM      2  C   UNL     1      28.305  11.388  29.725  1.00  0.00     0.038 C 
ATOM      3  O   UNL     1      28.332  11.824  28.544  1.00  0.00    -0.550 OA
ATOM      4  O   UNL     1      28.837  10.137  30.010  1.00  0.00    -0.550 OA
ENDROOT
TORSDOF 0
ENDMDL
MODEL 4
REMARK VINA RESULT:    -1.935      9.038      9.563
REMARK INTER + INTRA:          -1.935
REMARK INTER:                  -1.935
REMARK INTRA:                   0.000
REMARK UNBOUND:                 0.000
REMARK SMILES CC(=O)[O-]
REMARK SMILES IDX 1 1 2 2 3 3 4 4
REMARK H PARENT
REMARK Flexibility Score: inf
ROOT
ATOM      1  C   UNL     1      28.984  16.463  21.663  1.00  0.00     0.063 C 
ATOM      2  C   UNL     1      28.078  16.729  20.509  1.00  0.00     0.038 C 
ATOM      3  O   UNL     1      28.494  17.385  19.518  1.00  0.00    -0.550 OA
ATOM      4  O   UNL     1      26.758  16.300  20.547  1.00  0.00    -0.550 OA
ENDROOT
TORSDOF 0
ENDMDL
MODEL 5
REMARK VINA RESULT:    -1.917      1.247      1.669
REMARK INTER + INTRA:          -1.917
REMARK INTER:                  -1.917
REMARK INTRA:                   0.000
REMARK UNBOUND:                 0.000
REMARK SMILES CC(=O)[O-]
REMARK SMILES IDX 1 1 2 2 3 3 4 4
REMARK H PARENT
REMARK Flexibility Score: inf
ROOT
ATOM      1  C   UNL     1      30.079  11.638  28.787  1.00  0.00     0.063 C 
ATOM      2  C   UNL     1      29.527  10.713  27.756  1.00  0.00     0.038 C 
ATOM      3  O   UNL     1      28.634  11.112  26.963  1.00  0.00    -0.550 OA
ATOM      4  O   UNL     1      29.958   9.394  27.702  1.00  0.00    -0.550 OA
ENDROOT
TORSDOF 0
ENDMDL
MODEL 6
REMARK VINA RESULT:    -1.907      1.568      1.853
REMARK INTER + INTRA:          -1.907
REMARK INTER:                  -1.907
REMARK INTRA:                   0.000
REMARK UNBOUND:                 0.000
REMARK SMILES CC(=O)[O-]
REMARK SMILES IDX 1 1 2 2 3 3 4 4
REMARK H PARENT
REMARK Flexibility Score: inf
ROOT
ATOM      1  C   UNL     1      28.817  10.808  27.221  1.00  0.00     0.063 C 
ATOM      2  C   UNL     1      29.217  11.534  28.460  1.00  0.00     0.038 C 
ATOM      3  O   UNL     1      28.344  12.101  29.169  1.00  0.00    -0.550 OA
ATOM      4  O   UNL     1      30.558  11.633  28.808  1.00  0.00    -0.550 OA
ENDROOT
TORSDOF 0
ENDMDL
MODEL 7
REMARK VINA RESULT:    -1.887     10.261     10.706
REMARK INTER + INTRA:          -1.887
REMARK INTER:                  -1.887
REMARK INTRA:                   0.000
REMARK UNBOUND:                 0.000
REMARK SMILES CC(=O)[O-]
REMARK SMILES IDX 1 1 2 2 3 3 4 4
REMARK H PARENT
REMARK Flexibility Score: inf
ROOT
ATOM      1  C   UNL     1      22.723   4.384  25.955  1.00  0.00     0.063 C 
ATOM      2  C   UNL     1      22.034   4.118  24.660  1.00  0.00     0.038 C 
ATOM      3  O   UNL     1      22.595   4.419  23.573  1.00  0.00    -0.550 OA
ATOM      4  O   UNL     1      20.751   3.586  24.649  1.00  0.00    -0.550 OA
ENDROOT
TORSDOF 0
ENDMDL
MODEL 8
REMARK VINA RESULT:    -1.861      3.159      3.303
REMARK INTER + INTRA:          -1.861
REMARK INTER:                  -1.861
REMARK INTRA:                   0.000
REMARK UNBOUND:                 0.000
REMARK SMILES CC(=O)[O-]
REMARK SMILES IDX 1 1 2 2 3 3 4 4
REMARK H PARENT
REMARK Flexibility Score: inf
ROOT
ATOM      1  C   UNL     1      32.324   8.503  28.135  1.00  0.00     0.063 C 
ATOM      2  C   UNL     1      31.327   9.594  28.332  1.00  0.00     0.038 C 
ATOM      3  O   UNL     1      31.448  10.393  29.298  1.00  0.00    -0.550 OA
ATOM      4  O   UNL     1      30.234   9.700  27.482  1.00  0.00    -0.550 OA
ENDROOT
TORSDOF 0
ENDMDL
MODEL 9
REMARK VINA RESULT:    -1.853      4.245      4.631
REMARK INTER + INTRA:          -1.853
REMARK INTER:                  -1.853
REMARK INTRA:                   0.000
REMARK UNBOUND:                 0.000
REMARK SMILES CC(=O)[O-]
REMARK SMILES IDX 1 1 2 2 3 3 4 4
REMARK H PARENT
REMARK Flexibility Score: inf
ROOT
ATOM      1  C   UNL     1      30.865   7.898  29.151  1.00  0.00     0.063 C 
ATOM      2  C   UNL     1      31.951   8.580  28.389  1.00  0.00     0.038 C 
ATOM      3  O   UNL     1      31.675   9.246  27.356  1.00  0.00    -0.550 OA
ATOM      4  O   UNL     1      33.274   8.439  28.785  1.00  0.00    -0.550 OA
ENDROOT
TORSDOF 0
ENDMDL
