MODEL 1
REMARK VINA RESULT:    -3.864      0.000      0.000
REMARK INTER + INTRA:          -4.562
REMARK INTER:                  -4.542
REMARK INTRA:                  -0.020
REMARK UNBOUND:                -0.020
REMARK SMILES CCCCC(=O)[O-]
REMARK SMILES IDX 4 1 5 2 6 3 7 4 3 5 2 6 1 7
REMARK H PARENT
REMARK Flexibility Score: inf
ROOT
ATOM      1  C   UNL     1      40.533  40.962  16.907  1.00  0.00     0.053 C 
ENDROOT
BRANCH   1   2
ATOM      2  C   UNL     1      40.887  41.123  15.463  1.00  0.00     0.041 C 
ATOM      3  O   UNL     1      40.584  40.227  14.632  1.00  0.00    -0.550 OA
ATOM      4  O   UNL     1      41.508  42.286  15.024  1.00  0.00    -0.550 OA
ENDBRANCH   1   2
BRANCH   1   5
ATOM      5  C   UNL     1      41.785  40.639  17.733  1.00  0.00     0.006 C 
BRANCH   5   6
ATOM      6  C   UNL     1      41.707  41.194  19.164  1.00  0.00    -0.003 C 
ATOM      7  C   UNL     1      42.031  40.142  20.224  1.00  0.00     0.004 C 
ENDBRANCH   5   6
ENDBRANCH   1   5
TORSDOF 3
ENDMDL
MODEL 2
REMARK VINA RESULT:    -3.699     10.855     11.692
REMARK INTER + INTRA:          -4.368
REMARK INTER:                  -4.272
REMARK INTRA:                  -0.097
REMARK UNBOUND:                -0.020
REMARK SMILES CCCCC(=O)[O-]
REMARK SMILES IDX 4 1 5 2 6 3 7 4 3 5 2 6 1 7
REMARK H PARENT
REMARK Flexibility Score: inf
ROOT
ATOM      1  C   UNL     1      37.028  30.710  15.058  1.00  0.00     0.053 C 
ENDROOT
BRANCH   1   2
ATOM      2  C   UNL     1      38.438  30.459  14.626  1.00  0.00     0.041 C 
ATOM      3  O   UNL     1      38.688  30.135  13.435  1.00  0.00    -0.550 OA
ATOM      4  O   UNL     1      39.482  30.632  15.526  1.00  0.00    -0.550 OA
ENDBRANCH   1   2
BRANCH   1   5
ATOM      5  C   UNL     1      36.497  32.004  14.427  1.00  0.00     0.006 C 
BRANCH   5   6
ATOM      6  C   UNL     1      35.205  31.782  13.625  1.00  0.00    -0.003 C 
ATOM      7  C   UNL     1      34.823  30.306  13.518  1.00  0.00     0.004 C 
ENDBRANCH   5   6
ENDBRANCH   1   5
TORSDOF 3
ENDMDL
MODEL 3
REMARK VINA RESULT:    -3.664     11.216     11.854
REMARK INTER + INTRA:          -4.326
REMARK INTER:                  -4.283
REMARK INTRA:                  -0.043
REMARK UNBOUND:                -0.020
REMARK SMILES CCCCC(=O)[O-]
REMARK SMILES IDX 4 1 5 2 6 3 7 4 3 5 2 6 1 7
REMARK H PARENT
REMARK Flexibility Score: inf
ROOT
ATOM      1  C   UNL     1      36.225  31.865  14.196  1.00  0.00     0.053 C 
ENDROOT
BRANCH   1   2
ATOM      2  C   UNL     1      34.950  31.463  13.524  1.00  0.00     0.041 C 
ATOM      3  O   UNL     1      34.199  32.336  13.014  1.00  0.00    -0.550 OA
ATOM      4  O   UNL     1      34.615  30.119  13.416  1.00  0.00    -0.550 OA
ENDBRANCH   1   2
BRANCH   1   5
ATOM      5  C   UNL     1      37.429  31.242  13.477  1.00  0.00     0.006 C 
BRANCH   5   6
ATOM      6  C   UNL     1      38.276  30.358  14.405  1.00  0.00    -0.003 C 
ATOM      7  C   UNL     1      39.362  29.586  13.657  1.00  0.00     0.004 C 
ENDBRANCH   5   6
ENDBRANCH   1   5
TORSDOF 3
ENDMDL
MODEL 4
REMARK VINA RESULT:    -3.651     11.355     11.907
REMARK INTER + INTRA:          -4.311
REMARK INTER:                  -4.269
REMARK INTRA:                  -0.043
REMARK UNBOUND:                -0.020
REMARK SMILES CCCCC(=O)[O-]
REMARK SMILES IDX 4 1 5 2 6 3 7 4 3 5 2 6 1 7
REMARK H PARENT
REMARK Flexibility Score: inf
ROOT
ATOM      1  C   UNL     1      36.139  31.679  14.244  1.00  0.00     0.053 C 
ENDROOT
BRANCH   1   2
ATOM      2  C   UNL     1      34.918  31.331  13.452  1.00  0.00     0.041 C 
ATOM      3  O   UNL     1      34.576  30.128  13.310  1.00  0.00    -0.550 OA
ATOM      4  O   UNL     1      34.130  32.339  12.911  1.00  0.00    -0.550 OA
ENDBRANCH   1   2
BRANCH   1   5
ATOM      5  C   UNL     1      37.404  31.224  13.506  1.00  0.00     0.006 C 
BRANCH   5   6
ATOM      6  C   UNL     1      38.250  30.244  14.334  1.00  0.00    -0.003 C 
ATOM      7  C   UNL     1      39.294  29.509  13.495  1.00  0.00     0.004 C 
ENDBRANCH   5   6
ENDBRANCH   1   5
TORSDOF 3
ENDMDL
MODEL 5
REMARK VINA RESULT:    -3.630      1.084      1.491
REMARK INTER + INTRA:          -4.286
REMARK INTER:                  -4.236
REMARK INTRA:                  -0.050
REMARK UNBOUND:                -0.020
REMARK SMILES CCCCC(=O)[O-]
REMARK SMILES IDX 4 1 5 2 6 3 7 4 3 5 2 6 1 7
REMARK H PARENT
REMARK Flexibility Score: inf
ROOT
ATOM      1  C   UNL     1      40.671  41.053  16.561  1.00  0.00     0.053 C 
ENDROOT
BRANCH   1   2
ATOM      2  C   UNL     1      41.001  42.360  15.910  1.00  0.00     0.041 C 
ATOM      3  O   UNL     1      40.520  43.432  16.363  1.00  0.00    -0.550 OA
ATOM      4  O   UNL     1      41.878  42.399  14.834  1.00  0.00    -0.550 OA
ENDBRANCH   1   2
BRANCH   1   5
ATOM      5  C   UNL     1      41.787  40.641  17.530  1.00  0.00     0.006 C 
BRANCH   5   6
ATOM      6  C   UNL     1      41.495  41.063  18.978  1.00  0.00    -0.003 C 
ATOM      7  C   UNL     1      41.963  40.029  20.001  1.00  0.00     0.004 C 
ENDBRANCH   5   6
ENDBRANCH   1   5
TORSDOF 3
ENDMDL
MODEL 6
REMARK VINA RESULT:    -3.618     11.013     11.925
REMARK INTER + INTRA:          -4.273
REMARK INTER:                  -4.219
REMARK INTRA:                  -0.054
REMARK UNBOUND:                -0.020
REMARK SMILES CCCCC(=O)[O-]
REMARK SMILES IDX 4 1 5 2 6 3 7 4 3 5 2 6 1 7
REMARK H PARENT
REMARK Flexibility Score: inf
ROOT
ATOM      1  C   UNL     1      37.495  31.206  13.395  1.00  0.00     0.053 C 
ENDROOT
BRANCH   1   2
ATOM      2  C   UNL     1      38.373  30.356  14.257  1.00  0.00     0.041 C 
ATOM      3  O   UNL     1      38.851  30.819  15.326  1.00  0.00    -0.550 OA
ATOM      4  O   UNL     1      38.625  29.036  13.905  1.00  0.00    -0.550 OA
ENDBRANCH   1   2
BRANCH   1   5
ATOM      5  C   UNL     1      36.434  31.916  14.246  1.00  0.00     0.006 C 
BRANCH   5   6
ATOM      6  C   UNL     1      35.026  31.812  13.640  1.00  0.00    -0.003 C 
ATOM      7  C   UNL     1      34.611  30.369  13.351  1.00  0.00     0.004 C 
ENDBRANCH   5   6
ENDBRANCH   1   5
TORSDOF 3
ENDMDL
MODEL 7
REMARK VINA RESULT:    -3.528      3.233      4.465
REMARK INTER + INTRA:          -4.167
REMARK INTER:                  -4.131
REMARK INTRA:                  -0.036
REMARK UNBOUND:                -0.020
REMARK SMILES CCCCC(=O)[O-]
REMARK SMILES IDX 4 1 5 2 6 3 7 4 3 5 2 6 1 7
REMARK H PARENT
REMARK Flexibility Score: inf
ROOT
ATOM      1  C   UNL     1      42.166  41.746  18.646  1.00  0.00     0.053 C 
ENDROOT
BRANCH   1   2
ATOM      2  C   UNL     1      41.816  41.461  20.073  1.00  0.00     0.041 C 
ATOM      3  O   UNL     1      41.413  42.388  20.824  1.00  0.00    -0.550 OA
ATOM      4  O   UNL     1      41.887  40.162  20.560  1.00  0.00    -0.550 OA
ENDBRANCH   1   2
BRANCH   1   5
ATOM      5  C   UNL     1      41.772  40.563  17.752  1.00  0.00     0.006 C 
BRANCH   5   6
ATOM      6  C   UNL     1      40.558  40.875  16.864  1.00  0.00    -0.003 C 
ATOM      7  C   UNL     1      40.900  40.881  15.375  1.00  0.00     0.004 C 
ENDBRANCH   5   6
ENDBRANCH   1   5
TORSDOF 3
ENDMDL
MODEL 8
REMARK VINA RESULT:    -3.448      1.217      1.724
REMARK INTER + INTRA:          -4.072
REMARK INTER:                  -3.962
REMARK INTRA:                  -0.110
REMARK UNBOUND:                -0.020
REMARK SMILES CCCCC(=O)[O-]
REMARK SMILES IDX 4 1 5 2 6 3 7 4 3 5 2 6 1 7
REMARK H PARENT
REMARK Flexibility Score: inf
ROOT
ATOM      1  C   UNL     1      40.462  40.688  17.104  1.00  0.00     0.053 C 
ENDROOT
BRANCH   1   2
ATOM      2  C   UNL     1      41.229  40.806  15.825  1.00  0.00     0.041 C 
ATOM      3  O   UNL     1      41.006  41.763  15.038  1.00  0.00    -0.550 OA
ATOM      4  O   UNL     1      42.227  39.887  15.526  1.00  0.00    -0.550 OA
ENDBRANCH   1   2
BRANCH   1   5
ATOM      5  C   UNL     1      41.418  40.676  18.303  1.00  0.00     0.006 C 
BRANCH   5   6
ATOM      6  C   UNL     1      41.782  42.091  18.781  1.00  0.00    -0.003 C 
ATOM      7  C   UNL     1      43.245  42.445  18.518  1.00  0.00     0.004 C 
ENDBRANCH   5   6
ENDBRANCH   1   5
TORSDOF 3
ENDMDL
MODEL 9
REMARK VINA RESULT:    -3.318      2.152      2.912
REMARK INTER + INTRA:          -3.919
REMARK INTER:                  -3.872
REMARK INTRA:                  -0.047
REMARK UNBOUND:                -0.020
REMARK SMILES CCCCC(=O)[O-]
REMARK SMILES IDX 4 1 5 2 6 3 7 4 3 5 2 6 1 7
REMARK H PARENT
REMARK Flexibility Score: inf
ROOT
ATOM      1  C   UNL     1      42.455  39.980  15.391  1.00  0.00     0.053 C 
ENDROOT
BRANCH   1   2
ATOM      2  C   UNL     1      42.635  38.982  14.290  1.00  0.00     0.041 C 
ATOM      3  O   UNL     1      41.636  38.400  13.793  1.00  0.00    -0.550 OA
ATOM      4  O   UNL     1      43.902  38.732  13.779  1.00  0.00    -0.550 OA
ENDBRANCH   1   2
BRANCH   1   5
ATOM      5  C   UNL     1      41.000  40.465  15.441  1.00  0.00     0.006 C 
BRANCH   5   6
ATOM      6  C   UNL     1      40.597  40.972  16.835  1.00  0.00    -0.003 C 
ATOM      7  C   UNL     1      41.618  40.613  17.913  1.00  0.00     0.004 C 
ENDBRANCH   5   6
ENDBRANCH   1   5
TORSDOF 3
ENDMDL
