MODEL 1
REMARK VINA RESULT:    -4.982      0.000      0.000
REMARK INTER + INTRA:         -10.443
REMARK INTER:                  -9.351
REMARK INTRA:                  -1.092
REMARK UNBOUND:                -1.092
REMARK SMILES O=C([O-])CCCCCCCCCCCCCCC(=O)[O-]
REMARK SMILES IDX 10 1 9 2 8 3 7 4 6 5 5 6 4 7 2 8 1 9 3 10 11 11 12 12 13 13
REMARK SMILES IDX 14 14 15 15 16 16 17 17 18 18 19 19 20 20
REMARK H PARENT
REMARK Flexibility Score: inf
ROOT
ATOM      1  C   UNL     1      -1.248  61.612  23.108  1.00  0.00     0.000 C 
ENDROOT
BRANCH   1   2
ATOM      2  C   UNL     1      -1.627  63.080  22.881  1.00  0.00     0.000 C 
BRANCH   2   3
ATOM      3  C   UNL     1      -0.668  64.018  23.631  1.00  0.00     0.000 C 
BRANCH   3   4
ATOM      4  C   UNL     1      -1.095  65.492  23.548  1.00  0.00     0.000 C 
BRANCH   4   5
ATOM      5  C   UNL     1      -1.058  66.040  22.113  1.00  0.00     0.000 C 
BRANCH   5   6
ATOM      6  C   UNL     1      -2.448  66.509  21.669  1.00  0.00     0.006 C 
BRANCH   6   7
ATOM      7  C   UNL     1      -3.484  66.282  22.774  1.00  0.00     0.053 C 
BRANCH   7   8
ATOM      8  C   UNL     1      -4.664  65.534  22.239  1.00  0.00     0.041 C 
ATOM      9  O   UNL     1      -5.597  66.151  21.661  1.00  0.00    -0.550 OA
ATOM     10  O   UNL     1      -4.758  64.161  22.423  1.00  0.00    -0.550 OA
ENDBRANCH   7   8
ENDBRANCH   6   7
ENDBRANCH   5   6
ENDBRANCH   4   5
ENDBRANCH   3   4
ENDBRANCH   2   3
ENDBRANCH   1   2
BRANCH   1  11
ATOM     11  C   UNL     1      -0.037  61.496  24.045  1.00  0.00     0.000 C 
BRANCH  11  12
ATOM     12  C   UNL     1       0.629  60.111  23.990  1.00  0.00     0.000 C 
BRANCH  12  13
ATOM     13  C   UNL     1       0.181  59.193  25.141  1.00  0.00     0.000 C 
BRANCH  13  14
ATOM     14  C   UNL     1       0.512  57.715  24.881  1.00  0.00     0.000 C 
BRANCH  14  15
ATOM     15  C   UNL     1       1.899  57.317  25.415  1.00  0.00     0.000 C 
BRANCH  15  16
ATOM     16  C   UNL     1       2.849  56.849  24.300  1.00  0.00     0.006 C 
BRANCH  16  17
ATOM     17  C   UNL     1       3.640  58.005  23.673  1.00  0.00     0.053 C 
BRANCH  17  18
ATOM     18  C   UNL     1       3.262  58.177  22.236  1.00  0.00     0.041 C 
ATOM     19  O   UNL     1       2.487  57.354  21.682  1.00  0.00    -0.550 OA
ATOM     20  O   UNL     1       3.805  59.218  21.494  1.00  0.00    -0.550 OA
ENDBRANCH  17  18
ENDBRANCH  16  17
ENDBRANCH  15  16
ENDBRANCH  14  15
ENDBRANCH  13  14
ENDBRANCH  12  13
ENDBRANCH  11  12
ENDBRANCH   1  11
TORSDOF 15
ENDMDL
MODEL 2
REMARK VINA RESULT:    -4.876      1.707      1.964
REMARK INTER + INTRA:         -10.244
REMARK INTER:                  -9.184
REMARK INTRA:                  -1.060
REMARK UNBOUND:                -1.092
REMARK SMILES O=C([O-])CCCCCCCCCCCCCCC(=O)[O-]
REMARK SMILES IDX 10 1 9 2 8 3 7 4 6 5 5 6 4 7 2 8 1 9 3 10 11 11 12 12 13 13
REMARK SMILES IDX 14 14 15 15 16 16 17 17 18 18 19 19 20 20
REMARK H PARENT
REMARK Flexibility Score: inf
ROOT
ATOM      1  C   UNL     1      -1.282  61.535  23.108  1.00  0.00     0.000 C 
ENDROOT
BRANCH   1   2
ATOM      2  C   UNL     1      -1.643  63.008  22.882  1.00  0.00     0.000 C 
BRANCH   2   3
ATOM      3  C   UNL     1      -0.622  63.934  23.561  1.00  0.00     0.000 C 
BRANCH   3   4
ATOM      4  C   UNL     1      -1.055  65.410  23.540  1.00  0.00     0.000 C 
BRANCH   4   5
ATOM      5  C   UNL     1      -1.148  65.979  22.116  1.00  0.00     0.000 C 
BRANCH   5   6
ATOM      6  C   UNL     1      -2.500  66.663  21.885  1.00  0.00     0.006 C 
BRANCH   6   7
ATOM      7  C   UNL     1      -3.518  66.241  22.948  1.00  0.00     0.053 C 
BRANCH   7   8
ATOM      8  C   UNL     1      -4.654  65.498  22.319  1.00  0.00     0.041 C 
ATOM      9  O   UNL     1      -5.546  66.121  21.686  1.00  0.00    -0.550 OA
ATOM     10  O   UNL     1      -4.753  64.121  22.473  1.00  0.00    -0.550 OA
ENDBRANCH   7   8
ENDBRANCH   6   7
ENDBRANCH   5   6
ENDBRANCH   4   5
ENDBRANCH   3   4
ENDBRANCH   2   3
ENDBRANCH   1   2
BRANCH   1  11
ATOM     11  C   UNL     1      -0.004  61.405  23.951  1.00  0.00     0.000 C 
BRANCH  11  12
ATOM     12  C   UNL     1      -0.228  60.626  25.257  1.00  0.00     0.000 C 
BRANCH  12  13
ATOM     13  C   UNL     1       0.269  59.173  25.170  1.00  0.00     0.000 C 
BRANCH  13  14
ATOM     14  C   UNL     1       0.970  58.866  23.837  1.00  0.00     0.000 C 
BRANCH  14  15
ATOM     15  C   UNL     1       0.505  57.537  23.216  1.00  0.00     0.000 C 
BRANCH  15  16
ATOM     16  C   UNL     1       1.679  56.656  22.759  1.00  0.00     0.006 C 
BRANCH  16  17
ATOM     17  C   UNL     1       2.962  56.917  23.559  1.00  0.00     0.053 C 
BRANCH  17  18
ATOM     18  C   UNL     1       3.040  55.995  24.735  1.00  0.00     0.041 C 
ATOM     19  O   UNL     1       2.682  56.390  25.875  1.00  0.00    -0.550 OA
ATOM     20  O   UNL     1       3.555  54.714  24.580  1.00  0.00    -0.550 OA
ENDBRANCH  17  18
ENDBRANCH  16  17
ENDBRANCH  15  16
ENDBRANCH  14  15
ENDBRANCH  13  14
ENDBRANCH  12  13
ENDBRANCH  11  12
ENDBRANCH   1  11
TORSDOF 15
ENDMDL
MODEL 3
REMARK VINA RESULT:    -4.784      1.577      9.220
REMARK INTER + INTRA:         -10.071
REMARK INTER:                  -9.146
REMARK INTRA:                  -0.925
REMARK UNBOUND:                -1.092
REMARK SMILES O=C([O-])CCCCCCCCCCCCCCC(=O)[O-]
REMARK SMILES IDX 10 1 9 2 8 3 7 4 6 5 5 6 4 7 2 8 1 9 3 10 11 11 12 12 13 13
REMARK SMILES IDX 14 14 15 15 16 16 17 17 18 18 19 19 20 20
REMARK H PARENT
REMARK Flexibility Score: inf
ROOT
ATOM      1  C   UNL     1       0.120  61.533  24.016  1.00  0.00     0.000 C 
ENDROOT
BRANCH   1   2
ATOM      2  C   UNL     1      -0.178  60.722  25.283  1.00  0.00     0.000 C 
BRANCH   2   3
ATOM      3  C   UNL     1       0.169  59.239  25.081  1.00  0.00     0.000 C 
BRANCH   3   4
ATOM      4  C   UNL     1       0.635  58.929  23.649  1.00  0.00     0.000 C 
BRANCH   4   5
ATOM      5  C   UNL     1       0.541  57.434  23.305  1.00  0.00     0.000 C 
BRANCH   5   6
ATOM      6  C   UNL     1       1.794  56.963  22.559  1.00  0.00     0.006 C 
BRANCH   6   7
ATOM      7  C   UNL     1       3.055  57.204  23.394  1.00  0.00     0.053 C 
BRANCH   7   8
ATOM      8  C   UNL     1       3.034  56.360  24.629  1.00  0.00     0.041 C 
ATOM      9  O   UNL     1       3.092  55.106  24.541  1.00  0.00    -0.550 OA
ATOM     10  O   UNL     1       2.903  56.958  25.876  1.00  0.00    -0.550 OA
ENDBRANCH   7   8
ENDBRANCH   6   7
ENDBRANCH   5   6
ENDBRANCH   4   5
ENDBRANCH   3   4
ENDBRANCH   2   3
ENDBRANCH   1   2
BRANCH   1  11
ATOM     11  C   UNL     1      -1.143  61.695  23.157  1.00  0.00     0.000 C 
BRANCH  11  12
ATOM     12  C   UNL     1      -1.567  63.164  22.994  1.00  0.00     0.000 C 
BRANCH  12  13
ATOM     13  C   UNL     1      -0.594  64.140  23.679  1.00  0.00     0.000 C 
BRANCH  13  14
ATOM     14  C   UNL     1      -1.003  65.610  23.491  1.00  0.00     0.000 C 
BRANCH  14  15
ATOM     15  C   UNL     1      -1.211  65.982  22.012  1.00  0.00     0.000 C 
BRANCH  15  16
ATOM     16  C   UNL     1      -2.621  66.525  21.732  1.00  0.00     0.006 C 
BRANCH  16  17
ATOM     17  C   UNL     1      -3.637  66.114  22.806  1.00  0.00     0.053 C 
BRANCH  17  18
ATOM     18  C   UNL     1      -4.828  65.463  22.176  1.00  0.00     0.041 C 
ATOM     19  O   UNL     1      -5.755  66.167  21.695  1.00  0.00    -0.550 OA
ATOM     20  O   UNL     1      -4.938  64.079  22.164  1.00  0.00    -0.550 OA
ENDBRANCH  17  18
ENDBRANCH  16  17
ENDBRANCH  15  16
ENDBRANCH  14  15
ENDBRANCH  13  14
ENDBRANCH  12  13
ENDBRANCH  11  12
ENDBRANCH   1  11
TORSDOF 15
ENDMDL
MODEL 4
REMARK VINA RESULT:    -4.700      1.562      2.130
REMARK INTER + INTRA:          -9.912
REMARK INTER:                  -8.940
REMARK INTRA:                  -0.972
REMARK UNBOUND:                -1.092
REMARK SMILES O=C([O-])CCCCCCCCCCCCCCC(=O)[O-]
REMARK SMILES IDX 10 1 9 2 8 3 7 4 6 5 5 6 4 7 2 8 1 9 3 10 11 11 12 12 13 13
REMARK SMILES IDX 14 14 15 15 16 16 17 17 18 18 19 19 20 20
REMARK H PARENT
REMARK Flexibility Score: inf
ROOT
ATOM      1  C   UNL     1      -1.233  61.451  23.131  1.00  0.00     0.000 C 
ENDROOT
BRANCH   1   2
ATOM      2  C   UNL     1      -1.708  62.902  22.987  1.00  0.00     0.000 C 
BRANCH   2   3
ATOM      3  C   UNL     1      -0.581  63.886  23.339  1.00  0.00     0.000 C 
BRANCH   3   4
ATOM      4  C   UNL     1      -1.099  65.309  23.605  1.00  0.00     0.000 C 
BRANCH   4   5
ATOM      5  C   UNL     1      -1.083  66.191  22.347  1.00  0.00     0.000 C 
BRANCH   5   6
ATOM      6  C   UNL     1      -2.505  66.434  21.829  1.00  0.00     0.006 C 
BRANCH   6   7
ATOM      7  C   UNL     1      -3.541  66.170  22.924  1.00  0.00     0.053 C 
BRANCH   7   8
ATOM      8  C   UNL     1      -4.723  65.444  22.364  1.00  0.00     0.041 C 
ATOM      9  O   UNL     1      -4.779  64.188  22.415  1.00  0.00    -0.550 OA
ATOM     10  O   UNL     1      -5.742  66.153  21.740  1.00  0.00    -0.550 OA
ENDBRANCH   7   8
ENDBRANCH   6   7
ENDBRANCH   5   6
ENDBRANCH   4   5
ENDBRANCH   3   4
ENDBRANCH   2   3
ENDBRANCH   1   2
BRANCH   1  11
ATOM     11  C   UNL     1      -0.068  61.351  24.126  1.00  0.00     0.000 C 
BRANCH  11  12
ATOM     12  C   UNL     1       0.965  60.283  23.728  1.00  0.00     0.000 C 
BRANCH  12  13
ATOM     13  C   UNL     1       0.600  58.884  24.252  1.00  0.00     0.000 C 
BRANCH  13  14
ATOM     14  C   UNL     1       1.176  57.757  23.379  1.00  0.00     0.000 C 
BRANCH  14  15
ATOM     15  C   UNL     1       2.688  57.911  23.138  1.00  0.00     0.000 C 
BRANCH  15  16
ATOM     16  C   UNL     1       3.532  57.296  24.266  1.00  0.00     0.006 C 
BRANCH  16  17
ATOM     17  C   UNL     1       2.849  56.091  24.926  1.00  0.00     0.053 C 
BRANCH  17  18
ATOM     18  C   UNL     1       3.246  54.824  24.238  1.00  0.00     0.041 C 
ATOM     19  O   UNL     1       2.546  54.368  23.295  1.00  0.00    -0.550 OA
ATOM     20  O   UNL     1       4.362  54.118  24.670  1.00  0.00    -0.550 OA
ENDBRANCH  17  18
ENDBRANCH  16  17
ENDBRANCH  15  16
ENDBRANCH  14  15
ENDBRANCH  13  14
ENDBRANCH  12  13
ENDBRANCH  11  12
ENDBRANCH   1  11
TORSDOF 15
ENDMDL
MODEL 5
REMARK VINA RESULT:    -4.661      1.845      9.330
REMARK INTER + INTRA:          -9.839
REMARK INTER:                  -8.852
REMARK INTRA:                  -0.988
REMARK UNBOUND:                -1.092
REMARK SMILES O=C([O-])CCCCCCCCCCCCCCC(=O)[O-]
REMARK SMILES IDX 10 1 9 2 8 3 7 4 6 5 5 6 4 7 2 8 1 9 3 10 11 11 12 12 13 13
REMARK SMILES IDX 14 14 15 15 16 16 17 17 18 18 19 19 20 20
REMARK H PARENT
REMARK Flexibility Score: inf
ROOT
ATOM      1  C   UNL     1       1.554  61.126  23.751  1.00  0.00     0.000 C 
ENDROOT
BRANCH   1   2
ATOM      2  C   UNL     1       2.595  60.551  22.782  1.00  0.00     0.000 C 
BRANCH   2   3
ATOM      3  C   UNL     1       3.103  59.185  23.269  1.00  0.00     0.000 C 
BRANCH   3   4
ATOM      4  C   UNL     1       3.203  58.152  22.135  1.00  0.00     0.000 C 
BRANCH   4   5
ATOM      5  C   UNL     1       1.895  57.375  21.924  1.00  0.00     0.000 C 
BRANCH   5   6
ATOM      6  C   UNL     1       1.520  56.580  23.179  1.00  0.00     0.006 C 
BRANCH   6   7
ATOM      7  C   UNL     1       2.626  55.590  23.555  1.00  0.00     0.053 C 
BRANCH   7   8
ATOM      8  C   UNL     1       2.874  55.616  25.030  1.00  0.00     0.041 C 
ATOM      9  O   UNL     1       2.516  56.609  25.716  1.00  0.00    -0.550 OA
ATOM     10  O   UNL     1       3.544  54.563  25.640  1.00  0.00    -0.550 OA
ENDBRANCH   7   8
ENDBRANCH   6   7
ENDBRANCH   5   6
ENDBRANCH   4   5
ENDBRANCH   3   4
ENDBRANCH   2   3
ENDBRANCH   1   2
BRANCH   1  11
ATOM     11  C   UNL     1       0.193  60.438  23.566  1.00  0.00     0.000 C 
BRANCH  11  12
ATOM     12  C   UNL     1      -0.942  61.433  23.273  1.00  0.00     0.000 C 
BRANCH  12  13
ATOM     13  C   UNL     1      -0.569  62.880  23.637  1.00  0.00     0.000 C 
BRANCH  13  14
ATOM     14  C   UNL     1      -1.410  63.917  22.875  1.00  0.00     0.000 C 
BRANCH  14  15
ATOM     15  C   UNL     1      -1.173  65.353  23.375  1.00  0.00     0.000 C 
BRANCH  15  16
ATOM     16  C   UNL     1      -2.448  66.211  23.331  1.00  0.00     0.006 C 
BRANCH  16  17
ATOM     17  C   UNL     1      -3.187  66.105  21.991  1.00  0.00     0.053 C 
BRANCH  17  18
ATOM     18  C   UNL     1      -4.559  65.543  22.195  1.00  0.00     0.041 C 
ATOM     19  O   UNL     1      -4.710  64.437  22.777  1.00  0.00    -0.550 OA
ATOM     20  O   UNL     1      -5.667  66.217  21.697  1.00  0.00    -0.550 OA
ENDBRANCH  17  18
ENDBRANCH  16  17
ENDBRANCH  15  16
ENDBRANCH  14  15
ENDBRANCH  13  14
ENDBRANCH  12  13
ENDBRANCH  11  12
ENDBRANCH   1  11
TORSDOF 15
ENDMDL
MODEL 6
REMARK VINA RESULT:    -4.528      1.575      2.537
REMARK INTER + INTRA:          -9.591
REMARK INTER:                  -8.544
REMARK INTRA:                  -1.047
REMARK UNBOUND:                -1.092
REMARK SMILES O=C([O-])CCCCCCCCCCCCCCC(=O)[O-]
REMARK SMILES IDX 10 1 9 2 8 3 7 4 6 5 5 6 4 7 2 8 1 9 3 10 11 11 12 12 13 13
REMARK SMILES IDX 14 14 15 15 16 16 17 17 18 18 19 19 20 20
REMARK H PARENT
REMARK Flexibility Score: inf
ROOT
ATOM      1  C   UNL     1       0.545  60.605  23.633  1.00  0.00     0.000 C 
ENDROOT
BRANCH   1   2
ATOM      2  C   UNL     1      -0.745  61.389  23.361  1.00  0.00     0.000 C 
BRANCH   2   3
ATOM      3  C   UNL     1      -0.571  62.873  23.719  1.00  0.00     0.000 C 
BRANCH   3   4
ATOM      4  C   UNL     1      -1.522  63.788  22.930  1.00  0.00     0.000 C 
BRANCH   4   5
ATOM      5  C   UNL     1      -1.281  65.279  23.213  1.00  0.00     0.000 C 
BRANCH   5   6
ATOM      6  C   UNL     1      -2.606  66.044  23.292  1.00  0.00     0.006 C 
BRANCH   6   7
ATOM      7  C   UNL     1      -3.292  66.099  21.925  1.00  0.00     0.053 C 
BRANCH   7   8
ATOM      8  C   UNL     1      -4.678  65.542  22.010  1.00  0.00     0.041 C 
ATOM      9  O   UNL     1      -5.673  66.279  21.781  1.00  0.00    -0.550 OA
ATOM     10  O   UNL     1      -4.873  64.220  22.390  1.00  0.00    -0.550 OA
ENDBRANCH   7   8
ENDBRANCH   6   7
ENDBRANCH   5   6
ENDBRANCH   4   5
ENDBRANCH   3   4
ENDBRANCH   2   3
ENDBRANCH   1   2
BRANCH   1  11
ATOM     11  C   UNL     1       1.773  61.524  23.555  1.00  0.00     0.000 C 
BRANCH  11  12
ATOM     12  C   UNL     1       3.081  60.752  23.315  1.00  0.00     0.000 C 
BRANCH  12  13
ATOM     13  C   UNL     1       2.989  59.794  22.115  1.00  0.00     0.000 C 
BRANCH  13  14
ATOM     14  C   UNL     1       3.323  58.341  22.491  1.00  0.00     0.000 C 
BRANCH  14  15
ATOM     15  C   UNL     1       3.571  58.164  24.000  1.00  0.00     0.000 C 
BRANCH  15  16
ATOM     16  C   UNL     1       2.402  57.466  24.713  1.00  0.00     0.006 C 
BRANCH  16  17
ATOM     17  C   UNL     1       2.802  56.117  25.324  1.00  0.00     0.053 C 
BRANCH  17  18
ATOM     18  C   UNL     1       2.979  55.089  24.251  1.00  0.00     0.041 C 
ATOM     19  O   UNL     1       3.917  54.253  24.323  1.00  0.00    -0.550 OA
ATOM     20  O   UNL     1       2.138  55.087  23.145  1.00  0.00    -0.550 OA
ENDBRANCH  17  18
ENDBRANCH  16  17
ENDBRANCH  15  16
ENDBRANCH  14  15
ENDBRANCH  13  14
ENDBRANCH  12  13
ENDBRANCH  11  12
ENDBRANCH   1  11
TORSDOF 15
ENDMDL
MODEL 7
REMARK VINA RESULT:    -4.270      7.189     13.992
REMARK INTER + INTRA:          -9.107
REMARK INTER:                  -8.097
REMARK INTRA:                  -1.010
REMARK UNBOUND:                -1.092
REMARK SMILES O=C([O-])CCCCCCCCCCCCCCC(=O)[O-]
REMARK SMILES IDX 10 1 9 2 8 3 7 4 6 5 5 6 4 7 2 8 1 9 3 10 11 11 12 12 13 13
REMARK SMILES IDX 14 14 15 15 16 16 17 17 18 18 19 19 20 20
REMARK H PARENT
REMARK Flexibility Score: inf
ROOT
ATOM      1  C   UNL     1       2.581  48.926  23.055  1.00  0.00     0.000 C 
ENDROOT
BRANCH   1   2
ATOM      2  C   UNL     1       1.756  47.765  23.622  1.00  0.00     0.000 C 
BRANCH   2   3
ATOM      3  C   UNL     1       2.519  47.046  24.746  1.00  0.00     0.000 C 
BRANCH   3   4
ATOM      4  C   UNL     1       3.402  48.000  25.567  1.00  0.00     0.000 C 
BRANCH   4   5
ATOM      5  C   UNL     1       4.822  47.453  25.783  1.00  0.00     0.000 C 
BRANCH   5   6
ATOM      6  C   UNL     1       5.768  47.929  24.674  1.00  0.00     0.006 C 
BRANCH   6   7
ATOM      7  C   UNL     1       6.335  49.315  24.993  1.00  0.00     0.053 C 
BRANCH   7   8
ATOM      8  C   UNL     1       7.648  49.194  25.700  1.00  0.00     0.041 C 
ATOM      9  O   UNL     1       7.686  49.111  26.956  1.00  0.00    -0.550 OA
ATOM     10  O   UNL     1       8.832  49.222  24.975  1.00  0.00    -0.550 OA
ENDBRANCH   7   8
ENDBRANCH   6   7
ENDBRANCH   5   6
ENDBRANCH   4   5
ENDBRANCH   3   4
ENDBRANCH   2   3
ENDBRANCH   1   2
BRANCH   1  11
ATOM     11  C   UNL     1       1.697  50.155  22.798  1.00  0.00     0.000 C 
BRANCH  11  12
ATOM     12  C   UNL     1       2.491  51.471  22.798  1.00  0.00     0.000 C 
BRANCH  12  13
ATOM     13  C   UNL     1       1.618  52.689  22.448  1.00  0.00     0.000 C 
BRANCH  13  14
ATOM     14  C   UNL     1       2.408  54.008  22.470  1.00  0.00     0.000 C 
BRANCH  14  15
ATOM     15  C   UNL     1       3.276  54.156  23.731  1.00  0.00     0.000 C 
BRANCH  15  16
ATOM     16  C   UNL     1       3.111  55.529  24.404  1.00  0.00     0.006 C 
BRANCH  16  17
ATOM     17  C   UNL     1       2.191  56.468  23.614  1.00  0.00     0.053 C 
BRANCH  17  18
ATOM     18  C   UNL     1       2.943  57.682  23.167  1.00  0.00     0.041 C 
ATOM     19  O   UNL     1       3.420  58.480  24.016  1.00  0.00    -0.550 OA
ATOM     20  O   UNL     1       3.075  57.958  21.812  1.00  0.00    -0.550 OA
ENDBRANCH  17  18
ENDBRANCH  16  17
ENDBRANCH  15  16
ENDBRANCH  14  15
ENDBRANCH  13  14
ENDBRANCH  12  13
ENDBRANCH  11  12
ENDBRANCH   1  11
TORSDOF 15
ENDMDL
MODEL 8
REMARK VINA RESULT:    -4.217      6.615     10.680
REMARK INTER + INTRA:          -9.008
REMARK INTER:                  -8.089
REMARK INTRA:                  -0.918
REMARK UNBOUND:                -1.092
REMARK SMILES O=C([O-])CCCCCCCCCCCCCCC(=O)[O-]
REMARK SMILES IDX 10 1 9 2 8 3 7 4 6 5 5 6 4 7 2 8 1 9 3 10 11 11 12 12 13 13
REMARK SMILES IDX 14 14 15 15 16 16 17 17 18 18 19 19 20 20
REMARK H PARENT
REMARK Flexibility Score: inf
ROOT
ATOM      1  C   UNL     1       1.521  52.048  22.504  1.00  0.00     0.000 C 
ENDROOT
BRANCH   1   2
ATOM      2  C   UNL     1       2.382  53.271  22.161  1.00  0.00     0.000 C 
BRANCH   2   3
ATOM      3  C   UNL     1       2.172  54.395  23.187  1.00  0.00     0.000 C 
BRANCH   3   4
ATOM      4  C   UNL     1       3.397  54.610  24.091  1.00  0.00     0.000 C 
BRANCH   4   5
ATOM      5  C   UNL     1       3.055  55.369  25.382  1.00  0.00     0.000 C 
BRANCH   5   6
ATOM      6  C   UNL     1       2.521  56.771  25.069  1.00  0.00     0.006 C 
BRANCH   6   7
ATOM      7  C   UNL     1       3.580  57.616  24.357  1.00  0.00     0.053 C 
BRANCH   7   8
ATOM      8  C   UNL     1       2.983  58.319  23.178  1.00  0.00     0.041 C 
ATOM      9  O   UNL     1       2.901  57.735  22.066  1.00  0.00    -0.550 OA
ATOM     10  O   UNL     1       2.562  59.638  23.296  1.00  0.00    -0.550 OA
ENDBRANCH   7   8
ENDBRANCH   6   7
ENDBRANCH   5   6
ENDBRANCH   4   5
ENDBRANCH   3   4
ENDBRANCH   2   3
ENDBRANCH   1   2
BRANCH   1  11
ATOM     11  C   UNL     1       2.399  50.820  22.785  1.00  0.00     0.000 C 
BRANCH  11  12
ATOM     12  C   UNL     1       1.588  49.517  22.880  1.00  0.00     0.000 C 
BRANCH  12  13
ATOM     13  C   UNL     1       2.472  48.288  23.153  1.00  0.00     0.000 C 
BRANCH  13  14
ATOM     14  C   UNL     1       2.034  47.510  24.404  1.00  0.00     0.000 C 
BRANCH  14  15
ATOM     15  C   UNL     1       3.194  47.267  25.386  1.00  0.00     0.000 C 
BRANCH  15  16
ATOM     16  C   UNL     1       4.238  48.394  25.357  1.00  0.00     0.006 C 
BRANCH  16  17
ATOM     17  C   UNL     1       5.576  47.977  25.981  1.00  0.00     0.053 C 
BRANCH  17  18
ATOM     18  C   UNL     1       6.702  48.747  25.365  1.00  0.00     0.041 C 
ATOM     19  O   UNL     1       6.850  48.763  24.115  1.00  0.00    -0.550 OA
ATOM     20  O   UNL     1       7.617  49.407  26.176  1.00  0.00    -0.550 OA
ENDBRANCH  17  18
ENDBRANCH  16  17
ENDBRANCH  15  16
ENDBRANCH  14  15
ENDBRANCH  13  14
ENDBRANCH  12  13
ENDBRANCH  11  12
ENDBRANCH   1  11
TORSDOF 15
ENDMDL
MODEL 9
REMARK VINA RESULT:    -4.216      6.530     13.348
REMARK INTER + INTRA:          -9.005
REMARK INTER:                  -8.106
REMARK INTRA:                  -0.899
REMARK UNBOUND:                -1.092
REMARK SMILES O=C([O-])CCCCCCCCCCCCCCC(=O)[O-]
REMARK SMILES IDX 10 1 9 2 8 3 7 4 6 5 5 6 4 7 2 8 1 9 3 10 11 11 12 12 13 13
REMARK SMILES IDX 14 14 15 15 16 16 17 17 18 18 19 19 20 20
REMARK H PARENT
REMARK Flexibility Score: inf
ROOT
ATOM      1  C   UNL     1       2.458  50.837  22.865  1.00  0.00     0.000 C 
ENDROOT
BRANCH   1   2
ATOM      2  C   UNL     1       1.659  49.528  22.850  1.00  0.00     0.000 C 
BRANCH   2   3
ATOM      3  C   UNL     1       2.562  48.330  23.184  1.00  0.00     0.000 C 
BRANCH   3   4
ATOM      4  C   UNL     1       2.084  47.555  24.422  1.00  0.00     0.000 C 
BRANCH   4   5
ATOM      5  C   UNL     1       3.110  47.572  25.565  1.00  0.00     0.000 C 
BRANCH   5   6
ATOM      6  C   UNL     1       4.259  48.539  25.256  1.00  0.00     0.006 C 
BRANCH   6   7
ATOM      7  C   UNL     1       5.602  47.805  25.222  1.00  0.00     0.053 C 
BRANCH   7   8
ATOM      8  C   UNL     1       6.648  48.656  24.574  1.00  0.00     0.041 C 
ATOM      9  O   UNL     1       7.173  48.298  23.487  1.00  0.00    -0.550 OA
ATOM     10  O   UNL     1       7.079  49.821  25.196  1.00  0.00    -0.550 OA
ENDBRANCH   7   8
ENDBRANCH   6   7
ENDBRANCH   5   6
ENDBRANCH   4   5
ENDBRANCH   3   4
ENDBRANCH   2   3
ENDBRANCH   1   2
BRANCH   1  11
ATOM     11  C   UNL     1       1.571  52.026  22.463  1.00  0.00     0.000 C 
BRANCH  11  12
ATOM     12  C   UNL     1       2.376  53.312  22.216  1.00  0.00     0.000 C 
BRANCH  12  13
ATOM     13  C   UNL     1       2.076  54.406  23.255  1.00  0.00     0.000 C 
BRANCH  13  14
ATOM     14  C   UNL     1       3.286  54.720  24.149  1.00  0.00     0.000 C 
BRANCH  14  15
ATOM     15  C   UNL     1       2.906  55.546  25.390  1.00  0.00     0.000 C 
BRANCH  15  16
ATOM     16  C   UNL     1       2.636  57.023  25.057  1.00  0.00     0.006 C 
BRANCH  16  17
ATOM     17  C   UNL     1       3.639  57.593  24.045  1.00  0.00     0.053 C 
BRANCH  17  18
ATOM     18  C   UNL     1       2.925  58.097  22.831  1.00  0.00     0.041 C 
ATOM     19  O   UNL     1       3.526  58.827  21.999  1.00  0.00    -0.550 OA
ATOM     20  O   UNL     1       1.581  57.802  22.642  1.00  0.00    -0.550 OA
ENDBRANCH  17  18
ENDBRANCH  16  17
ENDBRANCH  15  16
ENDBRANCH  14  15
ENDBRANCH  13  14
ENDBRANCH  12  13
ENDBRANCH  11  12
ENDBRANCH   1  11
TORSDOF 15
ENDMDL
