MODEL 1
REMARK VINA RESULT:    -4.576      0.000      0.000
REMARK INTER + INTRA:          -6.381
REMARK INTER:                  -6.181
REMARK INTRA:                  -0.201
REMARK UNBOUND:                -0.201
REMARK SMILES C=C1C(=O)O[C@@H]2[C@@H]1CCC(C)=CCC[C@@]1(C)O[C@@H]21
REMARK SMILES IDX 6 1 7 2 2 3 1 4 3 5 4 6 5 7 8 8 9 9 10 10 11 11 12 12 18 14
REMARK SMILES IDX 15 15 17 16 16 17 14 18 13 19
REMARK H PARENT
REMARK Flexibility Score: 70.00
ROOT
ATOM      1  C   UNL     1      17.654   6.046  40.760  1.00  0.00     0.216 C 
ATOM      2  C   UNL     1      16.634   5.627  39.652  1.00  0.00     0.070 C 
ATOM      3  C   UNL     1      15.324   6.076  40.235  1.00  0.00     0.037 C 
ATOM      4  C   UNL     1      14.134   6.106  39.633  1.00  0.00     0.021 C 
ATOM      5  C   UNL     1      15.549   6.235  41.656  1.00  0.00     0.334 C 
ATOM      6  O   UNL     1      14.658   6.444  42.521  1.00  0.00    -0.247 OA
ATOM      7  O   UNL     1      16.886   6.079  41.959  1.00  0.00    -0.455 OA
ENDROOT
BRANCH   2   8
ATOM      8  C   UNL     1      16.932   6.073  38.195  1.00  0.00     0.017 C 
BRANCH   8   9
ATOM      9  C   UNL     1      18.409   6.316  37.823  1.00  0.00     0.031 C 
BRANCH   9  10
ATOM     10  C   UNL     1      18.834   7.780  37.881  1.00  0.00    -0.077 C 
ATOM     11  C   UNL     1      18.006   8.786  37.115  1.00  0.00     0.039 C 
ATOM     12  C   UNL     1      19.834   8.275  38.664  1.00  0.00    -0.028 CG0
ATOM     13  G   UNL     1      20.932   7.511  39.384  1.00  0.00     0.000 G0
ENDBRANCH   9  10
ENDBRANCH   8   9
ENDBRANCH   2   8
BRANCH   1  14
ATOM     14  C   UNL     1      18.843   5.088  40.890  1.00  0.00     0.192 C 
ATOM     15  C   UNL     1      20.253   5.599  40.940  1.00  0.00     0.096 C 
ATOM     16  O   UNL     1      19.521   5.312  42.111  1.00  0.00    -0.362 OA
ATOM     17  C   UNL     1      21.371   4.573  40.733  1.00  0.00     0.045 C 
BRANCH  15  18
ATOM     18  C   UNL     1      20.624   7.099  40.846  1.00  0.00     0.042 C 
BRANCH  18  19
ATOM     19  C   UNL     1      20.937   7.500  39.393  1.00  0.00     0.030 CG0
ATOM     20  G   UNL     1      19.849   8.277  38.672  1.00  0.00     0.000 G0
ENDBRANCH  18  19
ENDBRANCH  15  18
ENDBRANCH   1  14
TORSDOF 0
ENDMDL
MODEL 2
REMARK VINA RESULT:    -4.394      2.150      3.738
REMARK INTER + INTRA:          -6.136
REMARK INTER:                  -5.909
REMARK INTRA:                  -0.226
REMARK UNBOUND:                -0.201
REMARK SMILES C=C1C(=O)O[C@@H]2[C@@H]1CCC(C)=CCC[C@@]1(C)O[C@@H]21
REMARK SMILES IDX 6 1 7 2 2 3 1 4 3 5 4 6 5 7 8 8 9 9 10 10 11 11 12 12 18 14
REMARK SMILES IDX 15 15 17 16 16 17 14 18 13 19
REMARK H PARENT
REMARK Flexibility Score: 70.00
ROOT
ATOM      1  C   UNL     1      17.028   6.541  39.219  1.00  0.00     0.216 C 
ATOM      2  C   UNL     1      16.704   6.554  40.748  1.00  0.00     0.070 C 
ATOM      3  C   UNL     1      15.232   6.254  40.766  1.00  0.00     0.037 C 
ATOM      4  C   UNL     1      14.470   5.989  41.829  1.00  0.00     0.021 C 
ATOM      5  C   UNL     1      14.743   6.551  39.437  1.00  0.00     0.334 C 
ATOM      6  O   UNL     1      13.533   6.583  39.090  1.00  0.00    -0.247 OA
ATOM      7  O   UNL     1      15.789   6.849  38.588  1.00  0.00    -0.455 OA
ENDROOT
BRANCH   2   8
ATOM      8  C   UNL     1      17.599   5.692  41.679  1.00  0.00     0.017 C 
BRANCH   8   9
ATOM      9  C   UNL     1      18.915   6.327  42.175  1.00  0.00     0.031 C 
BRANCH   9  10
ATOM     10  C   UNL     1      20.062   5.336  42.338  1.00  0.00    -0.077 C 
ATOM     11  C   UNL     1      20.151   4.567  43.635  1.00  0.00     0.039 C 
ATOM     12  C   UNL     1      20.951   5.000  41.360  1.00  0.00    -0.028 CG0
ATOM     13  G   UNL     1      21.223   5.714  40.048  1.00  0.00     0.000 G0
ENDBRANCH   9  10
ENDBRANCH   8   9
ENDBRANCH   2   8
BRANCH   1  14
ATOM     14  C   UNL     1      18.118   7.541  38.816  1.00  0.00     0.192 C 
ATOM     15  C   UNL     1      19.557   7.128  38.719  1.00  0.00     0.096 C 
ATOM     16  O   UNL     1      18.710   7.153  37.591  1.00  0.00    -0.362 OA
ATOM     17  C   UNL     1      20.597   8.248  38.643  1.00  0.00     0.045 C 
BRANCH  15  18
ATOM     18  C   UNL     1      20.060   5.696  39.029  1.00  0.00     0.042 C 
BRANCH  18  19
ATOM     19  C   UNL     1      21.216   5.727  40.045  1.00  0.00     0.030 CG0
ATOM     20  G   UNL     1      20.967   4.999  41.355  1.00  0.00     0.000 G0
ENDBRANCH  18  19
ENDBRANCH  15  18
ENDBRANCH   1  14
TORSDOF 0
ENDMDL
MODEL 3
REMARK VINA RESULT:    -4.384      2.426      4.077
REMARK INTER + INTRA:          -6.123
REMARK INTER:                  -5.853
REMARK INTRA:                  -0.270
REMARK UNBOUND:                -0.201
REMARK SMILES C=C1C(=O)O[C@@H]2[C@@H]1CCC(C)=CCC[C@@]1(C)O[C@@H]21
REMARK SMILES IDX 6 1 7 2 2 3 1 4 3 5 4 6 5 7 8 8 9 9 10 10 11 11 12 12 18 14
REMARK SMILES IDX 15 15 17 16 16 17 14 18 13 19
REMARK H PARENT
REMARK Flexibility Score: 70.00
ROOT
ATOM      1  C   UNL     1      20.207   5.119  41.985  1.00  0.00     0.216 C 
ATOM      2  C   UNL     1      18.821   4.941  42.685  1.00  0.00     0.070 C 
ATOM      3  C   UNL     1      19.205   4.839  44.134  1.00  0.00     0.037 C 
ATOM      4  C   UNL     1      18.392   4.836  45.192  1.00  0.00     0.021 C 
ATOM      5  C   UNL     1      20.609   4.491  44.156  1.00  0.00     0.334 C 
ATOM      6  O   UNL     1      21.268   4.157  45.176  1.00  0.00    -0.247 OA
ATOM      7  O   UNL     1      21.140   4.526  42.882  1.00  0.00    -0.455 OA
ENDROOT
BRANCH   2   8
ATOM      8  C   UNL     1      17.704   5.961  42.335  1.00  0.00     0.017 C 
BRANCH   8   9
ATOM      9  C   UNL     1      16.985   5.780  40.982  1.00  0.00     0.031 C 
BRANCH   9  10
ATOM     10  C   UNL     1      16.637   7.088  40.281  1.00  0.00    -0.077 C 
ATOM     11  C   UNL     1      15.410   7.835  40.750  1.00  0.00     0.039 C 
ATOM     12  C   UNL     1      17.408   7.702  39.339  1.00  0.00    -0.028 CG0
ATOM     13  G   UNL     1      18.571   7.124  38.552  1.00  0.00     0.000 G0
ENDBRANCH   9  10
ENDBRANCH   8   9
ENDBRANCH   2   8
BRANCH   1  14
ATOM     14  C   UNL     1      20.281   4.467  40.600  1.00  0.00     0.192 C 
ATOM     15  C   UNL     1      20.117   5.276  39.348  1.00  0.00     0.096 C 
ATOM     16  O   UNL     1      21.387   4.972  39.878  1.00  0.00    -0.362 OA
ATOM     17  C   UNL     1      19.870   4.504  38.049  1.00  0.00     0.045 C 
BRANCH  15  18
ATOM     18  C   UNL     1      19.844   6.801  39.343  1.00  0.00     0.042 C 
BRANCH  18  19
ATOM     19  C   UNL     1      18.571   7.131  38.544  1.00  0.00     0.030 CG0
ATOM     20  G   UNL     1      17.416   7.705  39.345  1.00  0.00     0.000 G0
ENDBRANCH  18  19
ENDBRANCH  15  18
ENDBRANCH   1  14
TORSDOF 0
ENDMDL
MODEL 4
REMARK VINA RESULT:    -4.336     11.286     13.992
REMARK INTER + INTRA:          -6.058
REMARK INTER:                  -6.474
REMARK INTRA:                   0.416
REMARK UNBOUND:                -0.201
REMARK SMILES C=C1C(=O)O[C@@H]2[C@@H]1CCC(C)=CCC[C@@]1(C)O[C@@H]21
REMARK SMILES IDX 6 1 7 2 2 3 1 4 3 5 4 6 5 7 8 8 9 9 10 10 11 11 12 12 18 14
REMARK SMILES IDX 15 15 17 16 16 17 14 18 13 19
REMARK H PARENT
REMARK Flexibility Score: 70.00
ROOT
ATOM      1  C   UNL     1      22.341  -4.987  43.623  1.00  0.00     0.216 C 
ATOM      2  C   UNL     1      22.322  -6.000  44.813  1.00  0.00     0.070 C 
ATOM      3  C   UNL     1      22.066  -7.307  44.118  1.00  0.00     0.037 C 
ATOM      4  C   UNL     1      22.112  -8.532  44.646  1.00  0.00     0.021 C 
ATOM      5  C   UNL     1      21.514  -6.974  42.822  1.00  0.00     0.334 C 
ATOM      6  O   UNL     1      21.019  -7.792  42.002  1.00  0.00    -0.247 OA
ATOM      7  O   UNL     1      21.557  -5.611  42.610  1.00  0.00    -0.455 OA
ENDROOT
BRANCH   2   8
ATOM      8  C   UNL     1      23.517  -5.966  45.804  1.00  0.00     0.017 C 
BRANCH   8   9
ATOM      9  C   UNL     1      24.889  -6.421  45.266  1.00  0.00     0.031 C 
BRANCH   9  10
ATOM     10  C   UNL     1      26.032  -5.461  45.582  1.00  0.00    -0.077 C 
ATOM     11  C   UNL     1      27.422  -6.038  45.713  1.00  0.00     0.039 C 
ATOM     12  C   UNL     1      25.921  -4.104  45.641  1.00  0.00    -0.028 CG0
ATOM     13  G   UNL     1      24.658  -3.265  45.731  1.00  0.00     0.000 G0
ENDBRANCH   9  10
ENDBRANCH   8   9
ENDBRANCH   2   8
BRANCH   1  14
ATOM     14  C   UNL     1      21.780  -3.608  43.985  1.00  0.00     0.192 C 
ATOM     15  C   UNL     1      22.687  -2.470  44.351  1.00  0.00     0.096 C 
ATOM     16  O   UNL     1      22.200  -2.644  43.039  1.00  0.00    -0.362 OA
ATOM     17  C   UNL     1      22.039  -1.251  45.014  1.00  0.00     0.045 C 
BRANCH  15  18
ATOM     18  C   UNL     1      24.229  -2.590  44.414  1.00  0.00     0.042 C 
BRANCH  18  19
ATOM     19  C   UNL     1      24.677  -3.259  45.726  1.00  0.00     0.030 CG0
ATOM     20  G   UNL     1      25.933  -4.110  45.641  1.00  0.00     0.000 G0
ENDBRANCH  18  19
ENDBRANCH  15  18
ENDBRANCH   1  14
TORSDOF 0
ENDMDL
MODEL 5
REMARK VINA RESULT:    -4.334      2.962      4.793
REMARK INTER + INTRA:          -6.054
REMARK INTER:                  -6.413
REMARK INTRA:                   0.359
REMARK UNBOUND:                -0.201
REMARK SMILES C=C1C(=O)O[C@@H]2[C@@H]1CCC(C)=CCC[C@@]1(C)O[C@@H]21
REMARK SMILES IDX 6 1 7 2 2 3 1 4 3 5 4 6 5 7 8 8 9 9 10 10 11 11 12 12 18 14
REMARK SMILES IDX 15 15 17 16 16 17 14 18 13 19
REMARK H PARENT
REMARK Flexibility Score: 70.00
ROOT
ATOM      1  C   UNL     1      18.823   5.678  41.213  1.00  0.00     0.216 C 
ATOM      2  C   UNL     1      19.292   4.730  40.061  1.00  0.00     0.070 C 
ATOM      3  C   UNL     1      18.799   5.446  38.836  1.00  0.00     0.037 C 
ATOM      4  C   UNL     1      19.067   5.156  37.562  1.00  0.00     0.021 C 
ATOM      5  C   UNL     1      17.774   6.362  39.289  1.00  0.00     0.334 C 
ATOM      6  O   UNL     1      17.005   7.029  38.547  1.00  0.00    -0.247 OA
ATOM      7  O   UNL     1      17.711   6.380  40.668  1.00  0.00    -0.455 OA
ENDROOT
BRANCH   2   8
ATOM      8  C   UNL     1      20.782   4.291  40.054  1.00  0.00     0.017 C 
BRANCH   8   9
ATOM      9  C   UNL     1      21.738   5.034  41.009  1.00  0.00     0.031 C 
BRANCH   9  10
ATOM     10  C   UNL     1      22.717   4.124  41.743  1.00  0.00    -0.077 C 
ATOM     11  C   UNL     1      23.737   3.374  40.918  1.00  0.00     0.039 C 
ATOM     12  C   UNL     1      22.825   4.021  43.098  1.00  0.00    -0.028 CG0
ATOM     13  G   UNL     1      21.848   4.497  44.160  1.00  0.00     0.000 G0
ENDBRANCH   9  10
ENDBRANCH   8   9
ENDBRANCH   2   8
BRANCH   1  14
ATOM     14  C   UNL     1      18.434   4.935  42.495  1.00  0.00     0.192 C 
ATOM     15  C   UNL     1      19.367   4.863  43.668  1.00  0.00     0.096 C 
ATOM     16  O   UNL     1      18.353   5.839  43.580  1.00  0.00    -0.362 OA
ATOM     17  C   UNL     1      19.040   3.835  44.754  1.00  0.00     0.045 C 
BRANCH  15  18
ATOM     18  C   UNL     1      20.779   5.499  43.679  1.00  0.00     0.042 C 
BRANCH  18  19
ATOM     19  C   UNL     1      21.835   4.487  44.160  1.00  0.00     0.030 CG0
ATOM     20  G   UNL     1      22.833   4.023  43.113  1.00  0.00     0.000 G0
ENDBRANCH  18  19
ENDBRANCH  15  18
ENDBRANCH   1  14
TORSDOF 0
ENDMDL
MODEL 6
REMARK VINA RESULT:    -4.330      2.031      4.602
REMARK INTER + INTRA:          -6.050
REMARK INTER:                  -7.401
REMARK INTRA:                   1.351
REMARK UNBOUND:                -0.201
REMARK SMILES C=C1C(=O)O[C@@H]2[C@@H]1CCC(C)=CCC[C@@]1(C)O[C@@H]21
REMARK SMILES IDX 6 1 7 2 2 3 1 4 3 5 4 6 5 7 8 8 9 9 10 10 11 11 12 12 18 14
REMARK SMILES IDX 15 15 17 16 16 17 14 18 13 19
REMARK H PARENT
REMARK Flexibility Score: 70.00
ROOT
ATOM      1  C   UNL     1      19.231   5.018  42.583  1.00  0.00     0.216 C 
ATOM      2  C   UNL     1      20.685   5.099  42.015  1.00  0.00     0.070 C 
ATOM      3  C   UNL     1      21.493   4.466  43.111  1.00  0.00     0.037 C 
ATOM      4  C   UNL     1      22.785   4.132  43.080  1.00  0.00     0.021 C 
ATOM      5  C   UNL     1      20.669   4.514  44.300  1.00  0.00     0.334 C 
ATOM      6  O   UNL     1      21.046   4.229  45.467  1.00  0.00    -0.247 OA
ATOM      7  O   UNL     1      19.401   4.967  43.996  1.00  0.00    -0.455 OA
ENDROOT
BRANCH   2   8
ATOM      8  C   UNL     1      20.926   4.561  40.578  1.00  0.00     0.017 C 
BRANCH   8   9
ATOM      9  C   UNL     1      21.375   5.582  39.512  1.00  0.00     0.031 C 
BRANCH   9  10
ATOM     10  C   UNL     1      20.302   6.595  39.127  1.00  0.00    -0.077 C 
ATOM     11  C   UNL     1      20.701   8.050  39.047  1.00  0.00     0.039 C 
ATOM     12  C   UNL     1      19.034   6.282  38.735  1.00  0.00    -0.028 CG0
ATOM     13  G   UNL     1      18.302   4.960  38.885  1.00  0.00     0.000 G0
ENDBRANCH   9  10
ENDBRANCH   8   9
ENDBRANCH   2   8
BRANCH   1  14
ATOM     14  C   UNL     1      18.348   6.202  42.174  1.00  0.00     0.192 C 
ATOM     15  C   UNL     1      17.436   6.120  40.986  1.00  0.00     0.096 C 
ATOM     16  O   UNL     1      16.981   5.859  42.295  1.00  0.00    -0.362 OA
ATOM     17  C   UNL     1      16.857   7.438  40.462  1.00  0.00     0.045 C 
BRANCH  15  18
ATOM     18  C   UNL     1      17.323   4.872  40.077  1.00  0.00     0.042 C 
BRANCH  18  19
ATOM     19  C   UNL     1      18.285   4.973  38.879  1.00  0.00     0.030 CG0
ATOM     20  G   UNL     1      19.032   6.288  38.739  1.00  0.00     0.000 G0
ENDBRANCH  18  19
ENDBRANCH  15  18
ENDBRANCH   1  14
TORSDOF 0
ENDMDL
MODEL 7
REMARK VINA RESULT:    -4.305      2.786      5.188
REMARK INTER + INTRA:          -6.015
REMARK INTER:                  -5.881
REMARK INTRA:                  -0.134
REMARK UNBOUND:                -0.201
REMARK SMILES C=C1C(=O)O[C@@H]2[C@@H]1CCC(C)=CCC[C@@]1(C)O[C@@H]21
REMARK SMILES IDX 6 1 7 2 2 3 1 4 3 5 4 6 5 7 8 8 9 9 10 10 11 11 12 12 18 14
REMARK SMILES IDX 15 15 17 16 16 17 14 18 13 19
REMARK H PARENT
REMARK Flexibility Score: 70.00
ROOT
ATOM      1  C   UNL     1      19.324   7.020  38.885  1.00  0.00     0.216 C 
ATOM      2  C   UNL     1      18.873   5.581  38.476  1.00  0.00     0.070 C 
ATOM      3  C   UNL     1      19.871   4.715  39.192  1.00  0.00     0.037 C 
ATOM      4  C   UNL     1      19.853   3.387  39.317  1.00  0.00     0.021 C 
ATOM      5  C   UNL     1      20.993   5.572  39.509  1.00  0.00     0.334 C 
ATOM      6  O   UNL     1      22.102   5.190  39.967  1.00  0.00    -0.247 OA
ATOM      7  O   UNL     1      20.707   6.886  39.197  1.00  0.00    -0.455 OA
ENDROOT
BRANCH   2   8
ATOM      8  C   UNL     1      17.376   5.215  38.668  1.00  0.00     0.017 C 
BRANCH   8   9
ATOM      9  C   UNL     1      16.745   5.534  40.039  1.00  0.00     0.031 C 
BRANCH   9  10
ATOM     10  C   UNL     1      15.293   5.993  39.966  1.00  0.00    -0.077 C 
ATOM     11  C   UNL     1      14.269   5.227  40.771  1.00  0.00     0.039 C 
ATOM     12  C   UNL     1      14.857   7.113  39.322  1.00  0.00    -0.028 CG0
ATOM     13  G   UNL     1      15.597   7.961  38.302  1.00  0.00     0.000 G0
ENDBRANCH   9  10
ENDBRANCH   8   9
ENDBRANCH   2   8
BRANCH   1  14
ATOM     14  C   UNL     1      19.104   8.066  37.787  1.00  0.00     0.192 C 
ATOM     15  C   UNL     1      17.877   8.929  37.769  1.00  0.00     0.096 C 
ATOM     16  O   UNL     1      19.089   9.366  38.344  1.00  0.00    -0.362 OA
ATOM     17  C   UNL     1      17.584   9.692  36.475  1.00  0.00     0.045 C 
BRANCH  15  18
ATOM     18  C   UNL     1      16.744   8.830  38.820  1.00  0.00     0.042 C 
BRANCH  18  19
ATOM     19  C   UNL     1      15.580   7.969  38.295  1.00  0.00     0.030 CG0
ATOM     20  G   UNL     1      14.863   7.121  39.332  1.00  0.00     0.000 G0
ENDBRANCH  18  19
ENDBRANCH  15  18
ENDBRANCH   1  14
TORSDOF 0
ENDMDL
MODEL 8
REMARK VINA RESULT:    -4.033      2.587      4.712
REMARK INTER + INTRA:          -5.649
REMARK INTER:                  -5.399
REMARK INTRA:                  -0.249
REMARK UNBOUND:                -0.201
REMARK SMILES C=C1C(=O)O[C@@H]2[C@@H]1CCC(C)=CCC[C@@]1(C)O[C@@H]21
REMARK SMILES IDX 6 1 7 2 2 3 1 4 3 5 4 6 5 7 8 8 9 9 10 10 11 11 12 12 18 14
REMARK SMILES IDX 15 15 17 16 16 17 14 18 13 19
REMARK H PARENT
REMARK Flexibility Score: 70.00
ROOT
ATOM      1  C   UNL     1      19.063   6.910  40.407  1.00  0.00     0.216 C 
ATOM      2  C   UNL     1      18.356   5.791  41.238  1.00  0.00     0.070 C 
ATOM      3  C   UNL     1      19.121   5.820  42.531  1.00  0.00     0.037 C 
ATOM      4  C   UNL     1      18.832   5.174  43.662  1.00  0.00     0.021 C 
ATOM      5  C   UNL     1      20.373   6.487  42.244  1.00  0.00     0.334 C 
ATOM      6  O   UNL     1      21.357   6.570  43.026  1.00  0.00    -0.247 OA
ATOM      7  O   UNL     1      20.372   6.994  40.961  1.00  0.00    -0.455 OA
ENDROOT
BRANCH   2   8
ATOM      8  C   UNL     1      16.808   5.846  41.349  1.00  0.00     0.017 C 
BRANCH   8   9
ATOM      9  C   UNL     1      16.001   5.493  40.082  1.00  0.00     0.031 C 
BRANCH   9  10
ATOM     10  C   UNL     1      14.774   6.371  39.859  1.00  0.00    -0.077 C 
ATOM     11  C   UNL     1      13.557   6.114  40.716  1.00  0.00     0.039 C 
ATOM     12  C   UNL     1      14.725   7.450  39.027  1.00  0.00    -0.028 CG0
ATOM     13  G   UNL     1      15.701   7.839  37.930  1.00  0.00     0.000 G0
ENDBRANCH   9  10
ENDBRANCH   8   9
ENDBRANCH   2   8
BRANCH   1  14
ATOM     14  C   UNL     1      19.115   6.614  38.904  1.00  0.00     0.192 C 
ATOM     15  C   UNL     1      18.182   7.289  37.944  1.00  0.00     0.096 C 
ATOM     16  O   UNL     1      19.482   7.777  38.188  1.00  0.00    -0.362 OA
ATOM     17  C   UNL     1      18.079   6.693  36.538  1.00  0.00     0.045 C 
BRANCH  15  18
ATOM     18  C   UNL     1      17.095   8.305  38.377  1.00  0.00     0.042 C 
BRANCH  18  19
ATOM     19  C   UNL     1      15.698   7.846  37.920  1.00  0.00     0.030 CG0
ATOM     20  G   UNL     1      14.739   7.442  39.026  1.00  0.00     0.000 G0
ENDBRANCH  18  19
ENDBRANCH  15  18
ENDBRANCH   1  14
TORSDOF 0
ENDMDL
MODEL 9
REMARK VINA RESULT:    -3.926      2.377      4.461
REMARK INTER + INTRA:          -5.504
REMARK INTER:                  -6.453
REMARK INTRA:                   0.949
REMARK UNBOUND:                -0.201
REMARK SMILES C=C1C(=O)O[C@@H]2[C@@H]1CCC(C)=CCC[C@@]1(C)O[C@@H]21
REMARK SMILES IDX 6 1 7 2 2 3 1 4 3 5 4 6 5 7 8 8 9 9 10 10 11 11 12 12 18 14
REMARK SMILES IDX 15 15 17 16 16 17 14 18 13 19
REMARK H PARENT
REMARK Flexibility Score: 70.00
ROOT
ATOM      1  C   UNL     1      17.993   7.459  39.083  1.00  0.00     0.216 C 
ATOM      2  C   UNL     1      19.281   7.899  38.314  1.00  0.00     0.070 C 
ATOM      3  C   UNL     1      18.874   9.226  37.739  1.00  0.00     0.037 C 
ATOM      4  C   UNL     1      19.651  10.117  37.121  1.00  0.00     0.021 C 
ATOM      5  C   UNL     1      17.427   9.248  37.760  1.00  0.00     0.334 C 
ATOM      6  O   UNL     1      16.698  10.120  37.217  1.00  0.00    -0.247 OA
ATOM      7  O   UNL     1      16.932   8.145  38.425  1.00  0.00    -0.455 OA
ENDROOT
BRANCH   2   8
ATOM      8  C   UNL     1      20.627   7.863  39.087  1.00  0.00     0.017 C 
BRANCH   8   9
ATOM      9  C   UNL     1      20.593   7.323  40.532  1.00  0.00     0.031 C 
BRANCH   9  10
ATOM     10  C   UNL     1      20.916   5.837  40.649  1.00  0.00    -0.077 C 
ATOM     11  C   UNL     1      22.009   5.280  39.767  1.00  0.00     0.039 C 
ATOM     12  C   UNL     1      20.377   4.989  41.571  1.00  0.00    -0.028 CG0
ATOM     13  G   UNL     1      19.155   5.204  42.447  1.00  0.00     0.000 G0
ENDBRANCH   9  10
ENDBRANCH   8   9
ENDBRANCH   2   8
BRANCH   1  14
ATOM     14  C   UNL     1      17.762   5.944  39.073  1.00  0.00     0.192 C 
ATOM     15  C   UNL     1      17.710   5.156  40.348  1.00  0.00     0.096 C 
ATOM     16  O   UNL     1      16.542   5.630  39.715  1.00  0.00    -0.362 OA
ATOM     17  C   UNL     1      17.813   3.633  40.228  1.00  0.00     0.045 C 
BRANCH  15  18
ATOM     18  C   UNL     1      17.899   5.783  41.751  1.00  0.00     0.042 C 
BRANCH  18  19
ATOM     19  C   UNL     1      19.145   5.208  42.449  1.00  0.00     0.030 CG0
ATOM     20  G   UNL     1      20.363   5.002  41.565  1.00  0.00     0.000 G0
ENDBRANCH  18  19
ENDBRANCH  15  18
ENDBRANCH   1  14
TORSDOF 0
ENDMDL
