MODEL 1
REMARK VINA RESULT:    -2.563      0.000      0.000
REMARK INTER + INTRA:          -2.907
REMARK INTER:                  -2.863
REMARK INTRA:                  -0.044
REMARK UNBOUND:                -0.044
REMARK SMILES CCCC(=O)[O-]
REMARK SMILES IDX 3 1 4 2 5 3 6 4 2 5 1 6
REMARK H PARENT
REMARK Flexibility Score: inf
ROOT
ATOM      1  C   UNL     1      -8.922  -7.084   3.366  1.00  0.00     0.052 C 
ENDROOT
BRANCH   1   2
ATOM      2  C   UNL     1      -7.855  -7.721   2.530  1.00  0.00     0.041 C 
ATOM      3  O   UNL     1      -6.899  -8.330   3.079  1.00  0.00    -0.550 OA
ATOM      4  O   UNL     1      -7.898  -7.613   1.145  1.00  0.00    -0.550 OA
ENDBRANCH   1   2
BRANCH   1   5
ATOM      5  C   UNL     1      -8.724  -5.567   3.482  1.00  0.00     0.003 C 
ATOM      6  C   UNL     1      -7.682  -5.195   4.536  1.00  0.00     0.004 C 
ENDBRANCH   1   5
TORSDOF 2
ENDMDL
MODEL 2
REMARK VINA RESULT:    -2.479     15.224     15.893
REMARK INTER + INTRA:          -2.813
REMARK INTER:                  -2.774
REMARK INTRA:                  -0.038
REMARK UNBOUND:                -0.044
REMARK SMILES CCCC(=O)[O-]
REMARK SMILES IDX 3 1 4 2 5 3 6 4 2 5 1 6
REMARK H PARENT
REMARK Flexibility Score: inf
ROOT
ATOM      1  C   UNL     1       6.571  -4.508   3.716  1.00  0.00     0.052 C 
ENDROOT
BRANCH   1   2
ATOM      2  C   UNL     1       7.598  -4.585   4.803  1.00  0.00     0.041 C 
ATOM      3  O   UNL     1       7.243  -4.593   6.011  1.00  0.00    -0.550 OA
ATOM      4  O   UNL     1       8.950  -4.615   4.483  1.00  0.00    -0.550 OA
ENDBRANCH   1   2
BRANCH   1   5
ATOM      5  C   UNL     1       7.139  -4.955   2.363  1.00  0.00     0.003 C 
ATOM      6  C   UNL     1       7.255  -3.798   1.370  1.00  0.00     0.004 C 
ENDBRANCH   1   5
TORSDOF 2
ENDMDL
MODEL 3
REMARK VINA RESULT:    -2.467     11.391     12.242
REMARK INTER + INTRA:          -2.800
REMARK INTER:                  -2.793
REMARK INTRA:                  -0.007
REMARK UNBOUND:                -0.044
REMARK SMILES CCCC(=O)[O-]
REMARK SMILES IDX 3 1 4 2 5 3 6 4 2 5 1 6
REMARK H PARENT
REMARK Flexibility Score: inf
ROOT
ATOM      1  C   UNL     1       0.116  -0.757   7.967  1.00  0.00     0.052 C 
ENDROOT
BRANCH   1   2
ATOM      2  C   UNL     1      -0.576   0.570   7.932  1.00  0.00     0.041 C 
ATOM      3  O   UNL     1      -1.834   0.630   7.937  1.00  0.00    -0.550 OA
ATOM      4  O   UNL     1       0.168   1.742   7.860  1.00  0.00    -0.550 OA
ENDBRANCH   1   2
BRANCH   1   5
ATOM      5  C   UNL     1       1.416  -0.700   8.779  1.00  0.00     0.003 C 
ATOM      6  C   UNL     1       1.982  -2.089   9.071  1.00  0.00     0.004 C 
ENDBRANCH   1   5
TORSDOF 2
ENDMDL
MODEL 4
REMARK VINA RESULT:    -2.453     11.394     12.224
REMARK INTER + INTRA:          -2.784
REMARK INTER:                  -2.776
REMARK INTRA:                  -0.008
REMARK UNBOUND:                -0.044
REMARK SMILES CCCC(=O)[O-]
REMARK SMILES IDX 3 1 4 2 5 3 6 4 2 5 1 6
REMARK H PARENT
REMARK Flexibility Score: inf
ROOT
ATOM      1  C   UNL     1       0.121  -0.685   7.958  1.00  0.00     0.052 C 
ENDROOT
BRANCH   1   2
ATOM      2  C   UNL     1      -0.615   0.618   7.910  1.00  0.00     0.041 C 
ATOM      3  O   UNL     1       0.021   1.703   7.847  1.00  0.00    -0.550 OA
ATOM      4  O   UNL     1      -2.003   0.636   7.967  1.00  0.00    -0.550 OA
ENDBRANCH   1   2
BRANCH   1   5
ATOM      5  C   UNL     1       1.417  -0.577   8.772  1.00  0.00     0.003 C 
ATOM      6  C   UNL     1       2.029  -1.943   9.076  1.00  0.00     0.004 C 
ENDBRANCH   1   5
TORSDOF 2
ENDMDL
MODEL 5
REMARK VINA RESULT:    -2.380     11.211     11.980
REMARK INTER + INTRA:          -2.703
REMARK INTER:                  -2.677
REMARK INTRA:                  -0.025
REMARK UNBOUND:                -0.044
REMARK SMILES CCCC(=O)[O-]
REMARK SMILES IDX 3 1 4 2 5 3 6 4 2 5 1 6
REMARK H PARENT
REMARK Flexibility Score: inf
ROOT
ATOM      1  C   UNL     1      -0.223   0.236   7.644  1.00  0.00     0.052 C 
ENDROOT
BRANCH   1   2
ATOM      2  C   UNL     1      -1.353   0.822   8.434  1.00  0.00     0.041 C 
ATOM      3  O   UNL     1      -2.541   0.486   8.185  1.00  0.00    -0.550 OA
ATOM      4  O   UNL     1      -1.096   1.763   9.423  1.00  0.00    -0.550 OA
ENDBRANCH   1   2
BRANCH   1   5
ATOM      5  C   UNL     1       0.139  -1.174   8.129  1.00  0.00     0.003 C 
ATOM      6  C   UNL     1       1.479  -1.210   8.863  1.00  0.00     0.004 C 
ENDBRANCH   1   5
TORSDOF 2
ENDMDL
MODEL 6
REMARK VINA RESULT:    -2.376      1.653      1.971
REMARK INTER + INTRA:          -2.698
REMARK INTER:                  -2.668
REMARK INTRA:                  -0.030
REMARK UNBOUND:                -0.044
REMARK SMILES CCCC(=O)[O-]
REMARK SMILES IDX 3 1 4 2 5 3 6 4 2 5 1 6
REMARK H PARENT
REMARK Flexibility Score: inf
ROOT
ATOM      1  C   UNL     1      -9.477  -7.709   3.451  1.00  0.00     0.052 C 
ENDROOT
BRANCH   1   2
ATOM      2  C   UNL     1      -8.217  -7.143   2.872  1.00  0.00     0.041 C 
ATOM      3  O   UNL     1      -7.462  -6.422   3.578  1.00  0.00    -0.550 OA
ATOM      4  O   UNL     1      -7.893  -7.383   1.542  1.00  0.00    -0.550 OA
ENDBRANCH   1   2
BRANCH   1   5
ATOM      5  C   UNL     1     -10.476  -6.607   3.825  1.00  0.00     0.003 C 
ATOM      6  C   UNL     1     -10.924  -6.697   5.283  1.00  0.00     0.004 C 
ENDBRANCH   1   5
TORSDOF 2
ENDMDL
MODEL 7
REMARK VINA RESULT:    -2.349     13.849     14.130
REMARK INTER + INTRA:          -2.668
REMARK INTER:                  -2.635
REMARK INTRA:                  -0.033
REMARK UNBOUND:                -0.044
REMARK SMILES CCCC(=O)[O-]
REMARK SMILES IDX 3 1 4 2 5 3 6 4 2 5 1 6
REMARK H PARENT
REMARK Flexibility Score: inf
ROOT
ATOM      1  C   UNL     1       3.068  -1.493  -3.706  1.00  0.00     0.052 C 
ENDROOT
BRANCH   1   2
ATOM      2  C   UNL     1       4.415  -1.446  -3.052  1.00  0.00     0.041 C 
ATOM      3  O   UNL     1       5.093  -0.385  -3.073  1.00  0.00    -0.550 OA
ATOM      4  O   UNL     1       4.935  -2.584  -2.446  1.00  0.00    -0.550 OA
ENDBRANCH   1   2
BRANCH   1   5
ATOM      5  C   UNL     1       1.944  -1.151  -2.719  1.00  0.00     0.003 C 
ATOM      6  C   UNL     1       1.126  -2.378  -2.321  1.00  0.00     0.004 C 
ENDBRANCH   1   5
TORSDOF 2
ENDMDL
MODEL 8
REMARK VINA RESULT:    -2.281      1.624      2.004
REMARK INTER + INTRA:          -2.592
REMARK INTER:                  -2.574
REMARK INTRA:                  -0.018
REMARK UNBOUND:                -0.044
REMARK SMILES CCCC(=O)[O-]
REMARK SMILES IDX 3 1 4 2 5 3 6 4 2 5 1 6
REMARK H PARENT
REMARK Flexibility Score: inf
ROOT
ATOM      1  C   UNL     1      -7.777  -6.609   4.431  1.00  0.00     0.052 C 
ENDROOT
BRANCH   1   2
ATOM      2  C   UNL     1      -8.583  -6.885   3.199  1.00  0.00     0.041 C 
ATOM      3  O   UNL     1      -8.050  -6.798   2.060  1.00  0.00    -0.550 OA
ATOM      4  O   UNL     1      -9.931  -7.206   3.305  1.00  0.00    -0.550 OA
ENDBRANCH   1   2
BRANCH   1   5
ATOM      5  C   UNL     1      -7.473  -5.114   4.589  1.00  0.00     0.003 C 
ATOM      6  C   UNL     1      -6.028  -4.857   5.018  1.00  0.00     0.004 C 
ENDBRANCH   1   5
TORSDOF 2
ENDMDL
MODEL 9
REMARK VINA RESULT:    -2.227     13.278     13.638
REMARK INTER + INTRA:          -2.531
REMARK INTER:                  -2.525
REMARK INTRA:                  -0.007
REMARK UNBOUND:                -0.044
REMARK SMILES CCCC(=O)[O-]
REMARK SMILES IDX 3 1 4 2 5 3 6 4 2 5 1 6
REMARK H PARENT
REMARK Flexibility Score: inf
ROOT
ATOM      1  C   UNL     1       2.976  -1.919  -3.259  1.00  0.00     0.052 C 
ENDROOT
BRANCH   1   2
ATOM      2  C   UNL     1       1.586  -1.644  -2.774  1.00  0.00     0.041 C 
ATOM      3  O   UNL     1       0.973  -0.614  -3.160  1.00  0.00    -0.550 OA
ATOM      4  O   UNL     1       0.980  -2.507  -1.870  1.00  0.00    -0.550 OA
ENDBRANCH   1   2
BRANCH   1   5
ATOM      5  C   UNL     1       3.930  -0.761  -2.940  1.00  0.00     0.003 C 
ATOM      6  C   UNL     1       5.353  -1.026  -3.432  1.00  0.00     0.004 C 
ENDBRANCH   1   5
TORSDOF 2
ENDMDL
