MODEL 1
REMARK VINA RESULT:    -3.147      0.000      0.000
REMARK INTER + INTRA:          -3.521
REMARK INTER:                  -3.515
REMARK INTRA:                  -0.006
REMARK UNBOUND:                -0.006
REMARK SMILES CCCC(=O)[O-]
REMARK SMILES IDX 3 1 4 2 5 3 6 4 2 5 1 6
REMARK H PARENT
REMARK Flexibility Score: inf
ROOT
ATOM      1  C   UNL     1     197.066 194.198 195.885  1.00  0.00     0.052 C 
ENDROOT
BRANCH   1   2
ATOM      2  C   UNL     1     197.852 193.362 196.846  1.00  0.00     0.041 C 
ATOM      3  O   UNL     1     197.600 193.405 198.079  1.00  0.00    -0.550 OA
ATOM      4  O   UNL     1     198.887 192.559 196.383  1.00  0.00    -0.550 OA
ENDBRANCH   1   2
BRANCH   1   5
ATOM      5  C   UNL     1     197.442 195.682 195.984  1.00  0.00     0.003 C 
ATOM      6  C   UNL     1     196.479 196.580 195.209  1.00  0.00     0.004 C 
ENDBRANCH   1   5
TORSDOF 2
ENDMDL
MODEL 2
REMARK VINA RESULT:    -3.117      2.711      3.621
REMARK INTER + INTRA:          -3.488
REMARK INTER:                  -3.466
REMARK INTRA:                  -0.022
REMARK UNBOUND:                -0.006
REMARK SMILES CCCC(=O)[O-]
REMARK SMILES IDX 3 1 4 2 5 3 6 4 2 5 1 6
REMARK H PARENT
REMARK Flexibility Score: inf
ROOT
ATOM      1  C   UNL     1     196.869 194.495 195.411  1.00  0.00     0.052 C 
ENDROOT
BRANCH   1   2
ATOM      2  C   UNL     1     196.759 195.981 195.270  1.00  0.00     0.041 C 
ATOM      3  O   UNL     1     197.580 196.738 195.854  1.00  0.00    -0.550 OA
ATOM      4  O   UNL     1     195.728 196.534 194.520  1.00  0.00    -0.550 OA
ENDBRANCH   1   2
BRANCH   1   5
ATOM      5  C   UNL     1     197.470 194.097 196.765  1.00  0.00     0.003 C 
ATOM      6  C   UNL     1     198.427 192.910 196.651  1.00  0.00     0.004 C 
ENDBRANCH   1   5
TORSDOF 2
ENDMDL
MODEL 3
REMARK VINA RESULT:    -3.012      7.271      7.641
REMARK INTER + INTRA:          -3.370
REMARK INTER:                  -3.326
REMARK INTRA:                  -0.044
REMARK UNBOUND:                -0.006
REMARK SMILES CCCC(=O)[O-]
REMARK SMILES IDX 3 1 4 2 5 3 6 4 2 5 1 6
REMARK H PARENT
REMARK Flexibility Score: inf
ROOT
ATOM      1  C   UNL     1     192.087 193.735 191.480  1.00  0.00     0.052 C 
ENDROOT
BRANCH   1   2
ATOM      2  C   UNL     1     191.748 192.280 191.368  1.00  0.00     0.041 C 
ATOM      3  O   UNL     1     192.003 191.493 192.318  1.00  0.00    -0.550 OA
ATOM      4  O   UNL     1     191.180 191.787 190.200  1.00  0.00    -0.550 OA
ENDBRANCH   1   2
BRANCH   1   5
ATOM      5  C   UNL     1     193.379 194.075 190.728  1.00  0.00     0.003 C 
ATOM      6  C   UNL     1     194.628 193.817 191.569  1.00  0.00     0.004 C 
ENDBRANCH   1   5
TORSDOF 2
ENDMDL
MODEL 4
REMARK VINA RESULT:    -2.948      7.175      7.657
REMARK INTER + INTRA:          -3.299
REMARK INTER:                  -3.275
REMARK INTRA:                  -0.024
REMARK UNBOUND:                -0.006
REMARK SMILES CCCC(=O)[O-]
REMARK SMILES IDX 3 1 4 2 5 3 6 4 2 5 1 6
REMARK H PARENT
REMARK Flexibility Score: inf
ROOT
ATOM      1  C   UNL     1     192.375 193.692 191.313  1.00  0.00     0.052 C 
ENDROOT
BRANCH   1   2
ATOM      2  C   UNL     1     191.561 194.893 191.687  1.00  0.00     0.041 C 
ATOM      3  O   UNL     1     190.841 194.876 192.720  1.00  0.00    -0.550 OA
ATOM      4  O   UNL     1     191.573 196.021 190.876  1.00  0.00    -0.550 OA
ENDBRANCH   1   2
BRANCH   1   5
ATOM      5  C   UNL     1     193.706 194.090 190.663  1.00  0.00     0.003 C 
ATOM      6  C   UNL     1     194.897 193.876 191.596  1.00  0.00     0.004 C 
ENDBRANCH   1   5
TORSDOF 2
ENDMDL
MODEL 5
REMARK VINA RESULT:    -2.892      7.404      7.968
REMARK INTER + INTRA:          -3.237
REMARK INTER:                  -3.228
REMARK INTRA:                  -0.009
REMARK UNBOUND:                -0.006
REMARK SMILES CCCC(=O)[O-]
REMARK SMILES IDX 3 1 4 2 5 3 6 4 2 5 1 6
REMARK H PARENT
REMARK Flexibility Score: inf
ROOT
ATOM      1  C   UNL     1     193.782 201.224 193.895  1.00  0.00     0.052 C 
ENDROOT
BRANCH   1   2
ATOM      2  C   UNL     1     193.930 200.829 195.332  1.00  0.00     0.041 C 
ATOM      3  O   UNL     1     194.423 201.635 196.165  1.00  0.00    -0.550 OA
ATOM      4  O   UNL     1     193.553 199.558 195.746  1.00  0.00    -0.550 OA
ENDBRANCH   1   2
BRANCH   1   5
ATOM      5  C   UNL     1     193.357 200.036 193.022  1.00  0.00     0.003 C 
ATOM      6  C   UNL     1     193.092 200.444 191.573  1.00  0.00     0.004 C 
ENDBRANCH   1   5
TORSDOF 2
ENDMDL
MODEL 6
REMARK VINA RESULT:    -2.828      7.915      8.497
REMARK INTER + INTRA:          -3.166
REMARK INTER:                  -3.130
REMARK INTRA:                  -0.036
REMARK UNBOUND:                -0.006
REMARK SMILES CCCC(=O)[O-]
REMARK SMILES IDX 3 1 4 2 5 3 6 4 2 5 1 6
REMARK H PARENT
REMARK Flexibility Score: inf
ROOT
ATOM      1  C   UNL     1     192.256 193.418 191.129  1.00  0.00     0.052 C 
ENDROOT
BRANCH   1   2
ATOM      2  C   UNL     1     191.503 194.651 191.522  1.00  0.00     0.041 C 
ATOM      3  O   UNL     1     191.699 195.737 190.913  1.00  0.00    -0.550 OA
ATOM      4  O   UNL     1     190.606 194.610 192.582  1.00  0.00    -0.550 OA
ENDBRANCH   1   2
BRANCH   1   5
ATOM      5  C   UNL     1     191.326 192.207 190.987  1.00  0.00     0.003 C 
ATOM      6  C   UNL     1     191.494 191.208 192.132  1.00  0.00     0.004 C 
ENDBRANCH   1   5
TORSDOF 2
ENDMDL
MODEL 7
REMARK VINA RESULT:    -2.804      7.697      8.259
REMARK INTER + INTRA:          -3.138
REMARK INTER:                  -3.111
REMARK INTRA:                  -0.028
REMARK UNBOUND:                -0.006
REMARK SMILES CCCC(=O)[O-]
REMARK SMILES IDX 3 1 4 2 5 3 6 4 2 5 1 6
REMARK H PARENT
REMARK Flexibility Score: inf
ROOT
ATOM      1  C   UNL     1     191.197 193.615 191.673  1.00  0.00     0.052 C 
ENDROOT
BRANCH   1   2
ATOM      2  C   UNL     1     192.168 194.606 191.109  1.00  0.00     0.041 C 
ATOM      3  O   UNL     1     191.856 195.824 191.028  1.00  0.00    -0.550 OA
ATOM      4  O   UNL     1     193.405 194.181 190.643  1.00  0.00    -0.550 OA
ENDBRANCH   1   2
BRANCH   1   5
ATOM      5  C   UNL     1     191.422 192.211 191.096  1.00  0.00     0.003 C 
ATOM      6  C   UNL     1     191.498 191.140 192.183  1.00  0.00     0.004 C 
ENDBRANCH   1   5
TORSDOF 2
ENDMDL
MODEL 8
REMARK VINA RESULT:    -2.767     14.983     15.824
REMARK INTER + INTRA:          -3.097
REMARK INTER:                  -3.060
REMARK INTRA:                  -0.036
REMARK UNBOUND:                -0.006
REMARK SMILES CCCC(=O)[O-]
REMARK SMILES IDX 3 1 4 2 5 3 6 4 2 5 1 6
REMARK H PARENT
REMARK Flexibility Score: inf
ROOT
ATOM      1  C   UNL     1     201.643 184.670 185.094  1.00  0.00     0.052 C 
ENDROOT
BRANCH   1   2
ATOM      2  C   UNL     1     200.576 184.260 184.126  1.00  0.00     0.041 C 
ATOM      3  O   UNL     1     200.092 183.098 184.167  1.00  0.00    -0.550 OA
ATOM      4  O   UNL     1     200.139 185.152 183.155  1.00  0.00    -0.550 OA
ENDBRANCH   1   2
BRANCH   1   5
ATOM      5  C   UNL     1     201.679 183.748 186.320  1.00  0.00     0.003 C 
ATOM      6  C   UNL     1     200.773 184.241 187.446  1.00  0.00     0.004 C 
ENDBRANCH   1   5
TORSDOF 2
ENDMDL
MODEL 9
REMARK VINA RESULT:    -2.743      8.099      8.379
REMARK INTER + INTRA:          -3.070
REMARK INTER:                  -3.064
REMARK INTRA:                  -0.006
REMARK UNBOUND:                -0.006
REMARK SMILES CCCC(=O)[O-]
REMARK SMILES IDX 3 1 4 2 5 3 6 4 2 5 1 6
REMARK H PARENT
REMARK Flexibility Score: inf
ROOT
ATOM      1  C   UNL     1     191.487 191.779 191.234  1.00  0.00     0.052 C 
ENDROOT
BRANCH   1   2
ATOM      2  C   UNL     1     190.627 191.088 192.246  1.00  0.00     0.041 C 
ATOM      3  O   UNL     1     191.149 190.517 193.241  1.00  0.00    -0.550 OA
ATOM      4  O   UNL     1     189.249 191.045 192.074  1.00  0.00    -0.550 OA
ENDBRANCH   1   2
BRANCH   1   5
ATOM      5  C   UNL     1     191.701 193.257 191.587  1.00  0.00     0.003 C 
ATOM      6  C   UNL     1     192.920 193.852 190.885  1.00  0.00     0.004 C 
ENDBRANCH   1   5
TORSDOF 2
ENDMDL
