MODEL 1
REMARK VINA RESULT:    -6.109      0.000      0.000
REMARK INTER + INTRA:         -12.764
REMARK INTER:                 -11.108
REMARK INTRA:                  -1.656
REMARK UNBOUND:                -1.656
REMARK SMILES CCCCCCCCCCCCCCCC(=O)[O-]
REMARK SMILES IDX 9 1 10 2 11 3 12 4 13 5 14 6 15 7 16 8 17 9 18 10 8 11 7 12
REMARK SMILES IDX 6 13 5 14 4 15 3 16 2 17 1 18
REMARK H PARENT
REMARK Flexibility Score: inf
ROOT
ATOM      1  C   UNL     1      -4.992  36.751 101.271  1.00  0.00     0.000 C 
ENDROOT
BRANCH   1   2
ATOM      2  C   UNL     1      -5.437  35.449 100.586  1.00  0.00     0.000 C 
BRANCH   2   3
ATOM      3  C   UNL     1      -4.252  34.571 100.140  1.00  0.00     0.000 C 
BRANCH   3   4
ATOM      4  C   UNL     1      -4.010  34.523  98.618  1.00  0.00     0.000 C 
BRANCH   4   5
ATOM      5  C   UNL     1      -2.831  35.379  98.116  1.00  0.00     0.000 C 
BRANCH   5   6
ATOM      6  C   UNL     1      -3.265  36.658  97.367  1.00  0.00     0.006 C 
BRANCH   6   7
ATOM      7  C   UNL     1      -4.743  36.627  96.958  1.00  0.00     0.053 C 
BRANCH   7   8
ATOM      8  C   UNL     1      -5.449  37.846  97.460  1.00  0.00     0.041 C 
ATOM      9  O   UNL     1      -6.645  38.067  97.131  1.00  0.00    -0.550 OA
ATOM     10  O   UNL     1      -4.803  38.714  98.330  1.00  0.00    -0.550 OA
ENDBRANCH   7   8
ENDBRANCH   6   7
ENDBRANCH   5   6
ENDBRANCH   4   5
ENDBRANCH   3   4
ENDBRANCH   2   3
ENDBRANCH   1   2
BRANCH   1  11
ATOM     11  C   UNL     1      -3.503  36.741 101.663  1.00  0.00     0.000 C 
BRANCH  11  12
ATOM     12  C   UNL     1      -2.615  37.743 100.898  1.00  0.00    -0.000 C 
BRANCH  12  13
ATOM     13  C   UNL     1      -2.604  39.177 101.467  1.00  0.00    -0.000 C 
BRANCH  13  14
ATOM     14  C   UNL     1      -2.602  39.262 103.003  1.00  0.00    -0.000 C 
BRANCH  14  15
ATOM     15  C   UNL     1      -3.222  40.569 103.527  1.00  0.00    -0.000 C 
BRANCH  15  16
ATOM     16  C   UNL     1      -2.674  41.818 102.815  1.00  0.00    -0.000 C 
BRANCH  16  17
ATOM     17  C   UNL     1      -1.438  42.448 103.480  1.00  0.00    -0.003 C 
ATOM     18  C   UNL     1      -0.135  41.738 103.114  1.00  0.00     0.004 C 
ENDBRANCH  16  17
ENDBRANCH  15  16
ENDBRANCH  14  15
ENDBRANCH  13  14
ENDBRANCH  12  13
ENDBRANCH  11  12
ENDBRANCH   1  11
TORSDOF 14
ENDMDL
MODEL 2
REMARK VINA RESULT:    -6.003      2.835      6.400
REMARK INTER + INTRA:         -12.573
REMARK INTER:                 -10.867
REMARK INTRA:                  -1.705
REMARK UNBOUND:                -1.656
REMARK SMILES CCCCCCCCCCCCCCCC(=O)[O-]
REMARK SMILES IDX 9 1 10 2 11 3 12 4 13 5 14 6 15 7 16 8 17 9 18 10 8 11 7 12
REMARK SMILES IDX 6 13 5 14 4 15 3 16 2 17 1 18
REMARK H PARENT
REMARK Flexibility Score: inf
ROOT
ATOM      1  C   UNL     1      -5.017  36.716 101.269  1.00  0.00     0.000 C 
ENDROOT
BRANCH   1   2
ATOM      2  C   UNL     1      -3.525  36.805 101.632  1.00  0.00     0.000 C 
BRANCH   2   3
ATOM      3  C   UNL     1      -3.284  37.393 103.036  1.00  0.00     0.000 C 
BRANCH   3   4
ATOM      4  C   UNL     1      -2.482  38.708 103.066  1.00  0.00     0.000 C 
BRANCH   4   5
ATOM      5  C   UNL     1      -2.523  39.529 101.763  1.00  0.00     0.000 C 
BRANCH   5   6
ATOM      6  C   UNL     1      -3.006  40.983 101.957  1.00  0.00     0.006 C 
BRANCH   6   7
ATOM      7  C   UNL     1      -2.647  41.541 103.340  1.00  0.00     0.053 C 
BRANCH   7   8
ATOM      8  C   UNL     1      -2.564  43.034 103.295  1.00  0.00     0.041 C 
ATOM      9  O   UNL     1      -1.446  43.604 103.187  1.00  0.00    -0.550 OA
ATOM     10  O   UNL     1      -3.725  43.796 103.324  1.00  0.00    -0.550 OA
ENDBRANCH   7   8
ENDBRANCH   6   7
ENDBRANCH   5   6
ENDBRANCH   4   5
ENDBRANCH   3   4
ENDBRANCH   2   3
ENDBRANCH   1   2
BRANCH   1  11
ATOM     11  C   UNL     1      -5.378  35.407 100.544  1.00  0.00     0.000 C 
BRANCH  11  12
ATOM     12  C   UNL     1      -4.177  34.532 100.130  1.00  0.00    -0.000 C 
BRANCH  12  13
ATOM     13  C   UNL     1      -3.831  34.561  98.628  1.00  0.00    -0.000 C 
BRANCH  13  14
ATOM     14  C   UNL     1      -2.779  35.609  98.229  1.00  0.00    -0.000 C 
BRANCH  14  15
ATOM     15  C   UNL     1      -3.289  36.585  97.154  1.00  0.00    -0.000 C 
BRANCH  15  16
ATOM     16  C   UNL     1      -4.809  36.814  97.228  1.00  0.00    -0.000 C 
BRANCH  16  17
ATOM     17  C   UNL     1      -5.228  38.271  97.491  1.00  0.00    -0.003 C 
ATOM     18  C   UNL     1      -4.364  38.961  98.546  1.00  0.00     0.004 C 
ENDBRANCH  16  17
ENDBRANCH  15  16
ENDBRANCH  14  15
ENDBRANCH  13  14
ENDBRANCH  12  13
ENDBRANCH  11  12
ENDBRANCH   1  11
TORSDOF 14
ENDMDL
MODEL 3
REMARK VINA RESULT:    -5.697      1.504      2.311
REMARK INTER + INTRA:         -12.016
REMARK INTER:                 -10.932
REMARK INTRA:                  -1.084
REMARK UNBOUND:                -1.656
REMARK SMILES CCCCCCCCCCCCCCCC(=O)[O-]
REMARK SMILES IDX 9 1 10 2 11 3 12 4 13 5 14 6 15 7 16 8 17 9 18 10 8 11 7 12
REMARK SMILES IDX 6 13 5 14 4 15 3 16 2 17 1 18
REMARK H PARENT
REMARK Flexibility Score: inf
ROOT
ATOM      1  C   UNL     1      -3.929  37.499 101.228  1.00  0.00     0.000 C 
ENDROOT
BRANCH   1   2
ATOM      2  C   UNL     1      -2.940  36.364 101.544  1.00  0.00     0.000 C 
BRANCH   2   3
ATOM      3  C   UNL     1      -2.726  35.408 100.354  1.00  0.00     0.000 C 
BRANCH   3   4
ATOM      4  C   UNL     1      -3.893  34.442 100.073  1.00  0.00     0.000 C 
BRANCH   4   5
ATOM      5  C   UNL     1      -4.434  34.471  98.631  1.00  0.00     0.000 C 
BRANCH   5   6
ATOM      6  C   UNL     1      -5.504  35.559  98.389  1.00  0.00     0.006 C 
BRANCH   6   7
ATOM      7  C   UNL     1      -5.205  36.411  97.149  1.00  0.00     0.053 C 
BRANCH   7   8
ATOM      8  C   UNL     1      -5.698  37.809  97.345  1.00  0.00     0.041 C 
ATOM      9  O   UNL     1      -6.899  38.099  97.097  1.00  0.00    -0.550 OA
ATOM     10  O   UNL     1      -4.845  38.783  97.848  1.00  0.00    -0.550 OA
ENDBRANCH   7   8
ENDBRANCH   6   7
ENDBRANCH   5   6
ENDBRANCH   4   5
ENDBRANCH   3   4
ENDBRANCH   2   3
ENDBRANCH   1   2
BRANCH   1  11
ATOM     11  C   UNL     1      -3.228  38.845 100.965  1.00  0.00     0.000 C 
BRANCH  11  12
ATOM     12  C   UNL     1      -1.790  38.955 101.512  1.00  0.00    -0.000 C 
BRANCH  12  13
ATOM     13  C   UNL     1      -1.621  39.878 102.735  1.00  0.00    -0.000 C 
BRANCH  13  14
ATOM     14  C   UNL     1      -2.864  40.712 103.090  1.00  0.00    -0.000 C 
BRANCH  14  15
ATOM     15  C   UNL     1      -2.554  42.212 103.228  1.00  0.00    -0.000 C 
BRANCH  15  16
ATOM     16  C   UNL     1      -3.819  43.068 103.420  1.00  0.00    -0.000 C 
BRANCH  16  17
ATOM     17  C   UNL     1      -4.755  42.591 104.544  1.00  0.00    -0.003 C 
ATOM     18  C   UNL     1      -5.653  43.703 105.087  1.00  0.00     0.004 C 
ENDBRANCH  16  17
ENDBRANCH  15  16
ENDBRANCH  14  15
ENDBRANCH  13  14
ENDBRANCH  12  13
ENDBRANCH  11  12
ENDBRANCH   1  11
TORSDOF 14
ENDMDL
MODEL 4
REMARK VINA RESULT:    -5.669      2.754      6.931
REMARK INTER + INTRA:         -11.965
REMARK INTER:                 -10.534
REMARK INTRA:                  -1.431
REMARK UNBOUND:                -1.656
REMARK SMILES CCCCCCCCCCCCCCCC(=O)[O-]
REMARK SMILES IDX 9 1 10 2 11 3 12 4 13 5 14 6 15 7 16 8 17 9 18 10 8 11 7 12
REMARK SMILES IDX 6 13 5 14 4 15 3 16 2 17 1 18
REMARK H PARENT
REMARK Flexibility Score: inf
ROOT
ATOM      1  C   UNL     1      -2.877  36.784 101.408  1.00  0.00     0.000 C 
ENDROOT
BRANCH   1   2
ATOM      2  C   UNL     1      -2.096  38.104 101.536  1.00  0.00     0.000 C 
BRANCH   2   3
ATOM      3  C   UNL     1      -2.521  38.934 102.763  1.00  0.00     0.000 C 
BRANCH   3   4
ATOM      4  C   UNL     1      -2.866  40.407 102.468  1.00  0.00     0.000 C 
BRANCH   4   5
ATOM      5  C   UNL     1      -1.924  41.441 103.114  1.00  0.00     0.000 C 
BRANCH   5   6
ATOM      6  C   UNL     1      -2.603  42.793 103.427  1.00  0.00     0.006 C 
BRANCH   6   7
ATOM      7  C   UNL     1      -3.861  43.028 102.581  1.00  0.00     0.053 C 
BRANCH   7   8
ATOM      8  C   UNL     1      -4.920  43.700 103.396  1.00  0.00     0.041 C 
ATOM      9  O   UNL     1      -6.073  43.871 102.920  1.00  0.00    -0.550 OA
ATOM     10  O   UNL     1      -4.647  44.094 104.700  1.00  0.00    -0.550 OA
ENDBRANCH   7   8
ENDBRANCH   6   7
ENDBRANCH   5   6
ENDBRANCH   4   5
ENDBRANCH   3   4
ENDBRANCH   2   3
ENDBRANCH   1   2
BRANCH   1  11
ATOM     11  C   UNL     1      -4.379  37.003 101.152  1.00  0.00     0.000 C 
BRANCH  11  12
ATOM     12  C   UNL     1      -5.162  35.746 100.719  1.00  0.00    -0.000 C 
BRANCH  12  13
ATOM     13  C   UNL     1      -4.297  34.584 100.190  1.00  0.00    -0.000 C 
BRANCH  13  14
ATOM     14  C   UNL     1      -4.146  34.538  98.660  1.00  0.00    -0.000 C 
BRANCH  14  15
ATOM     15  C   UNL     1      -2.881  35.260  98.165  1.00  0.00    -0.000 C 
BRANCH  15  16
ATOM     16  C   UNL     1      -3.187  36.613  97.498  1.00  0.00    -0.000 C 
BRANCH  16  17
ATOM     17  C   UNL     1      -4.667  36.834  97.141  1.00  0.00    -0.003 C 
ATOM     18  C   UNL     1      -5.231  38.136  97.709  1.00  0.00     0.004 C 
ENDBRANCH  16  17
ENDBRANCH  15  16
ENDBRANCH  14  15
ENDBRANCH  13  14
ENDBRANCH  12  13
ENDBRANCH  11  12
ENDBRANCH   1  11
TORSDOF 14
ENDMDL
MODEL 5
REMARK VINA RESULT:    -5.527      3.064      6.941
REMARK INTER + INTRA:         -11.707
REMARK INTER:                 -10.408
REMARK INTRA:                  -1.299
REMARK UNBOUND:                -1.656
REMARK SMILES CCCCCCCCCCCCCCCC(=O)[O-]
REMARK SMILES IDX 9 1 10 2 11 3 12 4 13 5 14 6 15 7 16 8 17 9 18 10 8 11 7 12
REMARK SMILES IDX 6 13 5 14 4 15 3 16 2 17 1 18
REMARK H PARENT
REMARK Flexibility Score: inf
ROOT
ATOM      1  C   UNL     1      -3.260  37.363 103.137  1.00  0.00     0.000 C 
ENDROOT
BRANCH   1   2
ATOM      2  C   UNL     1      -2.544  38.709 103.336  1.00  0.00     0.000 C 
BRANCH   2   3
ATOM      3  C   UNL     1      -2.387  39.504 102.025  1.00  0.00     0.000 C 
BRANCH   3   4
ATOM      4  C   UNL     1      -2.921  40.949 102.068  1.00  0.00     0.000 C 
BRANCH   4   5
ATOM      5  C   UNL     1      -3.132  41.526 103.481  1.00  0.00     0.000 C 
BRANCH   5   6
ATOM      6  C   UNL     1      -3.646  42.983 103.488  1.00  0.00     0.006 C 
BRANCH   6   7
ATOM      7  C   UNL     1      -4.834  43.182 104.437  1.00  0.00     0.053 C 
BRANCH   7   8
ATOM      8  C   UNL     1      -5.955  43.876 103.732  1.00  0.00     0.041 C 
ATOM      9  O   UNL     1      -5.711  44.738 102.847  1.00  0.00    -0.550 OA
ATOM     10  O   UNL     1      -7.272  43.537 104.017  1.00  0.00    -0.550 OA
ENDBRANCH   7   8
ENDBRANCH   6   7
ENDBRANCH   5   6
ENDBRANCH   4   5
ENDBRANCH   3   4
ENDBRANCH   2   3
ENDBRANCH   1   2
BRANCH   1  11
ATOM     11  C   UNL     1      -3.627  37.094 101.666  1.00  0.00     0.000 C 
BRANCH  11  12
ATOM     12  C   UNL     1      -2.780  36.013 100.964  1.00  0.00    -0.000 C 
BRANCH  12  13
ATOM     13  C   UNL     1      -3.581  34.976 100.151  1.00  0.00    -0.000 C 
BRANCH  13  14
ATOM     14  C   UNL     1      -5.107  35.165 100.190  1.00  0.00    -0.000 C 
BRANCH  14  15
ATOM     15  C   UNL     1      -5.740  35.188  98.788  1.00  0.00    -0.000 C 
BRANCH  15  16
ATOM     16  C   UNL     1      -5.099  36.234  97.859  1.00  0.00    -0.000 C 
BRANCH  16  17
ATOM     17  C   UNL     1      -5.455  37.694  98.192  1.00  0.00    -0.003 C 
ATOM     18  C   UNL     1      -4.225  38.565  98.452  1.00  0.00     0.004 C 
ENDBRANCH  16  17
ENDBRANCH  15  16
ENDBRANCH  14  15
ENDBRANCH  13  14
ENDBRANCH  12  13
ENDBRANCH  11  12
ENDBRANCH   1  11
TORSDOF 14
ENDMDL
MODEL 6
REMARK VINA RESULT:    -5.437      3.617      7.861
REMARK INTER + INTRA:         -11.542
REMARK INTER:                 -10.362
REMARK INTRA:                  -1.180
REMARK UNBOUND:                -1.656
REMARK SMILES CCCCCCCCCCCCCCCC(=O)[O-]
REMARK SMILES IDX 9 1 10 2 11 3 12 4 13 5 14 6 15 7 16 8 17 9 18 10 8 11 7 12
REMARK SMILES IDX 6 13 5 14 4 15 3 16 2 17 1 18
REMARK H PARENT
REMARK Flexibility Score: inf
ROOT
ATOM      1  C   UNL     1      -2.766  38.445 100.971  1.00  0.00     0.000 C 
ENDROOT
BRANCH   1   2
ATOM      2  C   UNL     1      -1.795  39.179 101.912  1.00  0.00     0.000 C 
BRANCH   2   3
ATOM      3  C   UNL     1      -2.509  39.864 103.093  1.00  0.00     0.000 C 
BRANCH   3   4
ATOM      4  C   UNL     1      -2.938  41.323 102.840  1.00  0.00     0.000 C 
BRANCH   4   5
ATOM      5  C   UNL     1      -1.962  42.392 103.368  1.00  0.00     0.000 C 
BRANCH   5   6
ATOM      6  C   UNL     1      -2.577  43.806 103.459  1.00  0.00     0.006 C 
BRANCH   6   7
ATOM      7  C   UNL     1      -1.976  44.635 104.600  1.00  0.00     0.053 C 
BRANCH   7   8
ATOM      8  C   UNL     1      -3.022  44.955 105.621  1.00  0.00     0.041 C 
ATOM      9  O   UNL     1      -2.778  45.777 106.543  1.00  0.00    -0.550 OA
ATOM     10  O   UNL     1      -4.284  44.383 105.524  1.00  0.00    -0.550 OA
ENDBRANCH   7   8
ENDBRANCH   6   7
ENDBRANCH   5   6
ENDBRANCH   4   5
ENDBRANCH   3   4
ENDBRANCH   2   3
ENDBRANCH   1   2
BRANCH   1  11
ATOM     11  C   UNL     1      -3.165  37.053 101.493  1.00  0.00     0.000 C 
BRANCH  11  12
ATOM     12  C   UNL     1      -4.667  36.719 101.393  1.00  0.00    -0.000 C 
BRANCH  12  13
ATOM     13  C   UNL     1      -5.013  35.506 100.505  1.00  0.00    -0.000 C 
BRANCH  13  14
ATOM     14  C   UNL     1      -3.814  34.623 100.124  1.00  0.00    -0.000 C 
BRANCH  14  15
ATOM     15  C   UNL     1      -3.276  34.925  98.714  1.00  0.00    -0.000 C 
BRANCH  15  16
ATOM     16  C   UNL     1      -4.238  35.790  97.880  1.00  0.00    -0.000 C 
BRANCH  16  17
ATOM     17  C   UNL     1      -3.706  37.192  97.533  1.00  0.00    -0.003 C 
ATOM     18  C   UNL     1      -4.707  38.305  97.843  1.00  0.00     0.004 C 
ENDBRANCH  16  17
ENDBRANCH  15  16
ENDBRANCH  14  15
ENDBRANCH  13  14
ENDBRANCH  12  13
ENDBRANCH  11  12
ENDBRANCH   1  11
TORSDOF 14
ENDMDL
MODEL 7
REMARK VINA RESULT:    -5.401      3.149      7.400
REMARK INTER + INTRA:         -11.477
REMARK INTER:                 -10.316
REMARK INTRA:                  -1.161
REMARK UNBOUND:                -1.656
REMARK SMILES CCCCCCCCCCCCCCCC(=O)[O-]
REMARK SMILES IDX 9 1 10 2 11 3 12 4 13 5 14 6 15 7 16 8 17 9 18 10 8 11 7 12
REMARK SMILES IDX 6 13 5 14 4 15 3 16 2 17 1 18
REMARK H PARENT
REMARK Flexibility Score: inf
ROOT
ATOM      1  C   UNL     1      -2.234  38.501 101.455  1.00  0.00     0.000 C 
ENDROOT
BRANCH   1   2
ATOM      2  C   UNL     1      -2.491  39.154 102.824  1.00  0.00     0.000 C 
BRANCH   2   3
ATOM      3  C   UNL     1      -1.954  40.596 102.910  1.00  0.00     0.000 C 
BRANCH   3   4
ATOM      4  C   UNL     1      -2.940  41.628 103.490  1.00  0.00     0.000 C 
BRANCH   4   5
ATOM      5  C   UNL     1      -2.973  42.984 102.759  1.00  0.00     0.000 C 
BRANCH   5   6
ATOM      6  C   UNL     1      -4.360  43.351 102.188  1.00  0.00     0.006 C 
BRANCH   6   7
ATOM      7  C   UNL     1      -5.046  44.469 102.982  1.00  0.00     0.053 C 
BRANCH   7   8
ATOM      8  C   UNL     1      -5.985  43.891 103.993  1.00  0.00     0.041 C 
ATOM      9  O   UNL     1      -5.587  43.648 105.163  1.00  0.00    -0.550 OA
ATOM     10  O   UNL     1      -7.314  43.666 103.658  1.00  0.00    -0.550 OA
ENDBRANCH   7   8
ENDBRANCH   6   7
ENDBRANCH   5   6
ENDBRANCH   4   5
ENDBRANCH   3   4
ENDBRANCH   2   3
ENDBRANCH   1   2
BRANCH   1  11
ATOM     11  C   UNL     1      -3.533  38.142 100.712  1.00  0.00     0.000 C 
BRANCH  11  12
ATOM     12  C   UNL     1      -3.647  38.699  99.279  1.00  0.00    -0.000 C 
BRANCH  12  13
ATOM     13  C   UNL     1      -4.894  38.244  98.494  1.00  0.00    -0.000 C 
BRANCH  13  14
ATOM     14  C   UNL     1      -4.695  36.978  97.644  1.00  0.00    -0.000 C 
BRANCH  14  15
ATOM     15  C   UNL     1      -3.212  36.624  97.440  1.00  0.00    -0.000 C 
BRANCH  15  16
ATOM     16  C   UNL     1      -2.796  35.339  98.177  1.00  0.00    -0.000 C 
BRANCH  16  17
ATOM     17  C   UNL     1      -3.957  34.567  98.830  1.00  0.00    -0.003 C 
ATOM     18  C   UNL     1      -3.846  34.495 100.352  1.00  0.00     0.004 C 
ENDBRANCH  16  17
ENDBRANCH  15  16
ENDBRANCH  14  15
ENDBRANCH  13  14
ENDBRANCH  12  13
ENDBRANCH  11  12
ENDBRANCH   1  11
TORSDOF 14
ENDMDL
MODEL 8
REMARK VINA RESULT:    -5.391      2.625      7.007
REMARK INTER + INTRA:         -11.459
REMARK INTER:                 -10.162
REMARK INTRA:                  -1.297
REMARK UNBOUND:                -1.656
REMARK SMILES CCCCCCCCCCCCCCCC(=O)[O-]
REMARK SMILES IDX 9 1 10 2 11 3 12 4 13 5 14 6 15 7 16 8 17 9 18 10 8 11 7 12
REMARK SMILES IDX 6 13 5 14 4 15 3 16 2 17 1 18
REMARK H PARENT
REMARK Flexibility Score: inf
ROOT
ATOM      1  C   UNL     1      -2.856  38.987 100.529  1.00  0.00     0.000 C 
ENDROOT
BRANCH   1   2
ATOM      2  C   UNL     1      -2.989  38.207 101.848  1.00  0.00     0.000 C 
BRANCH   2   3
ATOM      3  C   UNL     1      -2.539  39.024 103.075  1.00  0.00     0.000 C 
BRANCH   3   4
ATOM      4  C   UNL     1      -1.448  40.075 102.797  1.00  0.00     0.000 C 
BRANCH   4   5
ATOM      5  C   UNL     1      -1.822  41.522 103.169  1.00  0.00     0.000 C 
BRANCH   5   6
ATOM      6  C   UNL     1      -3.343  41.791 103.173  1.00  0.00     0.006 C 
BRANCH   6   7
ATOM      7  C   UNL     1      -3.692  43.185 103.707  1.00  0.00     0.053 C 
BRANCH   7   8
ATOM      8  C   UNL     1      -4.635  43.880 102.777  1.00  0.00     0.041 C 
ATOM      9  O   UNL     1      -5.570  44.589 103.234  1.00  0.00    -0.550 OA
ATOM     10  O   UNL     1      -4.452  43.784 101.403  1.00  0.00    -0.550 OA
ENDBRANCH   7   8
ENDBRANCH   6   7
ENDBRANCH   5   6
ENDBRANCH   4   5
ENDBRANCH   3   4
ENDBRANCH   2   3
ENDBRANCH   1   2
BRANCH   1  11
ATOM     11  C   UNL     1      -3.410  38.212  99.319  1.00  0.00     0.000 C 
BRANCH  11  12
ATOM     12  C   UNL     1      -4.458  38.968  98.478  1.00  0.00    -0.000 C 
BRANCH  12  13
ATOM     13  C   UNL     1      -5.080  38.159  97.322  1.00  0.00    -0.000 C 
BRANCH  13  14
ATOM     14  C   UNL     1      -4.494  36.750  97.132  1.00  0.00    -0.000 C 
BRANCH  14  15
ATOM     15  C   UNL     1      -5.500  35.636  97.472  1.00  0.00    -0.000 C 
BRANCH  15  16
ATOM     16  C   UNL     1      -5.254  35.010  98.856  1.00  0.00    -0.000 C 
BRANCH  16  17
ATOM     17  C   UNL     1      -3.829  34.470  99.074  1.00  0.00    -0.003 C 
ATOM     18  C   UNL     1      -3.294  34.745 100.479  1.00  0.00     0.004 C 
ENDBRANCH  16  17
ENDBRANCH  15  16
ENDBRANCH  14  15
ENDBRANCH  13  14
ENDBRANCH  12  13
ENDBRANCH  11  12
ENDBRANCH   1  11
TORSDOF 14
ENDMDL
MODEL 9
REMARK VINA RESULT:    -5.344      3.687      7.647
REMARK INTER + INTRA:         -11.374
REMARK INTER:                 -10.282
REMARK INTRA:                  -1.092
REMARK UNBOUND:                -1.656
REMARK SMILES CCCCCCCCCCCCCCCC(=O)[O-]
REMARK SMILES IDX 9 1 10 2 11 3 12 4 13 5 14 6 15 7 16 8 17 9 18 10 8 11 7 12
REMARK SMILES IDX 6 13 5 14 4 15 3 16 2 17 1 18
REMARK H PARENT
REMARK Flexibility Score: inf
ROOT
ATOM      1  C   UNL     1      -1.577  40.028 102.784  1.00  0.00     0.000 C 
ENDROOT
BRANCH   1   2
ATOM      2  C   UNL     1      -2.882  40.752 103.155  1.00  0.00     0.000 C 
BRANCH   2   3
ATOM      3  C   UNL     1      -3.087  42.058 102.365  1.00  0.00     0.000 C 
BRANCH   3   4
ATOM      4  C   UNL     1      -4.002  43.097 103.043  1.00  0.00     0.000 C 
BRANCH   4   5
ATOM      5  C   UNL     1      -4.499  42.711 104.450  1.00  0.00     0.000 C 
BRANCH   5   6
ATOM      6  C   UNL     1      -5.654  43.596 104.967  1.00  0.00     0.006 C 
BRANCH   6   7
ATOM      7  C   UNL     1      -6.975  43.323 104.236  1.00  0.00     0.053 C 
BRANCH   7   8
ATOM      8  C   UNL     1      -7.519  44.588 103.652  1.00  0.00     0.041 C 
ATOM      9  O   UNL     1      -8.725  44.903 103.833  1.00  0.00    -0.550 OA
ATOM     10  O   UNL     1      -6.682  45.445 102.948  1.00  0.00    -0.550 OA
ENDBRANCH   7   8
ENDBRANCH   6   7
ENDBRANCH   5   6
ENDBRANCH   4   5
ENDBRANCH   3   4
ENDBRANCH   2   3
ENDBRANCH   1   2
BRANCH   1  11
ATOM     11  C   UNL     1      -1.721  39.143 101.531  1.00  0.00     0.000 C 
BRANCH  11  12
ATOM     12  C   UNL     1      -3.110  38.501 101.336  1.00  0.00    -0.000 C 
BRANCH  12  13
ATOM     13  C   UNL     1      -3.295  37.123 102.002  1.00  0.00    -0.000 C 
BRANCH  13  14
ATOM     14  C   UNL     1      -2.451  35.992 101.389  1.00  0.00    -0.000 C 
BRANCH  14  15
ATOM     15  C   UNL     1      -3.260  35.094 100.437  1.00  0.00    -0.000 C 
BRANCH  15  16
ATOM     16  C   UNL     1      -2.737  35.133  98.990  1.00  0.00    -0.000 C 
BRANCH  16  17
ATOM     17  C   UNL     1      -3.689  35.798  97.980  1.00  0.00    -0.003 C 
ATOM     18  C   UNL     1      -3.383  37.279  97.757  1.00  0.00     0.004 C 
ENDBRANCH  16  17
ENDBRANCH  15  16
ENDBRANCH  14  15
ENDBRANCH  13  14
ENDBRANCH  12  13
ENDBRANCH  11  12
ENDBRANCH   1  11
TORSDOF 14
ENDMDL
