MODEL 1
REMARK VINA RESULT:    36.388      0.000      0.000
REMARK INTER + INTRA:          57.523
REMARK INTER:                  53.406
REMARK INTRA:                   4.117
REMARK UNBOUND:                 4.117
REMARK SMILES Cc1cc2c(C(C)C)c(O)c(O)c(C=O)c2c(O)c1-c1c(C)cc2c(C(C)C)c(O)c(O)c(C=O)c2c1O
REMARK SMILES IDX 1 1 2 2 3 3 4 4 16 5 13 6 11 7 9 8 5 9 17 10 19 11 20 12
REMARK SMILES IDX 37 13 21 14 36 15 23 16 22 17 24 18 33 19 25 20 31 21 29 22
REMARK SMILES IDX 38 23 34 25 35 26 26 27 27 28 28 29 32 30 30 32 18 34 6 36
REMARK SMILES IDX 7 37 8 38 14 39 15 40 10 41 12 43
REMARK H PARENT 38 24 32 31 30 33 18 35 10 42 12 44
REMARK Flexibility Score: inf
ROOT
ATOM      1  C   UNL     1      -6.125  35.377  19.063  1.00  0.00     0.045 C 
ATOM      2  C   UNL     1      -4.782  35.997  18.769  1.00  0.00    -0.039 A 
ATOM      3  C   UNL     1      -4.193  35.806  17.518  1.00  0.00     0.013 A 
ATOM      4  C   UNL     1      -2.962  36.411  17.174  1.00  0.00    -0.006 A 
ATOM      5  C   UNL     1      -2.292  37.204  18.156  1.00  0.00     0.039 A 
ATOM      6  C   UNL     1      -1.066  37.839  17.807  1.00  0.00     0.072 A 
ATOM      7  C   UNL     1      -0.403  37.476  16.630  1.00  0.00     0.169 A 
ATOM      8  C   UNL     1      -1.017  36.613  15.705  1.00  0.00     0.162 A 
ATOM      9  C   UNL     1      -2.361  36.211  15.892  1.00  0.00     0.008 A 
ATOM     10  C   UNL     1      -2.827  37.278  19.470  1.00  0.00     0.132 A 
ATOM     11  C   UNL     1      -4.088  36.710  19.760  1.00  0.00     0.031 A 
ENDROOT
BRANCH  11  12
ATOM     12  C   UNL     1      -4.637  36.807  21.135  1.00  0.00     0.031 A 
ATOM     13  C   UNL     1      -4.944  35.633  21.852  1.00  0.00     0.132 A 
ATOM     14  C   UNL     1      -4.764  38.060  21.758  1.00  0.00    -0.039 A 
ATOM     15  C   UNL     1      -5.411  35.705  23.195  1.00  0.00     0.039 A 
ATOM     16  C   UNL     1      -5.083  38.124  23.115  1.00  0.00     0.013 A 
ATOM     17  C   UNL     1      -4.420  39.340  21.035  1.00  0.00     0.045 C 
ATOM     18  C   UNL     1      -5.419  36.969  23.861  1.00  0.00    -0.006 A 
ATOM     19  C   UNL     1      -5.787  34.541  23.924  1.00  0.00     0.072 A 
ATOM     20  C   UNL     1      -5.708  37.038  25.261  1.00  0.00     0.008 A 
ATOM     21  C   UNL     1      -5.898  34.601  25.323  1.00  0.00     0.169 A 
ATOM     22  C   UNL     1      -5.809  35.828  25.987  1.00  0.00     0.162 A 
BRANCH  13  23
ATOM     23  O   UNL     1      -4.709  34.388  21.259  1.00  0.00    -0.507 OA
ATOM     24  H   UNL     1      -5.436  33.745  20.963  1.00  0.00     0.293 HD
ENDBRANCH  13  23
BRANCH  19  25
ATOM     25  C   UNL     1      -6.119  33.268  23.245  1.00  0.00     0.264 C 
ATOM     26  O   UNL     1      -5.264  32.344  23.173  1.00  0.00    -0.298 OA
ENDBRANCH  19  25
BRANCH  20  27
ATOM     27  C   UNL     1      -5.840  38.385  25.997  1.00  0.00     0.017 C 
ATOM     28  C   UNL     1      -5.275  39.526  25.142  1.00  0.00     0.012 C 
ATOM     29  C   UNL     1      -5.234  38.399  27.412  1.00  0.00     0.012 C 
ENDBRANCH  20  27
BRANCH  21  30
ATOM     30  O   UNL     1      -6.124  33.453  26.093  1.00  0.00    -0.504 OA
ATOM     31  H   UNL     1      -5.730  32.546  25.892  1.00  0.00     0.293 HD
ENDBRANCH  21  30
BRANCH  22  32
ATOM     32  O   UNL     1      -5.834  35.848  27.382  1.00  0.00    -0.504 OA
ATOM     33  H   UNL     1      -6.503  35.317  27.926  1.00  0.00     0.293 HD
ENDBRANCH  22  32
ENDBRANCH  11  12
BRANCH  10  34
ATOM     34  O   UNL     1      -2.078  37.855  20.503  1.00  0.00    -0.507 OA
ATOM     35  H   UNL     1      -1.319  38.507  20.355  1.00  0.00     0.293 HD
ENDBRANCH  10  34
BRANCH   9  36
ATOM     36  C   UNL     1      -3.115  35.523  14.737  1.00  0.00     0.017 C 
ATOM     37  C   UNL     1      -2.155  34.695  13.875  1.00  0.00     0.012 C 
ATOM     38  C   UNL     1      -3.943  36.496  13.876  1.00  0.00     0.012 C 
ENDBRANCH   9  36
BRANCH   6  39
ATOM     39  C   UNL     1      -0.477  38.945  18.597  1.00  0.00     0.264 C 
ATOM     40  O   UNL     1       0.669  39.391  18.321  1.00  0.00    -0.298 OA
ENDBRANCH   6  39
BRANCH   8  41
ATOM     41  O   UNL     1      -0.313  36.144  14.590  1.00  0.00    -0.504 OA
ATOM     42  H   UNL     1       0.563  35.640  14.639  1.00  0.00     0.293 HD
ENDBRANCH   8  41
BRANCH   7  43
ATOM     43  O   UNL     1       0.856  38.039  16.381  1.00  0.00    -0.504 OA
ATOM     44  H   UNL     1       1.199  38.302  15.468  1.00  0.00     0.293 HD
ENDBRANCH   7  43
TORSDOF 11
ENDMDL
