MODEL 1
REMARK VINA RESULT:    -4.786      0.000      0.000
REMARK INTER + INTRA:          -7.197
REMARK INTER:                  -6.465
REMARK INTRA:                  -0.732
REMARK UNBOUND:                -0.732
REMARK SMILES CCCCCCC=CC(=O)[O-]
REMARK SMILES IDX 5 1 6 2 7 3 8 4 9 5 10 6 11 7 4 8 3 9 2 10 1 11
REMARK H PARENT
REMARK Flexibility Score: inf
ROOT
ATOM      1  C   UNL     1     -62.616  -2.653  -0.274  1.00  0.00     0.004 C 
ENDROOT
BRANCH   1   2
ATOM      2  C   UNL     1     -62.396  -2.664  -1.795  1.00  0.00     0.027 C 
BRANCH   2   3
ATOM      3  C   UNL     1     -63.481  -1.905  -2.504  1.00  0.00    -0.025 C 
ATOM      4  C   UNL     1     -63.464  -0.571  -2.582  1.00  0.00     0.020 C 
BRANCH   4   5
ATOM      5  C   UNL     1     -64.511   0.184  -3.284  1.00  0.00     0.064 C 
ATOM      6  O   UNL     1     -64.186   1.081  -4.105  1.00  0.00    -0.545 OA
ATOM      7  O   UNL     1     -65.857  -0.076  -3.055  1.00  0.00    -0.545 OA
ENDBRANCH   4   5
ENDBRANCH   2   3
ENDBRANCH   1   2
BRANCH   1   8
ATOM      8  C   UNL     1     -63.905  -3.379   0.151  1.00  0.00     0.000 C 
BRANCH   8   9
ATOM      9  C   UNL     1     -64.968  -2.480   0.806  1.00  0.00    -0.000 C 
BRANCH   9  10
ATOM     10  C   UNL     1     -64.466  -1.053   1.072  1.00  0.00    -0.003 C 
ATOM     11  C   UNL     1     -65.411  -0.017   0.473  1.00  0.00     0.004 C 
ENDBRANCH   9  10
ENDBRANCH   8   9
ENDBRANCH   1   8
TORSDOF 6
ENDMDL
MODEL 2
REMARK VINA RESULT:    -4.763      2.834      4.744
REMARK INTER + INTRA:          -7.166
REMARK INTER:                  -6.441
REMARK INTRA:                  -0.725
REMARK UNBOUND:                -0.732
REMARK SMILES CCCCCCC=CC(=O)[O-]
REMARK SMILES IDX 5 1 6 2 7 3 8 4 9 5 10 6 11 7 4 8 3 9 2 10 1 11
REMARK H PARENT
REMARK Flexibility Score: inf
ROOT
ATOM      1  C   UNL     1     -64.297   1.006  -3.688  1.00  0.00     0.004 C 
ENDROOT
BRANCH   1   2
ATOM      2  C   UNL     1     -65.359   0.115  -3.026  1.00  0.00     0.027 C 
BRANCH   2   3
ATOM      3  C   UNL     1     -64.777  -0.660  -1.878  1.00  0.00    -0.025 C 
ATOM      4  C   UNL     1     -65.217  -0.491  -0.628  1.00  0.00     0.020 C 
BRANCH   4   5
ATOM      5  C   UNL     1     -64.666  -1.252   0.503  1.00  0.00     0.064 C 
ATOM      6  O   UNL     1     -63.772  -0.736   1.223  1.00  0.00    -0.545 OA
ATOM      7  O   UNL     1     -65.118  -2.535   0.791  1.00  0.00    -0.545 OA
ENDBRANCH   4   5
ENDBRANCH   2   3
ENDBRANCH   1   2
BRANCH   1   8
ATOM      8  C   UNL     1     -64.592   2.508  -3.536  1.00  0.00     0.000 C 
BRANCH   8   9
ATOM      9  C   UNL     1     -64.463   3.051  -2.102  1.00  0.00    -0.000 C 
BRANCH   9  10
ATOM     10  C   UNL     1     -63.133   2.670  -1.434  1.00  0.00    -0.003 C 
ATOM     11  C   UNL     1     -63.281   2.598   0.083  1.00  0.00     0.004 C 
ENDBRANCH   9  10
ENDBRANCH   8   9
ENDBRANCH   1   8
TORSDOF 6
ENDMDL
MODEL 3
REMARK VINA RESULT:    -4.710      1.219      2.823
REMARK INTER + INTRA:          -7.094
REMARK INTER:                  -6.397
REMARK INTRA:                  -0.697
REMARK UNBOUND:                -0.732
REMARK SMILES CCCCCCC=CC(=O)[O-]
REMARK SMILES IDX 5 1 6 2 7 3 8 4 9 5 10 6 11 7 4 8 3 9 2 10 1 11
REMARK H PARENT
REMARK Flexibility Score: inf
ROOT
ATOM      1  C   UNL     1     -64.419  -1.058   0.952  1.00  0.00     0.004 C 
ENDROOT
BRANCH   1   2
ATOM      2  C   UNL     1     -65.463  -0.305   0.114  1.00  0.00     0.027 C 
BRANCH   2   3
ATOM      3  C   UNL     1     -64.805   0.534  -0.945  1.00  0.00    -0.025 C 
ATOM      4  C   UNL     1     -65.097   0.378  -2.239  1.00  0.00     0.020 C 
BRANCH   4   5
ATOM      5  C   UNL     1     -64.471   1.200  -3.285  1.00  0.00     0.064 C 
ATOM      6  O   UNL     1     -63.524   0.725  -3.965  1.00  0.00    -0.545 OA
ATOM      7  O   UNL     1     -64.910   2.494  -3.537  1.00  0.00    -0.545 OA
ENDBRANCH   4   5
ENDBRANCH   2   3
ENDBRANCH   1   2
BRANCH   1   8
ATOM      8  C   UNL     1     -64.488  -2.584   0.767  1.00  0.00     0.000 C 
BRANCH   8   9
ATOM      9  C   UNL     1     -64.331  -3.069  -0.685  1.00  0.00    -0.000 C 
BRANCH   9  10
ATOM     10  C   UNL     1     -62.964  -2.716  -1.290  1.00  0.00    -0.003 C 
ATOM     11  C   UNL     1     -63.025  -2.697  -2.814  1.00  0.00     0.004 C 
ENDBRANCH   9  10
ENDBRANCH   8   9
ENDBRANCH   1   8
TORSDOF 6
ENDMDL
MODEL 4
REMARK VINA RESULT:    -4.699      3.079      5.170
REMARK INTER + INTRA:          -7.080
REMARK INTER:                  -6.460
REMARK INTRA:                  -0.619
REMARK UNBOUND:                -0.732
REMARK SMILES CCCCCCC=CC(=O)[O-]
REMARK SMILES IDX 5 1 6 2 7 3 8 4 9 5 10 6 11 7 4 8 3 9 2 10 1 11
REMARK H PARENT
REMARK Flexibility Score: inf
ROOT
ATOM      1  C   UNL     1     -62.761   2.649  -1.806  1.00  0.00     0.004 C 
ENDROOT
BRANCH   1   2
ATOM      2  C   UNL     1     -62.596   2.489  -0.287  1.00  0.00     0.027 C 
BRANCH   2   3
ATOM      3  C   UNL     1     -63.317   1.269   0.211  1.00  0.00    -0.025 C 
ATOM      4  C   UNL     1     -62.723   0.072   0.243  1.00  0.00     0.020 C 
BRANCH   4   5
ATOM      5  C   UNL     1     -63.411  -1.128   0.740  1.00  0.00     0.064 C 
ATOM      6  O   UNL     1     -64.527  -1.014   1.312  1.00  0.00    -0.545 OA
ATOM      7  O   UNL     1     -62.848  -2.390   0.588  1.00  0.00    -0.545 OA
ENDBRANCH   4   5
ENDBRANCH   2   3
ENDBRANCH   1   2
BRANCH   1   8
ATOM      8  C   UNL     1     -64.183   3.074  -2.214  1.00  0.00     0.000 C 
BRANCH   8   9
ATOM      9  C   UNL     1     -64.701   2.441  -3.518  1.00  0.00    -0.000 C 
BRANCH   9  10
ATOM     10  C   UNL     1     -64.384   0.941  -3.622  1.00  0.00    -0.003 C 
ATOM     11  C   UNL     1     -65.423   0.108  -2.877  1.00  0.00     0.004 C 
ENDBRANCH   9  10
ENDBRANCH   8   9
ENDBRANCH   1   8
TORSDOF 6
ENDMDL
MODEL 5
REMARK VINA RESULT:    -4.573      3.052      4.944
REMARK INTER + INTRA:          -6.909
REMARK INTER:                  -6.279
REMARK INTRA:                  -0.629
REMARK UNBOUND:                -0.732
REMARK SMILES CCCCCCC=CC(=O)[O-]
REMARK SMILES IDX 5 1 6 2 7 3 8 4 9 5 10 6 11 7 4 8 3 9 2 10 1 11
REMARK H PARENT
REMARK Flexibility Score: inf
ROOT
ATOM      1  C   UNL     1     -64.641   1.029  -3.880  1.00  0.00     0.004 C 
ENDROOT
BRANCH   1   2
ATOM      2  C   UNL     1     -65.290   0.034  -2.906  1.00  0.00     0.027 C 
BRANCH   2   3
ATOM      3  C   UNL     1     -64.299  -0.993  -2.441  1.00  0.00    -0.025 C 
ATOM      4  C   UNL     1     -63.135  -1.176  -3.071  1.00  0.00     0.020 C 
BRANCH   4   5
ATOM      5  C   UNL     1     -62.149  -2.169  -2.621  1.00  0.00     0.064 C 
ATOM      6  O   UNL     1     -62.442  -2.953  -1.680  1.00  0.00    -0.545 OA
ATOM      7  O   UNL     1     -60.897  -2.256  -3.218  1.00  0.00    -0.545 OA
ENDBRANCH   4   5
ENDBRANCH   2   3
ENDBRANCH   1   2
BRANCH   1   8
ATOM      8  C   UNL     1     -64.896   2.498  -3.497  1.00  0.00     0.000 C 
BRANCH   8   9
ATOM      9  C   UNL     1     -63.634   3.375  -3.418  1.00  0.00    -0.000 C 
BRANCH   9  10
ATOM     10  C   UNL     1     -62.458   2.671  -2.724  1.00  0.00    -0.003 C 
ATOM     11  C   UNL     1     -62.624   2.688  -1.208  1.00  0.00     0.004 C 
ENDBRANCH   9  10
ENDBRANCH   8   9
ENDBRANCH   1   8
TORSDOF 6
ENDMDL
MODEL 6
REMARK VINA RESULT:    -4.571      1.784      2.686
REMARK INTER + INTRA:          -6.907
REMARK INTER:                  -6.196
REMARK INTRA:                  -0.710
REMARK UNBOUND:                -0.732
REMARK SMILES CCCCCCC=CC(=O)[O-]
REMARK SMILES IDX 5 1 6 2 7 3 8 4 9 5 10 6 11 7 4 8 3 9 2 10 1 11
REMARK H PARENT
REMARK Flexibility Score: inf
ROOT
ATOM      1  C   UNL     1     -65.003  -2.549   0.803  1.00  0.00     0.004 C 
ENDROOT
BRANCH   1   2
ATOM      2  C   UNL     1     -64.000  -3.345  -0.046  1.00  0.00     0.027 C 
BRANCH   2   3
ATOM      3  C   UNL     1     -63.843  -2.736  -1.410  1.00  0.00    -0.025 C 
ATOM      4  C   UNL     1     -62.661  -2.285  -1.842  1.00  0.00     0.020 C 
BRANCH   4   5
ATOM      5  C   UNL     1     -62.489  -1.699  -3.178  1.00  0.00     0.064 C 
ATOM      6  O   UNL     1     -62.024  -2.405  -4.112  1.00  0.00    -0.545 OA
ATOM      7  O   UNL     1     -62.832  -0.376  -3.430  1.00  0.00    -0.545 OA
ENDBRANCH   4   5
ENDBRANCH   2   3
ENDBRANCH   1   2
BRANCH   1   8
ATOM      8  C   UNL     1     -64.487  -1.153   1.192  1.00  0.00     0.000 C 
BRANCH   8   9
ATOM      9  C   UNL     1     -65.144   0.015   0.436  1.00  0.00    -0.000 C 
BRANCH   9  10
ATOM     10  C   UNL     1     -64.124   0.925  -0.265  1.00  0.00    -0.003 C 
ATOM     11  C   UNL     1     -62.733   0.756   0.337  1.00  0.00     0.004 C 
ENDBRANCH   9  10
ENDBRANCH   8   9
ENDBRANCH   1   8
TORSDOF 6
ENDMDL
MODEL 7
REMARK VINA RESULT:    -4.543      2.430      3.684
REMARK INTER + INTRA:          -6.868
REMARK INTER:                  -6.169
REMARK INTRA:                  -0.699
REMARK UNBOUND:                -0.732
REMARK SMILES CCCCCCC=CC(=O)[O-]
REMARK SMILES IDX 5 1 6 2 7 3 8 4 9 5 10 6 11 7 4 8 3 9 2 10 1 11
REMARK H PARENT
REMARK Flexibility Score: inf
ROOT
ATOM      1  C   UNL     1     -64.418  -1.169   1.194  1.00  0.00     0.004 C 
ENDROOT
BRANCH   1   2
ATOM      2  C   UNL     1     -65.347  -0.258   0.376  1.00  0.00     0.027 C 
BRANCH   2   3
ATOM      3  C   UNL     1     -64.608   0.939  -0.148  1.00  0.00    -0.025 C 
ATOM      4  C   UNL     1     -63.313   1.133   0.119  1.00  0.00     0.020 C 
BRANCH   4   5
ATOM      5  C   UNL     1     -62.574   2.293  -0.398  1.00  0.00     0.064 C 
ATOM      6  O   UNL     1     -62.516   2.491  -1.640  1.00  0.00    -0.545 OA
ATOM      7  O   UNL     1     -61.935   3.177   0.464  1.00  0.00    -0.545 OA
ENDBRANCH   4   5
ENDBRANCH   2   3
ENDBRANCH   1   2
BRANCH   1   8
ATOM      8  C   UNL     1     -64.589  -2.660   0.856  1.00  0.00     0.000 C 
BRANCH   8   9
ATOM      9  C   UNL     1     -64.419  -3.011  -0.633  1.00  0.00    -0.000 C 
BRANCH   9  10
ATOM     10  C   UNL     1     -63.027  -2.656  -1.177  1.00  0.00    -0.003 C 
ATOM     11  C   UNL     1     -63.129  -1.927  -2.513  1.00  0.00     0.004 C 
ENDBRANCH   9  10
ENDBRANCH   8   9
ENDBRANCH   1   8
TORSDOF 6
ENDMDL
MODEL 8
REMARK VINA RESULT:    -4.537      3.462      5.135
REMARK INTER + INTRA:          -6.861
REMARK INTER:                  -6.134
REMARK INTRA:                  -0.727
REMARK UNBOUND:                -0.732
REMARK SMILES CCCCCCC=CC(=O)[O-]
REMARK SMILES IDX 5 1 6 2 7 3 8 4 9 5 10 6 11 7 4 8 3 9 2 10 1 11
REMARK H PARENT
REMARK Flexibility Score: inf
ROOT
ATOM      1  C   UNL     1     -64.561   1.765  -3.592  1.00  0.00     0.004 C 
ENDROOT
BRANCH   1   2
ATOM      2  C   UNL     1     -64.479   3.025  -2.717  1.00  0.00     0.027 C 
BRANCH   2   3
ATOM      3  C   UNL     1     -64.121   2.678  -1.300  1.00  0.00    -0.025 C 
ATOM      4  C   UNL     1     -62.853   2.684  -0.879  1.00  0.00     0.020 C 
BRANCH   4   5
ATOM      5  C   UNL     1     -62.487   2.359   0.507  1.00  0.00     0.064 C 
ATOM      6  O   UNL     1     -62.442   1.155   0.872  1.00  0.00    -0.545 OA
ATOM      7  O   UNL     1     -62.191   3.362   1.422  1.00  0.00    -0.545 OA
ENDBRANCH   4   5
ENDBRANCH   2   3
ENDBRANCH   1   2
BRANCH   1   8
ATOM      8  C   UNL     1     -65.175   0.561  -2.856  1.00  0.00     0.000 C 
BRANCH   8   9
ATOM      9  C   UNL     1     -64.274  -0.685  -2.787  1.00  0.00    -0.000 C 
BRANCH   9  10
ATOM     10  C   UNL     1     -62.845  -0.419  -3.283  1.00  0.00    -0.003 C 
ATOM     11  C   UNL     1     -61.823  -0.682  -2.182  1.00  0.00     0.004 C 
ENDBRANCH   9  10
ENDBRANCH   8   9
ENDBRANCH   1   8
TORSDOF 6
ENDMDL
MODEL 9
REMARK VINA RESULT:    -4.468      2.115      3.413
REMARK INTER + INTRA:          -6.767
REMARK INTER:                  -6.201
REMARK INTRA:                  -0.566
REMARK UNBOUND:                -0.732
REMARK SMILES CCCCCCC=CC(=O)[O-]
REMARK SMILES IDX 5 1 6 2 7 3 8 4 9 5 10 6 11 7 4 8 3 9 2 10 1 11
REMARK H PARENT
REMARK Flexibility Score: inf
ROOT
ATOM      1  C   UNL     1     -64.537   0.963  -0.870  1.00  0.00     0.004 C 
ENDROOT
BRANCH   1   2
ATOM      2  C   UNL     1     -64.739   0.729  -2.376  1.00  0.00     0.027 C 
BRANCH   2   3
ATOM      3  C   UNL     1     -64.146  -0.582  -2.805  1.00  0.00    -0.025 C 
ATOM      4  C   UNL     1     -62.825  -0.786  -2.801  1.00  0.00     0.020 C 
BRANCH   4   5
ATOM      5  C   UNL     1     -62.231  -2.067  -3.206  1.00  0.00     0.064 C 
ATOM      6  O   UNL     1     -62.233  -3.036  -2.401  1.00  0.00    -0.545 OA
ATOM      7  O   UNL     1     -61.665  -2.228  -4.465  1.00  0.00    -0.545 OA
ENDBRANCH   4   5
ENDBRANCH   2   3
ENDBRANCH   1   2
BRANCH   1   8
ATOM      8  C   UNL     1     -65.391   0.026   0.002  1.00  0.00     0.000 C 
BRANCH   8   9
ATOM      9  C   UNL     1     -64.592  -0.992   0.834  1.00  0.00    -0.000 C 
BRANCH   9  10
ATOM     10  C   UNL     1     -64.952  -2.449   0.504  1.00  0.00    -0.003 C 
ATOM     11  C   UNL     1     -63.781  -3.383   0.795  1.00  0.00     0.004 C 
ENDBRANCH   9  10
ENDBRANCH   8   9
ENDBRANCH   1   8
TORSDOF 6
ENDMDL
