MODEL 1
REMARK VINA RESULT:    -3.383      0.000      0.000
REMARK INTER + INTRA:          -5.850
REMARK INTER:                  -5.163
REMARK INTRA:                  -0.687
REMARK UNBOUND:                -0.687
REMARK SMILES O=C([O-])CCCCCCCCC(=O)[O-]
REMARK SMILES IDX 7 1 6 2 5 3 4 4 2 5 1 6 3 7 8 8 9 9 10 10 11 11 12 12 13 13
REMARK SMILES IDX 14 14
REMARK H PARENT
REMARK Flexibility Score: inf
ROOT
ATOM      1  C   UNL     1      -2.472  -0.927   7.983  1.00  0.00     0.000 C 
ENDROOT
BRANCH   1   2
ATOM      2  C   UNL     1      -2.449  -2.460   7.855  1.00  0.00     0.000 C 
BRANCH   2   3
ATOM      3  C   UNL     1      -1.749  -2.933   6.571  1.00  0.00     0.006 C 
BRANCH   3   4
ATOM      4  C   UNL     1      -0.650  -1.969   6.105  1.00  0.00     0.053 C 
BRANCH   4   5
ATOM      5  C   UNL     1      -0.852  -1.603   4.669  1.00  0.00     0.041 C 
ATOM      6  O   UNL     1       0.011  -1.917   3.807  1.00  0.00    -0.550 OA
ATOM      7  O   UNL     1      -1.970  -0.872   4.289  1.00  0.00    -0.550 OA
ENDBRANCH   4   5
ENDBRANCH   3   4
ENDBRANCH   2   3
ENDBRANCH   1   2
BRANCH   1   8
ATOM      8  C   UNL     1      -2.310  -0.455   9.438  1.00  0.00     0.000 C 
BRANCH   8   9
ATOM      9  C   UNL     1      -2.486  -1.599  10.453  1.00  0.00     0.000 C 
BRANCH   9  10
ATOM     10  C   UNL     1      -3.704  -1.395  11.374  1.00  0.00     0.006 C 
BRANCH  10  11
ATOM     11  C   UNL     1      -4.530  -2.667  11.626  1.00  0.00     0.053 C 
BRANCH  11  12
ATOM     12  C   UNL     1      -5.428  -2.992  10.471  1.00  0.00     0.041 C 
ATOM     13  O   UNL     1      -5.824  -4.174  10.290  1.00  0.00    -0.550 OA
ATOM     14  O   UNL     1      -5.799  -1.997   9.577  1.00  0.00    -0.550 OA
ENDBRANCH  11  12
ENDBRANCH  10  11
ENDBRANCH   9  10
ENDBRANCH   8   9
ENDBRANCH   1   8
TORSDOF 9
ENDMDL
MODEL 2
REMARK VINA RESULT:    -3.380      1.876      2.990
REMARK INTER + INTRA:          -5.846
REMARK INTER:                  -5.132
REMARK INTRA:                  -0.713
REMARK UNBOUND:                -0.687
REMARK SMILES O=C([O-])CCCCCCCCC(=O)[O-]
REMARK SMILES IDX 7 1 6 2 5 3 4 4 2 5 1 6 3 7 8 8 9 9 10 10 11 11 12 12 13 13
REMARK SMILES IDX 14 14
REMARK H PARENT
REMARK Flexibility Score: inf
ROOT
ATOM      1  C   UNL     1      -4.975  -2.989   7.759  1.00  0.00     0.000 C 
ENDROOT
BRANCH   1   2
ATOM      2  C   UNL     1      -4.261  -4.328   7.499  1.00  0.00     0.000 C 
BRANCH   2   3
ATOM      3  C   UNL     1      -3.055  -4.179   6.557  1.00  0.00     0.006 C 
BRANCH   3   4
ATOM      4  C   UNL     1      -1.934  -3.323   7.159  1.00  0.00     0.053 C 
BRANCH   4   5
ATOM      5  C   UNL     1      -1.582  -2.200   6.235  1.00  0.00     0.041 C 
ATOM      6  O   UNL     1      -2.459  -1.368   5.886  1.00  0.00    -0.550 OA
ATOM      7  O   UNL     1      -0.295  -2.102   5.720  1.00  0.00    -0.550 OA
ENDBRANCH   4   5
ENDBRANCH   3   4
ENDBRANCH   2   3
ENDBRANCH   1   2
BRANCH   1   8
ATOM      8  C   UNL     1      -6.132  -3.123   8.764  1.00  0.00     0.000 C 
BRANCH   8   9
ATOM      9  C   UNL     1      -5.714  -3.857  10.050  1.00  0.00     0.000 C 
BRANCH   9  10
ATOM     10  C   UNL     1      -5.621  -2.918  11.268  1.00  0.00     0.006 C 
BRANCH  10  11
ATOM     11  C   UNL     1      -4.185  -2.589  11.708  1.00  0.00     0.053 C 
BRANCH  11  12
ATOM     12  C   UNL     1      -3.590  -1.477  10.899  1.00  0.00     0.041 C 
ATOM     13  O   UNL     1      -4.230  -0.406  10.727  1.00  0.00    -0.550 OA
ATOM     14  O   UNL     1      -2.343  -1.636  10.309  1.00  0.00    -0.550 OA
ENDBRANCH  11  12
ENDBRANCH  10  11
ENDBRANCH   9  10
ENDBRANCH   8   9
ENDBRANCH   1   8
TORSDOF 9
ENDMDL
MODEL 3
REMARK VINA RESULT:    -3.364      2.986      4.376
REMARK INTER + INTRA:          -5.820
REMARK INTER:                  -4.910
REMARK INTRA:                  -0.910
REMARK UNBOUND:                -0.687
REMARK SMILES O=C([O-])CCCCCCCCC(=O)[O-]
REMARK SMILES IDX 7 1 6 2 5 3 4 4 2 5 1 6 3 7 8 8 9 9 10 10 11 11 12 12 13 13
REMARK SMILES IDX 14 14
REMARK H PARENT
REMARK Flexibility Score: inf
ROOT
ATOM      1  C   UNL     1      -1.988  -3.380   7.176  1.00  0.00     0.000 C 
ENDROOT
BRANCH   1   2
ATOM      2  C   UNL     1      -3.043  -4.232   6.448  1.00  0.00     0.000 C 
BRANCH   2   3
ATOM      3  C   UNL     1      -4.225  -4.609   7.355  1.00  0.00     0.006 C 
BRANCH   3   4
ATOM      4  C   UNL     1      -5.321  -3.536   7.379  1.00  0.00     0.053 C 
BRANCH   4   5
ATOM      5  C   UNL     1      -5.712  -3.220   8.787  1.00  0.00     0.041 C 
ATOM      6  O   UNL     1      -6.020  -2.042   9.110  1.00  0.00    -0.550 OA
ATOM      7  O   UNL     1      -5.686  -4.215   9.755  1.00  0.00    -0.550 OA
ENDBRANCH   4   5
ENDBRANCH   3   4
ENDBRANCH   2   3
ENDBRANCH   1   2
BRANCH   1   8
ATOM      8  C   UNL     1      -2.073  -1.891   6.802  1.00  0.00     0.000 C 
BRANCH   8   9
ATOM      9  C   UNL     1      -2.385  -0.994   8.014  1.00  0.00     0.000 C 
BRANCH   9  10
ATOM     10  C   UNL     1      -2.510  -1.791   9.327  1.00  0.00     0.006 C 
BRANCH  10  11
ATOM     11  C   UNL     1      -2.479  -0.928  10.598  1.00  0.00     0.053 C 
BRANCH  11  12
ATOM     12  C   UNL     1      -3.562  -1.306  11.562  1.00  0.00     0.041 C 
ATOM     13  O   UNL     1      -3.753  -2.515  11.857  1.00  0.00    -0.550 OA
ATOM     14  O   UNL     1      -4.381  -0.326  12.107  1.00  0.00    -0.550 OA
ENDBRANCH  11  12
ENDBRANCH  10  11
ENDBRANCH   9  10
ENDBRANCH   8   9
ENDBRANCH   1   8
TORSDOF 9
ENDMDL
MODEL 4
REMARK VINA RESULT:    -3.361      3.846      6.306
REMARK INTER + INTRA:          -5.817
REMARK INTER:                  -5.316
REMARK INTRA:                  -0.501
REMARK UNBOUND:                -0.687
REMARK SMILES O=C([O-])CCCCCCCCC(=O)[O-]
REMARK SMILES IDX 7 1 6 2 5 3 4 4 2 5 1 6 3 7 8 8 9 9 10 10 11 11 12 12 13 13
REMARK SMILES IDX 14 14
REMARK H PARENT
REMARK Flexibility Score: inf
ROOT
ATOM      1  C   UNL     1      -3.314  -4.300   6.259  1.00  0.00     0.000 C 
ENDROOT
BRANCH   1   2
ATOM      2  C   UNL     1      -4.051  -5.371   7.082  1.00  0.00     0.000 C 
BRANCH   2   3
ATOM      3  C   UNL     1      -3.973  -6.765   6.439  1.00  0.00     0.006 C 
BRANCH   3   4
ATOM      4  C   UNL     1      -3.496  -6.721   4.981  1.00  0.00     0.053 C 
BRANCH   4   5
ATOM      5  C   UNL     1      -3.237  -8.104   4.475  1.00  0.00     0.041 C 
ATOM      6  O   UNL     1      -2.057  -8.531   4.372  1.00  0.00    -0.550 OA
ATOM      7  O   UNL     1      -4.296  -8.905   4.069  1.00  0.00    -0.550 OA
ENDBRANCH   4   5
ENDBRANCH   3   4
ENDBRANCH   2   3
ENDBRANCH   1   2
BRANCH   1   8
ATOM      8  C   UNL     1      -2.216  -3.587   7.068  1.00  0.00     0.000 C 
BRANCH   8   9
ATOM      9  C   UNL     1      -2.504  -2.087   7.260  1.00  0.00     0.000 C 
BRANCH   9  10
ATOM     10  C   UNL     1      -1.510  -1.189   6.500  1.00  0.00     0.006 C 
BRANCH  10  11
ATOM     11  C   UNL     1      -0.507  -1.953   5.622  1.00  0.00     0.053 C 
BRANCH  11  12
ATOM     12  C   UNL     1      -0.761  -1.739   4.160  1.00  0.00     0.041 C 
ATOM     13  O   UNL     1       0.072  -1.105   3.459  1.00  0.00    -0.550 OA
ATOM     14  O   UNL     1      -1.932  -2.209   3.582  1.00  0.00    -0.550 OA
ENDBRANCH  11  12
ENDBRANCH  10  11
ENDBRANCH   9  10
ENDBRANCH   8   9
ENDBRANCH   1   8
TORSDOF 9
ENDMDL
MODEL 5
REMARK VINA RESULT:    -3.350      1.758      2.435
REMARK INTER + INTRA:          -5.799
REMARK INTER:                  -5.095
REMARK INTRA:                  -0.704
REMARK UNBOUND:                -0.687
REMARK SMILES O=C([O-])CCCCCCCCC(=O)[O-]
REMARK SMILES IDX 7 1 6 2 5 3 4 4 2 5 1 6 3 7 8 8 9 9 10 10 11 11 12 12 13 13
REMARK SMILES IDX 14 14
REMARK H PARENT
REMARK Flexibility Score: inf
ROOT
ATOM      1  C   UNL     1      -2.471  -0.967   8.032  1.00  0.00     0.000 C 
ENDROOT
BRANCH   1   2
ATOM      2  C   UNL     1      -1.619  -1.003   6.751  1.00  0.00     0.000 C 
BRANCH   2   3
ATOM      3  C   UNL     1      -1.421  -2.430   6.215  1.00  0.00     0.006 C 
BRANCH   3   4
ATOM      4  C   UNL     1      -2.014  -3.500   7.141  1.00  0.00     0.053 C 
BRANCH   4   5
ATOM      5  C   UNL     1      -3.079  -4.273   6.430  1.00  0.00     0.041 C 
ATOM      6  O   UNL     1      -3.616  -3.805   5.392  1.00  0.00    -0.550 OA
ATOM      7  O   UNL     1      -3.514  -5.489   6.942  1.00  0.00    -0.550 OA
ENDBRANCH   4   5
ENDBRANCH   3   4
ENDBRANCH   2   3
ENDBRANCH   1   2
BRANCH   1   8
ATOM      8  C   UNL     1      -1.977   0.087   9.039  1.00  0.00     0.000 C 
BRANCH   8   9
ATOM      9  C   UNL     1      -2.128  -0.375  10.499  1.00  0.00     0.000 C 
BRANCH   9  10
ATOM     10  C   UNL     1      -2.623  -1.829  10.615  1.00  0.00     0.006 C 
BRANCH  10  11
ATOM     11  C   UNL     1      -3.777  -2.030  11.611  1.00  0.00     0.053 C 
BRANCH  11  12
ATOM     12  C   UNL     1      -5.075  -2.316  10.918  1.00  0.00     0.041 C 
ATOM     13  O   UNL     1      -5.792  -3.281  11.291  1.00  0.00    -0.550 OA
ATOM     14  O   UNL     1      -5.474  -1.538   9.839  1.00  0.00    -0.550 OA
ENDBRANCH  11  12
ENDBRANCH  10  11
ENDBRANCH   9  10
ENDBRANCH   8   9
ENDBRANCH   1   8
TORSDOF 9
ENDMDL
MODEL 6
REMARK VINA RESULT:    -3.324      2.569      5.579
REMARK INTER + INTRA:          -5.760
REMARK INTER:                  -5.227
REMARK INTRA:                  -0.533
REMARK UNBOUND:                -0.687
REMARK SMILES O=C([O-])CCCCCCCCC(=O)[O-]
REMARK SMILES IDX 7 1 6 2 5 3 4 4 2 5 1 6 3 7 8 8 9 9 10 10 11 11 12 12 13 13
REMARK SMILES IDX 14 14
REMARK H PARENT
REMARK Flexibility Score: inf
ROOT
ATOM      1  C   UNL     1      -3.040  -1.488   8.697  1.00  0.00     0.000 C 
ENDROOT
BRANCH   1   2
ATOM      2  C   UNL     1      -2.406  -1.330  10.091  1.00  0.00     0.000 C 
BRANCH   2   3
ATOM      3  C   UNL     1      -3.451  -1.072  11.188  1.00  0.00     0.006 C 
BRANCH   3   4
ATOM      4  C   UNL     1      -3.947  -2.364  11.851  1.00  0.00     0.053 C 
BRANCH   4   5
ATOM      5  C   UNL     1      -5.335  -2.685  11.396  1.00  0.00     0.041 C 
ATOM      6  O   UNL     1      -5.563  -3.745  10.755  1.00  0.00    -0.550 OA
ATOM      7  O   UNL     1      -6.369  -1.789  11.635  1.00  0.00    -0.550 OA
ENDBRANCH   4   5
ENDBRANCH   3   4
ENDBRANCH   2   3
ENDBRANCH   1   2
BRANCH   1   8
ATOM      8  C   UNL     1      -2.142  -0.939   7.576  1.00  0.00     0.000 C 
BRANCH   8   9
ATOM      9  C   UNL     1      -1.658  -2.040   6.615  1.00  0.00     0.000 C 
BRANCH   9  10
ATOM     10  C   UNL     1      -2.057  -3.454   7.081  1.00  0.00     0.006 C 
BRANCH  10  11
ATOM     11  C   UNL     1      -3.054  -4.169   6.156  1.00  0.00     0.053 C 
BRANCH  11  12
ATOM     12  C   UNL     1      -4.113  -4.898   6.926  1.00  0.00     0.041 C 
ATOM     13  O   UNL     1      -4.991  -4.254   7.559  1.00  0.00    -0.550 OA
ATOM     14  O   UNL     1      -4.110  -6.285   6.971  1.00  0.00    -0.550 OA
ENDBRANCH  11  12
ENDBRANCH  10  11
ENDBRANCH   9  10
ENDBRANCH   8   9
ENDBRANCH   1   8
TORSDOF 9
ENDMDL
MODEL 7
REMARK VINA RESULT:    -3.309      0.965      6.628
REMARK INTER + INTRA:          -5.736
REMARK INTER:                  -5.213
REMARK INTRA:                  -0.523
REMARK UNBOUND:                -0.687
REMARK SMILES O=C([O-])CCCCCCCCC(=O)[O-]
REMARK SMILES IDX 7 1 6 2 5 3 4 4 2 5 1 6 3 7 8 8 9 9 10 10 11 11 12 12 13 13
REMARK SMILES IDX 14 14
REMARK H PARENT
REMARK Flexibility Score: inf
ROOT
ATOM      1  C   UNL     1      -3.183  -1.481   8.649  1.00  0.00     0.000 C 
ENDROOT
BRANCH   1   2
ATOM      2  C   UNL     1      -2.556  -1.592  10.050  1.00  0.00     0.000 C 
BRANCH   2   3
ATOM      3  C   UNL     1      -3.579  -1.358  11.173  1.00  0.00     0.006 C 
BRANCH   3   4
ATOM      4  C   UNL     1      -4.087  -2.665  11.796  1.00  0.00     0.053 C 
BRANCH   4   5
ATOM      5  C   UNL     1      -5.448  -2.997  11.273  1.00  0.00     0.041 C 
ATOM      6  O   UNL     1      -5.591  -3.895  10.403  1.00  0.00    -0.550 OA
ATOM      7  O   UNL     1      -6.554  -2.280  11.711  1.00  0.00    -0.550 OA
ENDBRANCH   4   5
ENDBRANCH   3   4
ENDBRANCH   2   3
ENDBRANCH   1   2
BRANCH   1   8
ATOM      8  C   UNL     1      -3.210  -2.828   7.908  1.00  0.00     0.000 C 
BRANCH   8   9
ATOM      9  C   UNL     1      -1.968  -3.041   7.024  1.00  0.00     0.000 C 
BRANCH   9  10
ATOM     10  C   UNL     1      -1.407  -1.723   6.457  1.00  0.00     0.006 C 
BRANCH  10  11
ATOM     11  C   UNL     1      -0.409  -1.901   5.303  1.00  0.00     0.053 C 
BRANCH  11  12
ATOM     12  C   UNL     1      -0.979  -1.456   3.991  1.00  0.00     0.041 C 
ATOM     13  O   UNL     1      -2.219  -1.529   3.782  1.00  0.00    -0.550 OA
ATOM     14  O   UNL     1      -0.138  -0.991   2.989  1.00  0.00    -0.550 OA
ENDBRANCH  11  12
ENDBRANCH  10  11
ENDBRANCH   9  10
ENDBRANCH   8   9
ENDBRANCH   1   8
TORSDOF 9
ENDMDL
MODEL 8
REMARK VINA RESULT:    -3.305      1.620      2.419
REMARK INTER + INTRA:          -5.731
REMARK INTER:                  -5.128
REMARK INTRA:                  -0.604
REMARK UNBOUND:                -0.687
REMARK SMILES O=C([O-])CCCCCCCCC(=O)[O-]
REMARK SMILES IDX 7 1 6 2 5 3 4 4 2 5 1 6 3 7 8 8 9 9 10 10 11 11 12 12 13 13
REMARK SMILES IDX 14 14
REMARK H PARENT
REMARK Flexibility Score: inf
ROOT
ATOM      1  C   UNL     1      -3.573  -0.972   9.817  1.00  0.00     0.000 C 
ENDROOT
BRANCH   1   2
ATOM      2  C   UNL     1      -2.725  -1.277   8.569  1.00  0.00     0.000 C 
BRANCH   2   3
ATOM      3  C   UNL     1      -3.076  -2.634   7.936  1.00  0.00     0.006 C 
BRANCH   3   4
ATOM      4  C   UNL     1      -1.902  -3.250   7.164  1.00  0.00     0.053 C 
BRANCH   4   5
ATOM      5  C   UNL     1      -1.586  -2.430   5.954  1.00  0.00     0.041 C 
ATOM      6  O   UNL     1      -2.500  -2.112   5.147  1.00  0.00    -0.550 OA
ATOM      7  O   UNL     1      -0.275  -2.057   5.689  1.00  0.00    -0.550 OA
ENDBRANCH   4   5
ENDBRANCH   3   4
ENDBRANCH   2   3
ENDBRANCH   1   2
BRANCH   1   8
ATOM      8  C   UNL     1      -3.100  -1.752  11.055  1.00  0.00     0.000 C 
BRANCH   8   9
ATOM      9  C   UNL     1      -4.248  -2.505  11.752  1.00  0.00     0.000 C 
BRANCH   9  10
ATOM     10  C   UNL     1      -5.586  -2.380  10.999  1.00  0.00     0.006 C 
BRANCH  10  11
ATOM     11  C   UNL     1      -6.261  -3.722  10.677  1.00  0.00     0.053 C 
BRANCH  11  12
ATOM     12  C   UNL     1      -7.700  -3.743  11.094  1.00  0.00     0.041 C 
ATOM     13  O   UNL     1      -8.610  -3.829  10.228  1.00  0.00    -0.550 OA
ATOM     14  O   UNL     1      -8.036  -3.634  12.437  1.00  0.00    -0.550 OA
ENDBRANCH  11  12
ENDBRANCH  10  11
ENDBRANCH   9  10
ENDBRANCH   8   9
ENDBRANCH   1   8
TORSDOF 9
ENDMDL
MODEL 9
REMARK VINA RESULT:    -3.265      2.761      3.777
REMARK INTER + INTRA:          -5.670
REMARK INTER:                  -4.941
REMARK INTRA:                  -0.729
REMARK UNBOUND:                -0.687
REMARK SMILES O=C([O-])CCCCCCCCC(=O)[O-]
REMARK SMILES IDX 7 1 6 2 5 3 4 4 2 5 1 6 3 7 8 8 9 9 10 10 11 11 12 12 13 13
REMARK SMILES IDX 14 14
REMARK H PARENT
REMARK Flexibility Score: inf
ROOT
ATOM      1  C   UNL     1      -1.598  -1.677   6.171  1.00  0.00     0.000 C 
ENDROOT
BRANCH   1   2
ATOM      2  C   UNL     1      -1.592  -3.026   6.913  1.00  0.00     0.000 C 
BRANCH   2   3
ATOM      3  C   UNL     1      -3.004  -3.605   7.094  1.00  0.00     0.006 C 
BRANCH   3   4
ATOM      4  C   UNL     1      -3.352  -4.663   6.039  1.00  0.00     0.053 C 
BRANCH   4   5
ATOM      5  C   UNL     1      -3.895  -5.893   6.693  1.00  0.00     0.041 C 
ATOM      6  O   UNL     1      -4.588  -5.801   7.741  1.00  0.00    -0.550 OA
ATOM      7  O   UNL     1      -3.595  -7.146   6.175  1.00  0.00    -0.550 OA
ENDBRANCH   4   5
ENDBRANCH   3   4
ENDBRANCH   2   3
ENDBRANCH   1   2
BRANCH   1   8
ATOM      8  C   UNL     1      -2.406  -0.600   6.914  1.00  0.00     0.000 C 
BRANCH   8   9
ATOM      9  C   UNL     1      -1.712  -0.126   8.204  1.00  0.00     0.000 C 
BRANCH   9  10
ATOM     10  C   UNL     1      -2.643  -0.167   9.430  1.00  0.00     0.006 C 
BRANCH  10  11
ATOM     11  C   UNL     1      -2.449  -1.396  10.333  1.00  0.00     0.053 C 
BRANCH  11  12
ATOM     12  C   UNL     1      -3.754  -2.036  10.700  1.00  0.00     0.041 C 
ATOM     13  O   UNL     1      -4.678  -2.124   9.849  1.00  0.00    -0.550 OA
ATOM     14  O   UNL     1      -3.961  -2.503  11.991  1.00  0.00    -0.550 OA
ENDBRANCH  11  12
ENDBRANCH  10  11
ENDBRANCH   9  10
ENDBRANCH   8   9
ENDBRANCH   1   8
TORSDOF 9
ENDMDL
