MODEL 1
REMARK VINA RESULT:    -5.453      0.000      0.000
REMARK INTER + INTRA:          -5.997
REMARK INTER:                  -6.091
REMARK INTRA:                   0.094
REMARK UNBOUND:                 0.094
REMARK SMILES O=C([O-])C=Cc1ccccc1
REMARK SMILES IDX 4 1 5 2 2 3 1 4 3 5 6 6 7 7 11 8 8 9 10 10 9 11
REMARK H PARENT
REMARK Flexibility Score: inf
ROOT
ATOM      1  C   UNL     1       6.537  80.232  16.521  1.00  0.00     0.025 C 
ATOM      2  C   UNL     1       6.876  80.597  15.275  1.00  0.00     0.010 C 
ENDROOT
BRANCH   1   3
ATOM      3  C   UNL     1       5.566  80.933  17.382  1.00  0.00     0.064 C 
ATOM      4  O   UNL     1       4.365  80.553  17.391  1.00  0.00    -0.545 OA
ATOM      5  O   UNL     1       5.958  81.955  18.237  1.00  0.00    -0.545 OA
ENDBRANCH   1   3
BRANCH   2   6
ATOM      6  C   UNL     1       6.204  81.643  14.477  1.00  0.00    -0.026 A 
ATOM      7  C   UNL     1       6.125  82.949  14.985  1.00  0.00     0.008 A 
ATOM      8  C   UNL     1       5.738  81.381  13.176  1.00  0.00     0.008 A 
ATOM      9  C   UNL     1       5.538  83.967  14.224  1.00  0.00     0.001 A 
ATOM     10  C   UNL     1       5.153  82.401  12.419  1.00  0.00     0.001 A 
ATOM     11  C   UNL     1       5.048  83.692  12.945  1.00  0.00     0.000 A 
ENDBRANCH   2   6
TORSDOF 2
ENDMDL
MODEL 2
REMARK VINA RESULT:    -5.453      2.465      4.193
REMARK INTER + INTRA:          -5.997
REMARK INTER:                  -5.957
REMARK INTRA:                  -0.040
REMARK UNBOUND:                 0.094
REMARK SMILES O=C([O-])C=Cc1ccccc1
REMARK SMILES IDX 4 1 5 2 2 3 1 4 3 5 6 6 7 7 11 8 8 9 10 10 9 11
REMARK H PARENT
REMARK Flexibility Score: inf
ROOT
ATOM      1  C   UNL     1       6.481  81.127  13.343  1.00  0.00     0.025 C 
ATOM      2  C   UNL     1       6.583  80.495  14.522  1.00  0.00     0.010 C 
ENDROOT
BRANCH   1   3
ATOM      3  C   UNL     1       5.607  82.282  13.066  1.00  0.00     0.064 C 
ATOM      4  O   UNL     1       4.368  82.099  12.935  1.00  0.00    -0.545 OA
ATOM      5  O   UNL     1       6.108  83.577  13.016  1.00  0.00    -0.545 OA
ENDBRANCH   1   3
BRANCH   2   6
ATOM      6  C   UNL     1       5.988  80.955  15.794  1.00  0.00    -0.026 A 
ATOM      7  C   UNL     1       5.227  80.058  16.560  1.00  0.00     0.008 A 
ATOM      8  C   UNL     1       6.258  82.238  16.303  1.00  0.00     0.008 A 
ATOM      9  C   UNL     1       4.697  80.458  17.792  1.00  0.00     0.001 A 
ATOM     10  C   UNL     1       5.727  82.634  17.535  1.00  0.00     0.001 A 
ATOM     11  C   UNL     1       4.942  81.745  18.277  1.00  0.00     0.000 A 
ENDBRANCH   2   6
TORSDOF 2
ENDMDL
MODEL 3
REMARK VINA RESULT:    -5.302      8.044      9.785
REMARK INTER + INTRA:          -5.828
REMARK INTER:                  -5.605
REMARK INTRA:                  -0.223
REMARK UNBOUND:                 0.094
REMARK SMILES O=C([O-])C=Cc1ccccc1
REMARK SMILES IDX 4 1 5 2 2 3 1 4 3 5 6 6 7 7 11 8 8 9 10 10 9 11
REMARK H PARENT
REMARK Flexibility Score: inf
ROOT
ATOM      1  C   UNL     1       3.428  80.625   7.141  1.00  0.00     0.025 C 
ATOM      2  C   UNL     1       3.837  80.153   5.954  1.00  0.00     0.010 C 
ENDROOT
BRANCH   1   3
ATOM      3  C   UNL     1       3.998  81.792   7.840  1.00  0.00     0.064 C 
ATOM      4  O   UNL     1       3.585  82.945   7.551  1.00  0.00    -0.545 OA
ATOM      5  O   UNL     1       4.929  81.643   8.861  1.00  0.00    -0.545 OA
ENDBRANCH   1   3
BRANCH   2   6
ATOM      6  C   UNL     1       4.796  80.823   5.052  1.00  0.00    -0.026 A 
ATOM      7  C   UNL     1       6.172  80.616   5.236  1.00  0.00     0.008 A 
ATOM      8  C   UNL     1       4.355  81.577   3.949  1.00  0.00     0.008 A 
ATOM      9  C   UNL     1       7.096  81.200   4.361  1.00  0.00     0.001 A 
ATOM     10  C   UNL     1       5.281  82.159   3.077  1.00  0.00     0.001 A 
ATOM     11  C   UNL     1       6.651  81.975   3.286  1.00  0.00     0.000 A 
ENDBRANCH   2   6
TORSDOF 2
ENDMDL
MODEL 4
REMARK VINA RESULT:    -5.017      1.689      2.899
REMARK INTER + INTRA:          -5.510
REMARK INTER:                  -5.269
REMARK INTRA:                  -0.241
REMARK UNBOUND:                 0.094
REMARK SMILES O=C([O-])C=Cc1ccccc1
REMARK SMILES IDX 4 1 5 2 2 3 1 4 3 5 6 6 7 7 11 8 8 9 10 10 9 11
REMARK H PARENT
REMARK Flexibility Score: inf
ROOT
ATOM      1  C   UNL     1       5.491  82.145  19.376  1.00  0.00     0.025 C 
ATOM      2  C   UNL     1       6.476  82.054  18.469  1.00  0.00     0.010 C 
ENDROOT
BRANCH   1   3
ATOM      3  C   UNL     1       4.053  82.260  19.067  1.00  0.00     0.064 C 
ATOM      4  O   UNL     1       3.529  83.402  18.994  1.00  0.00    -0.545 OA
ATOM      5  O   UNL     1       3.279  81.141  18.784  1.00  0.00    -0.545 OA
ENDBRANCH   1   3
BRANCH   2   6
ATOM      6  C   UNL     1       6.287  81.862  17.017  1.00  0.00    -0.026 A 
ATOM      7  C   UNL     1       6.074  82.982  16.198  1.00  0.00     0.008 A 
ATOM      8  C   UNL     1       6.422  80.592  16.426  1.00  0.00     0.008 A 
ATOM      9  C   UNL     1       5.944  82.827  14.813  1.00  0.00     0.001 A 
ATOM     10  C   UNL     1       6.291  80.442  15.042  1.00  0.00     0.001 A 
ATOM     11  C   UNL     1       6.047  81.558  14.236  1.00  0.00     0.000 A 
ENDBRANCH   2   6
TORSDOF 2
ENDMDL
MODEL 5
REMARK VINA RESULT:    -4.888      2.611      4.280
REMARK INTER + INTRA:          -5.366
REMARK INTER:                  -6.280
REMARK INTRA:                   0.914
REMARK UNBOUND:                 0.094
REMARK SMILES O=C([O-])C=Cc1ccccc1
REMARK SMILES IDX 4 1 5 2 2 3 1 4 3 5 6 6 7 7 11 8 8 9 10 10 9 11
REMARK H PARENT
REMARK Flexibility Score: inf
ROOT
ATOM      1  C   UNL     1       5.724  82.796  12.390  1.00  0.00     0.025 C 
ATOM      2  C   UNL     1       5.934  81.692  13.124  1.00  0.00     0.010 C 
ENDROOT
BRANCH   1   3
ATOM      3  C   UNL     1       5.448  84.141  12.929  1.00  0.00     0.064 C 
ATOM      4  O   UNL     1       6.391  84.969  13.031  1.00  0.00    -0.545 OA
ATOM      5  O   UNL     1       4.159  84.540  13.261  1.00  0.00    -0.545 OA
ENDBRANCH   1   3
BRANCH   2   6
ATOM      6  C   UNL     1       6.113  81.661  14.590  1.00  0.00    -0.026 A 
ATOM      7  C   UNL     1       5.898  82.831  15.334  1.00  0.00     0.008 A 
ATOM      8  C   UNL     1       6.392  80.458  15.264  1.00  0.00     0.008 A 
ATOM      9  C   UNL     1       6.013  82.811  16.729  1.00  0.00     0.001 A 
ATOM     10  C   UNL     1       6.506  80.442  16.658  1.00  0.00     0.001 A 
ATOM     11  C   UNL     1       6.321  81.619  17.390  1.00  0.00     0.000 A 
ENDBRANCH   2   6
TORSDOF 2
ENDMDL
MODEL 6
REMARK VINA RESULT:    -4.631     10.753     11.522
REMARK INTER + INTRA:          -5.079
REMARK INTER:                  -4.804
REMARK INTRA:                  -0.275
REMARK UNBOUND:                 0.094
REMARK SMILES O=C([O-])C=Cc1ccccc1
REMARK SMILES IDX 4 1 5 2 2 3 1 4 3 5 6 6 7 7 11 8 8 9 10 10 9 11
REMARK H PARENT
REMARK Flexibility Score: inf
ROOT
ATOM      1  C   UNL     1       8.008  71.240  12.197  1.00  0.00     0.025 C 
ATOM      2  C   UNL     1       7.556  72.301  11.511  1.00  0.00     0.010 C 
ENDROOT
BRANCH   1   3
ATOM      3  C   UNL     1       7.403  69.895  12.188  1.00  0.00     0.064 C 
ATOM      4  O   UNL     1       6.582  69.583  13.091  1.00  0.00    -0.545 OA
ATOM      5  O   UNL     1       7.661  68.988  11.167  1.00  0.00    -0.545 OA
ENDBRANCH   1   3
BRANCH   2   6
ATOM      6  C   UNL     1       6.494  72.266  10.485  1.00  0.00    -0.026 A 
ATOM      7  C   UNL     1       5.191  72.658  10.831  1.00  0.00     0.008 A 
ATOM      8  C   UNL     1       6.784  71.951   9.145  1.00  0.00     0.008 A 
ATOM      9  C   UNL     1       4.181  72.682   9.862  1.00  0.00     0.001 A 
ATOM     10  C   UNL     1       5.772  71.976   8.180  1.00  0.00     0.001 A 
ATOM     11  C   UNL     1       4.470  72.337   8.540  1.00  0.00     0.000 A 
ENDBRANCH   2   6
TORSDOF 2
ENDMDL
MODEL 7
REMARK VINA RESULT:    -4.576     10.741     11.578
REMARK INTER + INTRA:          -5.018
REMARK INTER:                  -4.748
REMARK INTRA:                  -0.270
REMARK UNBOUND:                 0.094
REMARK SMILES O=C([O-])C=Cc1ccccc1
REMARK SMILES IDX 4 1 5 2 2 3 1 4 3 5 6 6 7 7 11 8 8 9 10 10 9 11
REMARK H PARENT
REMARK Flexibility Score: inf
ROOT
ATOM      1  C   UNL     1       8.018  71.177  12.178  1.00  0.00     0.025 C 
ATOM      2  C   UNL     1       7.652  72.290  11.522  1.00  0.00     0.010 C 
ENDROOT
BRANCH   1   3
ATOM      3  C   UNL     1       7.325  69.877  12.108  1.00  0.00     0.064 C 
ATOM      4  O   UNL     1       6.445  69.601  12.965  1.00  0.00    -0.545 OA
ATOM      5  O   UNL     1       7.569  68.979  11.076  1.00  0.00    -0.545 OA
ENDBRANCH   1   3
BRANCH   2   6
ATOM      6  C   UNL     1       6.615  72.362  10.473  1.00  0.00    -0.026 A 
ATOM      7  C   UNL     1       6.937  71.985   9.160  1.00  0.00     0.008 A 
ATOM      8  C   UNL     1       5.285  72.700  10.786  1.00  0.00     0.008 A 
ATOM      9  C   UNL     1       5.956  71.998   8.162  1.00  0.00     0.001 A 
ATOM     10  C   UNL     1       4.307  72.712   9.786  1.00  0.00     0.001 A 
ATOM     11  C   UNL     1       4.644  72.365   8.474  1.00  0.00     0.000 A 
ENDBRANCH   2   6
TORSDOF 2
ENDMDL
MODEL 8
REMARK VINA RESULT:    -4.499     11.128     12.304
REMARK INTER + INTRA:          -4.932
REMARK INTER:                  -4.659
REMARK INTRA:                  -0.273
REMARK UNBOUND:                 0.094
REMARK SMILES O=C([O-])C=Cc1ccccc1
REMARK SMILES IDX 4 1 5 2 2 3 1 4 3 5 6 6 7 7 11 8 8 9 10 10 9 11
REMARK H PARENT
REMARK Flexibility Score: inf
ROOT
ATOM      1  C   UNL     1       2.372  71.404   8.374  1.00  0.00     0.025 C 
ATOM      2  C   UNL     1       2.709  72.431   9.170  1.00  0.00     0.010 C 
ENDROOT
BRANCH   1   3
ATOM      3  C   UNL     1       2.980  70.061   8.410  1.00  0.00     0.064 C 
ATOM      4  O   UNL     1       2.312  69.095   8.863  1.00  0.00    -0.545 OA
ATOM      5  O   UNL     1       4.245  69.822   7.888  1.00  0.00    -0.545 OA
ENDBRANCH   1   3
BRANCH   2   6
ATOM      6  C   UNL     1       3.605  72.348  10.342  1.00  0.00    -0.026 A 
ATOM      7  C   UNL     1       4.953  72.713  10.203  1.00  0.00     0.008 A 
ATOM      8  C   UNL     1       3.110  72.011  11.615  1.00  0.00     0.008 A 
ATOM      9  C   UNL     1       5.807  72.690  11.311  1.00  0.00     0.001 A 
ATOM     10  C   UNL     1       3.967  71.990  12.720  1.00  0.00     0.001 A 
ATOM     11  C   UNL     1       5.316  72.324  12.567  1.00  0.00     0.000 A 
ENDBRANCH   2   6
TORSDOF 2
ENDMDL
MODEL 9
REMARK VINA RESULT:    -4.444     10.892     12.038
REMARK INTER + INTRA:          -4.870
REMARK INTER:                  -4.603
REMARK INTRA:                  -0.267
REMARK UNBOUND:                 0.094
REMARK SMILES O=C([O-])C=Cc1ccccc1
REMARK SMILES IDX 4 1 5 2 2 3 1 4 3 5 6 6 7 7 11 8 8 9 10 10 9 11
REMARK H PARENT
REMARK Flexibility Score: inf
ROOT
ATOM      1  C   UNL     1       2.743  72.462   9.140  1.00  0.00     0.025 C 
ATOM      2  C   UNL     1       3.863  73.107   9.500  1.00  0.00     0.010 C 
ENDROOT
BRANCH   1   3
ATOM      3  C   UNL     1       2.548  71.001   9.180  1.00  0.00     0.064 C 
ATOM      4  O   UNL     1       2.069  70.472  10.218  1.00  0.00    -0.545 OA
ATOM      5  O   UNL     1       2.813  70.202   8.075  1.00  0.00    -0.545 OA
ENDBRANCH   1   3
BRANCH   2   6
ATOM      6  C   UNL     1       5.025  72.493  10.174  1.00  0.00    -0.026 A 
ATOM      7  C   UNL     1       6.099  72.024   9.402  1.00  0.00     0.008 A 
ATOM      8  C   UNL     1       5.123  72.466  11.578  1.00  0.00     0.008 A 
ATOM      9  C   UNL     1       7.232  71.485  10.023  1.00  0.00     0.001 A 
ATOM     10  C   UNL     1       6.256  71.927  12.195  1.00  0.00     0.001 A 
ATOM     11  C   UNL     1       7.308  71.432  11.418  1.00  0.00     0.000 A 
ENDBRANCH   2   6
TORSDOF 2
ENDMDL
