MODEL 1
REMARK VINA RESULT:    -4.658      0.000      0.000
REMARK INTER + INTRA:          -5.709
REMARK INTER:                  -5.474
REMARK INTRA:                  -0.234
REMARK UNBOUND:                -0.234
REMARK SMILES O=c1c(O)c(-c2ccc(O)c(O)c2)oc2cc(O)ccc12
REMARK SMILES IDX 5 1 3 2 2 3 1 4 21 5 15 6 14 7 16 8 17 9 19 10 20 11 6 12
REMARK SMILES IDX 7 13 8 14 9 15 13 16 11 17 10 18 12 20 4 22 18 24
REMARK H PARENT 10 19 12 21 4 23 18 25
REMARK Flexibility Score: inf
ROOT
ATOM      1  C   UNL     1       3.793   8.571  -6.044  1.00  0.00     0.180 A 
ATOM      2  C   UNL     1       3.908   7.655  -7.110  1.00  0.00     0.208 A 
ATOM      3  C   UNL     1       3.070   6.530  -7.128  1.00  0.00     0.235 A 
ATOM      4  O   UNL     1       3.147   5.702  -8.077  1.00  0.00    -0.285 OA
ATOM      5  C   UNL     1       2.157   6.331  -6.080  1.00  0.00     0.069 A 
ATOM      6  C   UNL     1       2.121   7.282  -5.037  1.00  0.00     0.142 A 
ATOM      7  O   UNL     1       2.924   8.339  -5.062  1.00  0.00    -0.452 OA
ATOM      8  C   UNL     1       1.231   7.114  -3.970  1.00  0.00     0.094 A 
ATOM      9  C   UNL     1       0.373   6.006  -3.934  1.00  0.00     0.119 A 
ATOM     10  C   UNL     1       0.407   5.065  -4.967  1.00  0.00     0.047 A 
ATOM     11  C   UNL     1       1.294   5.222  -6.037  1.00  0.00     0.020 A 
ENDROOT
BRANCH   1  12
ATOM     12  C   UNL     1       4.627   9.792  -5.962  1.00  0.00     0.025 A 
ATOM     13  C   UNL     1       5.980   9.680  -5.603  1.00  0.00     0.016 A 
ATOM     14  C   UNL     1       6.781  10.820  -5.499  1.00  0.00     0.051 A 
ATOM     15  C   UNL     1       6.238  12.090  -5.737  1.00  0.00     0.157 A 
ATOM     16  C   UNL     1       4.081  11.069  -6.180  1.00  0.00     0.062 A 
ATOM     17  C   UNL     1       4.879  12.214  -6.074  1.00  0.00     0.158 A 
BRANCH  15  18
ATOM     18  O   UNL     1       7.039  13.226  -5.635  1.00  0.00    -0.504 OA
ATOM     19  H   UNL     1       8.040  13.158  -5.486  1.00  0.00     0.293 HD
ENDBRANCH  15  18
BRANCH  17  20
ATOM     20  O   UNL     1       4.305  13.464  -6.304  1.00  0.00    -0.504 OA
ATOM     21  H   UNL     1       3.532  13.591  -6.947  1.00  0.00     0.293 HD
ENDBRANCH  17  20
ENDBRANCH   1  12
BRANCH   2  22
ATOM     22  O   UNL     1       4.861   7.853  -8.113  1.00  0.00    -0.502 OA
ATOM     23  H   UNL     1       5.834   8.039  -7.906  1.00  0.00     0.293 HD
ENDBRANCH   2  22
BRANCH   9  24
ATOM     24  O   UNL     1      -0.515   5.832  -2.875  1.00  0.00    -0.508 OA
ATOM     25  H   UNL     1      -0.951   6.623  -2.413  1.00  0.00     0.293 HD
ENDBRANCH   9  24
TORSDOF 5
ENDMDL
MODEL 2
REMARK VINA RESULT:    -4.599      2.393      6.551
REMARK INTER + INTRA:          -5.640
REMARK INTER:                  -5.712
REMARK INTRA:                   0.072
REMARK UNBOUND:                -0.234
REMARK SMILES O=c1c(O)c(-c2ccc(O)c(O)c2)oc2cc(O)ccc12
REMARK SMILES IDX 5 1 3 2 2 3 1 4 21 5 15 6 14 7 16 8 17 9 19 10 20 11 6 12
REMARK SMILES IDX 7 13 8 14 9 15 13 16 11 17 10 18 12 20 4 22 18 24
REMARK H PARENT 10 19 12 21 4 23 18 25
REMARK Flexibility Score: inf
ROOT
ATOM      1  C   UNL     1       2.204   7.630  -5.265  1.00  0.00     0.180 A 
ATOM      2  C   UNL     1       3.435   7.892  -5.901  1.00  0.00     0.208 A 
ATOM      3  C   UNL     1       3.684   9.184  -6.386  1.00  0.00     0.235 A 
ATOM      4  O   UNL     1       4.782   9.447  -6.949  1.00  0.00    -0.285 OA
ATOM      5  C   UNL     1       2.699  10.176  -6.247  1.00  0.00     0.069 A 
ATOM      6  C   UNL     1       1.484   9.827  -5.620  1.00  0.00     0.142 A 
ATOM      7  O   UNL     1       1.291   8.594  -5.166  1.00  0.00    -0.452 OA
ATOM      8  C   UNL     1       0.474  10.784  -5.471  1.00  0.00     0.094 A 
ATOM      9  C   UNL     1       0.665  12.091  -5.940  1.00  0.00     0.119 A 
ATOM     10  C   UNL     1       1.869  12.439  -6.560  1.00  0.00     0.047 A 
ATOM     11  C   UNL     1       2.884  11.489  -6.716  1.00  0.00     0.020 A 
ENDROOT
BRANCH   1  12
ATOM     12  C   UNL     1       1.873   6.297  -4.710  1.00  0.00     0.025 A 
ATOM     13  C   UNL     1       2.822   5.621  -3.926  1.00  0.00     0.016 A 
ATOM     14  C   UNL     1       2.539   4.354  -3.410  1.00  0.00     0.051 A 
ATOM     15  C   UNL     1       1.311   3.737  -3.683  1.00  0.00     0.157 A 
ATOM     16  C   UNL     1       0.650   5.666  -5.000  1.00  0.00     0.062 A 
ATOM     17  C   UNL     1       0.365   4.395  -4.486  1.00  0.00     0.158 A 
BRANCH  15  18
ATOM     18  O   UNL     1       1.031   2.473  -3.166  1.00  0.00    -0.504 OA
ATOM     19  H   UNL     1       0.754   2.344  -2.199  1.00  0.00     0.293 HD
ENDBRANCH  15  18
BRANCH  17  20
ATOM     20  O   UNL     1      -0.861   3.803  -4.789  1.00  0.00    -0.504 OA
ATOM     21  H   UNL     1      -1.592   4.301  -5.283  1.00  0.00     0.293 HD
ENDBRANCH  17  20
ENDBRANCH   1  12
BRANCH   2  22
ATOM     22  O   UNL     1       4.376   6.872  -6.069  1.00  0.00    -0.502 OA
ATOM     23  H   UNL     1       4.979   6.821  -6.881  1.00  0.00     0.293 HD
ENDBRANCH   2  22
BRANCH   9  24
ATOM     24  O   UNL     1      -0.335  13.050  -5.795  1.00  0.00    -0.508 OA
ATOM     25  H   UNL     1      -0.907  13.341  -6.580  1.00  0.00     0.293 HD
ENDBRANCH   9  24
TORSDOF 5
ENDMDL
MODEL 3
REMARK VINA RESULT:    -4.463      3.606      5.363
REMARK INTER + INTRA:          -5.480
REMARK INTER:                  -5.167
REMARK INTRA:                  -0.312
REMARK UNBOUND:                -0.234
REMARK SMILES O=c1c(O)c(-c2ccc(O)c(O)c2)oc2cc(O)ccc12
REMARK SMILES IDX 5 1 3 2 2 3 1 4 21 5 15 6 14 7 16 8 17 9 19 10 20 11 6 12
REMARK SMILES IDX 7 13 8 14 9 15 13 16 11 17 10 18 12 20 4 22 18 24
REMARK H PARENT 10 19 12 21 4 23 18 25
REMARK Flexibility Score: inf
ROOT
ATOM      1  C   UNL     1       1.356  10.544  -4.666  1.00  0.00     0.180 A 
ATOM      2  C   UNL     1       0.836   9.377  -4.067  1.00  0.00     0.208 A 
ATOM      3  C   UNL     1       1.355   8.132  -4.452  1.00  0.00     0.235 A 
ATOM      4  O   UNL     1       0.915   7.074  -3.923  1.00  0.00    -0.285 OA
ATOM      5  C   UNL     1       2.357   8.074  -5.434  1.00  0.00     0.069 A 
ATOM      6  C   UNL     1       2.805   9.286  -6.003  1.00  0.00     0.142 A 
ATOM      7  O   UNL     1       2.295  10.445  -5.603  1.00  0.00    -0.452 OA
ATOM      8  C   UNL     1       3.795   9.269  -6.991  1.00  0.00     0.094 A 
ATOM      9  C   UNL     1       4.347   8.054  -7.419  1.00  0.00     0.119 A 
ATOM     10  C   UNL     1       3.904   6.853  -6.856  1.00  0.00     0.047 A 
ATOM     11  C   UNL     1       2.914   6.858  -5.868  1.00  0.00     0.020 A 
ENDROOT
BRANCH   1  12
ATOM     12  C   UNL     1       0.874  11.896  -4.300  1.00  0.00     0.025 A 
ATOM     13  C   UNL     1       1.528  12.610  -3.283  1.00  0.00     0.016 A 
ATOM     14  C   UNL     1       1.079  13.878  -2.908  1.00  0.00     0.051 A 
ATOM     15  C   UNL     1      -0.041  14.445  -3.532  1.00  0.00     0.157 A 
ATOM     16  C   UNL     1      -0.261  12.459  -4.909  1.00  0.00     0.062 A 
ATOM     17  C   UNL     1      -0.716  13.729  -4.534  1.00  0.00     0.158 A 
BRANCH  15  18
ATOM     18  O   UNL     1      -0.486  15.711  -3.156  1.00  0.00    -0.504 OA
ATOM     19  H   UNL     1       0.159  16.433  -2.854  1.00  0.00     0.293 HD
ENDBRANCH  15  18
BRANCH  17  20
ATOM     20  O   UNL     1      -1.841  14.259  -5.165  1.00  0.00    -0.504 OA
ATOM     21  H   UNL     1      -2.730  13.772  -5.177  1.00  0.00     0.293 HD
ENDBRANCH  17  20
ENDBRANCH   1  12
BRANCH   2  22
ATOM     22  O   UNL     1      -0.196   9.462  -3.128  1.00  0.00    -0.502 OA
ATOM     23  H   UNL     1      -0.587  10.348  -2.833  1.00  0.00     0.293 HD
ENDBRANCH   2  22
BRANCH   9  24
ATOM     24  O   UNL     1       5.333   8.029  -8.402  1.00  0.00    -0.508 OA
ATOM     25  H   UNL     1       6.268   8.377  -8.223  1.00  0.00     0.293 HD
ENDBRANCH   9  24
TORSDOF 5
ENDMDL
MODEL 4
REMARK VINA RESULT:    -4.317      3.164      7.061
REMARK INTER + INTRA:          -5.308
REMARK INTER:                  -5.568
REMARK INTRA:                   0.259
REMARK UNBOUND:                -0.234
REMARK SMILES O=c1c(O)c(-c2ccc(O)c(O)c2)oc2cc(O)ccc12
REMARK SMILES IDX 5 1 3 2 2 3 1 4 21 5 15 6 14 7 16 8 17 9 19 10 20 11 6 12
REMARK SMILES IDX 7 13 8 14 9 15 13 16 11 17 10 18 12 20 4 22 18 24
REMARK H PARENT 10 19 12 21 4 23 18 25
REMARK Flexibility Score: inf
ROOT
ATOM      1  C   UNL     1       1.950  11.120  -5.559  1.00  0.00     0.180 A 
ATOM      2  C   UNL     1       0.590  11.415  -5.333  1.00  0.00     0.208 A 
ATOM      3  C   UNL     1       0.233  12.724  -4.975  1.00  0.00     0.235 A 
ATOM      4  O   UNL     1      -0.979  13.016  -4.777  1.00  0.00    -0.285 OA
ATOM      5  C   UNL     1       1.234  13.699  -4.831  1.00  0.00     0.069 A 
ATOM      6  C   UNL     1       2.575  13.316  -5.052  1.00  0.00     0.142 A 
ATOM      7  O   UNL     1       2.870  12.069  -5.398  1.00  0.00    -0.452 OA
ATOM      8  C   UNL     1       3.602  14.256  -4.908  1.00  0.00     0.094 A 
ATOM      9  C   UNL     1       3.305  15.577  -4.549  1.00  0.00     0.119 A 
ATOM     10  C   UNL     1       1.977  15.958  -4.331  1.00  0.00     0.047 A 
ATOM     11  C   UNL     1       0.943  15.026  -4.469  1.00  0.00     0.020 A 
ENDROOT
BRANCH   1  12
ATOM     12  C   UNL     1       2.405   9.768  -5.958  1.00  0.00     0.025 A 
ATOM     13  C   UNL     1       1.756   8.639  -5.434  1.00  0.00     0.016 A 
ATOM     14  C   UNL     1       2.182   7.354  -5.780  1.00  0.00     0.051 A 
ATOM     15  C   UNL     1       3.273   7.178  -6.642  1.00  0.00     0.157 A 
ATOM     16  C   UNL     1       3.513   9.588  -6.806  1.00  0.00     0.062 A 
ATOM     17  C   UNL     1       3.944   8.302  -7.153  1.00  0.00     0.158 A 
BRANCH  15  18
ATOM     18  O   UNL     1       3.695   5.895  -6.986  1.00  0.00    -0.504 OA
ATOM     19  H   UNL     1       4.651   5.708  -7.264  1.00  0.00     0.293 HD
ENDBRANCH  15  18
BRANCH  17  20
ATOM     20  O   UNL     1       5.042   8.162  -8.001  1.00  0.00    -0.504 OA
ATOM     21  H   UNL     1       5.933   7.807  -7.674  1.00  0.00     0.293 HD
ENDBRANCH  17  20
ENDBRANCH   1  12
BRANCH   2  22
ATOM     22  O   UNL     1      -0.379  10.413  -5.435  1.00  0.00    -0.502 OA
ATOM     23  H   UNL     1      -0.717   9.903  -4.628  1.00  0.00     0.293 HD
ENDBRANCH   2  22
BRANCH   9  24
ATOM     24  O   UNL     1       4.321  16.519  -4.405  1.00  0.00    -0.508 OA
ATOM     25  H   UNL     1       5.236  16.378  -4.818  1.00  0.00     0.293 HD
ENDBRANCH   9  24
TORSDOF 5
ENDMDL
MODEL 5
REMARK VINA RESULT:    -4.299      1.840      6.465
REMARK INTER + INTRA:          -5.287
REMARK INTER:                  -5.031
REMARK INTRA:                  -0.256
REMARK UNBOUND:                -0.234
REMARK SMILES O=c1c(O)c(-c2ccc(O)c(O)c2)oc2cc(O)ccc12
REMARK SMILES IDX 5 1 3 2 2 3 1 4 21 5 15 6 14 7 16 8 17 9 19 10 20 11 6 12
REMARK SMILES IDX 7 13 8 14 9 15 13 16 11 17 10 18 12 20 4 22 18 24
REMARK H PARENT 10 19 12 21 4 23 18 25
REMARK Flexibility Score: inf
ROOT
ATOM      1  C   UNL     1       3.256   8.251  -5.338  1.00  0.00     0.180 A 
ATOM      2  C   UNL     1       4.398   8.257  -6.165  1.00  0.00     0.208 A 
ATOM      3  C   UNL     1       4.929   9.489  -6.576  1.00  0.00     0.235 A 
ATOM      4  O   UNL     1       5.956   9.522  -7.307  1.00  0.00    -0.285 OA
ATOM      5  C   UNL     1       4.302  10.680  -6.174  1.00  0.00     0.069 A 
ATOM      6  C   UNL     1       3.149  10.588  -5.366  1.00  0.00     0.142 A 
ATOM      7  O   UNL     1       2.683   9.402  -4.990  1.00  0.00    -0.452 OA
ATOM      8  C   UNL     1       2.490  11.751  -4.952  1.00  0.00     0.094 A 
ATOM      9  C   UNL     1       2.973  13.010  -5.336  1.00  0.00     0.119 A 
ATOM     10  C   UNL     1       4.116  13.103  -6.136  1.00  0.00     0.047 A 
ATOM     11  C   UNL     1       4.781  11.946  -6.555  1.00  0.00     0.020 A 
ENDROOT
BRANCH   1  12
ATOM     12  C   UNL     1       2.647   6.993  -4.847  1.00  0.00     0.025 A 
ATOM     13  C   UNL     1       3.280   6.275  -3.820  1.00  0.00     0.016 A 
ATOM     14  C   UNL     1       2.735   5.075  -3.357  1.00  0.00     0.051 A 
ATOM     15  C   UNL     1       1.557   4.568  -3.923  1.00  0.00     0.157 A 
ATOM     16  C   UNL     1       1.477   6.471  -5.428  1.00  0.00     0.062 A 
ATOM     17  C   UNL     1       0.929   5.268  -4.967  1.00  0.00     0.158 A 
BRANCH  15  18
ATOM     18  O   UNL     1       1.014   3.371  -3.458  1.00  0.00    -0.504 OA
ATOM     19  H   UNL     1       0.568   3.309  -2.550  1.00  0.00     0.293 HD
ENDBRANCH  15  18
BRANCH  17  20
ATOM     20  O   UNL     1      -0.235   4.783  -5.561  1.00  0.00    -0.504 OA
ATOM     21  H   UNL     1      -0.244   3.934  -6.115  1.00  0.00     0.293 HD
ENDBRANCH  17  20
ENDBRANCH   1  12
BRANCH   2  22
ATOM     22  O   UNL     1       4.971   7.056  -6.590  1.00  0.00    -0.502 OA
ATOM     23  H   UNL     1       5.085   6.827  -7.570  1.00  0.00     0.293 HD
ENDBRANCH   2  22
BRANCH   9  24
ATOM     24  O   UNL     1       2.323  14.172  -4.928  1.00  0.00    -0.508 OA
ATOM     25  H   UNL     1       1.626  14.622  -5.511  1.00  0.00     0.293 HD
ENDBRANCH   9  24
TORSDOF 5
ENDMDL
MODEL 6
REMARK VINA RESULT:    -4.286      1.876      7.055
REMARK INTER + INTRA:          -5.271
REMARK INTER:                  -4.951
REMARK INTRA:                  -0.321
REMARK UNBOUND:                -0.234
REMARK SMILES O=c1c(O)c(-c2ccc(O)c(O)c2)oc2cc(O)ccc12
REMARK SMILES IDX 5 1 3 2 2 3 1 4 21 5 15 6 14 7 16 8 17 9 19 10 20 11 6 12
REMARK SMILES IDX 7 13 8 14 9 15 13 16 11 17 10 18 12 20 4 22 18 24
REMARK H PARENT 10 19 12 21 4 23 18 25
REMARK Flexibility Score: inf
ROOT
ATOM      1  C   UNL     1       1.969   9.323  -5.505  1.00  0.00     0.180 A 
ATOM      2  C   UNL     1       1.073  10.361  -5.836  1.00  0.00     0.208 A 
ATOM      3  C   UNL     1       1.587  11.640  -6.097  1.00  0.00     0.235 A 
ATOM      4  O   UNL     1       0.808  12.583  -6.405  1.00  0.00    -0.285 OA
ATOM      5  C   UNL     1       2.971  11.861  -6.003  1.00  0.00     0.069 A 
ATOM      6  C   UNL     1       3.797  10.775  -5.642  1.00  0.00     0.142 A 
ATOM      7  O   UNL     1       3.272   9.577  -5.412  1.00  0.00    -0.452 OA
ATOM      8  C   UNL     1       5.180  10.957  -5.528  1.00  0.00     0.094 A 
ATOM      9  C   UNL     1       5.750  12.214  -5.773  1.00  0.00     0.119 A 
ATOM     10  C   UNL     1       4.932  13.291  -6.131  1.00  0.00     0.047 A 
ATOM     11  C   UNL     1       3.549  13.120  -6.246  1.00  0.00     0.020 A 
ENDROOT
BRANCH   1  12
ATOM     12  C   UNL     1       1.506   7.943  -5.234  1.00  0.00     0.025 A 
ATOM     13  C   UNL     1       1.171   7.572  -3.922  1.00  0.00     0.016 A 
ATOM     14  C   UNL     1       0.752   6.269  -3.640  1.00  0.00     0.051 A 
ATOM     15  C   UNL     1       0.678   5.313  -4.663  1.00  0.00     0.157 A 
ATOM     16  C   UNL     1       1.450   6.975  -6.254  1.00  0.00     0.062 A 
ATOM     17  C   UNL     1       1.034   5.669  -5.975  1.00  0.00     0.158 A 
BRANCH  15  18
ATOM     18  O   UNL     1       0.258   4.015  -4.379  1.00  0.00    -0.504 OA
ATOM     19  H   UNL     1       0.038   3.723  -3.434  1.00  0.00     0.293 HD
ENDBRANCH  15  18
BRANCH  17  20
ATOM     20  O   UNL     1       0.984   4.737  -7.012  1.00  0.00    -0.504 OA
ATOM     21  H   UNL     1       1.064   5.011  -7.984  1.00  0.00     0.293 HD
ENDBRANCH  17  20
ENDBRANCH   1  12
BRANCH   2  22
ATOM     22  O   UNL     1      -0.304  10.124  -5.873  1.00  0.00    -0.502 OA
ATOM     23  H   UNL     1      -0.690   9.215  -6.098  1.00  0.00     0.293 HD
ENDBRANCH   2  22
BRANCH   9  24
ATOM     24  O   UNL     1       7.125  12.403  -5.662  1.00  0.00    -0.508 OA
ATOM     25  H   UNL     1       7.514  13.269  -5.304  1.00  0.00     0.293 HD
ENDBRANCH   9  24
TORSDOF 5
ENDMDL
MODEL 7
REMARK VINA RESULT:    -4.266      3.523      5.266
REMARK INTER + INTRA:          -5.248
REMARK INTER:                  -4.965
REMARK INTRA:                  -0.283
REMARK UNBOUND:                -0.234
REMARK SMILES O=c1c(O)c(-c2ccc(O)c(O)c2)oc2cc(O)ccc12
REMARK SMILES IDX 5 1 3 2 2 3 1 4 21 5 15 6 14 7 16 8 17 9 19 10 20 11 6 12
REMARK SMILES IDX 7 13 8 14 9 15 13 16 11 17 10 18 12 20 4 22 18 24
REMARK H PARENT 10 19 12 21 4 23 18 25
REMARK Flexibility Score: inf
ROOT
ATOM      1  C   UNL     1       1.920   9.988  -4.776  1.00  0.00     0.180 A 
ATOM      2  C   UNL     1       1.182   9.045  -4.030  1.00  0.00     0.208 A 
ATOM      3  C   UNL     1      -0.086   9.405  -3.551  1.00  0.00     0.235 A 
ATOM      4  O   UNL     1      -0.770   8.575  -2.891  1.00  0.00    -0.285 OA
ATOM      5  C   UNL     1      -0.581  10.694  -3.805  1.00  0.00     0.069 A 
ATOM      6  C   UNL     1       0.229  11.588  -4.538  1.00  0.00     0.142 A 
ATOM      7  O   UNL     1       1.421  11.205  -4.982  1.00  0.00    -0.452 OA
ATOM      8  C   UNL     1      -0.224  12.885  -4.804  1.00  0.00     0.094 A 
ATOM      9  C   UNL     1      -1.482  13.300  -4.346  1.00  0.00     0.119 A 
ATOM     10  C   UNL     1      -2.286  12.416  -3.621  1.00  0.00     0.047 A 
ATOM     11  C   UNL     1      -1.842  11.118  -3.349  1.00  0.00     0.020 A 
ENDROOT
BRANCH   1  12
ATOM     12  C   UNL     1       3.257   9.679  -5.331  1.00  0.00     0.025 A 
ATOM     13  C   UNL     1       4.399  10.234  -4.731  1.00  0.00     0.016 A 
ATOM     14  C   UNL     1       5.669   9.973  -5.250  1.00  0.00     0.051 A 
ATOM     15  C   UNL     1       5.816   9.166  -6.386  1.00  0.00     0.157 A 
ATOM     16  C   UNL     1       3.407   8.887  -6.483  1.00  0.00     0.062 A 
ATOM     17  C   UNL     1       4.678   8.625  -7.008  1.00  0.00     0.158 A 
BRANCH  15  18
ATOM     18  O   UNL     1       7.085   8.905  -6.902  1.00  0.00    -0.504 OA
ATOM     19  H   UNL     1       7.298   8.032  -7.370  1.00  0.00     0.293 HD
ENDBRANCH  15  18
BRANCH  17  20
ATOM     20  O   UNL     1       4.789   7.829  -8.148  1.00  0.00    -0.504 OA
ATOM     21  H   UNL     1       5.665   7.400  -8.421  1.00  0.00     0.293 HD
ENDBRANCH  17  20
ENDBRANCH   1  12
BRANCH   2  22
ATOM     22  O   UNL     1       1.721   7.786  -3.750  1.00  0.00    -0.502 OA
ATOM     23  H   UNL     1       2.003   7.513  -2.816  1.00  0.00     0.293 HD
ENDBRANCH   2  22
BRANCH   9  24
ATOM     24  O   UNL     1      -1.940  14.590  -4.607  1.00  0.00    -0.508 OA
ATOM     25  H   UNL     1      -2.198  14.882  -5.543  1.00  0.00     0.293 HD
ENDBRANCH   9  24
TORSDOF 5
ENDMDL
MODEL 8
REMARK VINA RESULT:    -4.201      1.505      2.713
REMARK INTER + INTRA:          -5.171
REMARK INTER:                  -4.904
REMARK INTRA:                  -0.267
REMARK UNBOUND:                -0.234
REMARK SMILES O=c1c(O)c(-c2ccc(O)c(O)c2)oc2cc(O)ccc12
REMARK SMILES IDX 5 1 3 2 2 3 1 4 21 5 15 6 14 7 16 8 17 9 19 10 20 11 6 12
REMARK SMILES IDX 7 13 8 14 9 15 13 16 11 17 10 18 12 20 4 22 18 24
REMARK H PARENT 10 19 12 21 4 23 18 25
REMARK Flexibility Score: inf
ROOT
ATOM      1  C   UNL     1       3.393   8.329  -5.853  1.00  0.00     0.180 A 
ATOM      2  C   UNL     1       3.055   8.071  -4.508  1.00  0.00     0.208 A 
ATOM      3  C   UNL     1       2.160   7.029  -4.224  1.00  0.00     0.235 A 
ATOM      4  O   UNL     1       1.850   6.771  -3.028  1.00  0.00    -0.285 OA
ATOM      5  C   UNL     1       1.606   6.286  -5.279  1.00  0.00     0.069 A 
ATOM      6  C   UNL     1       1.976   6.623  -6.599  1.00  0.00     0.142 A 
ATOM      7  O   UNL     1       2.835   7.611  -6.826  1.00  0.00    -0.452 OA
ATOM      8  C   UNL     1       1.439   5.913  -7.678  1.00  0.00     0.094 A 
ATOM      9  C   UNL     1       0.536   4.865  -7.455  1.00  0.00     0.119 A 
ATOM     10  C   UNL     1       0.170   4.529  -6.148  1.00  0.00     0.047 A 
ATOM     11  C   UNL     1       0.699   5.233  -5.062  1.00  0.00     0.020 A 
ENDROOT
BRANCH   1  12
ATOM     12  C   UNL     1       4.344   9.398  -6.233  1.00  0.00     0.025 A 
ATOM     13  C   UNL     1       5.670   9.062  -6.550  1.00  0.00     0.016 A 
ATOM     14  C   UNL     1       6.590  10.057  -6.891  1.00  0.00     0.051 A 
ATOM     15  C   UNL     1       6.202  11.403  -6.906  1.00  0.00     0.157 A 
ATOM     16  C   UNL     1       3.964  10.752  -6.229  1.00  0.00     0.062 A 
ATOM     17  C   UNL     1       4.883  11.752  -6.568  1.00  0.00     0.158 A 
BRANCH  15  18
ATOM     18  O   UNL     1       7.121  12.394  -7.249  1.00  0.00    -0.504 OA
ATOM     19  H   UNL     1       7.403  13.108  -6.587  1.00  0.00     0.293 HD
ENDBRANCH  15  18
BRANCH  17  20
ATOM     20  O   UNL     1       4.470  13.084  -6.560  1.00  0.00    -0.504 OA
ATOM     21  H   UNL     1       4.771  13.736  -5.845  1.00  0.00     0.293 HD
ENDBRANCH  17  20
ENDBRANCH   1  12
BRANCH   2  22
ATOM     22  O   UNL     1       3.583   8.859  -3.482  1.00  0.00    -0.502 OA
ATOM     23  H   UNL     1       3.082   9.648  -3.093  1.00  0.00     0.293 HD
ENDBRANCH   2  22
BRANCH   9  24
ATOM     24  O   UNL     1      -0.003   4.153  -8.523  1.00  0.00    -0.508 OA
ATOM     25  H   UNL     1      -1.002   4.120  -8.689  1.00  0.00     0.293 HD
ENDBRANCH   9  24
TORSDOF 5
ENDMDL
