MODEL 1
REMARK VINA RESULT:    -3.531      0.000      0.000
REMARK INTER + INTRA:          -4.115
REMARK INTER:                  -4.047
REMARK INTRA:                  -0.068
REMARK UNBOUND:                -0.068
REMARK SMILES CC(C)[C@H]([NH3+])C(=O)[O-]
REMARK SMILES IDX 4 1 5 2 6 6 7 7 8 8 2 9 1 10 3 11
REMARK H PARENT 5 3 5 4 5 5
REMARK Flexibility Score: inf
ROOT
ATOM      1  C   UNL     1      22.842  -3.102  -0.496  1.00  0.00     0.230 C 
ENDROOT
BRANCH   1   2
ATOM      2  N   UNL     1      23.173  -3.512  -1.869  1.00  0.00    -0.350 N 
ATOM      3  H   UNL     1      23.320  -4.547  -1.910  1.00  0.00     0.345 HD
ATOM      4  H   UNL     1      22.404  -3.252  -2.528  1.00  0.00     0.345 HD
ATOM      5  H   UNL     1      24.066  -3.063  -2.175  1.00  0.00     0.345 HD
ENDBRANCH   1   2
BRANCH   1   6
ATOM      6  C   UNL     1      24.033  -2.406   0.116  1.00  0.00     0.099 C 
ATOM      7  O   UNL     1      23.997  -1.169   0.343  1.00  0.00    -0.544 OA
ATOM      8  O   UNL     1      25.176  -3.129   0.437  1.00  0.00    -0.544 OA
ENDBRANCH   1   6
BRANCH   1   9
ATOM      9  C   UNL     1      22.398  -4.313   0.381  1.00  0.00     0.047 C 
ATOM     10  C   UNL     1      21.197  -5.053  -0.229  1.00  0.00     0.014 C 
ATOM     11  C   UNL     1      22.041  -3.865   1.810  1.00  0.00     0.014 C 
ENDBRANCH   1   9
TORSDOF 3
ENDMDL
MODEL 2
REMARK VINA RESULT:    -3.456      2.359      3.041
REMARK INTER + INTRA:          -4.029
REMARK INTER:                  -4.056
REMARK INTRA:                   0.027
REMARK UNBOUND:                -0.068
REMARK SMILES CC(C)[C@H]([NH3+])C(=O)[O-]
REMARK SMILES IDX 4 1 5 2 6 6 7 7 8 8 2 9 1 10 3 11
REMARK H PARENT 5 3 5 4 5 5
REMARK Flexibility Score: inf
ROOT
ATOM      1  C   UNL     1      22.889  -3.812  -0.737  1.00  0.00     0.230 C 
ENDROOT
BRANCH   1   2
ATOM      2  N   UNL     1      23.124  -3.246  -2.075  1.00  0.00    -0.350 N 
ATOM      3  H   UNL     1      23.321  -4.012  -2.760  1.00  0.00     0.345 HD
ATOM      4  H   UNL     1      22.289  -2.706  -2.399  1.00  0.00     0.345 HD
ATOM      5  H   UNL     1      23.963  -2.623  -2.061  1.00  0.00     0.345 HD
ENDBRANCH   1   2
BRANCH   1   6
ATOM      6  C   UNL     1      21.415  -4.085  -0.565  1.00  0.00     0.099 C 
ATOM      7  O   UNL     1      20.580  -3.150  -0.680  1.00  0.00    -0.544 OA
ATOM      8  O   UNL     1      20.970  -5.371  -0.280  1.00  0.00    -0.544 OA
ENDBRANCH   1   6
BRANCH   1   9
ATOM      9  C   UNL     1      23.413  -2.872   0.391  1.00  0.00     0.047 C 
ATOM     10  C   UNL     1      24.946  -2.906   0.501  1.00  0.00     0.014 C 
ATOM     11  C   UNL     1      22.803  -3.244   1.754  1.00  0.00     0.014 C 
ENDBRANCH   1   9
TORSDOF 3
ENDMDL
MODEL 3
REMARK VINA RESULT:    -3.432      1.152      1.558
REMARK INTER + INTRA:          -4.002
REMARK INTER:                  -3.966
REMARK INTRA:                  -0.036
REMARK UNBOUND:                -0.068
REMARK SMILES CC(C)[C@H]([NH3+])C(=O)[O-]
REMARK SMILES IDX 4 1 5 2 6 6 7 7 8 8 2 9 1 10 3 11
REMARK H PARENT 5 3 5 4 5 5
REMARK Flexibility Score: inf
ROOT
ATOM      1  C   UNL     1      22.327  -3.298  -0.424  1.00  0.00     0.230 C 
ENDROOT
BRANCH   1   2
ATOM      2  N   UNL     1      22.079  -3.753  -1.801  1.00  0.00    -0.350 N 
ATOM      3  H   UNL     1      22.907  -4.284  -2.159  1.00  0.00     0.345 HD
ATOM      4  H   UNL     1      21.236  -4.370  -1.841  1.00  0.00     0.345 HD
ATOM      5  H   UNL     1      21.944  -2.931  -2.434  1.00  0.00     0.345 HD
ENDBRANCH   1   2
BRANCH   1   6
ATOM      6  C   UNL     1      23.813  -3.292  -0.162  1.00  0.00     0.099 C 
ATOM      7  O   UNL     1      24.471  -4.363  -0.220  1.00  0.00    -0.544 OA
ATOM      8  O   UNL     1      24.464  -2.102   0.142  1.00  0.00    -0.544 OA
ENDBRANCH   1   6
BRANCH   1   9
ATOM      9  C   UNL     1      21.585  -4.186   0.622  1.00  0.00     0.047 C 
ATOM     10  C   UNL     1      21.184  -5.549   0.036  1.00  0.00     0.014 C 
ATOM     11  C   UNL     1      20.327  -3.480   1.159  1.00  0.00     0.014 C 
ENDBRANCH   1   9
TORSDOF 3
ENDMDL
MODEL 4
REMARK VINA RESULT:    -3.286      2.321      3.302
REMARK INTER + INTRA:          -3.835
REMARK INTER:                  -3.761
REMARK INTRA:                  -0.074
REMARK UNBOUND:                -0.068
REMARK SMILES CC(C)[C@H]([NH3+])C(=O)[O-]
REMARK SMILES IDX 4 1 5 2 6 6 7 7 8 8 2 9 1 10 3 11
REMARK H PARENT 5 3 5 4 5 5
REMARK Flexibility Score: inf
ROOT
ATOM      1  C   UNL     1      24.034  -2.730   0.792  1.00  0.00     0.230 C 
ENDROOT
BRANCH   1   2
ATOM      2  N   UNL     1      25.483  -2.744   0.538  1.00  0.00    -0.350 N 
ATOM      3  H   UNL     1      25.669  -2.905  -0.478  1.00  0.00     0.345 HD
ATOM      4  H   UNL     1      25.917  -1.836   0.823  1.00  0.00     0.345 HD
ATOM      5  H   UNL     1      25.934  -3.529   1.062  1.00  0.00     0.345 HD
ENDBRANCH   1   2
BRANCH   1   6
ATOM      6  C   UNL     1      23.359  -3.720  -0.125  1.00  0.00     0.099 C 
ATOM      7  O   UNL     1      23.407  -3.563  -1.373  1.00  0.00    -0.544 OA
ATOM      8  O   UNL     1      22.683  -4.814   0.403  1.00  0.00    -0.544 OA
ENDBRANCH   1   6
BRANCH   1   9
ATOM      9  C   UNL     1      23.427  -1.305   0.609  1.00  0.00     0.047 C 
ATOM     10  C   UNL     1      24.111  -0.269   1.516  1.00  0.00     0.014 C 
ATOM     11  C   UNL     1      21.914  -1.304   0.896  1.00  0.00     0.014 C 
ENDBRANCH   1   9
TORSDOF 3
ENDMDL
MODEL 5
REMARK VINA RESULT:    -3.238     17.474     18.394
REMARK INTER + INTRA:          -3.779
REMARK INTER:                  -3.730
REMARK INTRA:                  -0.049
REMARK UNBOUND:                -0.068
REMARK SMILES CC(C)[C@H]([NH3+])C(=O)[O-]
REMARK SMILES IDX 4 1 5 2 6 6 7 7 8 8 2 9 1 10 3 11
REMARK H PARENT 5 3 5 4 5 5
REMARK Flexibility Score: inf
ROOT
ATOM      1  C   UNL     1      18.380   4.688  16.069  1.00  0.00     0.230 C 
ENDROOT
BRANCH   1   2
ATOM      2  N   UNL     1      17.345   5.583  16.608  1.00  0.00    -0.350 N 
ATOM      3  H   UNL     1      17.278   5.472  17.646  1.00  0.00     0.345 HD
ATOM      4  H   UNL     1      17.567   6.581  16.387  1.00  0.00     0.345 HD
ATOM      5  H   UNL     1      16.410   5.335  16.212  1.00  0.00     0.345 HD
ENDBRANCH   1   2
BRANCH   1   6
ATOM      6  C   UNL     1      19.656   4.874  16.853  1.00  0.00     0.099 C 
ATOM      7  O   UNL     1      19.777   4.362  17.997  1.00  0.00    -0.544 OA
ATOM      8  O   UNL     1      20.707   5.608  16.316  1.00  0.00    -0.544 OA
ENDBRANCH   1   6
BRANCH   1   9
ATOM      9  C   UNL     1      18.626   4.935  14.549  1.00  0.00     0.047 C 
ATOM     10  C   UNL     1      17.356   5.424  13.834  1.00  0.00     0.014 C 
ATOM     11  C   UNL     1      19.135   3.660  13.853  1.00  0.00     0.014 C 
ENDBRANCH   1   9
TORSDOF 3
ENDMDL
MODEL 6
REMARK VINA RESULT:    -3.235      2.268      3.571
REMARK INTER + INTRA:          -3.777
REMARK INTER:                  -3.721
REMARK INTRA:                  -0.056
REMARK UNBOUND:                -0.068
REMARK SMILES CC(C)[C@H]([NH3+])C(=O)[O-]
REMARK SMILES IDX 4 1 5 2 6 6 7 7 8 8 2 9 1 10 3 11
REMARK H PARENT 5 3 5 4 5 5
REMARK Flexibility Score: inf
ROOT
ATOM      1  C   UNL     1      24.569  -2.112   0.411  1.00  0.00     0.230 C 
ENDROOT
BRANCH   1   2
ATOM      2  N   UNL     1      23.843  -1.306  -0.584  1.00  0.00    -0.350 N 
ATOM      3  H   UNL     1      22.945  -0.957  -0.178  1.00  0.00     0.345 HD
ATOM      4  H   UNL     1      24.420  -0.488  -0.888  1.00  0.00     0.345 HD
ATOM      5  H   UNL     1      23.599  -1.892  -1.414  1.00  0.00     0.345 HD
ENDBRANCH   1   2
BRANCH   1   6
ATOM      6  C   UNL     1      23.882  -3.446   0.567  1.00  0.00     0.099 C 
ATOM      7  O   UNL     1      22.961  -3.590   1.413  1.00  0.00    -0.544 OA
ATOM      8  O   UNL     1      24.259  -4.524  -0.226  1.00  0.00    -0.544 OA
ENDBRANCH   1   6
BRANCH   1   9
ATOM      9  C   UNL     1      24.674  -1.381   1.784  1.00  0.00     0.047 C 
ATOM     10  C   UNL     1      24.170   0.069   1.703  1.00  0.00     0.014 C 
ATOM     11  C   UNL     1      26.123  -1.381   2.305  1.00  0.00     0.014 C 
ENDBRANCH   1   9
TORSDOF 3
ENDMDL
MODEL 7
REMARK VINA RESULT:    -3.123     15.781     16.450
REMARK INTER + INTRA:          -3.648
REMARK INTER:                  -3.599
REMARK INTRA:                  -0.049
REMARK UNBOUND:                -0.068
REMARK SMILES CC(C)[C@H]([NH3+])C(=O)[O-]
REMARK SMILES IDX 4 1 5 2 6 6 7 7 8 8 2 9 1 10 3 11
REMARK H PARENT 5 3 5 4 5 5
REMARK Flexibility Score: inf
ROOT
ATOM      1  C   UNL     1      33.583  -3.769  12.919  1.00  0.00     0.230 C 
ENDROOT
BRANCH   1   2
ATOM      2  N   UNL     1      34.765  -2.970  12.559  1.00  0.00    -0.350 N 
ATOM      3  H   UNL     1      35.260  -3.406  11.747  1.00  0.00     0.345 HD
ATOM      4  H   UNL     1      34.488  -1.994  12.304  1.00  0.00     0.345 HD
ATOM      5  H   UNL     1      35.441  -2.946  13.355  1.00  0.00     0.345 HD
ENDBRANCH   1   2
BRANCH   1   6
ATOM      6  C   UNL     1      34.026  -5.144  13.353  1.00  0.00     0.099 C 
ATOM      7  O   UNL     1      33.454  -5.720  14.315  1.00  0.00    -0.544 OA
ATOM      8  O   UNL     1      35.067  -5.785  12.691  1.00  0.00    -0.544 OA
ENDBRANCH   1   6
BRANCH   1   9
ATOM      9  C   UNL     1      32.565  -3.862  11.741  1.00  0.00     0.047 C 
ATOM     10  C   UNL     1      33.215  -3.515  10.392  1.00  0.00     0.014 C 
ATOM     11  C   UNL     1      31.359  -2.934  11.972  1.00  0.00     0.014 C 
ENDBRANCH   1   9
TORSDOF 3
ENDMDL
MODEL 8
REMARK VINA RESULT:    -3.102     18.638     19.116
REMARK INTER + INTRA:          -3.624
REMARK INTER:                  -3.566
REMARK INTRA:                  -0.058
REMARK UNBOUND:                -0.068
REMARK SMILES CC(C)[C@H]([NH3+])C(=O)[O-]
REMARK SMILES IDX 4 1 5 2 6 6 7 7 8 8 2 9 1 10 3 11
REMARK H PARENT 5 3 5 4 5 5
REMARK Flexibility Score: inf
ROOT
ATOM      1  C   UNL     1      18.435   5.998  16.127  1.00  0.00     0.230 C 
ENDROOT
BRANCH   1   2
ATOM      2  N   UNL     1      17.787   6.404  17.384  1.00  0.00    -0.350 N 
ATOM      3  H   UNL     1      18.292   5.987  18.200  1.00  0.00     0.345 HD
ATOM      4  H   UNL     1      17.787   7.445  17.480  1.00  0.00     0.345 HD
ATOM      5  H   UNL     1      16.805   6.048  17.416  1.00  0.00     0.345 HD
ENDBRANCH   1   2
BRANCH   1   6
ATOM      6  C   UNL     1      17.413   5.347  15.229  1.00  0.00     0.099 C 
ATOM      7  O   UNL     1      17.340   4.092  15.157  1.00  0.00    -0.544 OA
ATOM      8  O   UNL     1      16.542   6.129  14.478  1.00  0.00    -0.544 OA
ENDBRANCH   1   6
BRANCH   1   9
ATOM      9  C   UNL     1      19.640   5.041  16.377  1.00  0.00     0.047 C 
ATOM     10  C   UNL     1      19.755   4.638  17.857  1.00  0.00     0.014 C 
ATOM     11  C   UNL     1      20.964   5.683  15.926  1.00  0.00     0.014 C 
ENDBRANCH   1   9
TORSDOF 3
ENDMDL
MODEL 9
REMARK VINA RESULT:    -3.089     14.388     15.138
REMARK INTER + INTRA:          -3.609
REMARK INTER:                  -3.549
REMARK INTRA:                  -0.060
REMARK UNBOUND:                -0.068
REMARK SMILES CC(C)[C@H]([NH3+])C(=O)[O-]
REMARK SMILES IDX 4 1 5 2 6 6 7 7 8 8 2 9 1 10 3 11
REMARK H PARENT 5 3 5 4 5 5
REMARK Flexibility Score: inf
ROOT
ATOM      1  C   UNL     1      33.663  -5.102  11.175  1.00  0.00     0.230 C 
ENDROOT
BRANCH   1   2
ATOM      2  N   UNL     1      35.124  -5.198  11.038  1.00  0.00    -0.350 N 
ATOM      3  H   UNL     1      35.555  -4.246  11.101  1.00  0.00     0.345 HD
ATOM      4  H   UNL     1      35.527  -5.804  11.788  1.00  0.00     0.345 HD
ATOM      5  H   UNL     1      35.374  -5.586  10.100  1.00  0.00     0.345 HD
ENDBRANCH   1   2
BRANCH   1   6
ATOM      6  C   UNL     1      33.008  -6.035  10.187  1.00  0.00     0.099 C 
ATOM      7  O   UNL     1      33.705  -6.650   9.338  1.00  0.00    -0.544 OA
ATOM      8  O   UNL     1      31.631  -6.225  10.210  1.00  0.00    -0.544 OA
ENDBRANCH   1   6
BRANCH   1   9
ATOM      9  C   UNL     1      33.155  -3.641  10.975  1.00  0.00     0.047 C 
ATOM     10  C   UNL     1      33.271  -3.189   9.510  1.00  0.00     0.014 C 
ATOM     11  C   UNL     1      33.930  -2.656  11.868  1.00  0.00     0.014 C 
ENDBRANCH   1   9
TORSDOF 3
ENDMDL
