MODEL 1
REMARK VINA RESULT:     2.185      0.000      0.000
REMARK INTER + INTRA:           5.125
REMARK INTER:                   3.590
REMARK INTRA:                   1.536
REMARK UNBOUND:                 1.536
REMARK SMILES C[C@H]1O[C@H](OC[C@@H]2O[C@@H](Oc3c(-c4ccc(O)c(O)c4)oc4cc(O)cc(O)c4c3=O)[C@H](O)[C@@H](O)[C@H]2O)[C@H](O)[C@H](O)[C@@H]1O
REMARK SMILES IDX 7 1 36 2 34 3 32 4 9 5 8 6 6 7 5 8 4 9 1 10 2 11 42 12 3 13
REMARK SMILES IDX 40 14 38 15 43 16 41 18 39 20 37 22 35 24 10 26 11 27 12 28
REMARK SMILES IDX 30 29 21 30 29 31 31 32 22 33 27 34 23 35 26 36 24 37 13 38
REMARK SMILES IDX 20 39 14 40 18 41 15 42 16 43 19 44 17 46 28 48 25 50 33 52
REMARK H PARENT 43 17 41 19 39 21 37 23 35 25 19 45 17 47 28 49 25 51 33 53
REMARK Flexibility Score: inf
ROOT
ATOM      1  C   UNL     1     -38.451  74.570 -21.027  1.00  0.00     0.180 C 
ATOM      2  C   UNL     1     -39.829  74.395 -20.340  1.00  0.00     0.177 C 
ATOM      3  C   UNL     1     -40.939  74.937 -21.232  1.00  0.00     0.180 C 
ATOM      4  C   UNL     1     -40.667  76.432 -21.442  1.00  0.00     0.214 C 
ATOM      5  C   UNL     1     -39.195  76.711 -21.877  1.00  0.00     0.339 C 
ATOM      6  O   UNL     1     -38.152  75.943 -21.303  1.00  0.00    -0.332 OA
ENDROOT
BRANCH   1   7
ATOM      7  C   UNL     1     -37.327  73.984 -20.158  1.00  0.00     0.198 C 
BRANCH   7   8
ATOM      8  O   UNL     1     -37.558  72.593 -19.903  1.00  0.00    -0.347 OA
BRANCH   8   9
ATOM      9  C   UNL     1     -37.496  72.254 -18.505  1.00  0.00     0.281 C 
ATOM     10  C   UNL     1     -37.044  68.598 -18.845  1.00  0.00     0.041 C 
ATOM     11  C   UNL     1     -36.662  70.088 -18.939  1.00  0.00     0.150 C 
ATOM     12  C   UNL     1     -35.247  70.386 -18.410  1.00  0.00     0.174 C 
ATOM     13  O   UNL     1     -37.664  70.853 -18.281  1.00  0.00    -0.344 OA
ATOM     14  C   UNL     1     -34.940  71.887 -18.416  1.00  0.00     0.179 C 
ATOM     15  C   UNL     1     -36.168  72.720 -17.926  1.00  0.00     0.202 C 
BRANCH  12  16
ATOM     16  O   UNL     1     -34.336  69.714 -19.252  1.00  0.00    -0.388 OA
ATOM     17  H   UNL     1     -33.995  68.958 -18.703  1.00  0.00     0.211 HD
ENDBRANCH  12  16
BRANCH  14  18
ATOM     18  O   UNL     1     -34.592  72.298 -19.733  1.00  0.00    -0.387 OA
ATOM     19  H   UNL     1     -35.348  72.861 -20.087  1.00  0.00     0.211 HD
ENDBRANCH  14  18
BRANCH  15  20
ATOM     20  O   UNL     1     -35.988  74.106 -18.120  1.00  0.00    -0.385 OA
ATOM     21  H   UNL     1     -35.170  74.362 -17.598  1.00  0.00     0.211 HD
ENDBRANCH  15  20
ENDBRANCH   8   9
ENDBRANCH   7   8
ENDBRANCH   1   7
BRANCH   2  22
ATOM     22  O   UNL     1     -40.128  73.067 -19.968  1.00  0.00    -0.387 OA
ATOM     23  H   UNL     1     -40.126  72.487 -20.785  1.00  0.00     0.211 HD
ENDBRANCH   2  22
BRANCH   3  24
ATOM     24  O   UNL     1     -41.075  74.275 -22.468  1.00  0.00    -0.387 OA
ATOM     25  H   UNL     1     -41.575  73.415 -22.356  1.00  0.00     0.211 HD
ENDBRANCH   3  24
BRANCH   5  26
ATOM     26  O   UNL     1     -39.109  76.853 -23.303  1.00  0.00    -0.454 OA
BRANCH  26  27
ATOM     27  C   UNL     1     -38.188  76.274 -24.179  1.00  0.00     0.214 A 
ATOM     28  C   UNL     1     -38.645  75.669 -25.355  1.00  0.00     0.180 A 
ATOM     29  C   UNL     1     -36.810  76.431 -23.978  1.00  0.00     0.239 A 
ATOM     30  O   UNL     1     -37.754  75.203 -26.234  1.00  0.00    -0.452 OA
ATOM     31  C   UNL     1     -35.890  76.070 -25.005  1.00  0.00     0.111 A 
ATOM     32  O   UNL     1     -36.417  76.907 -22.879  1.00  0.00    -0.285 OA
ATOM     33  C   UNL     1     -36.444  75.404 -26.127  1.00  0.00     0.146 A 
ATOM     34  C   UNL     1     -34.485  76.357 -25.020  1.00  0.00     0.134 A 
ATOM     35  C   UNL     1     -35.621  74.955 -27.176  1.00  0.00     0.094 A 
ATOM     36  C   UNL     1     -33.677  75.892 -26.069  1.00  0.00     0.093 A 
ATOM     37  C   UNL     1     -34.233  75.188 -27.148  1.00  0.00     0.123 A 
BRANCH  28  38
ATOM     38  C   UNL     1     -40.077  75.547 -25.727  1.00  0.00     0.025 A 
ATOM     39  C   UNL     1     -41.082  76.106 -24.936  1.00  0.00     0.062 A 
ATOM     40  C   UNL     1     -40.428  74.898 -26.918  1.00  0.00     0.016 A 
ATOM     41  C   UNL     1     -42.430  75.972 -25.276  1.00  0.00     0.158 A 
ATOM     42  C   UNL     1     -41.773  74.692 -27.239  1.00  0.00     0.051 A 
ATOM     43  C   UNL     1     -42.782  75.242 -26.421  1.00  0.00     0.157 A 
BRANCH  41  44
ATOM     44  O   UNL     1     -43.428  76.589 -24.529  1.00  0.00    -0.504 OA
ATOM     45  H   UNL     1     -44.393  76.671 -24.861  1.00  0.00     0.293 HD
ENDBRANCH  41  44
BRANCH  43  46
ATOM     46  O   UNL     1     -44.124  75.031 -26.734  1.00  0.00    -0.504 OA
ATOM     47  H   UNL     1     -44.845  75.597 -26.318  1.00  0.00     0.293 HD
ENDBRANCH  43  46
ENDBRANCH  28  38
BRANCH  34  48
ATOM     48  O   UNL     1     -33.831  77.124 -24.050  1.00  0.00    -0.507 OA
ATOM     49  H   UNL     1     -34.179  77.282 -23.121  1.00  0.00     0.293 HD
ENDBRANCH  34  48
BRANCH  37  50
ATOM     50  O   UNL     1     -33.426  74.703 -28.175  1.00  0.00    -0.508 OA
ATOM     51  H   UNL     1     -32.426  74.868 -28.223  1.00  0.00     0.293 HD
ENDBRANCH  37  50
ENDBRANCH  26  27
ENDBRANCH   5  26
BRANCH   4  52
ATOM     52  O   UNL     1     -41.018  77.125 -20.251  1.00  0.00    -0.384 OA
ATOM     53  H   UNL     1     -41.850  76.729 -19.840  1.00  0.00     0.211 HD
ENDBRANCH   4  52
TORSDOF 16
ENDMDL
MODEL 2
REMARK VINA RESULT:     2.562      1.494      4.962
REMARK INTER + INTRA:           5.745
REMARK INTER:                   0.825
REMARK INTRA:                   4.919
REMARK UNBOUND:                 1.536
REMARK SMILES C[C@H]1O[C@H](OC[C@@H]2O[C@@H](Oc3c(-c4ccc(O)c(O)c4)oc4cc(O)cc(O)c4c3=O)[C@H](O)[C@@H](O)[C@H]2O)[C@H](O)[C@H](O)[C@@H]1O
REMARK SMILES IDX 7 1 36 2 34 3 32 4 9 5 8 6 6 7 5 8 4 9 1 10 2 11 42 12 3 13
REMARK SMILES IDX 40 14 38 15 43 16 41 18 39 20 37 22 35 24 10 26 11 27 12 28
REMARK SMILES IDX 30 29 21 30 29 31 31 32 22 33 27 34 23 35 26 36 24 37 13 38
REMARK SMILES IDX 20 39 14 40 18 41 15 42 16 43 19 44 17 46 28 48 25 50 33 52
REMARK H PARENT 43 17 41 19 39 21 37 23 35 25 19 45 17 47 28 49 25 51 33 53
REMARK Flexibility Score: inf
ROOT
ATOM      1  C   UNL     1     -38.723  73.307 -20.665  1.00  0.00     0.180 C 
ATOM      2  C   UNL     1     -40.124  73.476 -20.025  1.00  0.00     0.177 C 
ATOM      3  C   UNL     1     -40.868  74.636 -20.676  1.00  0.00     0.180 C 
ATOM      4  C   UNL     1     -40.044  75.905 -20.425  1.00  0.00     0.214 C 
ATOM      5  C   UNL     1     -38.539  75.717 -20.795  1.00  0.00     0.339 C 
ATOM      6  O   UNL     1     -37.912  74.478 -20.515  1.00  0.00    -0.332 OA
ENDROOT
BRANCH   1   7
ATOM      7  C   UNL     1     -37.981  72.110 -20.050  1.00  0.00     0.198 C 
BRANCH   7   8
ATOM      8  O   UNL     1     -36.630  72.462 -19.731  1.00  0.00    -0.347 OA
BRANCH   8   9
ATOM      9  C   UNL     1     -36.275  72.173 -18.366  1.00  0.00     0.281 C 
ATOM     10  C   UNL     1     -37.168  68.583 -18.312  1.00  0.00     0.041 C 
ATOM     11  C   UNL     1     -36.364  69.838 -18.705  1.00  0.00     0.150 C 
ATOM     12  C   UNL     1     -34.840  69.636 -18.613  1.00  0.00     0.174 C 
ATOM     13  O   UNL     1     -36.819  70.930 -17.917  1.00  0.00    -0.344 OA
ATOM     14  C   UNL     1     -34.074  70.930 -18.903  1.00  0.00     0.179 C 
ATOM     15  C   UNL     1     -34.759  72.161 -18.225  1.00  0.00     0.202 C 
BRANCH  12  16
ATOM     16  O   UNL     1     -34.491  68.656 -19.565  1.00  0.00    -0.388 OA
ATOM     17  H   UNL     1     -34.565  67.792 -19.078  1.00  0.00     0.211 HD
ENDBRANCH  12  16
BRANCH  14  18
ATOM     18  O   UNL     1     -34.014  71.145 -20.309  1.00  0.00    -0.387 OA
ATOM     19  H   UNL     1     -33.049  71.074 -20.588  1.00  0.00     0.211 HD
ENDBRANCH  14  18
BRANCH  15  20
ATOM     20  O   UNL     1     -34.200  73.385 -18.647  1.00  0.00    -0.385 OA
ATOM     21  H   UNL     1     -33.678  73.742 -17.867  1.00  0.00     0.211 HD
ENDBRANCH  15  20
ENDBRANCH   8   9
ENDBRANCH   7   8
ENDBRANCH   1   7
BRANCH   2  22
ATOM     22  O   UNL     1     -40.927  72.315 -20.071  1.00  0.00    -0.387 OA
ATOM     23  H   UNL     1     -40.448  71.602 -20.587  1.00  0.00     0.211 HD
ENDBRANCH   2  22
BRANCH   3  24
ATOM     24  O   UNL     1     -41.126  74.471 -22.052  1.00  0.00    -0.387 OA
ATOM     25  H   UNL     1     -42.106  74.542 -22.239  1.00  0.00     0.211 HD
ENDBRANCH   3  24
BRANCH   5  26
ATOM     26  O   UNL     1     -38.277  76.228 -22.111  1.00  0.00    -0.454 OA
BRANCH  26  27
ATOM     27  C   UNL     1     -39.191  76.521 -23.126  1.00  0.00     0.214 A 
ATOM     28  C   UNL     1     -38.825  76.312 -24.460  1.00  0.00     0.180 A 
ATOM     29  C   UNL     1     -40.515  76.865 -22.822  1.00  0.00     0.239 A 
ATOM     30  O   UNL     1     -39.734  76.502 -25.420  1.00  0.00    -0.452 OA
ATOM     31  C   UNL     1     -41.500  76.903 -23.852  1.00  0.00     0.111 A 
ATOM     32  O   UNL     1     -40.806  77.125 -21.623  1.00  0.00    -0.285 OA
ATOM     33  C   UNL     1     -41.018  76.745 -25.176  1.00  0.00     0.146 A 
ATOM     34  C   UNL     1     -42.915  77.040 -23.664  1.00  0.00     0.134 A 
ATOM     35  C   UNL     1     -41.895  76.818 -26.274  1.00  0.00     0.094 A 
ATOM     36  C   UNL     1     -43.774  77.122 -24.770  1.00  0.00     0.093 A 
ATOM     37  C   UNL     1     -43.275  77.016 -26.077  1.00  0.00     0.123 A 
BRANCH  28  38
ATOM     38  C   UNL     1     -37.486  75.839 -24.893  1.00  0.00     0.025 A 
ATOM     39  C   UNL     1     -37.343  74.729 -25.727  1.00  0.00     0.062 A 
ATOM     40  C   UNL     1     -36.343  76.546 -24.496  1.00  0.00     0.016 A 
ATOM     41  C   UNL     1     -36.081  74.274 -26.116  1.00  0.00     0.158 A 
ATOM     42  C   UNL     1     -35.071  76.066 -24.815  1.00  0.00     0.051 A 
ATOM     43  C   UNL     1     -34.935  74.930 -25.640  1.00  0.00     0.157 A 
BRANCH  41  44
ATOM     44  O   UNL     1     -35.938  73.214 -27.004  1.00  0.00    -0.504 OA
ATOM     45  H   UNL     1     -35.226  72.488 -26.884  1.00  0.00     0.293 HD
ENDBRANCH  41  44
BRANCH  43  46
ATOM     46  O   UNL     1     -33.667  74.443 -25.954  1.00  0.00    -0.504 OA
ATOM     47  H   UNL     1     -32.848  74.805 -25.495  1.00  0.00     0.293 HD
ENDBRANCH  43  46
ENDBRANCH  28  38
BRANCH  34  48
ATOM     48  O   UNL     1     -43.540  77.066 -22.412  1.00  0.00    -0.507 OA
ATOM     49  H   UNL     1     -43.237  77.629 -21.637  1.00  0.00     0.293 HD
ENDBRANCH  34  48
BRANCH  37  50
ATOM     50  O   UNL     1     -44.125  77.125 -27.176  1.00  0.00    -0.508 OA
ATOM     51  H   UNL     1     -44.726  76.372 -27.492  1.00  0.00     0.293 HD
ENDBRANCH  37  50
ENDBRANCH  26  27
ENDBRANCH   5  26
BRANCH   4  52
ATOM     52  O   UNL     1     -40.221  76.295 -19.069  1.00  0.00    -0.384 OA
ATOM     53  H   UNL     1     -40.832  75.651 -18.590  1.00  0.00     0.211 HD
ENDBRANCH   4  52
TORSDOF 16
ENDMDL
