MODEL 1
REMARK VINA RESULT:    -4.645      0.000      0.000
REMARK INTER + INTRA:          -7.174
REMARK INTER:                  -6.545
REMARK INTRA:                  -0.629
REMARK UNBOUND:                -0.629
REMARK SMILES CCCCCCCCC(=O)[O-]
REMARK SMILES IDX 6 1 7 2 8 3 9 4 10 5 11 6 5 7 4 8 3 9 2 10 1 11
REMARK H PARENT
REMARK Flexibility Score: inf
ROOT
ATOM      1  C   UNL     1     -11.082 -18.614  29.444  1.00  0.00     0.000 C 
ENDROOT
BRANCH   1   2
ATOM      2  C   UNL     1     -10.829 -17.208  28.878  1.00  0.00     0.006 C 
BRANCH   2   3
ATOM      3  C   UNL     1     -12.096 -16.587  28.276  1.00  0.00     0.053 C 
BRANCH   3   4
ATOM      4  C   UNL     1     -11.820 -15.930  26.958  1.00  0.00     0.041 C 
ATOM      5  O   UNL     1     -10.641 -15.624  26.635  1.00  0.00    -0.550 OA
ATOM      6  O   UNL     1     -12.869 -15.628  26.099  1.00  0.00    -0.550 OA
ENDBRANCH   3   4
ENDBRANCH   2   3
ENDBRANCH   1   2
BRANCH   1   7
ATOM      7  C   UNL     1      -9.983 -19.010  30.442  1.00  0.00     0.000 C 
BRANCH   7   8
ATOM      8  C   UNL     1      -9.778 -17.960  31.546  1.00  0.00    -0.000 C 
BRANCH   8   9
ATOM      9  C   UNL     1     -10.879 -18.007  32.619  1.00  0.00    -0.000 C 
BRANCH   9  10
ATOM     10  C   UNL     1     -11.592 -16.657  32.791  1.00  0.00    -0.003 C 
ATOM     11  C   UNL     1     -10.832 -15.498  32.144  1.00  0.00     0.004 C 
ENDBRANCH   9  10
ENDBRANCH   8   9
ENDBRANCH   7   8
ENDBRANCH   1   7
TORSDOF 7
ENDMDL
MODEL 2
REMARK VINA RESULT:    -4.640      2.678      4.578
REMARK INTER + INTRA:          -7.168
REMARK INTER:                  -6.546
REMARK INTRA:                  -0.622
REMARK UNBOUND:                -0.629
REMARK SMILES CCCCCCCCC(=O)[O-]
REMARK SMILES IDX 6 1 7 2 8 3 9 4 10 5 11 6 5 7 4 8 3 9 2 10 1 11
REMARK H PARENT
REMARK Flexibility Score: inf
ROOT
ATOM      1  C   UNL     1     -10.557 -18.284  29.688  1.00  0.00     0.000 C 
ENDROOT
BRANCH   1   2
ATOM      2  C   UNL     1     -10.250 -18.790  31.106  1.00  0.00     0.006 C 
BRANCH   2   3
ATOM      3  C   UNL     1      -9.414 -17.786  31.912  1.00  0.00     0.053 C 
BRANCH   3   4
ATOM      4  C   UNL     1     -10.126 -16.479  32.079  1.00  0.00     0.041 C 
ATOM      5  O   UNL     1      -9.614 -15.416  31.639  1.00  0.00    -0.550 OA
ATOM      6  O   UNL     1     -11.342 -16.431  32.749  1.00  0.00    -0.550 OA
ENDBRANCH   3   4
ENDBRANCH   2   3
ENDBRANCH   1   2
BRANCH   1   7
ATOM      7  C   UNL     1     -12.026 -18.543  29.320  1.00  0.00     0.000 C 
BRANCH   7   8
ATOM      8  C   UNL     1     -12.951 -17.380  29.714  1.00  0.00    -0.000 C 
BRANCH   8   9
ATOM      9  C   UNL     1     -12.619 -16.080  28.960  1.00  0.00    -0.000 C 
BRANCH   9  10
ATOM     10  C   UNL     1     -12.555 -16.283  27.438  1.00  0.00    -0.003 C 
ATOM     11  C   UNL     1     -11.226 -15.828  26.835  1.00  0.00     0.004 C 
ENDBRANCH   9  10
ENDBRANCH   8   9
ENDBRANCH   7   8
ENDBRANCH   1   7
TORSDOF 7
ENDMDL
MODEL 3
REMARK VINA RESULT:    -4.611      2.897      4.423
REMARK INTER + INTRA:          -7.127
REMARK INTER:                  -6.467
REMARK INTRA:                  -0.660
REMARK UNBOUND:                -0.629
REMARK SMILES CCCCCCCCC(=O)[O-]
REMARK SMILES IDX 6 1 7 2 8 3 9 4 10 5 11 6 5 7 4 8 3 9 2 10 1 11
REMARK H PARENT
REMARK Flexibility Score: inf
ROOT
ATOM      1  C   UNL     1     -10.362 -18.644  31.464  1.00  0.00     0.000 C 
ENDROOT
BRANCH   1   2
ATOM      2  C   UNL     1      -9.326 -17.680  32.064  1.00  0.00     0.006 C 
BRANCH   2   3
ATOM      3  C   UNL     1      -9.251 -16.355  31.293  1.00  0.00     0.053 C 
BRANCH   3   4
ATOM      4  C   UNL     1      -7.874 -15.767  31.332  1.00  0.00     0.041 C 
ATOM      5  O   UNL     1      -7.058 -16.119  32.225  1.00  0.00    -0.550 OA
ATOM      6  O   UNL     1      -7.502 -14.806  30.400  1.00  0.00    -0.550 OA
ENDBRANCH   3   4
ENDBRANCH   2   3
ENDBRANCH   1   2
BRANCH   1   7
ATOM      7  C   UNL     1     -10.133 -18.825  29.955  1.00  0.00     0.000 C 
BRANCH   7   8
ATOM      8  C   UNL     1     -11.428 -18.694  29.138  1.00  0.00    -0.000 C 
BRANCH   8   9
ATOM      9  C   UNL     1     -11.590 -17.299  28.507  1.00  0.00    -0.000 C 
BRANCH   9  10
ATOM     10  C   UNL     1     -12.508 -16.384  29.334  1.00  0.00    -0.003 C 
ATOM     11  C   UNL     1     -13.483 -17.162  30.217  1.00  0.00     0.004 C 
ENDBRANCH   9  10
ENDBRANCH   8   9
ENDBRANCH   7   8
ENDBRANCH   1   7
TORSDOF 7
ENDMDL
MODEL 4
REMARK VINA RESULT:    -4.609      1.286      1.993
REMARK INTER + INTRA:          -7.124
REMARK INTER:                  -6.466
REMARK INTRA:                  -0.658
REMARK UNBOUND:                -0.629
REMARK SMILES CCCCCCCCC(=O)[O-]
REMARK SMILES IDX 6 1 7 2 8 3 9 4 10 5 11 6 5 7 4 8 3 9 2 10 1 11
REMARK H PARENT
REMARK Flexibility Score: inf
ROOT
ATOM      1  C   UNL     1     -13.442 -17.118  29.719  1.00  0.00     0.000 C 
ENDROOT
BRANCH   1   2
ATOM      2  C   UNL     1     -12.308 -16.140  29.372  1.00  0.00     0.006 C 
BRANCH   2   3
ATOM      3  C   UNL     1     -11.367 -16.700  28.297  1.00  0.00     0.053 C 
BRANCH   3   4
ATOM      4  C   UNL     1     -11.518 -15.975  26.995  1.00  0.00     0.041 C 
ATOM      5  O   UNL     1     -10.517 -15.450  26.440  1.00  0.00    -0.550 OA
ATOM      6  O   UNL     1     -12.773 -15.852  26.410  1.00  0.00    -0.550 OA
ENDBRANCH   3   4
ENDBRANCH   2   3
ENDBRANCH   1   2
BRANCH   1   7
ATOM      7  C   UNL     1     -12.891 -18.373  30.411  1.00  0.00     0.000 C 
BRANCH   7   8
ATOM      8  C   UNL     1     -12.174 -18.057  31.733  1.00  0.00    -0.000 C 
BRANCH   8   9
ATOM      9  C   UNL     1     -10.941 -18.947  31.965  1.00  0.00    -0.000 C 
BRANCH   9  10
ATOM     10  C   UNL     1      -9.704 -18.450  31.200  1.00  0.00    -0.003 C 
ATOM     11  C   UNL     1      -9.078 -17.206  31.828  1.00  0.00     0.004 C 
ENDBRANCH   9  10
ENDBRANCH   8   9
ENDBRANCH   7   8
ENDBRANCH   1   7
TORSDOF 7
ENDMDL
MODEL 5
REMARK VINA RESULT:    -4.603      3.151      5.006
REMARK INTER + INTRA:          -7.115
REMARK INTER:                  -6.416
REMARK INTRA:                  -0.700
REMARK UNBOUND:                -0.629
REMARK SMILES CCCCCCCCC(=O)[O-]
REMARK SMILES IDX 6 1 7 2 8 3 9 4 10 5 11 6 5 7 4 8 3 9 2 10 1 11
REMARK H PARENT
REMARK Flexibility Score: inf
ROOT
ATOM      1  C   UNL     1     -10.760 -18.614  29.673  1.00  0.00     0.000 C 
ENDROOT
BRANCH   1   2
ATOM      2  C   UNL     1     -10.113 -17.408  30.370  1.00  0.00     0.006 C 
BRANCH   2   3
ATOM      3  C   UNL     1      -9.741 -17.709  31.828  1.00  0.00     0.053 C 
BRANCH   3   4
ATOM      4  C   UNL     1     -10.956 -17.878  32.688  1.00  0.00     0.041 C 
ATOM      5  O   UNL     1     -11.613 -16.871  33.064  1.00  0.00    -0.550 OA
ATOM      6  O   UNL     1     -11.346 -19.146  33.100  1.00  0.00    -0.550 OA
ENDBRANCH   3   4
ENDBRANCH   2   3
ENDBRANCH   1   2
BRANCH   1   7
ATOM      7  C   UNL     1     -12.195 -18.287  29.232  1.00  0.00     0.000 C 
BRANCH   7   8
ATOM      8  C   UNL     1     -12.586 -16.828  29.516  1.00  0.00    -0.000 C 
BRANCH   8   9
ATOM      9  C   UNL     1     -13.071 -16.090  28.256  1.00  0.00    -0.000 C 
BRANCH   9  10
ATOM     10  C   UNL     1     -12.228 -16.427  27.016  1.00  0.00    -0.003 C 
ATOM     11  C   UNL     1     -10.917 -15.643  26.959  1.00  0.00     0.004 C 
ENDBRANCH   9  10
ENDBRANCH   8   9
ENDBRANCH   7   8
ENDBRANCH   1   7
TORSDOF 7
ENDMDL
MODEL 6
REMARK VINA RESULT:    -4.583      2.831      4.338
REMARK INTER + INTRA:          -7.088
REMARK INTER:                  -6.401
REMARK INTRA:                  -0.687
REMARK UNBOUND:                -0.629
REMARK SMILES CCCCCCCCC(=O)[O-]
REMARK SMILES IDX 6 1 7 2 8 3 9 4 10 5 11 6 5 7 4 8 3 9 2 10 1 11
REMARK H PARENT
REMARK Flexibility Score: inf
ROOT
ATOM      1  C   UNL     1     -10.119 -18.928  30.752  1.00  0.00     0.000 C 
ENDROOT
BRANCH   1   2
ATOM      2  C   UNL     1      -9.459 -17.892  31.675  1.00  0.00     0.006 C 
BRANCH   2   3
ATOM      3  C   UNL     1      -9.698 -16.453  31.199  1.00  0.00     0.053 C 
BRANCH   3   4
ATOM      4  C   UNL     1     -10.591 -15.700  32.138  1.00  0.00     0.041 C 
ATOM      5  O   UNL     1     -11.399 -16.318  32.880  1.00  0.00    -0.550 OA
ATOM      6  O   UNL     1     -10.551 -14.311  32.169  1.00  0.00    -0.550 OA
ENDBRANCH   3   4
ENDBRANCH   2   3
ENDBRANCH   1   2
BRANCH   1   7
ATOM      7  C   UNL     1     -10.880 -18.238  29.610  1.00  0.00     0.000 C 
BRANCH   7   8
ATOM      8  C   UNL     1     -12.382 -18.566  29.613  1.00  0.00    -0.000 C 
BRANCH   8   9
ATOM      9  C   UNL     1     -13.255 -17.338  29.927  1.00  0.00    -0.000 C 
BRANCH   9  10
ATOM     10  C   UNL     1     -12.804 -16.085  29.160  1.00  0.00    -0.003 C 
ATOM     11  C   UNL     1     -13.332 -16.045  27.726  1.00  0.00     0.004 C 
ENDBRANCH   9  10
ENDBRANCH   8   9
ENDBRANCH   7   8
ENDBRANCH   1   7
TORSDOF 7
ENDMDL
MODEL 7
REMARK VINA RESULT:    -4.582      2.768      4.830
REMARK INTER + INTRA:          -7.086
REMARK INTER:                  -6.662
REMARK INTRA:                  -0.424
REMARK UNBOUND:                -0.629
REMARK SMILES CCCCCCCCC(=O)[O-]
REMARK SMILES IDX 6 1 7 2 8 3 9 4 10 5 11 6 5 7 4 8 3 9 2 10 1 11
REMARK H PARENT
REMARK Flexibility Score: inf
ROOT
ATOM      1  C   UNL     1     -12.946 -17.951  30.939  1.00  0.00     0.000 C 
ENDROOT
BRANCH   1   2
ATOM      2  C   UNL     1     -12.123 -17.046  31.870  1.00  0.00     0.006 C 
BRANCH   2   3
ATOM      3  C   UNL     1     -10.919 -17.779  32.476  1.00  0.00     0.053 C 
BRANCH   3   4
ATOM      4  C   UNL     1      -9.833 -17.993  31.465  1.00  0.00     0.041 C 
ATOM      5  O   UNL     1      -8.910 -17.146  31.335  1.00  0.00    -0.550 OA
ATOM      6  O   UNL     1      -9.858 -19.114  30.645  1.00  0.00    -0.550 OA
ENDBRANCH   3   4
ENDBRANCH   2   3
ENDBRANCH   1   2
BRANCH   1   7
ATOM      7  C   UNL     1     -13.339 -17.204  29.656  1.00  0.00     0.000 C 
BRANCH   7   8
ATOM      8  C   UNL     1     -12.308 -16.138  29.250  1.00  0.00    -0.000 C 
BRANCH   8   9
ATOM      9  C   UNL     1     -11.332 -16.641  28.171  1.00  0.00    -0.000 C 
BRANCH   9  10
ATOM     10  C   UNL     1     -11.471 -15.871  26.848  1.00  0.00    -0.003 C 
ATOM     11  C   UNL     1     -10.160 -15.229  26.394  1.00  0.00     0.004 C 
ENDBRANCH   9  10
ENDBRANCH   8   9
ENDBRANCH   7   8
ENDBRANCH   1   7
TORSDOF 7
ENDMDL
MODEL 8
REMARK VINA RESULT:    -4.471      1.626      2.270
REMARK INTER + INTRA:          -6.930
REMARK INTER:                  -6.198
REMARK INTRA:                  -0.732
REMARK UNBOUND:                -0.629
REMARK SMILES CCCCCCCCC(=O)[O-]
REMARK SMILES IDX 6 1 7 2 8 3 9 4 10 5 11 6 5 7 4 8 3 9 2 10 1 11
REMARK H PARENT
REMARK Flexibility Score: inf
ROOT
ATOM      1  C   UNL     1     -12.811 -17.242  31.434  1.00  0.00     0.000 C 
ENDROOT
BRANCH   1   2
ATOM      2  C   UNL     1     -13.319 -16.967  30.010  1.00  0.00     0.006 C 
BRANCH   2   3
ATOM      3  C   UNL     1     -12.384 -16.034  29.229  1.00  0.00     0.053 C 
BRANCH   3   4
ATOM      4  C   UNL     1     -11.728 -16.740  28.081  1.00  0.00     0.041 C 
ATOM      5  O   UNL     1     -11.601 -17.993  28.095  1.00  0.00    -0.550 OA
ATOM      6  O   UNL     1     -11.229 -16.009  27.010  1.00  0.00    -0.550 OA
ENDBRANCH   3   4
ENDBRANCH   2   3
ENDBRANCH   1   2
BRANCH   1   7
ATOM      7  C   UNL     1     -12.261 -18.672  31.552  1.00  0.00     0.000 C 
BRANCH   7   8
ATOM      8  C   UNL     1     -10.912 -18.731  32.286  1.00  0.00    -0.000 C 
BRANCH   8   9
ATOM      9  C   UNL     1      -9.723 -18.409  31.364  1.00  0.00    -0.000 C 
BRANCH   9  10
ATOM     10  C   UNL     1      -8.874 -17.239  31.887  1.00  0.00    -0.003 C 
ATOM     11  C   UNL     1      -9.122 -15.938  31.124  1.00  0.00     0.004 C 
ENDBRANCH   9  10
ENDBRANCH   8   9
ENDBRANCH   7   8
ENDBRANCH   1   7
TORSDOF 7
ENDMDL
MODEL 9
REMARK VINA RESULT:    -4.337      1.971      3.102
REMARK INTER + INTRA:          -6.741
REMARK INTER:                  -6.269
REMARK INTRA:                  -0.472
REMARK UNBOUND:                -0.629
REMARK SMILES CCCCCCCCC(=O)[O-]
REMARK SMILES IDX 6 1 7 2 8 3 9 4 10 5 11 6 5 7 4 8 3 9 2 10 1 11
REMARK H PARENT
REMARK Flexibility Score: inf
ROOT
ATOM      1  C   UNL     1     -12.113 -16.517  27.840  1.00  0.00     0.000 C 
ENDROOT
BRANCH   1   2
ATOM      2  C   UNL     1     -10.680 -16.024  27.587  1.00  0.00     0.006 C 
BRANCH   2   3
ATOM      3  C   UNL     1     -10.553 -15.263  26.261  1.00  0.00     0.053 C 
BRANCH   3   4
ATOM      4  C   UNL     1      -9.191 -14.662  26.094  1.00  0.00     0.041 C 
ATOM      5  O   UNL     1      -8.172 -15.272  26.511  1.00  0.00    -0.550 OA
ATOM      6  O   UNL     1      -9.051 -13.411  25.504  1.00  0.00    -0.550 OA
ENDBRANCH   3   4
ENDBRANCH   2   3
ENDBRANCH   1   2
BRANCH   1   7
ATOM      7  C   UNL     1     -12.622 -16.041  29.209  1.00  0.00     0.000 C 
BRANCH   7   8
ATOM      8  C   UNL     1     -12.340 -17.052  30.332  1.00  0.00    -0.000 C 
BRANCH   8   9
ATOM      9  C   UNL     1     -11.168 -16.622  31.233  1.00  0.00    -0.000 C 
BRANCH   9  10
ATOM     10  C   UNL     1      -9.876 -17.395  30.925  1.00  0.00    -0.003 C 
ATOM     11  C   UNL     1     -10.116 -18.887  30.698  1.00  0.00     0.004 C 
ENDBRANCH   9  10
ENDBRANCH   8   9
ENDBRANCH   7   8
ENDBRANCH   1   7
TORSDOF 7
ENDMDL
