MODEL 1
REMARK VINA RESULT:    -9.030      0.000      0.000
REMARK INTER + INTRA:         -15.634
REMARK INTER:                 -14.310
REMARK INTRA:                  -1.325
REMARK UNBOUND:                -1.325
REMARK SMILES C[C@@H]1O[C@@H](O[C@@H]2[C@@H](Oc3cc(O)c4c(c3)O[C@@H](c3ccc(O)cc3)CC4=O)O[C@@H](CO)[C@@H](O)[C@@H]2O)[C@H](O)[C@H](O)[C@H]1O
REMARK SMILES IDX 6 1 34 2 32 3 29 4 28 5 7 6 5 7 4 8 1 9 2 10 40 11 3 12
REMARK SMILES IDX 38 13 36 14 41 15 39 17 37 19 35 21 8 23 9 24 10 25 15 26
REMARK SMILES IDX 11 27 14 28 13 29 16 30 26 31 17 32 27 33 25 34 12 35 18 37
REMARK SMILES IDX 19 38 24 39 20 40 23 41 21 42 22 43 33 45 30 47 31 48
REMARK H PARENT 41 16 39 18 37 20 35 22 12 36 22 44 33 46 31 49
REMARK Flexibility Score: inf
ROOT
ATOM      1  C   UNL     1     170.281 144.331 155.951  1.00  0.00     0.221 C 
ATOM      2  C   UNL     1     168.938 144.214 156.684  1.00  0.00     0.181 C 
ATOM      3  C   UNL     1     168.291 145.598 156.754  1.00  0.00     0.177 C 
ATOM      4  C   UNL     1     168.152 146.206 155.330  1.00  0.00     0.179 C 
ATOM      5  O   UNL     1     169.382 146.205 154.599  1.00  0.00    -0.332 OA
ATOM      6  C   UNL     1     170.053 144.945 154.558  1.00  0.00     0.339 C 
ENDROOT
BRANCH   1   7
ATOM      7  O   UNL     1     171.164 145.175 156.685  1.00  0.00    -0.337 OA
BRANCH   7   8
ATOM      8  C   UNL     1     172.301 144.474 157.168  1.00  0.00     0.282 C 
ATOM      9  C   UNL     1     173.250 146.717 159.933  1.00  0.00     0.041 C 
ATOM     10  C   UNL     1     173.006 146.303 158.480  1.00  0.00     0.150 C 
ATOM     11  C   UNL     1     174.263 146.569 157.618  1.00  0.00     0.174 C 
ATOM     12  O   UNL     1     172.658 144.922 158.469  1.00  0.00    -0.344 OA
ATOM     13  C   UNL     1     174.028 146.068 156.179  1.00  0.00     0.179 C 
ATOM     14  C   UNL     1     173.477 144.627 156.178  1.00  0.00     0.202 C 
BRANCH  11  15
ATOM     15  O   UNL     1     174.601 147.939 157.612  1.00  0.00    -0.388 OA
ATOM     16  H   UNL     1     175.497 148.031 157.195  1.00  0.00     0.211 HD
ENDBRANCH  11  15
BRANCH  13  17
ATOM     17  O   UNL     1     175.222 146.111 155.444  1.00  0.00    -0.387 OA
ATOM     18  H   UNL     1     175.086 145.551 154.638  1.00  0.00     0.211 HD
ENDBRANCH  13  17
BRANCH  14  19
ATOM     19  O   UNL     1     174.492 143.685 156.453  1.00  0.00    -0.385 OA
ATOM     20  H   UNL     1     174.074 142.786 156.500  1.00  0.00     0.211 HD
ENDBRANCH  14  19
ENDBRANCH   7   8
ENDBRANCH   1   7
BRANCH   2  21
ATOM     21  O   UNL     1     169.126 143.706 157.981  1.00  0.00    -0.387 OA
ATOM     22  H   UNL     1     168.238 143.405 158.308  1.00  0.00     0.211 HD
ENDBRANCH   2  21
BRANCH   6  23
ATOM     23  O   UNL     1     169.359 144.023 153.714  1.00  0.00    -0.462 OA
BRANCH  23  24
ATOM     24  C   UNL     1     169.367 144.042 152.311  1.00  0.00     0.130 A 
ATOM     25  C   UNL     1     169.050 142.915 151.538  1.00  0.00     0.093 A 
ATOM     26  C   UNL     1     169.675 145.244 151.670  1.00  0.00     0.094 A 
ATOM     27  C   UNL     1     169.035 142.982 150.140  1.00  0.00     0.133 A 
ATOM     28  C   UNL     1     169.704 145.324 150.278  1.00  0.00     0.138 A 
ATOM     29  C   UNL     1     169.402 144.193 149.487  1.00  0.00     0.102 A 
ATOM     30  O   UNL     1     170.051 146.543 149.680  1.00  0.00    -0.484 OA
ATOM     31  C   UNL     1     169.567 144.344 148.013  1.00  0.00     0.174 C 
ATOM     32  C   UNL     1     169.828 146.802 148.297  1.00  0.00     0.211 C 
ATOM     33  O   UNL     1     169.230 143.442 147.209  1.00  0.00    -0.294 OA
ATOM     34  C   UNL     1     170.221 145.580 147.460  1.00  0.00     0.131 C 
BRANCH  27  35
ATOM     35  O   UNL     1     168.639 141.824 149.463  1.00  0.00    -0.507 OA
ATOM     36  H   UNL     1     169.267 141.158 149.046  1.00  0.00     0.293 HD
ENDBRANCH  27  35
BRANCH  32  37
ATOM     37  C   UNL     1     170.609 148.018 147.863  1.00  0.00    -0.007 A 
ATOM     38  C   UNL     1     171.202 148.863 148.818  1.00  0.00     0.011 A 
ATOM     39  C   UNL     1     170.799 148.290 146.498  1.00  0.00     0.011 A 
ATOM     40  C   UNL     1     171.953 149.970 148.413  1.00  0.00     0.046 A 
ATOM     41  C   UNL     1     171.556 149.395 146.095  1.00  0.00     0.046 A 
ATOM     42  C   UNL     1     172.133 150.239 147.049  1.00  0.00     0.115 A 
BRANCH  42  43
ATOM     43  O   UNL     1     172.882 151.338 146.633  1.00  0.00    -0.508 OA
ATOM     44  H   UNL     1     173.468 151.296 145.806  1.00  0.00     0.293 HD
ENDBRANCH  42  43
ENDBRANCH  32  37
ENDBRANCH  23  24
ENDBRANCH   6  23
BRANCH   3  45
ATOM     45  O   UNL     1     167.041 145.506 157.397  1.00  0.00    -0.387 OA
ATOM     46  H   UNL     1     166.696 146.438 157.471  1.00  0.00     0.211 HD
ENDBRANCH   3  45
BRANCH   4  47
ATOM     47  C   UNL     1     166.971 145.627 154.516  1.00  0.00     0.191 C 
BRANCH  47  48
ATOM     48  O   UNL     1     166.726 144.292 154.875  1.00  0.00    -0.394 OA
ATOM     49  H   UNL     1     166.115 143.917 154.188  1.00  0.00     0.210 HD
ENDBRANCH  47  48
ENDBRANCH   4  47
TORSDOF 14
ENDMDL
MODEL 2
REMARK VINA RESULT:    -8.334      3.287      5.815
REMARK INTER + INTRA:         -14.530
REMARK INTER:                 -13.113
REMARK INTRA:                  -1.418
REMARK UNBOUND:                -1.325
REMARK SMILES C[C@@H]1O[C@@H](O[C@@H]2[C@@H](Oc3cc(O)c4c(c3)O[C@@H](c3ccc(O)cc3)CC4=O)O[C@@H](CO)[C@@H](O)[C@@H]2O)[C@H](O)[C@H](O)[C@H]1O
REMARK SMILES IDX 6 1 34 2 32 3 29 4 28 5 7 6 5 7 4 8 1 9 2 10 40 11 3 12
REMARK SMILES IDX 38 13 36 14 41 15 39 17 37 19 35 21 8 23 9 24 10 25 15 26
REMARK SMILES IDX 11 27 14 28 13 29 16 30 26 31 17 32 27 33 25 34 12 35 18 37
REMARK SMILES IDX 19 38 24 39 20 40 23 41 21 42 22 43 33 45 30 47 31 48
REMARK H PARENT 41 16 39 18 37 20 35 22 12 36 22 44 33 46 31 49
REMARK Flexibility Score: inf
ROOT
ATOM      1  C   UNL     1     169.758 144.209 151.892  1.00  0.00     0.221 C 
ATOM      2  C   UNL     1     170.901 143.195 152.028  1.00  0.00     0.181 C 
ATOM      3  C   UNL     1     170.310 141.828 152.379  1.00  0.00     0.177 C 
ATOM      4  C   UNL     1     169.251 141.407 151.322  1.00  0.00     0.179 C 
ATOM      5  O   UNL     1     168.249 142.406 151.106  1.00  0.00    -0.332 OA
ATOM      6  C   UNL     1     168.757 143.714 150.835  1.00  0.00     0.339 C 
ENDROOT
BRANCH   1   7
ATOM      7  O   UNL     1     169.079 144.348 153.138  1.00  0.00    -0.337 OA
BRANCH   7   8
ATOM      8  C   UNL     1     169.752 145.233 154.022  1.00  0.00     0.282 C 
ATOM      9  C   UNL     1     170.010 143.042 156.973  1.00  0.00     0.041 C 
ATOM     10  C   UNL     1     169.308 143.872 155.896  1.00  0.00     0.150 C 
ATOM     11  C   UNL     1     168.342 144.896 156.540  1.00  0.00     0.174 C 
ATOM     12  O   UNL     1     170.308 144.526 155.122  1.00  0.00    -0.344 OA
ATOM     13  C   UNL     1     167.709 145.778 155.446  1.00  0.00     0.179 C 
ATOM     14  C   UNL     1     168.787 146.342 154.496  1.00  0.00     0.202 C 
BRANCH  11  15
ATOM     15  O   UNL     1     167.338 144.252 157.293  1.00  0.00    -0.388 OA
ATOM     16  H   UNL     1     167.240 143.328 156.945  1.00  0.00     0.211 HD
ENDBRANCH  11  15
BRANCH  13  17
ATOM     17  O   UNL     1     166.997 146.840 156.024  1.00  0.00    -0.387 OA
ATOM     18  H   UNL     1     166.984 147.576 155.360  1.00  0.00     0.211 HD
ENDBRANCH  13  17
BRANCH  14  19
ATOM     19  O   UNL     1     169.496 147.406 155.093  1.00  0.00    -0.385 OA
ATOM     20  H   UNL     1     169.395 148.207 154.514  1.00  0.00     0.211 HD
ENDBRANCH  14  19
ENDBRANCH   7   8
ENDBRANCH   1   7
BRANCH   2  21
ATOM     21  O   UNL     1     171.803 143.597 153.029  1.00  0.00    -0.387 OA
ATOM     22  H   UNL     1     171.791 142.896 153.732  1.00  0.00     0.211 HD
ENDBRANCH   2  21
BRANCH   6  23
ATOM     23  O   UNL     1     169.336 143.777 149.529  1.00  0.00    -0.462 OA
BRANCH  23  24
ATOM     24  C   UNL     1     169.516 144.947 148.776  1.00  0.00     0.130 A 
ATOM     25  C   UNL     1     170.764 145.330 148.261  1.00  0.00     0.093 A 
ATOM     26  C   UNL     1     168.396 145.739 148.511  1.00  0.00     0.094 A 
ATOM     27  C   UNL     1     170.898 146.487 147.484  1.00  0.00     0.133 A 
ATOM     28  C   UNL     1     168.513 146.916 147.773  1.00  0.00     0.138 A 
ATOM     29  C   UNL     1     169.766 147.322 147.261  1.00  0.00     0.102 A 
ATOM     30  O   UNL     1     167.367 147.695 147.561  1.00  0.00    -0.484 OA
ATOM     31  C   UNL     1     169.813 148.648 146.580  1.00  0.00     0.174 C 
ATOM     32  C   UNL     1     167.327 148.739 146.592  1.00  0.00     0.211 C 
ATOM     33  O   UNL     1     170.844 149.061 145.999  1.00  0.00    -0.294 OA
ATOM     34  C   UNL     1     168.619 149.560 146.644  1.00  0.00     0.131 C 
BRANCH  27  35
ATOM     35  O   UNL     1     172.167 146.744 146.960  1.00  0.00    -0.507 OA
ATOM     36  H   UNL     1     172.366 146.909 145.987  1.00  0.00     0.293 HD
ENDBRANCH  27  35
BRANCH  32  37
ATOM     37  C   UNL     1     166.126 149.621 146.828  1.00  0.00    -0.007 A 
ATOM     38  C   UNL     1     165.158 149.267 147.786  1.00  0.00     0.011 A 
ATOM     39  C   UNL     1     165.988 150.834 146.134  1.00  0.00     0.011 A 
ATOM     40  C   UNL     1     164.063 150.102 148.027  1.00  0.00     0.046 A 
ATOM     41  C   UNL     1     164.895 151.671 146.381  1.00  0.00     0.046 A 
ATOM     42  C   UNL     1     163.929 151.308 147.325  1.00  0.00     0.115 A 
BRANCH  42  43
ATOM     43  O   UNL     1     162.844 152.151 147.559  1.00  0.00    -0.508 OA
ATOM     44  H   UNL     1     162.912 152.937 148.197  1.00  0.00     0.293 HD
ENDBRANCH  42  43
ENDBRANCH  32  37
ENDBRANCH  23  24
ENDBRANCH   6  23
BRANCH   3  45
ATOM     45  O   UNL     1     171.343 140.875 152.477  1.00  0.00    -0.387 OA
ATOM     46  H   UNL     1     171.039 140.079 151.960  1.00  0.00     0.211 HD
ENDBRANCH   3  45
BRANCH   4  47
ATOM     47  C   UNL     1     169.860 140.875 150.004  1.00  0.00     0.191 C 
BRANCH  47  48
ATOM     48  O   UNL     1     168.903 140.877 148.976  1.00  0.00    -0.394 OA
ATOM     49  H   UNL     1     168.517 141.791 148.945  1.00  0.00     0.210 HD
ENDBRANCH  47  48
ENDBRANCH   4  47
TORSDOF 14
ENDMDL
MODEL 3
REMARK VINA RESULT:    -8.331      4.536      8.516
REMARK INTER + INTRA:         -14.526
REMARK INTER:                 -12.904
REMARK INTRA:                  -1.622
REMARK UNBOUND:                -1.325
REMARK SMILES C[C@@H]1O[C@@H](O[C@@H]2[C@@H](Oc3cc(O)c4c(c3)O[C@@H](c3ccc(O)cc3)CC4=O)O[C@@H](CO)[C@@H](O)[C@@H]2O)[C@H](O)[C@H](O)[C@H]1O
REMARK SMILES IDX 6 1 34 2 32 3 29 4 28 5 7 6 5 7 4 8 1 9 2 10 40 11 3 12
REMARK SMILES IDX 38 13 36 14 41 15 39 17 37 19 35 21 8 23 9 24 10 25 15 26
REMARK SMILES IDX 11 27 14 28 13 29 16 30 26 31 17 32 27 33 25 34 12 35 18 37
REMARK SMILES IDX 19 38 24 39 20 40 23 41 21 42 22 43 33 45 30 47 31 48
REMARK H PARENT 41 16 39 18 37 20 35 22 12 36 22 44 33 46 31 49
REMARK Flexibility Score: inf
ROOT
ATOM      1  C   UNL     1     168.835 144.648 147.497  1.00  0.00     0.221 C 
ATOM      2  C   UNL     1     167.979 143.998 146.402  1.00  0.00     0.181 C 
ATOM      3  C   UNL     1     166.528 143.936 146.881  1.00  0.00     0.177 C 
ATOM      4  C   UNL     1     166.026 145.352 147.280  1.00  0.00     0.179 C 
ATOM      5  O   UNL     1     166.890 146.008 148.213  1.00  0.00    -0.332 OA
ATOM      6  C   UNL     1     168.267 146.037 147.835  1.00  0.00     0.339 C 
ENDROOT
BRANCH   1   7
ATOM      7  O   UNL     1     168.811 143.844 148.674  1.00  0.00    -0.337 OA
BRANCH   7   8
ATOM      8  C   UNL     1     169.816 144.221 149.603  1.00  0.00     0.282 C 
ATOM      9  C   UNL     1     171.068 140.876 150.510  1.00  0.00     0.041 C 
ATOM     10  C   UNL     1     170.053 142.016 150.407  1.00  0.00     0.150 C 
ATOM     11  C   UNL     1     169.463 142.350 151.798  1.00  0.00     0.174 C 
ATOM     12  O   UNL     1     170.713 143.145 149.844  1.00  0.00    -0.344 OA
ATOM     13  C   UNL     1     168.507 143.554 151.687  1.00  0.00     0.179 C 
ATOM     14  C   UNL     1     169.167 144.716 150.915  1.00  0.00     0.202 C 
BRANCH  11  15
ATOM     15  O   UNL     1     168.792 141.240 152.351  1.00  0.00    -0.388 OA
ATOM     16  H   UNL     1     169.408 140.462 152.320  1.00  0.00     0.211 HD
ENDBRANCH  11  15
BRANCH  13  17
ATOM     17  O   UNL     1     168.128 143.998 152.963  1.00  0.00    -0.387 OA
ATOM     18  H   UNL     1     167.499 143.325 153.329  1.00  0.00     0.211 HD
ENDBRANCH  13  17
BRANCH  14  19
ATOM     19  O   UNL     1     170.106 145.400 151.715  1.00  0.00    -0.385 OA
ATOM     20  H   UNL     1     170.968 144.910 151.667  1.00  0.00     0.211 HD
ENDBRANCH  14  19
ENDBRANCH   7   8
ENDBRANCH   1   7
BRANCH   2  21
ATOM     21  O   UNL     1     168.444 142.703 146.113  1.00  0.00    -0.387 OA
ATOM     22  H   UNL     1     168.124 142.109 146.842  1.00  0.00     0.211 HD
ENDBRANCH   2  21
BRANCH   6  23
ATOM     23  O   UNL     1     168.481 146.942 146.748  1.00  0.00    -0.462 OA
BRANCH  23  24
ATOM     24  C   UNL     1     168.913 148.271 146.869  1.00  0.00     0.130 A 
ATOM     25  C   UNL     1     170.181 148.695 146.446  1.00  0.00     0.093 A 
ATOM     26  C   UNL     1     168.025 149.205 147.409  1.00  0.00     0.094 A 
ATOM     27  C   UNL     1     170.563 150.038 146.552  1.00  0.00     0.133 A 
ATOM     28  C   UNL     1     168.398 150.540 147.560  1.00  0.00     0.138 A 
ATOM     29  C   UNL     1     169.678 150.979 147.152  1.00  0.00     0.102 A 
ATOM     30  O   UNL     1     167.486 151.434 148.136  1.00  0.00    -0.484 OA
ATOM     31  C   UNL     1     170.028 152.397 147.455  1.00  0.00     0.174 C 
ATOM     32  C   UNL     1     167.659 152.847 148.066  1.00  0.00     0.211 C 
ATOM     33  O   UNL     1     171.092 152.921 147.047  1.00  0.00    -0.294 OA
ATOM     34  C   UNL     1     169.122 153.215 148.332  1.00  0.00     0.131 C 
BRANCH  27  35
ATOM     35  O   UNL     1     171.820 150.372 146.038  1.00  0.00    -0.507 OA
ATOM     36  H   UNL     1     172.565 150.792 146.567  1.00  0.00     0.293 HD
ENDBRANCH  27  35
BRANCH  32  37
ATOM     37  C   UNL     1     166.749 153.531 149.056  1.00  0.00    -0.007 A 
ATOM     38  C   UNL     1     165.640 152.854 149.593  1.00  0.00     0.011 A 
ATOM     39  C   UNL     1     167.031 154.835 149.496  1.00  0.00     0.011 A 
ATOM     40  C   UNL     1     164.817 153.478 150.535  1.00  0.00     0.046 A 
ATOM     41  C   UNL     1     166.210 155.456 150.443  1.00  0.00     0.046 A 
ATOM     42  C   UNL     1     165.101 154.782 150.964  1.00  0.00     0.115 A 
BRANCH  42  43
ATOM     43  O   UNL     1     164.291 155.414 151.905  1.00  0.00    -0.508 OA
ATOM     44  H   UNL     1     164.609 156.234 152.412  1.00  0.00     0.293 HD
ENDBRANCH  42  43
ENDBRANCH  32  37
ENDBRANCH  23  24
ENDBRANCH   6  23
BRANCH   3  45
ATOM     45  O   UNL     1     165.719 143.371 145.875  1.00  0.00    -0.387 OA
ATOM     46  H   UNL     1     165.964 142.406 145.829  1.00  0.00     0.211 HD
ENDBRANCH   3  45
BRANCH   4  47
ATOM     47  C   UNL     1     165.655 146.247 146.074  1.00  0.00     0.191 C 
BRANCH  47  48
ATOM     48  O   UNL     1     165.186 147.498 146.508  1.00  0.00    -0.394 OA
ATOM     49  H   UNL     1     164.218 147.390 146.703  1.00  0.00     0.210 HD
ENDBRANCH  47  48
ENDBRANCH   4  47
TORSDOF 14
ENDMDL
MODEL 4
REMARK VINA RESULT:    -8.237      1.169      1.973
REMARK INTER + INTRA:         -14.378
REMARK INTER:                 -13.525
REMARK INTRA:                  -0.852
REMARK UNBOUND:                -1.325
REMARK SMILES C[C@@H]1O[C@@H](O[C@@H]2[C@@H](Oc3cc(O)c4c(c3)O[C@@H](c3ccc(O)cc3)CC4=O)O[C@@H](CO)[C@@H](O)[C@@H]2O)[C@H](O)[C@H](O)[C@H]1O
REMARK SMILES IDX 6 1 34 2 32 3 29 4 28 5 7 6 5 7 4 8 1 9 2 10 40 11 3 12
REMARK SMILES IDX 38 13 36 14 41 15 39 17 37 19 35 21 8 23 9 24 10 25 15 26
REMARK SMILES IDX 11 27 14 28 13 29 16 30 26 31 17 32 27 33 25 34 12 35 18 37
REMARK SMILES IDX 19 38 24 39 20 40 23 41 21 42 22 43 33 45 30 47 31 48
REMARK H PARENT 41 16 39 18 37 20 35 22 12 36 22 44 33 46 31 49
REMARK Flexibility Score: inf
ROOT
ATOM      1  C   UNL     1     170.570 143.236 155.332  1.00  0.00     0.221 C 
ATOM      2  C   UNL     1     169.355 143.217 156.269  1.00  0.00     0.181 C 
ATOM      3  C   UNL     1     169.074 144.644 156.743  1.00  0.00     0.177 C 
ATOM      4  C   UNL     1     168.885 145.594 155.528  1.00  0.00     0.179 C 
ATOM      5  O   UNL     1     169.964 145.523 154.590  1.00  0.00    -0.332 OA
ATOM      6  C   UNL     1     170.301 144.202 154.165  1.00  0.00     0.339 C 
ENDROOT
BRANCH   1   7
ATOM      7  O   UNL     1     171.724 143.682 156.040  1.00  0.00    -0.337 OA
BRANCH   7   8
ATOM      8  C   UNL     1     172.447 144.670 155.322  1.00  0.00     0.282 C 
ATOM      9  C   UNL     1     175.393 142.673 154.370  1.00  0.00     0.041 C 
ATOM     10  C   UNL     1     174.420 143.378 155.317  1.00  0.00     0.150 C 
ATOM     11  C   UNL     1     175.178 144.344 156.259  1.00  0.00     0.174 C 
ATOM     12  O   UNL     1     173.464 144.076 154.526  1.00  0.00    -0.344 OA
ATOM     13  C   UNL     1     174.174 145.106 157.146  1.00  0.00     0.179 C 
ATOM     14  C   UNL     1     173.035 145.712 156.299  1.00  0.00     0.202 C 
BRANCH  11  15
ATOM     15  O   UNL     1     176.113 143.654 157.058  1.00  0.00    -0.388 OA
ATOM     16  H   UNL     1     176.723 144.324 157.464  1.00  0.00     0.211 HD
ENDBRANCH  11  15
BRANCH  13  17
ATOM     17  O   UNL     1     174.823 146.129 157.854  1.00  0.00    -0.387 OA
ATOM     18  H   UNL     1     174.283 146.952 157.734  1.00  0.00     0.211 HD
ENDBRANCH  13  17
BRANCH  14  19
ATOM     19  O   UNL     1     173.463 146.866 155.609  1.00  0.00    -0.385 OA
ATOM     20  H   UNL     1     174.255 146.623 155.062  1.00  0.00     0.211 HD
ENDBRANCH  14  19
ENDBRANCH   7   8
ENDBRANCH   1   7
BRANCH   2  21
ATOM     21  O   UNL     1     169.596 142.383 157.375  1.00  0.00    -0.387 OA
ATOM     22  H   UNL     1     170.157 142.898 158.012  1.00  0.00     0.211 HD
ENDBRANCH   2  21
BRANCH   6  23
ATOM     23  O   UNL     1     169.296 143.671 153.298  1.00  0.00    -0.462 OA
BRANCH  23  24
ATOM     24  C   UNL     1     169.292 143.773 151.898  1.00  0.00     0.130 A 
ATOM     25  C   UNL     1     168.957 142.697 151.063  1.00  0.00     0.093 A 
ATOM     26  C   UNL     1     169.607 145.009 151.328  1.00  0.00     0.094 A 
ATOM     27  C   UNL     1     168.932 142.847 149.672  1.00  0.00     0.133 A 
ATOM     28  C   UNL     1     169.626 145.171 149.943  1.00  0.00     0.138 A 
ATOM     29  C   UNL     1     169.306 144.092 149.088  1.00  0.00     0.102 A 
ATOM     30  O   UNL     1     169.980 146.420 149.415  1.00  0.00    -0.484 OA
ATOM     31  C   UNL     1     169.460 144.328 147.624  1.00  0.00     0.174 C 
ATOM     32  C   UNL     1     169.749 146.762 148.051  1.00  0.00     0.211 C 
ATOM     33  O   UNL     1     169.107 143.478 146.772  1.00  0.00    -0.294 OA
ATOM     34  C   UNL     1     170.122 145.589 147.140  1.00  0.00     0.131 C 
BRANCH  27  35
ATOM     35  O   UNL     1     168.518 141.736 148.931  1.00  0.00    -0.507 OA
ATOM     36  H   UNL     1     168.962 141.407 148.090  1.00  0.00     0.293 HD
ENDBRANCH  27  35
BRANCH  32  37
ATOM     37  C   UNL     1     170.538 147.994 147.683  1.00  0.00    -0.007 A 
ATOM     38  C   UNL     1     171.130 148.787 148.683  1.00  0.00     0.011 A 
ATOM     39  C   UNL     1     170.737 148.334 146.335  1.00  0.00     0.011 A 
ATOM     40  C   UNL     1     171.889 149.909 148.339  1.00  0.00     0.046 A 
ATOM     41  C   UNL     1     171.502 149.454 145.992  1.00  0.00     0.046 A 
ATOM     42  C   UNL     1     172.078 150.245 146.991  1.00  0.00     0.115 A 
BRANCH  42  43
ATOM     43  O   UNL     1     172.834 151.360 146.634  1.00  0.00    -0.508 OA
ATOM     44  H   UNL     1     173.845 151.365 146.727  1.00  0.00     0.293 HD
ENDBRANCH  42  43
ENDBRANCH  32  37
ENDBRANCH  23  24
ENDBRANCH   6  23
BRANCH   3  45
ATOM     45  O   UNL     1     167.942 144.652 157.581  1.00  0.00    -0.387 OA
ATOM     46  H   UNL     1     168.045 143.876 158.198  1.00  0.00     0.211 HD
ENDBRANCH   3  45
BRANCH   4  47
ATOM     47  C   UNL     1     167.498 145.479 154.854  1.00  0.00     0.191 C 
BRANCH  47  48
ATOM     48  O   UNL     1     167.001 144.169 154.957  1.00  0.00    -0.394 OA
ATOM     49  H   UNL     1     167.374 143.786 155.794  1.00  0.00     0.210 HD
ENDBRANCH  47  48
ENDBRANCH   4  47
TORSDOF 14
ENDMDL
MODEL 5
REMARK VINA RESULT:    -8.217      3.881      7.588
REMARK INTER + INTRA:         -14.345
REMARK INTER:                 -12.541
REMARK INTRA:                  -1.804
REMARK UNBOUND:                -1.325
REMARK SMILES C[C@@H]1O[C@@H](O[C@@H]2[C@@H](Oc3cc(O)c4c(c3)O[C@@H](c3ccc(O)cc3)CC4=O)O[C@@H](CO)[C@@H](O)[C@@H]2O)[C@H](O)[C@H](O)[C@H]1O
REMARK SMILES IDX 6 1 34 2 32 3 29 4 28 5 7 6 5 7 4 8 1 9 2 10 40 11 3 12
REMARK SMILES IDX 38 13 36 14 41 15 39 17 37 19 35 21 8 23 9 24 10 25 15 26
REMARK SMILES IDX 11 27 14 28 13 29 16 30 26 31 17 32 27 33 25 34 12 35 18 37
REMARK SMILES IDX 19 38 24 39 20 40 23 41 21 42 22 43 33 45 30 47 31 48
REMARK H PARENT 41 16 39 18 37 20 35 22 12 36 22 44 33 46 31 49
REMARK Flexibility Score: inf
ROOT
ATOM      1  C   UNL     1     174.474 144.356 158.048  1.00  0.00     0.221 C 
ATOM      2  C   UNL     1     174.993 144.326 159.491  1.00  0.00     0.181 C 
ATOM      3  C   UNL     1     176.367 144.999 159.536  1.00  0.00     0.177 C 
ATOM      4  C   UNL     1     176.288 146.436 158.952  1.00  0.00     0.179 C 
ATOM      5  O   UNL     1     175.692 146.479 157.652  1.00  0.00    -0.332 OA
ATOM      6  C   UNL     1     174.434 145.810 157.547  1.00  0.00     0.339 C 
ENDROOT
BRANCH   1   7
ATOM      7  O   UNL     1     175.342 143.604 157.203  1.00  0.00    -0.337 OA
BRANCH   7   8
ATOM      8  C   UNL     1     174.865 142.287 156.977  1.00  0.00     0.282 C 
ATOM      9  C   UNL     1     175.604 141.997 153.379  1.00  0.00     0.041 C 
ATOM     10  C   UNL     1     174.925 142.550 154.634  1.00  0.00     0.150 C 
ATOM     11  C   UNL     1     173.386 142.507 154.486  1.00  0.00     0.174 C 
ATOM     12  O   UNL     1     175.356 141.773 155.746  1.00  0.00    -0.344 OA
ATOM     13  C   UNL     1     172.720 142.988 155.790  1.00  0.00     0.179 C 
ATOM     14  C   UNL     1     173.321 142.269 157.016  1.00  0.00     0.202 C 
BRANCH  11  15
ATOM     15  O   UNL     1     172.952 143.290 153.396  1.00  0.00    -0.388 OA
ATOM     16  H   UNL     1     172.076 143.691 153.636  1.00  0.00     0.211 HD
ENDBRANCH  11  15
BRANCH  13  17
ATOM     17  O   UNL     1     171.336 142.759 155.748  1.00  0.00    -0.387 OA
ATOM     18  H   UNL     1     171.024 142.701 156.687  1.00  0.00     0.211 HD
ENDBRANCH  13  17
BRANCH  14  19
ATOM     19  O   UNL     1     172.835 140.949 157.130  1.00  0.00    -0.385 OA
ATOM     20  H   UNL     1     172.745 140.573 156.216  1.00  0.00     0.211 HD
ENDBRANCH  14  19
ENDBRANCH   7   8
ENDBRANCH   1   7
BRANCH   2  21
ATOM     21  O   UNL     1     175.092 143.003 159.954  1.00  0.00    -0.387 OA
ATOM     22  H   UNL     1     176.058 142.772 159.973  1.00  0.00     0.211 HD
ENDBRANCH   2  21
BRANCH   6  23
ATOM     23  O   UNL     1     173.408 146.542 158.223  1.00  0.00    -0.462 OA
BRANCH  23  24
ATOM     24  C   UNL     1     172.117 146.779 157.726  1.00  0.00     0.130 A 
ATOM     25  C   UNL     1     171.256 147.736 158.283  1.00  0.00     0.093 A 
ATOM     26  C   UNL     1     171.695 146.045 156.614  1.00  0.00     0.094 A 
ATOM     27  C   UNL     1     169.988 147.968 157.738  1.00  0.00     0.133 A 
ATOM     28  C   UNL     1     170.421 146.232 156.079  1.00  0.00     0.138 A 
ATOM     29  C   UNL     1     169.537 147.182 156.639  1.00  0.00     0.102 A 
ATOM     30  O   UNL     1     170.029 145.450 154.984  1.00  0.00    -0.484 OA
ATOM     31  C   UNL     1     168.160 147.232 156.070  1.00  0.00     0.174 C 
ATOM     32  C   UNL     1     168.883 145.763 154.197  1.00  0.00     0.211 C 
ATOM     33  O   UNL     1     167.328 148.103 156.418  1.00  0.00    -0.294 OA
ATOM     34  C   UNL     1     167.716 146.172 155.101  1.00  0.00     0.131 C 
BRANCH  27  35
ATOM     35  O   UNL     1     169.235 148.990 158.322  1.00  0.00    -0.507 OA
ATOM     36  H   UNL     1     169.483 149.478 159.166  1.00  0.00     0.293 HD
ENDBRANCH  27  35
BRANCH  32  37
ATOM     37  C   UNL     1     168.503 144.582 153.338  1.00  0.00    -0.007 A 
ATOM     38  C   UNL     1     168.650 144.640 151.940  1.00  0.00     0.011 A 
ATOM     39  C   UNL     1     168.050 143.391 153.929  1.00  0.00     0.011 A 
ATOM     40  C   UNL     1     168.329 143.533 151.150  1.00  0.00     0.046 A 
ATOM     41  C   UNL     1     167.735 142.283 153.136  1.00  0.00     0.046 A 
ATOM     42  C   UNL     1     167.871 142.350 151.746  1.00  0.00     0.115 A 
BRANCH  42  43
ATOM     43  O   UNL     1     167.552 141.239 150.968  1.00  0.00    -0.508 OA
ATOM     44  H   UNL     1     166.711 141.214 150.400  1.00  0.00     0.293 HD
ENDBRANCH  42  43
ENDBRANCH  32  37
ENDBRANCH  23  24
ENDBRANCH   6  23
BRANCH   3  45
ATOM     45  O   UNL     1     176.847 145.009 160.861  1.00  0.00    -0.387 OA
ATOM     46  H   UNL     1     177.721 144.530 160.845  1.00  0.00     0.211 HD
ENDBRANCH   3  45
BRANCH   4  47
ATOM     47  C   UNL     1     175.679 147.474 159.924  1.00  0.00     0.191 C 
BRANCH  47  48
ATOM     48  O   UNL     1     175.311 148.643 159.238  1.00  0.00    -0.394 OA
ATOM     49  H   UNL     1     175.976 149.339 159.479  1.00  0.00     0.210 HD
ENDBRANCH  47  48
ENDBRANCH   4  47
TORSDOF 14
ENDMDL
MODEL 6
REMARK VINA RESULT:    -8.081      3.106      6.085
REMARK INTER + INTRA:         -14.129
REMARK INTER:                 -12.217
REMARK INTRA:                  -1.913
REMARK UNBOUND:                -1.325
REMARK SMILES C[C@@H]1O[C@@H](O[C@@H]2[C@@H](Oc3cc(O)c4c(c3)O[C@@H](c3ccc(O)cc3)CC4=O)O[C@@H](CO)[C@@H](O)[C@@H]2O)[C@H](O)[C@H](O)[C@H]1O
REMARK SMILES IDX 6 1 34 2 32 3 29 4 28 5 7 6 5 7 4 8 1 9 2 10 40 11 3 12
REMARK SMILES IDX 38 13 36 14 41 15 39 17 37 19 35 21 8 23 9 24 10 25 15 26
REMARK SMILES IDX 11 27 14 28 13 29 16 30 26 31 17 32 27 33 25 34 12 35 18 37
REMARK SMILES IDX 19 38 24 39 20 40 23 41 21 42 22 43 33 45 30 47 31 48
REMARK H PARENT 41 16 39 18 37 20 35 22 12 36 22 44 33 46 31 49
REMARK Flexibility Score: inf
ROOT
ATOM      1  C   UNL     1     172.156 146.068 156.972  1.00  0.00     0.221 C 
ATOM      2  C   UNL     1     173.242 146.586 157.924  1.00  0.00     0.181 C 
ATOM      3  C   UNL     1     172.985 146.018 159.321  1.00  0.00     0.177 C 
ATOM      4  C   UNL     1     172.913 144.467 159.273  1.00  0.00     0.179 C 
ATOM      5  O   UNL     1     171.986 143.980 158.298  1.00  0.00    -0.332 OA
ATOM      6  C   UNL     1     172.151 144.529 156.989  1.00  0.00     0.339 C 
ENDROOT
BRANCH   1   7
ATOM      7  O   UNL     1     170.877 146.536 157.391  1.00  0.00    -0.337 OA
BRANCH   7   8
ATOM      8  C   UNL     1     170.140 147.115 156.325  1.00  0.00     0.282 C 
ATOM      9  C   UNL     1     167.494 148.785 158.271  1.00  0.00     0.041 C 
ATOM     10  C   UNL     1     168.302 147.609 157.718  1.00  0.00     0.150 C 
ATOM     11  C   UNL     1     167.372 146.582 157.030  1.00  0.00     0.174 C 
ATOM     12  O   UNL     1     169.263 148.126 156.804  1.00  0.00    -0.344 OA
ATOM     13  C   UNL     1     168.212 145.449 156.407  1.00  0.00     0.179 C 
ATOM     14  C   UNL     1     169.367 146.019 155.558  1.00  0.00     0.202 C 
BRANCH  11  15
ATOM     15  O   UNL     1     166.430 146.053 157.936  1.00  0.00    -0.388 OA
ATOM     16  H   UNL     1     165.524 146.301 157.617  1.00  0.00     0.211 HD
ENDBRANCH  11  15
BRANCH  13  17
ATOM     17  O   UNL     1     167.407 144.626 155.605  1.00  0.00    -0.387 OA
ATOM     18  H   UNL     1     167.833 144.586 154.711  1.00  0.00     0.211 HD
ENDBRANCH  13  17
BRANCH  14  19
ATOM     19  O   UNL     1     168.906 146.503 154.315  1.00  0.00    -0.385 OA
ATOM     20  H   UNL     1     169.692 146.806 153.791  1.00  0.00     0.211 HD
ENDBRANCH  14  19
ENDBRANCH   7   8
ENDBRANCH   1   7
BRANCH   2  21
ATOM     21  O   UNL     1     173.231 147.991 157.969  1.00  0.00    -0.387 OA
ATOM     22  H   UNL     1     173.563 148.257 158.866  1.00  0.00     0.211 HD
ENDBRANCH   2  21
BRANCH   6  23
ATOM     23  O   UNL     1     173.331 144.019 156.364  1.00  0.00    -0.462 OA
BRANCH  23  24
ATOM     24  C   UNL     1     173.378 143.387 155.112  1.00  0.00     0.130 A 
ATOM     25  C   UNL     1     174.483 142.633 154.687  1.00  0.00     0.093 A 
ATOM     26  C   UNL     1     172.265 143.498 154.276  1.00  0.00     0.094 A 
ATOM     27  C   UNL     1     174.479 141.990 153.444  1.00  0.00     0.133 A 
ATOM     28  C   UNL     1     172.255 142.897 153.017  1.00  0.00     0.138 A 
ATOM     29  C   UNL     1     173.366 142.147 152.570  1.00  0.00     0.102 A 
ATOM     30  O   UNL     1     171.129 143.063 152.200  1.00  0.00    -0.484 OA
ATOM     31  C   UNL     1     173.309 141.637 151.170  1.00  0.00     0.174 C 
ATOM     32  C   UNL     1     170.905 142.263 151.042  1.00  0.00     0.211 C 
ATOM     33  O   UNL     1     174.190 140.875 150.704  1.00  0.00    -0.294 OA
ATOM     34  C   UNL     1     172.208 142.095 150.255  1.00  0.00     0.131 C 
BRANCH  27  35
ATOM     35  O   UNL     1     175.598 141.206 153.144  1.00  0.00    -0.507 OA
ATOM     36  H   UNL     1     175.753 140.736 152.268  1.00  0.00     0.293 HD
ENDBRANCH  27  35
BRANCH  32  37
ATOM     37  C   UNL     1     169.837 142.886 150.178  1.00  0.00    -0.007 A 
ATOM     38  C   UNL     1     169.600 144.271 150.224  1.00  0.00     0.011 A 
ATOM     39  C   UNL     1     169.103 142.097 149.276  1.00  0.00     0.011 A 
ATOM     40  C   UNL     1     168.632 144.851 149.399  1.00  0.00     0.046 A 
ATOM     41  C   UNL     1     168.140 142.680 148.447  1.00  0.00     0.046 A 
ATOM     42  C   UNL     1     167.900 144.056 148.506  1.00  0.00     0.115 A 
BRANCH  42  43
ATOM     43  O   UNL     1     166.935 144.623 147.676  1.00  0.00    -0.508 OA
ATOM     44  H   UNL     1     166.895 145.625 147.517  1.00  0.00     0.293 HD
ENDBRANCH  42  43
ENDBRANCH  32  37
ENDBRANCH  23  24
ENDBRANCH   6  23
BRANCH   3  45
ATOM     45  O   UNL     1     173.990 146.458 160.205  1.00  0.00    -0.387 OA
ATOM     46  H   UNL     1     174.088 145.745 160.894  1.00  0.00     0.211 HD
ENDBRANCH   3  45
BRANCH   4  47
ATOM     47  C   UNL     1     174.296 143.779 159.180  1.00  0.00     0.191 C 
BRANCH  47  48
ATOM     48  O   UNL     1     174.163 142.446 158.761  1.00  0.00    -0.394 OA
ATOM     49  H   UNL     1     173.288 142.123 159.104  1.00  0.00     0.210 HD
ENDBRANCH  47  48
ENDBRANCH   4  47
TORSDOF 14
ENDMDL
MODEL 7
REMARK VINA RESULT:    -7.902      3.686      7.582
REMARK INTER + INTRA:         -13.847
REMARK INTER:                 -12.222
REMARK INTRA:                  -1.625
REMARK UNBOUND:                -1.325
REMARK SMILES C[C@@H]1O[C@@H](O[C@@H]2[C@@H](Oc3cc(O)c4c(c3)O[C@@H](c3ccc(O)cc3)CC4=O)O[C@@H](CO)[C@@H](O)[C@@H]2O)[C@H](O)[C@H](O)[C@H]1O
REMARK SMILES IDX 6 1 34 2 32 3 29 4 28 5 7 6 5 7 4 8 1 9 2 10 40 11 3 12
REMARK SMILES IDX 38 13 36 14 41 15 39 17 37 19 35 21 8 23 9 24 10 25 15 26
REMARK SMILES IDX 11 27 14 28 13 29 16 30 26 31 17 32 27 33 25 34 12 35 18 37
REMARK SMILES IDX 19 38 24 39 20 40 23 41 21 42 22 43 33 45 30 47 31 48
REMARK H PARENT 41 16 39 18 37 20 35 22 12 36 22 44 33 46 31 49
REMARK Flexibility Score: inf
ROOT
ATOM      1  C   UNL     1     169.366 143.282 153.733  1.00  0.00     0.221 C 
ATOM      2  C   UNL     1     168.912 141.916 153.203  1.00  0.00     0.181 C 
ATOM      3  C   UNL     1     168.123 142.124 151.909  1.00  0.00     0.177 C 
ATOM      4  C   UNL     1     168.970 142.921 150.878  1.00  0.00     0.179 C 
ATOM      5  O   UNL     1     169.495 144.141 151.410  1.00  0.00    -0.332 OA
ATOM      6  C   UNL     1     170.190 144.003 152.651  1.00  0.00     0.339 C 
ENDROOT
BRANCH   1   7
ATOM      7  O   UNL     1     168.230 144.082 154.053  1.00  0.00    -0.337 OA
BRANCH   7   8
ATOM      8  C   UNL     1     167.930 144.059 155.440  1.00  0.00     0.282 C 
ATOM      9  C   UNL     1     167.406 147.664 155.993  1.00  0.00     0.041 C 
ATOM     10  C   UNL     1     168.186 146.395 155.645  1.00  0.00     0.150 C 
ATOM     11  C   UNL     1     169.462 146.282 156.514  1.00  0.00     0.174 C 
ATOM     12  O   UNL     1     167.326 145.279 155.849  1.00  0.00    -0.344 OA
ATOM     13  C   UNL     1     170.189 144.958 156.209  1.00  0.00     0.179 C 
ATOM     14  C   UNL     1     169.210 143.766 156.254  1.00  0.00     0.202 C 
BRANCH  11  15
ATOM     15  O   UNL     1     170.326 147.376 156.301  1.00  0.00    -0.388 OA
ATOM     16  H   UNL     1     171.252 147.026 156.229  1.00  0.00     0.211 HD
ENDBRANCH  11  15
BRANCH  13  17
ATOM     17  O   UNL     1     171.225 144.744 157.130  1.00  0.00    -0.387 OA
ATOM     18  H   UNL     1     171.686 145.613 157.254  1.00  0.00     0.211 HD
ENDBRANCH  13  17
BRANCH  14  19
ATOM     19  O   UNL     1     168.891 143.408 157.582  1.00  0.00    -0.385 OA
ATOM     20  H   UNL     1     167.962 143.704 157.767  1.00  0.00     0.211 HD
ENDBRANCH  14  19
ENDBRANCH   7   8
ENDBRANCH   1   7
BRANCH   2  21
ATOM     21  O   UNL     1     168.110 141.259 154.153  1.00  0.00    -0.387 OA
ATOM     22  H   UNL     1     168.526 141.412 155.041  1.00  0.00     0.211 HD
ENDBRANCH   2  21
BRANCH   6  23
ATOM     23  O   UNL     1     171.448 143.350 152.464  1.00  0.00    -0.462 OA
BRANCH  23  24
ATOM     24  C   UNL     1     172.550 143.447 153.327  1.00  0.00     0.130 A 
ATOM     25  C   UNL     1     173.545 142.460 153.394  1.00  0.00     0.093 A 
ATOM     26  C   UNL     1     172.664 144.588 154.125  1.00  0.00     0.094 A 
ATOM     27  C   UNL     1     174.648 142.608 154.244  1.00  0.00     0.133 A 
ATOM     28  C   UNL     1     173.733 144.738 155.006  1.00  0.00     0.138 A 
ATOM     29  C   UNL     1     174.736 143.746 155.097  1.00  0.00     0.102 A 
ATOM     30  O   UNL     1     173.788 145.884 155.811  1.00  0.00    -0.484 OA
ATOM     31  C   UNL     1     175.778 143.941 156.145  1.00  0.00     0.174 C 
ATOM     32  C   UNL     1     174.967 146.263 156.516  1.00  0.00     0.211 C 
ATOM     33  O   UNL     1     176.771 143.180 156.245  1.00  0.00    -0.294 OA
ATOM     34  C   UNL     1     175.615 145.035 157.163  1.00  0.00     0.131 C 
BRANCH  27  35
ATOM     35  O   UNL     1     175.619 141.604 154.187  1.00  0.00    -0.507 OA
ATOM     36  H   UNL     1     176.068 141.191 154.987  1.00  0.00     0.293 HD
ENDBRANCH  27  35
BRANCH  32  37
ATOM     37  C   UNL     1     174.639 147.303 157.558  1.00  0.00    -0.007 A 
ATOM     38  C   UNL     1     175.423 148.465 157.679  1.00  0.00     0.011 A 
ATOM     39  C   UNL     1     173.512 147.150 158.383  1.00  0.00     0.011 A 
ATOM     40  C   UNL     1     175.097 149.442 158.623  1.00  0.00     0.046 A 
ATOM     41  C   UNL     1     173.184 148.133 159.322  1.00  0.00     0.046 A 
ATOM     42  C   UNL     1     173.975 149.280 159.448  1.00  0.00     0.115 A 
BRANCH  42  43
ATOM     43  O   UNL     1     173.638 150.249 160.390  1.00  0.00    -0.508 OA
ATOM     44  H   UNL     1     173.371 151.188 160.112  1.00  0.00     0.293 HD
ENDBRANCH  42  43
ENDBRANCH  32  37
ENDBRANCH  23  24
ENDBRANCH   6  23
BRANCH   3  45
ATOM     45  O   UNL     1     167.724 140.877 151.390  1.00  0.00    -0.387 OA
ATOM     46  H   UNL     1     166.731 140.912 151.312  1.00  0.00     0.211 HD
ENDBRANCH   3  45
BRANCH   4  47
ATOM     47  C   UNL     1     170.043 142.070 150.160  1.00  0.00     0.191 C 
BRANCH  47  48
ATOM     48  O   UNL     1     169.444 141.119 149.318  1.00  0.00    -0.394 OA
ATOM     49  H   UNL     1     168.571 141.497 149.033  1.00  0.00     0.210 HD
ENDBRANCH  47  48
ENDBRANCH   4  47
TORSDOF 14
ENDMDL
MODEL 8
REMARK VINA RESULT:    -7.798      2.369      2.837
REMARK INTER + INTRA:         -13.681
REMARK INTER:                 -12.150
REMARK INTRA:                  -1.530
REMARK UNBOUND:                -1.325
REMARK SMILES C[C@@H]1O[C@@H](O[C@@H]2[C@@H](Oc3cc(O)c4c(c3)O[C@@H](c3ccc(O)cc3)CC4=O)O[C@@H](CO)[C@@H](O)[C@@H]2O)[C@H](O)[C@H](O)[C@H]1O
REMARK SMILES IDX 6 1 34 2 32 3 29 4 28 5 7 6 5 7 4 8 1 9 2 10 40 11 3 12
REMARK SMILES IDX 38 13 36 14 41 15 39 17 37 19 35 21 8 23 9 24 10 25 15 26
REMARK SMILES IDX 11 27 14 28 13 29 16 30 26 31 17 32 27 33 25 34 12 35 18 37
REMARK SMILES IDX 19 38 24 39 20 40 23 41 21 42 22 43 33 45 30 47 31 48
REMARK H PARENT 41 16 39 18 37 20 35 22 12 36 22 44 33 46 31 49
REMARK Flexibility Score: inf
ROOT
ATOM      1  C   UNL     1     170.882 143.656 155.803  1.00  0.00     0.221 C 
ATOM      2  C   UNL     1     169.612 143.275 156.574  1.00  0.00     0.181 C 
ATOM      3  C   UNL     1     168.851 144.552 156.934  1.00  0.00     0.177 C 
ATOM      4  C   UNL     1     168.555 145.387 155.657  1.00  0.00     0.179 C 
ATOM      5  O   UNL     1     169.725 145.641 154.873  1.00  0.00    -0.332 OA
ATOM      6  C   UNL     1     170.501 144.483 154.563  1.00  0.00     0.339 C 
ENDROOT
BRANCH   1   7
ATOM      7  O   UNL     1     171.737 144.440 156.631  1.00  0.00    -0.337 OA
BRANCH   7   8
ATOM      8  C   UNL     1     173.111 144.167 156.397  1.00  0.00     0.282 C 
ATOM      9  C   UNL     1     174.300 144.069 159.883  1.00  0.00     0.041 C 
ATOM     10  C   UNL     1     173.707 144.692 158.617  1.00  0.00     0.150 C 
ATOM     11  C   UNL     1     174.491 145.964 158.215  1.00  0.00     0.174 C 
ATOM     12  O   UNL     1     173.748 143.715 157.583  1.00  0.00    -0.344 OA
ATOM     13  C   UNL     1     173.932 146.529 156.894  1.00  0.00     0.179 C 
ATOM     14  C   UNL     1     173.810 145.422 155.827  1.00  0.00     0.202 C 
BRANCH  11  15
ATOM     15  O   UNL     1     174.437 146.943 159.229  1.00  0.00    -0.388 OA
ATOM     16  H   UNL     1     175.366 147.233 159.426  1.00  0.00     0.211 HD
ENDBRANCH  11  15
BRANCH  13  17
ATOM     17  O   UNL     1     174.761 147.553 156.410  1.00  0.00    -0.387 OA
ATOM     18  H   UNL     1     175.147 148.011 157.200  1.00  0.00     0.211 HD
ENDBRANCH  13  17
BRANCH  14  19
ATOM     19  O   UNL     1     175.067 145.092 155.277  1.00  0.00    -0.385 OA
ATOM     20  H   UNL     1     175.762 145.277 155.962  1.00  0.00     0.211 HD
ENDBRANCH  14  19
ENDBRANCH   7   8
ENDBRANCH   1   7
BRANCH   2  21
ATOM     21  O   UNL     1     169.937 142.565 157.743  1.00  0.00    -0.387 OA
ATOM     22  H   UNL     1     169.423 142.975 158.486  1.00  0.00     0.211 HD
ENDBRANCH   2  21
BRANCH   6  23
ATOM     23  O   UNL     1     169.833 143.662 153.601  1.00  0.00    -0.462 OA
BRANCH  23  24
ATOM     24  C   UNL     1     169.942 143.789 152.208  1.00  0.00     0.130 A 
ATOM     25  C   UNL     1     170.955 143.161 151.469  1.00  0.00     0.093 A 
ATOM     26  C   UNL     1     168.980 144.550 151.539  1.00  0.00     0.094 A 
ATOM     27  C   UNL     1     171.011 143.284 150.075  1.00  0.00     0.133 A 
ATOM     28  C   UNL     1     169.038 144.717 150.156  1.00  0.00     0.138 A 
ATOM     29  C   UNL     1     170.063 144.104 149.400  1.00  0.00     0.102 A 
ATOM     30  O   UNL     1     168.071 145.517 149.532  1.00  0.00    -0.484 OA
ATOM     31  C   UNL     1     170.108 144.430 147.946  1.00  0.00     0.174 C 
ATOM     32  C   UNL     1     167.875 145.511 148.121  1.00  0.00     0.211 C 
ATOM     33  O   UNL     1     170.907 143.864 147.162  1.00  0.00    -0.294 OA
ATOM     34  C   UNL     1     169.226 145.518 147.399  1.00  0.00     0.131 C 
BRANCH  27  35
ATOM     35  O   UNL     1     172.018 142.564 149.425  1.00  0.00    -0.507 OA
ATOM     36  H   UNL     1     171.883 142.003 148.600  1.00  0.00     0.293 HD
ENDBRANCH  27  35
BRANCH  32  37
ATOM     37  C   UNL     1     167.044 146.701 147.707  1.00  0.00    -0.007 A 
ATOM     38  C   UNL     1     165.690 146.789 148.077  1.00  0.00     0.011 A 
ATOM     39  C   UNL     1     167.628 147.761 146.994  1.00  0.00     0.011 A 
ATOM     40  C   UNL     1     164.931 147.907 147.721  1.00  0.00     0.046 A 
ATOM     41  C   UNL     1     166.867 148.882 146.644  1.00  0.00     0.046 A 
ATOM     42  C   UNL     1     165.518 148.958 147.003  1.00  0.00     0.115 A 
BRANCH  42  43
ATOM     43  O   UNL     1     164.773 150.080 146.646  1.00  0.00    -0.508 OA
ATOM     44  H   UNL     1     163.850 150.248 147.032  1.00  0.00     0.293 HD
ENDBRANCH  42  43
ENDBRANCH  32  37
ENDBRANCH  23  24
ENDBRANCH   6  23
BRANCH   3  45
ATOM     45  O   UNL     1     167.663 144.221 157.616  1.00  0.00    -0.387 OA
ATOM     46  H   UNL     1     167.801 144.493 158.565  1.00  0.00     0.211 HD
ENDBRANCH   3  45
BRANCH   4  47
ATOM     47  C   UNL     1     167.375 144.847 154.816  1.00  0.00     0.191 C 
BRANCH  47  48
ATOM     48  O   UNL     1     166.442 145.864 154.556  1.00  0.00    -0.394 OA
ATOM     49  H   UNL     1     165.864 145.541 153.816  1.00  0.00     0.210 HD
ENDBRANCH  47  48
ENDBRANCH   4  47
TORSDOF 14
ENDMDL
MODEL 9
REMARK VINA RESULT:    -7.754      2.177      9.358
REMARK INTER + INTRA:         -13.611
REMARK INTER:                 -12.854
REMARK INTRA:                  -0.757
REMARK UNBOUND:                -1.325
REMARK SMILES C[C@@H]1O[C@@H](O[C@@H]2[C@@H](Oc3cc(O)c4c(c3)O[C@@H](c3ccc(O)cc3)CC4=O)O[C@@H](CO)[C@@H](O)[C@@H]2O)[C@H](O)[C@H](O)[C@H]1O
REMARK SMILES IDX 6 1 34 2 32 3 29 4 28 5 7 6 5 7 4 8 1 9 2 10 40 11 3 12
REMARK SMILES IDX 38 13 36 14 41 15 39 17 37 19 35 21 8 23 9 24 10 25 15 26
REMARK SMILES IDX 11 27 14 28 13 29 16 30 26 31 17 32 27 33 25 34 12 35 18 37
REMARK SMILES IDX 19 38 24 39 20 40 23 41 21 42 22 43 33 45 30 47 31 48
REMARK H PARENT 41 16 39 18 37 20 35 22 12 36 22 44 33 46 31 49
REMARK Flexibility Score: inf
ROOT
ATOM      1  C   UNL     1     169.570 144.725 151.126  1.00  0.00     0.221 C 
ATOM      2  C   UNL     1     169.011 143.317 150.883  1.00  0.00     0.181 C 
ATOM      3  C   UNL     1     170.178 142.340 150.734  1.00  0.00     0.177 C 
ATOM      4  C   UNL     1     171.111 142.414 151.975  1.00  0.00     0.179 C 
ATOM      5  O   UNL     1     171.537 143.746 152.275  1.00  0.00    -0.332 OA
ATOM      6  C   UNL     1     170.483 144.706 152.364  1.00  0.00     0.339 C 
ENDROOT
BRANCH   1   7
ATOM      7  O   UNL     1     170.335 145.146 149.999  1.00  0.00    -0.337 OA
BRANCH   7   8
ATOM      8  C   UNL     1     169.526 145.366 148.853  1.00  0.00     0.282 C 
ATOM      9  C   UNL     1     171.916 144.349 146.239  1.00  0.00     0.041 C 
ATOM     10  C   UNL     1     171.367 145.197 147.388  1.00  0.00     0.150 C 
ATOM     11  C   UNL     1     171.318 146.692 146.988  1.00  0.00     0.174 C 
ATOM     12  O   UNL     1     170.070 144.710 147.715  1.00  0.00    -0.344 OA
ATOM     13  C   UNL     1     170.685 147.517 148.126  1.00  0.00     0.179 C 
ATOM     14  C   UNL     1     169.362 146.881 148.602  1.00  0.00     0.202 C 
BRANCH  11  15
ATOM     15  O   UNL     1     172.603 147.184 146.681  1.00  0.00    -0.388 OA
ATOM     16  H   UNL     1     172.762 147.042 145.712  1.00  0.00     0.211 HD
ENDBRANCH  11  15
BRANCH  13  17
ATOM     17  O   UNL     1     170.442 148.832 147.700  1.00  0.00    -0.387 OA
ATOM     18  H   UNL     1     170.324 149.383 148.516  1.00  0.00     0.211 HD
ENDBRANCH  13  17
BRANCH  14  19
ATOM     19  O   UNL     1     168.312 147.131 147.693  1.00  0.00    -0.385 OA
ATOM     20  H   UNL     1     167.627 146.422 147.811  1.00  0.00     0.211 HD
ENDBRANCH  14  19
ENDBRANCH   7   8
ENDBRANCH   1   7
BRANCH   2  21
ATOM     21  O   UNL     1     168.216 143.294 149.723  1.00  0.00    -0.387 OA
ATOM     22  H   UNL     1     167.291 143.071 150.008  1.00  0.00     0.211 HD
ENDBRANCH   2  21
BRANCH   6  23
ATOM     23  O   UNL     1     169.711 144.510 153.552  1.00  0.00    -0.462 OA
BRANCH  23  24
ATOM     24  C   UNL     1     169.629 145.408 154.626  1.00  0.00     0.130 A 
ATOM     25  C   UNL     1     168.480 146.169 154.890  1.00  0.00     0.093 A 
ATOM     26  C   UNL     1     170.732 145.519 155.477  1.00  0.00     0.094 A 
ATOM     27  C   UNL     1     168.424 147.030 155.992  1.00  0.00     0.133 A 
ATOM     28  C   UNL     1     170.713 146.399 156.559  1.00  0.00     0.138 A 
ATOM     29  C   UNL     1     169.568 147.183 156.828  1.00  0.00     0.102 A 
ATOM     30  O   UNL     1     171.854 146.501 157.365  1.00  0.00    -0.484 OA
ATOM     31  C   UNL     1     169.681 148.173 157.936  1.00  0.00     0.174 C 
ATOM     32  C   UNL     1     171.831 147.138 158.639  1.00  0.00     0.211 C 
ATOM     33  O   UNL     1     168.698 148.847 158.329  1.00  0.00    -0.294 OA
ATOM     34  C   UNL     1     171.020 148.436 158.566  1.00  0.00     0.131 C 
BRANCH  27  35
ATOM     35  O   UNL     1     167.211 147.690 156.208  1.00  0.00    -0.507 OA
ATOM     36  H   UNL     1     166.896 148.039 157.097  1.00  0.00     0.293 HD
ENDBRANCH  27  35
BRANCH  32  37
ATOM     37  C   UNL     1     173.238 147.415 159.108  1.00  0.00    -0.007 A 
ATOM     38  C   UNL     1     173.747 148.726 159.103  1.00  0.00     0.011 A 
ATOM     39  C   UNL     1     174.037 146.373 159.607  1.00  0.00     0.011 A 
ATOM     40  C   UNL     1     175.039 148.984 159.569  1.00  0.00     0.046 A 
ATOM     41  C   UNL     1     175.328 146.635 160.079  1.00  0.00     0.046 A 
ATOM     42  C   UNL     1     175.834 147.939 160.060  1.00  0.00     0.115 A 
BRANCH  42  43
ATOM     43  O   UNL     1     177.122 148.184 160.530  1.00  0.00    -0.508 OA
ATOM     44  H   UNL     1     177.453 147.781 161.401  1.00  0.00     0.293 HD
ENDBRANCH  42  43
ENDBRANCH  32  37
ENDBRANCH  23  24
ENDBRANCH   6  23
BRANCH   3  45
ATOM     45  O   UNL     1     169.684 141.035 150.540  1.00  0.00    -0.387 OA
ATOM     46  H   UNL     1     169.145 141.062 149.703  1.00  0.00     0.211 HD
ENDBRANCH   3  45
BRANCH   4  47
ATOM     47  C   UNL     1     170.563 141.667 153.214  1.00  0.00     0.191 C 
BRANCH  47  48
ATOM     48  O   UNL     1     169.166 141.539 153.140  1.00  0.00    -0.394 OA
ATOM     49  H   UNL     1     168.966 141.056 152.296  1.00  0.00     0.210 HD
ENDBRANCH  47  48
ENDBRANCH   4  47
TORSDOF 14
ENDMDL
