MODEL 1
REMARK VINA RESULT:    -2.540      0.000      0.000
REMARK INTER + INTRA:          -2.540
REMARK INTER:                  -2.540
REMARK INTRA:                   0.000
REMARK UNBOUND:                 0.000
REMARK SMILES CC(=O)[O-]
REMARK SMILES IDX 1 1 2 2 3 3 4 4
REMARK H PARENT
REMARK Flexibility Score: inf
ROOT
ATOM      1  C   UNL     1      40.313   3.354  11.520  1.00  0.00     0.063 C 
ATOM      2  C   UNL     1      39.526   2.106  11.308  1.00  0.00     0.038 C 
ATOM      3  O   UNL     1      38.271   2.127  11.402  1.00  0.00    -0.550 OA
ATOM      4  O   UNL     1      40.171   0.927  10.955  1.00  0.00    -0.550 OA
ENDROOT
TORSDOF 0
ENDMDL
MODEL 2
REMARK VINA RESULT:    -2.523      3.410      4.087
REMARK INTER + INTRA:          -2.523
REMARK INTER:                  -2.523
REMARK INTRA:                   0.000
REMARK UNBOUND:                 0.000
REMARK SMILES CC(=O)[O-]
REMARK SMILES IDX 1 1 2 2 3 3 4 4
REMARK H PARENT
REMARK Flexibility Score: inf
ROOT
ATOM      1  C   UNL     1      35.030   3.220  11.092  1.00  0.00     0.063 C 
ATOM      2  C   UNL     1      35.892   2.029  11.345  1.00  0.00     0.038 C 
ATOM      3  O   UNL     1      37.142   2.120  11.237  1.00  0.00    -0.550 OA
ATOM      4  O   UNL     1      35.320   0.830  11.753  1.00  0.00    -0.550 OA
ENDROOT
TORSDOF 0
ENDMDL
MODEL 3
REMARK VINA RESULT:    -2.363      1.425      1.771
REMARK INTER + INTRA:          -2.363
REMARK INTER:                  -2.363
REMARK INTRA:                   0.000
REMARK UNBOUND:                 0.000
REMARK SMILES CC(=O)[O-]
REMARK SMILES IDX 1 1 2 2 3 3 4 4
REMARK H PARENT
REMARK Flexibility Score: inf
ROOT
ATOM      1  C   UNL     1      40.267   0.816  10.954  1.00  0.00     0.063 C 
ATOM      2  C   UNL     1      39.639   2.121  11.308  1.00  0.00     0.038 C 
ATOM      3  O   UNL     1      38.389   2.212  11.414  1.00  0.00    -0.550 OA
ATOM      4  O   UNL     1      40.436   3.228  11.573  1.00  0.00    -0.550 OA
ENDROOT
TORSDOF 0
ENDMDL
MODEL 4
REMARK VINA RESULT:    -2.300      3.476      4.462
REMARK INTER + INTRA:          -2.300
REMARK INTER:                  -2.300
REMARK INTRA:                   0.000
REMARK UNBOUND:                 0.000
REMARK SMILES CC(=O)[O-]
REMARK SMILES IDX 1 1 2 2 3 3 4 4
REMARK H PARENT
REMARK Flexibility Score: inf
ROOT
ATOM      1  C   UNL     1      35.221   0.700  11.761  1.00  0.00     0.063 C 
ATOM      2  C   UNL     1      35.822   2.009  11.375  1.00  0.00     0.038 C 
ATOM      3  O   UNL     1      37.070   2.122  11.262  1.00  0.00    -0.550 OA
ATOM      4  O   UNL     1      35.002   3.093  11.086  1.00  0.00    -0.550 OA
ENDROOT
TORSDOF 0
ENDMDL
MODEL 5
REMARK VINA RESULT:    -2.046      9.747     10.201
REMARK INTER + INTRA:          -2.046
REMARK INTER:                  -2.046
REMARK INTRA:                   0.000
REMARK UNBOUND:                 0.000
REMARK SMILES CC(=O)[O-]
REMARK SMILES IDX 1 1 2 2 3 3 4 4
REMARK H PARENT
REMARK Flexibility Score: inf
ROOT
ATOM      1  C   UNL     1      38.616  -3.941   1.785  1.00  0.00     0.063 C 
ATOM      2  C   UNL     1      39.138  -2.803   2.594  1.00  0.00     0.038 C 
ATOM      3  O   UNL     1      38.698  -1.640   2.404  1.00  0.00    -0.550 OA
ATOM      4  O   UNL     1      40.072  -3.033   3.597  1.00  0.00    -0.550 OA
ENDROOT
TORSDOF 0
ENDMDL
MODEL 6
REMARK VINA RESULT:    -2.032      9.812     10.205
REMARK INTER + INTRA:          -2.032
REMARK INTER:                  -2.032
REMARK INTRA:                   0.000
REMARK UNBOUND:                 0.000
REMARK SMILES CC(=O)[O-]
REMARK SMILES IDX 1 1 2 2 3 3 4 4
REMARK H PARENT
REMARK Flexibility Score: inf
ROOT
ATOM      1  C   UNL     1      40.315  -3.241   3.328  1.00  0.00     0.063 C 
ATOM      2  C   UNL     1      39.088  -2.907   2.550  1.00  0.00     0.038 C 
ATOM      3  O   UNL     1      38.740  -1.707   2.403  1.00  0.00    -0.550 OA
ATOM      4  O   UNL     1      38.354  -3.917   1.940  1.00  0.00    -0.550 OA
ENDROOT
TORSDOF 0
ENDMDL
MODEL 7
REMARK VINA RESULT:    -2.022     10.021     10.407
REMARK INTER + INTRA:          -2.022
REMARK INTER:                  -2.022
REMARK INTRA:                   0.000
REMARK UNBOUND:                 0.000
REMARK SMILES CC(=O)[O-]
REMARK SMILES IDX 1 1 2 2 3 3 4 4
REMARK H PARENT
REMARK Flexibility Score: inf
ROOT
ATOM      1  C   UNL     1      36.341  -6.282  14.132  1.00  0.00     0.063 C 
ATOM      2  C   UNL     1      35.224  -6.974  13.427  1.00  0.00     0.038 C 
ATOM      3  O   UNL     1      35.224  -7.056  12.172  1.00  0.00    -0.550 OA
ATOM      4  O   UNL     1      34.207  -7.577  14.157  1.00  0.00    -0.550 OA
ENDROOT
TORSDOF 0
ENDMDL
MODEL 8
REMARK VINA RESULT:    -2.011      9.083      9.453
REMARK INTER + INTRA:          -2.011
REMARK INTER:                  -2.011
REMARK INTRA:                   0.000
REMARK UNBOUND:                 0.000
REMARK SMILES CC(=O)[O-]
REMARK SMILES IDX 1 1 2 2 3 3 4 4
REMARK H PARENT
REMARK Flexibility Score: inf
ROOT
ATOM      1  C   UNL     1      39.386  -6.269   8.517  1.00  0.00     0.063 C 
ATOM      2  C   UNL     1      40.445  -6.955   9.312  1.00  0.00     0.038 C 
ATOM      3  O   UNL     1      40.400  -6.940  10.569  1.00  0.00    -0.550 OA
ATOM      4  O   UNL     1      41.454  -7.659   8.666  1.00  0.00    -0.550 OA
ENDROOT
TORSDOF 0
ENDMDL
MODEL 9
REMARK VINA RESULT:    -1.985      7.325      7.671
REMARK INTER + INTRA:          -1.985
REMARK INTER:                  -1.985
REMARK INTRA:                   0.000
REMARK UNBOUND:                 0.000
REMARK SMILES CC(=O)[O-]
REMARK SMILES IDX 1 1 2 2 3 3 4 4
REMARK H PARENT
REMARK Flexibility Score: inf
ROOT
ATOM      1  C   UNL     1      35.747   7.655   8.637  1.00  0.00     0.063 C 
ATOM      2  C   UNL     1      35.375   7.120   7.296  1.00  0.00     0.038 C 
ATOM      3  O   UNL     1      34.199   7.250   6.868  1.00  0.00    -0.550 OA
ATOM      4  O   UNL     1      36.339   6.523   6.493  1.00  0.00    -0.550 OA
ENDROOT
TORSDOF 0
ENDMDL
