MODEL 1
REMARK VINA RESULT:    -3.804      0.000      0.000
REMARK INTER + INTRA:          -3.804
REMARK INTER:                  -3.804
REMARK INTRA:                   0.000
REMARK UNBOUND:                 0.000
REMARK SMILES C=C1CCC[C@]2(C)CC(=O)C(=C(C)C)C[C@@H]12
REMARK SMILES IDX 13 1 12 2 11 3 15 4 16 5 2 6 1 7 3 8 4 9 5 10 6 11 8 12 9 13
REMARK SMILES IDX 10 14 7 15 14 16
REMARK H PARENT
REMARK Flexibility Score: inf
ROOT
ATOM      1  C   UNL     1     -15.128 -14.701  31.815  1.00  0.00     0.039 C 
ATOM      2  C   UNL     1     -13.791 -15.343  32.106  1.00  0.00    -0.070 C 
ATOM      3  C   UNL     1     -12.934 -15.686  31.098  1.00  0.00    -0.006 C 
ATOM      4  C   UNL     1     -13.303 -15.455  29.639  1.00  0.00     0.047 C 
ATOM      5  C   UNL     1     -12.661 -16.495  28.686  1.00  0.00     0.025 C 
ATOM      6  C   UNL     1     -12.964 -16.290  27.202  1.00  0.00    -0.073 C 
ATOM      7  C   UNL     1     -13.719 -15.285  26.718  1.00  0.00     0.008 C 
ATOM      8  C   UNL     1     -12.401 -17.324  26.256  1.00  0.00     0.031 C 
ATOM      9  C   UNL     1     -10.894 -17.485  26.479  1.00  0.00     0.005 C 
ATOM     10  C   UNL     1     -10.563 -17.738  27.960  1.00  0.00     0.008 C 
ATOM     11  C   UNL     1     -11.123 -16.634  28.908  1.00  0.00    -0.018 C 
ATOM     12  C   UNL     1     -10.872 -17.083  30.369  1.00  0.00     0.088 C 
ATOM     13  C   UNL     1     -11.553 -16.184  31.361  1.00  0.00     0.159 C 
ATOM     14  O   UNL     1     -10.927 -15.856  32.405  1.00  0.00    -0.295 OA
ATOM     15  C   UNL     1     -10.377 -15.297  28.646  1.00  0.00     0.012 C 
ATOM     16  C   UNL     1     -13.465 -15.620  33.556  1.00  0.00     0.039 C 
ENDROOT
TORSDOF 0
ENDMDL
MODEL 2
REMARK VINA RESULT:    -3.365      1.721      2.947
REMARK INTER + INTRA:          -3.365
REMARK INTER:                  -3.365
REMARK INTRA:                   0.000
REMARK UNBOUND:                 0.000
REMARK SMILES C=C1CCC[C@]2(C)CC(=O)C(=C(C)C)C[C@@H]12
REMARK SMILES IDX 13 1 12 2 11 3 15 4 16 5 2 6 1 7 3 8 4 9 5 10 6 11 8 12 9 13
REMARK SMILES IDX 10 14 7 15 14 16
REMARK H PARENT
REMARK Flexibility Score: inf
ROOT
ATOM      1  C   UNL     1     -14.059 -16.581  33.261  1.00  0.00     0.039 C 
ATOM      2  C   UNL     1     -14.113 -15.577  32.132  1.00  0.00    -0.070 C 
ATOM      3  C   UNL     1     -13.572 -15.856  30.908  1.00  0.00    -0.006 C 
ATOM      4  C   UNL     1     -12.874 -17.183  30.640  1.00  0.00     0.047 C 
ATOM      5  C   UNL     1     -11.744 -17.064  29.587  1.00  0.00     0.025 C 
ATOM      6  C   UNL     1     -11.032 -18.374  29.247  1.00  0.00    -0.073 C 
ATOM      7  C   UNL     1     -11.343 -19.565  29.793  1.00  0.00     0.008 C 
ATOM      8  C   UNL     1      -9.886 -18.276  28.267  1.00  0.00     0.031 C 
ATOM      9  C   UNL     1     -10.338 -17.564  26.989  1.00  0.00     0.005 C 
ATOM     10  C   UNL     1     -11.019 -16.219  27.299  1.00  0.00     0.008 C 
ATOM     11  C   UNL     1     -12.221 -16.355  28.281  1.00  0.00    -0.018 C 
ATOM     12  C   UNL     1     -12.711 -14.931  28.641  1.00  0.00     0.088 C 
ATOM     13  C   UNL     1     -13.738 -14.947  29.737  1.00  0.00     0.159 C 
ATOM     14  O   UNL     1     -14.740 -14.189  29.635  1.00  0.00    -0.295 OA
ATOM     15  C   UNL     1     -13.373 -17.135  27.588  1.00  0.00     0.012 C 
ATOM     16  C   UNL     1     -14.756 -14.243  32.432  1.00  0.00     0.039 C 
ENDROOT
TORSDOF 0
ENDMDL
MODEL 3
REMARK VINA RESULT:    -3.350      1.819      3.083
REMARK INTER + INTRA:          -3.350
REMARK INTER:                  -3.350
REMARK INTRA:                   0.000
REMARK UNBOUND:                 0.000
REMARK SMILES C=C1CCC[C@]2(C)CC(=O)C(=C(C)C)C[C@@H]12
REMARK SMILES IDX 13 1 12 2 11 3 15 4 16 5 2 6 1 7 3 8 4 9 5 10 6 11 8 12 9 13
REMARK SMILES IDX 10 14 7 15 14 16
REMARK H PARENT
REMARK Flexibility Score: inf
ROOT
ATOM      1  C   UNL     1     -14.758 -13.183  27.842  1.00  0.00     0.039 C 
ATOM      2  C   UNL     1     -14.857 -13.716  29.253  1.00  0.00    -0.070 C 
ATOM      3  C   UNL     1     -14.038 -14.719  29.691  1.00  0.00    -0.006 C 
ATOM      4  C   UNL     1     -13.008 -15.355  28.767  1.00  0.00     0.047 C 
ATOM      5  C   UNL     1     -12.731 -16.840  29.110  1.00  0.00     0.025 C 
ATOM      6  C   UNL     1     -11.675 -17.522  28.239  1.00  0.00    -0.073 C 
ATOM      7  C   UNL     1     -11.005 -16.907  27.246  1.00  0.00     0.008 C 
ATOM      8  C   UNL     1     -11.428 -18.987  28.513  1.00  0.00     0.031 C 
ATOM      9  C   UNL     1     -11.124 -19.207  29.997  1.00  0.00     0.005 C 
ATOM     10  C   UNL     1     -12.196 -18.569  30.898  1.00  0.00     0.008 C 
ATOM     11  C   UNL     1     -12.401 -17.049  30.621  1.00  0.00    -0.018 C 
ATOM     12  C   UNL     1     -13.607 -16.566  31.463  1.00  0.00     0.088 C 
ATOM     13  C   UNL     1     -14.013 -15.162  31.115  1.00  0.00     0.159 C 
ATOM     14  O   UNL     1     -14.315 -14.374  32.051  1.00  0.00    -0.295 OA
ATOM     15  C   UNL     1     -11.129 -16.267  31.048  1.00  0.00     0.012 C 
ATOM     16  C   UNL     1     -15.923 -13.115  30.139  1.00  0.00     0.039 C 
ENDROOT
TORSDOF 0
ENDMDL
MODEL 4
REMARK VINA RESULT:    -3.221      2.369      4.428
REMARK INTER + INTRA:          -3.221
REMARK INTER:                  -3.221
REMARK INTRA:                   0.000
REMARK UNBOUND:                 0.000
REMARK SMILES C=C1CCC[C@]2(C)CC(=O)C(=C(C)C)C[C@@H]12
REMARK SMILES IDX 13 1 12 2 11 3 15 4 16 5 2 6 1 7 3 8 4 9 5 10 6 11 8 12 9 13
REMARK SMILES IDX 10 14 7 15 14 16
REMARK H PARENT
REMARK Flexibility Score: inf
ROOT
ATOM      1  C   UNL     1     -12.761 -19.801  31.638  1.00  0.00     0.039 C 
ATOM      2  C   UNL     1     -12.492 -19.463  30.190  1.00  0.00    -0.070 C 
ATOM      3  C   UNL     1     -12.625 -18.185  29.723  1.00  0.00    -0.006 C 
ATOM      4  C   UNL     1     -13.072 -17.055  30.640  1.00  0.00     0.047 C 
ATOM      5  C   UNL     1     -13.857 -15.950  29.890  1.00  0.00     0.025 C 
ATOM      6  C   UNL     1     -14.299 -14.767  30.753  1.00  0.00    -0.073 C 
ATOM      7  C   UNL     1     -14.033 -14.653  32.068  1.00  0.00     0.008 C 
ATOM      8  C   UNL     1     -15.118 -13.704  30.060  1.00  0.00     0.031 C 
ATOM      9  C   UNL     1     -14.396 -13.211  28.803  1.00  0.00     0.005 C 
ATOM     10  C   UNL     1     -13.980 -14.379  27.892  1.00  0.00     0.008 C 
ATOM     11  C   UNL     1     -13.102 -15.440  28.623  1.00  0.00    -0.018 C 
ATOM     12  C   UNL     1     -12.890 -16.634  27.660  1.00  0.00     0.088 C 
ATOM     13  C   UNL     1     -12.226 -17.797  28.339  1.00  0.00     0.159 C 
ATOM     14  O   UNL     1     -11.323 -18.422  27.719  1.00  0.00    -0.295 OA
ATOM     15  C   UNL     1     -11.725 -14.818  28.982  1.00  0.00     0.012 C 
ATOM     16  C   UNL     1     -12.106 -20.607  29.280  1.00  0.00     0.039 C 
ENDROOT
TORSDOF 0
ENDMDL
MODEL 5
REMARK VINA RESULT:    -2.454      1.906      3.279
REMARK INTER + INTRA:          -2.454
REMARK INTER:                  -2.454
REMARK INTRA:                   0.000
REMARK UNBOUND:                 0.000
REMARK SMILES C=C1CCC[C@]2(C)CC(=O)C(=C(C)C)C[C@@H]12
REMARK SMILES IDX 13 1 12 2 11 3 15 4 16 5 2 6 1 7 3 8 4 9 5 10 6 11 8 12 9 13
REMARK SMILES IDX 10 14 7 15 14 16
REMARK H PARENT
REMARK Flexibility Score: inf
ROOT
ATOM      1  C   UNL     1     -15.000 -15.400  32.743  1.00  0.00     0.039 C 
ATOM      2  C   UNL     1     -14.626 -14.782  31.415  1.00  0.00    -0.070 C 
ATOM      3  C   UNL     1     -13.814 -15.437  30.532  1.00  0.00    -0.006 C 
ATOM      4  C   UNL     1     -13.236 -16.807  30.862  1.00  0.00     0.047 C 
ATOM      5  C   UNL     1     -11.858 -17.052  30.196  1.00  0.00     0.025 C 
ATOM      6  C   UNL     1     -11.246 -18.428  30.459  1.00  0.00    -0.073 C 
ATOM      7  C   UNL     1     -11.834 -19.387  31.199  1.00  0.00     0.008 C 
ATOM      8  C   UNL     1      -9.875 -18.673  29.872  1.00  0.00     0.031 C 
ATOM      9  C   UNL     1      -9.877 -18.364  28.372  1.00  0.00     0.005 C 
ATOM     10  C   UNL     1     -10.447 -16.965  28.081  1.00  0.00     0.008 C 
ATOM     11  C   UNL     1     -11.877 -16.755  28.664  1.00  0.00    -0.018 C 
ATOM     12  C   UNL     1     -12.269 -15.272  28.453  1.00  0.00     0.088 C 
ATOM     13  C   UNL     1     -13.547 -14.919  29.159  1.00  0.00     0.159 C 
ATOM     14  O   UNL     1     -14.385 -14.191  28.561  1.00  0.00    -0.295 OA
ATOM     15  C   UNL     1     -12.885 -17.666  27.910  1.00  0.00     0.012 C 
ATOM     16  C   UNL     1     -15.159 -13.397  31.129  1.00  0.00     0.039 C 
ENDROOT
TORSDOF 0
ENDMDL
MODEL 6
REMARK VINA RESULT:    -1.616      2.807      4.365
REMARK INTER + INTRA:          -1.616
REMARK INTER:                  -1.616
REMARK INTRA:                   0.000
REMARK UNBOUND:                 0.000
REMARK SMILES C=C1CCC[C@]2(C)CC(=O)C(=C(C)C)C[C@@H]12
REMARK SMILES IDX 13 1 12 2 11 3 15 4 16 5 2 6 1 7 3 8 4 9 5 10 6 11 8 12 9 13
REMARK SMILES IDX 10 14 7 15 14 16
REMARK H PARENT
REMARK Flexibility Score: inf
ROOT
ATOM      1  C   UNL     1     -10.579 -19.741  32.159  1.00  0.00     0.039 C 
ATOM      2  C   UNL     1     -11.535 -20.238  31.098  1.00  0.00    -0.070 C 
ATOM      3  C   UNL     1     -11.899 -19.446  30.045  1.00  0.00    -0.006 C 
ATOM      4  C   UNL     1     -11.373 -18.024  29.911  1.00  0.00     0.047 C 
ATOM      5  C   UNL     1     -12.370 -17.081  29.191  1.00  0.00     0.025 C 
ATOM      6  C   UNL     1     -11.879 -15.647  28.992  1.00  0.00    -0.073 C 
ATOM      7  C   UNL     1     -10.672 -15.201  29.388  1.00  0.00     0.008 C 
ATOM      8  C   UNL     1     -12.855 -14.691  28.347  1.00  0.00     0.031 C 
ATOM      9  C   UNL     1     -13.373 -15.269  27.027  1.00  0.00     0.005 C 
ATOM     10  C   UNL     1     -13.915 -16.698  27.207  1.00  0.00     0.008 C 
ATOM     11  C   UNL     1     -12.874 -17.671  27.838  1.00  0.00    -0.018 C 
ATOM     12  C   UNL     1     -13.584 -19.018  28.118  1.00  0.00     0.088 C 
ATOM     13  C   UNL     1     -12.720 -19.958  28.910  1.00  0.00     0.159 C 
ATOM     14  O   UNL     1     -12.700 -21.176  28.585  1.00  0.00    -0.295 OA
ATOM     15  C   UNL     1     -11.707 -17.904  26.838  1.00  0.00     0.012 C 
ATOM     16  C   UNL     1     -12.094 -21.631  31.277  1.00  0.00     0.039 C 
ENDROOT
TORSDOF 0
ENDMDL
MODEL 7
REMARK VINA RESULT:    -1.075      1.868      2.439
REMARK INTER + INTRA:          -1.075
REMARK INTER:                  -1.075
REMARK INTRA:                   0.000
REMARK UNBOUND:                 0.000
REMARK SMILES C=C1CCC[C@]2(C)CC(=O)C(=C(C)C)C[C@@H]12
REMARK SMILES IDX 13 1 12 2 11 3 15 4 16 5 2 6 1 7 3 8 4 9 5 10 6 11 8 12 9 13
REMARK SMILES IDX 10 14 7 15 14 16
REMARK H PARENT
REMARK Flexibility Score: inf
ROOT
ATOM      1  C   UNL     1     -13.668 -14.987  33.069  1.00  0.00     0.039 C 
ATOM      2  C   UNL     1     -13.870 -16.437  32.692  1.00  0.00    -0.070 C 
ATOM      3  C   UNL     1     -13.180 -17.004  31.658  1.00  0.00    -0.006 C 
ATOM      4  C   UNL     1     -12.194 -16.191  30.829  1.00  0.00     0.047 C 
ATOM      5  C   UNL     1     -12.090 -16.686  29.365  1.00  0.00     0.025 C 
ATOM      6  C   UNL     1     -11.085 -15.931  28.494  1.00  0.00    -0.073 C 
ATOM      7  C   UNL     1     -10.320 -14.915  28.935  1.00  0.00     0.008 C 
ATOM      8  C   UNL     1     -11.007 -16.353  27.046  1.00  0.00     0.031 C 
ATOM      9  C   UNL     1     -10.778 -17.864  26.944  1.00  0.00     0.005 C 
ATOM     10  C   UNL     1     -11.804 -18.652  27.776  1.00  0.00     0.008 C 
ATOM     11  C   UNL     1     -11.835 -18.222  29.274  1.00  0.00    -0.018 C 
ATOM     12  C   UNL     1     -13.010 -18.961  29.961  1.00  0.00     0.088 C 
ATOM     13  C   UNL     1     -13.250 -18.464  31.358  1.00  0.00     0.159 C 
ATOM     14  O   UNL     1     -13.497 -19.306  32.263  1.00  0.00    -0.295 OA
ATOM     15  C   UNL     1     -10.501 -18.629  29.958  1.00  0.00     0.012 C 
ATOM     16  C   UNL     1     -14.895 -17.214  33.486  1.00  0.00     0.039 C 
ENDROOT
TORSDOF 0
ENDMDL
