MODEL 1
REMARK VINA RESULT:    -4.510      0.000      0.000
REMARK INTER + INTRA:          -6.798
REMARK INTER:                  -6.882
REMARK INTRA:                   0.084
REMARK UNBOUND:                 0.084
REMARK SMILES CC1=CCC[C@H](C)C(=O)C[C@H](C(C)C)C(=O)C1
REMARK SMILES IDX 8 1 9 2 6 3 7 4 5 5 4 6 3 7 2 8 1 9 10 11 11 12 15 13 16 14
REMARK SMILES IDX 17 15 12 17 13 18 14 19
REMARK H PARENT
REMARK Flexibility Score: 70.00
ROOT
ATOM      1  C   UNL     1       6.086  19.936   4.400  1.00  0.00     0.136 C 
ATOM      2  O   UNL     1       6.540  18.977   3.790  1.00  0.00    -0.299 OA
ENDROOT
BRANCH   1   3
ATOM      3  C   UNL     1       6.056  19.878   5.917  1.00  0.00     0.053 C 
ATOM      4  C   UNL     1       6.756  18.612   6.431  1.00  0.00     0.016 C 
BRANCH   3   5
ATOM      5  C   UNL     1       6.699  21.156   6.509  1.00  0.00     0.015 C 
BRANCH   5   6
ATOM      6  C   UNL     1       5.693  22.019   7.303  1.00  0.00     0.028 C 
BRANCH   6   7
ATOM      7  C   UNL     1       4.291  21.459   7.237  1.00  0.00    -0.028 C 
ATOM      8  C   UNL     1       3.382  21.743   6.275  1.00  0.00    -0.070 CG0
ATOM      9  C   UNL     1       2.016  21.112   6.381  1.00  0.00     0.039 C 
ATOM     10  G   UNL     1       3.668  22.667   5.104  1.00  0.00     0.000 G0
ENDBRANCH   6   7
ENDBRANCH   5   6
ENDBRANCH   3   5
ENDBRANCH   1   3
BRANCH   1  11
ATOM     11  C   UNL     1       5.616  21.128   3.582  1.00  0.00     0.087 C 
BRANCH  11  12
ATOM     12  C   UNL     1       4.158  21.081   3.039  1.00  0.00     0.066 C 
BRANCH  12  13
ATOM     13  C   UNL     1       3.261  22.082   3.751  1.00  0.00     0.140 C 
ATOM     14  O   UNL     1       2.168  22.363   3.276  1.00  0.00    -0.299 OA
BRANCH  13  15
ATOM     15  C   UNL     1       3.670  22.666   5.085  1.00  0.00     0.106 CG0
ATOM     16  G   UNL     1       3.362  21.738   6.248  1.00  0.00     0.000 G0
ENDBRANCH  13  15
ENDBRANCH  12  13
BRANCH  12  17
ATOM     17  C   UNL     1       4.064  21.269   1.491  1.00  0.00    -0.006 C 
ATOM     18  C   UNL     1       4.341  19.958   0.737  1.00  0.00     0.008 C 
ATOM     19  C   UNL     1       4.958  22.390   0.933  1.00  0.00     0.008 C 
ENDBRANCH  12  17
ENDBRANCH  11  12
ENDBRANCH   1  11
TORSDOF 1
ENDMDL
MODEL 2
REMARK VINA RESULT:    -4.387      1.293      1.850
REMARK INTER + INTRA:          -6.611
REMARK INTER:                  -6.659
REMARK INTRA:                   0.048
REMARK UNBOUND:                 0.084
REMARK SMILES CC1=CCC[C@H](C)C(=O)C[C@H](C(C)C)C(=O)C1
REMARK SMILES IDX 8 1 9 2 6 3 7 4 5 5 4 6 3 7 2 8 1 9 10 11 11 12 15 13 16 14
REMARK SMILES IDX 17 15 12 17 13 18 14 19
REMARK H PARENT
REMARK Flexibility Score: 70.00
ROOT
ATOM      1  C   UNL     1       6.219  20.101   4.939  1.00  0.00     0.136 C 
ATOM      2  O   UNL     1       6.491  19.209   4.147  1.00  0.00    -0.299 OA
ENDROOT
BRANCH   1   3
ATOM      3  C   UNL     1       6.688  19.959   6.376  1.00  0.00     0.053 C 
ATOM      4  C   UNL     1       6.569  21.293   7.126  1.00  0.00     0.016 C 
BRANCH   3   5
ATOM      5  C   UNL     1       5.887  18.841   7.087  1.00  0.00     0.015 C 
BRANCH   5   6
ATOM      6  C   UNL     1       4.384  18.858   6.725  1.00  0.00     0.028 C 
BRANCH   6   7
ATOM      7  C   UNL     1       3.614  19.858   7.557  1.00  0.00    -0.028 C 
ATOM      8  C   UNL     1       2.629  20.663   7.094  1.00  0.00    -0.070 CG0
ATOM      9  C   UNL     1       1.984  21.623   8.061  1.00  0.00     0.039 C 
ATOM     10  G   UNL     1       2.151  20.652   5.652  1.00  0.00     0.000 G0
ENDBRANCH   6   7
ENDBRANCH   5   6
ENDBRANCH   3   5
ENDBRANCH   1   3
BRANCH   1  11
ATOM     11  C   UNL     1       5.454  21.302   4.406  1.00  0.00     0.087 C 
BRANCH  11  12
ATOM     12  C   UNL     1       4.026  21.039   3.847  1.00  0.00     0.066 C 
BRANCH  12  13
ATOM     13  C   UNL     1       2.950  21.589   4.772  1.00  0.00     0.140 C 
ATOM     14  O   UNL     1       2.683  22.783   4.752  1.00  0.00    -0.299 OA
BRANCH  13  15
ATOM     15  C   UNL     1       2.145  20.656   5.650  1.00  0.00     0.106 CG0
ATOM     16  G   UNL     1       2.610  20.669   7.096  1.00  0.00     0.000 G0
ENDBRANCH  13  15
ENDBRANCH  12  13
BRANCH  12  17
ATOM     17  C   UNL     1       3.819  21.571   2.393  1.00  0.00    -0.006 C 
ATOM     18  C   UNL     1       2.518  21.040   1.769  1.00  0.00     0.008 C 
ATOM     19  C   UNL     1       5.000  21.302   1.445  1.00  0.00     0.008 C 
ENDBRANCH  12  17
ENDBRANCH  11  12
ENDBRANCH   1  11
TORSDOF 1
ENDMDL
MODEL 3
REMARK VINA RESULT:    -4.352      2.073      2.814
REMARK INTER + INTRA:          -6.557
REMARK INTER:                  -6.487
REMARK INTRA:                  -0.070
REMARK UNBOUND:                 0.084
REMARK SMILES CC1=CCC[C@H](C)C(=O)C[C@H](C(C)C)C(=O)C1
REMARK SMILES IDX 8 1 9 2 6 3 7 4 5 5 4 6 3 7 2 8 1 9 10 11 11 12 15 13 16 14
REMARK SMILES IDX 17 15 12 17 13 18 14 19
REMARK H PARENT
REMARK Flexibility Score: 70.00
ROOT
ATOM      1  C   UNL     1       5.862  21.236   4.964  1.00  0.00     0.136 C 
ATOM      2  O   UNL     1       6.012  20.735   3.858  1.00  0.00    -0.299 OA
ENDROOT
BRANCH   1   3
ATOM      3  C   UNL     1       6.848  20.872   6.060  1.00  0.00     0.053 C 
ATOM      4  C   UNL     1       6.527  21.625   7.359  1.00  0.00     0.016 C 
BRANCH   3   5
ATOM      5  C   UNL     1       6.850  19.340   6.285  1.00  0.00     0.015 C 
BRANCH   5   6
ATOM      6  C   UNL     1       5.905  18.901   7.427  1.00  0.00     0.028 C 
BRANCH   6   7
ATOM      7  C   UNL     1       4.596  18.359   6.901  1.00  0.00    -0.028 C 
ATOM      8  C   UNL     1       3.427  19.041   6.865  1.00  0.00    -0.070 CG0
ATOM      9  C   UNL     1       2.209  18.332   6.330  1.00  0.00     0.039 C 
ATOM     10  G   UNL     1       3.284  20.475   7.344  1.00  0.00     0.000 G0
ENDBRANCH   6   7
ENDBRANCH   5   6
ENDBRANCH   3   5
ENDBRANCH   1   3
BRANCH   1  11
ATOM     11  C   UNL     1       4.711  22.212   5.142  1.00  0.00     0.087 C 
BRANCH  11  12
ATOM     12  C   UNL     1       3.271  21.642   4.988  1.00  0.00     0.066 C 
BRANCH  12  13
ATOM     13  C   UNL     1       2.618  21.389   6.338  1.00  0.00     0.140 C 
ATOM     14  O   UNL     1       1.516  21.864   6.578  1.00  0.00    -0.299 OA
BRANCH  13  15
ATOM     15  C   UNL     1       3.279  20.482   7.352  1.00  0.00     0.106 CG0
ATOM     16  G   UNL     1       3.431  19.056   6.849  1.00  0.00     0.000 G0
ENDBRANCH  13  15
ENDBRANCH  12  13
BRANCH  12  17
ATOM     17  C   UNL     1       2.345  22.524   4.090  1.00  0.00    -0.006 C 
ATOM     18  C   UNL     1       1.408  21.671   3.221  1.00  0.00     0.008 C 
ATOM     19  C   UNL     1       3.096  23.537   3.209  1.00  0.00     0.008 C 
ENDBRANCH  12  17
ENDBRANCH  11  12
ENDBRANCH   1  11
TORSDOF 1
ENDMDL
MODEL 4
REMARK VINA RESULT:    -4.258      1.804      4.106
REMARK INTER + INTRA:          -6.415
REMARK INTER:                  -6.477
REMARK INTRA:                   0.063
REMARK UNBOUND:                 0.084
REMARK SMILES CC1=CCC[C@H](C)C(=O)C[C@H](C(C)C)C(=O)C1
REMARK SMILES IDX 8 1 9 2 6 3 7 4 5 5 4 6 3 7 2 8 1 9 10 11 11 12 15 13 16 14
REMARK SMILES IDX 17 15 12 17 13 18 14 19
REMARK H PARENT
REMARK Flexibility Score: 70.00
ROOT
ATOM      1  C   UNL     1       5.387  21.042   7.029  1.00  0.00     0.136 C 
ATOM      2  O   UNL     1       5.802  22.086   7.513  1.00  0.00    -0.299 OA
ENDROOT
BRANCH   1   3
ATOM      3  C   UNL     1       6.395  19.974   6.645  1.00  0.00     0.053 C 
ATOM      4  C   UNL     1       6.185  18.698   7.473  1.00  0.00     0.016 C 
BRANCH   3   5
ATOM      5  C   UNL     1       6.304  19.680   5.128  1.00  0.00     0.015 C 
BRANCH   5   6
ATOM      6  C   UNL     1       6.303  20.964   4.267  1.00  0.00     0.028 C 
BRANCH   6   7
ATOM      7  C   UNL     1       5.606  20.755   2.942  1.00  0.00    -0.028 C 
ATOM      8  C   UNL     1       4.426  21.313   2.585  1.00  0.00    -0.070 CG0
ATOM      9  C   UNL     1       3.862  20.974   1.228  1.00  0.00     0.039 C 
ATOM     10  G   UNL     1       3.642  22.254   3.484  1.00  0.00     0.000 G0
ENDBRANCH   6   7
ENDBRANCH   5   6
ENDBRANCH   3   5
ENDBRANCH   1   3
BRANCH   1  11
ATOM     11  C   UNL     1       3.882  20.888   6.880  1.00  0.00     0.087 C 
BRANCH  11  12
ATOM     12  C   UNL     1       3.139  21.975   6.051  1.00  0.00     0.066 C 
BRANCH  12  13
ATOM     13  C   UNL     1       2.928  21.537   4.609  1.00  0.00     0.140 C 
ATOM     14  O   UNL     1       2.129  20.646   4.356  1.00  0.00    -0.299 OA
BRANCH  13  15
ATOM     15  C   UNL     1       3.633  22.255   3.479  1.00  0.00     0.106 CG0
ATOM     16  G   UNL     1       4.443  21.314   2.604  1.00  0.00     0.000 G0
ENDBRANCH  13  15
ENDBRANCH  12  13
BRANCH  12  17
ATOM     17  C   UNL     1       1.785  22.427   6.687  1.00  0.00    -0.006 C 
ATOM     18  C   UNL     1       1.580  23.946   6.578  1.00  0.00     0.008 C 
ATOM     19  C   UNL     1       1.590  21.978   8.145  1.00  0.00     0.008 C 
ENDBRANCH  12  17
ENDBRANCH  11  12
ENDBRANCH   1  11
TORSDOF 1
ENDMDL
MODEL 5
REMARK VINA RESULT:    -4.217      1.852      4.892
REMARK INTER + INTRA:          -6.352
REMARK INTER:                  -5.963
REMARK INTRA:                  -0.389
REMARK UNBOUND:                 0.084
REMARK SMILES CC1=CCC[C@H](C)C(=O)C[C@H](C(C)C)C(=O)C1
REMARK SMILES IDX 8 1 9 2 6 3 7 4 5 5 4 6 3 7 2 8 1 9 10 11 11 12 15 13 16 14
REMARK SMILES IDX 17 15 12 17 13 18 14 19
REMARK H PARENT
REMARK Flexibility Score: 70.00
ROOT
ATOM      1  C   UNL     1       3.580  22.757   6.563  1.00  0.00     0.136 C 
ATOM      2  O   UNL     1       3.284  23.931   6.738  1.00  0.00    -0.299 OA
ENDROOT
BRANCH   1   3
ATOM      3  C   UNL     1       2.464  21.728   6.529  1.00  0.00     0.053 C 
ATOM      4  C   UNL     1       1.513  21.912   7.721  1.00  0.00     0.016 C 
BRANCH   3   5
ATOM      5  C   UNL     1       1.702  21.815   5.184  1.00  0.00     0.015 C 
BRANCH   5   6
ATOM      6  C   UNL     1       2.256  20.843   4.118  1.00  0.00     0.028 C 
BRANCH   6   7
ATOM      7  C   UNL     1       2.895  21.578   2.961  1.00  0.00    -0.028 C 
ATOM      8  C   UNL     1       4.182  21.439   2.564  1.00  0.00    -0.070 CG0
ATOM      9  C   UNL     1       4.660  22.273   1.403  1.00  0.00     0.039 C 
ATOM     10  G   UNL     1       5.164  20.495   3.236  1.00  0.00     0.000 G0
ENDBRANCH   6   7
ENDBRANCH   5   6
ENDBRANCH   3   5
ENDBRANCH   1   3
BRANCH   1  11
ATOM     11  C   UNL     1       5.051  22.428   6.361  1.00  0.00     0.087 C 
BRANCH  11  12
ATOM     12  C   UNL     1       5.387  21.020   5.790  1.00  0.00     0.066 C 
BRANCH  12  13
ATOM     13  C   UNL     1       5.942  21.104   4.376  1.00  0.00     0.140 C 
ATOM     14  O   UNL     1       7.040  21.610   4.183  1.00  0.00    -0.299 OA
BRANCH  13  15
ATOM     15  C   UNL     1       5.189  20.487   3.219  1.00  0.00     0.106 CG0
ATOM     16  G   UNL     1       4.198  21.449   2.586  1.00  0.00     0.000 G0
ENDBRANCH  13  15
ENDBRANCH  12  13
BRANCH  12  17
ATOM     17  C   UNL     1       6.346  20.191   6.704  1.00  0.00    -0.006 C 
ATOM     18  C   UNL     1       6.247  18.683   6.418  1.00  0.00     0.008 C 
ATOM     19  C   UNL     1       6.167  20.449   8.209  1.00  0.00     0.008 C 
ENDBRANCH  12  17
ENDBRANCH  11  12
ENDBRANCH   1  11
TORSDOF 1
ENDMDL
MODEL 6
REMARK VINA RESULT:    -4.132      1.988      3.798
REMARK INTER + INTRA:          -6.221
REMARK INTER:                  -6.642
REMARK INTRA:                   0.421
REMARK UNBOUND:                 0.084
REMARK SMILES CC1=CCC[C@H](C)C(=O)C[C@H](C(C)C)C(=O)C1
REMARK SMILES IDX 8 1 9 2 6 3 7 4 5 5 4 6 3 7 2 8 1 9 10 11 11 12 15 13 16 14
REMARK SMILES IDX 17 15 12 17 13 18 14 19
REMARK H PARENT
REMARK Flexibility Score: 70.00
ROOT
ATOM      1  C   UNL     1       4.909  21.421   7.361  1.00  0.00     0.136 C 
ATOM      2  O   UNL     1       4.012  20.765   7.872  1.00  0.00    -0.299 OA
ENDROOT
BRANCH   1   3
ATOM      3  C   UNL     1       6.222  20.727   7.045  1.00  0.00     0.053 C 
ATOM      4  C   UNL     1       6.063  19.201   7.101  1.00  0.00     0.016 C 
BRANCH   3   5
ATOM      5  C   UNL     1       6.746  21.186   5.662  1.00  0.00     0.015 C 
BRANCH   5   6
ATOM      6  C   UNL     1       6.257  20.284   4.507  1.00  0.00     0.028 C 
BRANCH   6   7
ATOM      7  C   UNL     1       5.569  21.080   3.421  1.00  0.00    -0.028 C 
ATOM      8  C   UNL     1       4.249  21.380   3.392  1.00  0.00    -0.070 CG0
ATOM      9  C   UNL     1       3.725  22.163   2.214  1.00  0.00     0.039 C 
ATOM     10  G   UNL     1       3.274  20.961   4.479  1.00  0.00     0.000 G0
ENDBRANCH   6   7
ENDBRANCH   5   6
ENDBRANCH   3   5
ENDBRANCH   1   3
BRANCH   1  11
ATOM     11  C   UNL     1       4.622  22.883   7.055  1.00  0.00     0.087 C 
BRANCH  11  12
ATOM     12  C   UNL     1       3.843  23.189   5.743  1.00  0.00     0.066 C 
BRANCH  12  13
ATOM     13  C   UNL     1       2.857  22.083   5.402  1.00  0.00     0.140 C 
ATOM     14  O   UNL     1       1.710  22.140   5.824  1.00  0.00    -0.299 OA
BRANCH  13  15
ATOM     15  C   UNL     1       3.257  20.959   4.471  1.00  0.00     0.106 CG0
ATOM     16  G   UNL     1       4.245  21.405   3.407  1.00  0.00     0.000 G0
ENDBRANCH  13  15
ENDBRANCH  12  13
BRANCH  12  17
ATOM     17  C   UNL     1       3.124  24.576   5.757  1.00  0.00    -0.006 C 
ATOM     18  C   UNL     1       3.208  25.279   4.392  1.00  0.00     0.008 C 
ATOM     19  C   UNL     1       3.605  25.529   6.864  1.00  0.00     0.008 C 
ENDBRANCH  12  17
ENDBRANCH  11  12
ENDBRANCH   1  11
TORSDOF 1
ENDMDL
MODEL 7
REMARK VINA RESULT:    -3.850      1.540      3.598
REMARK INTER + INTRA:          -5.791
REMARK INTER:                  -5.660
REMARK INTRA:                  -0.131
REMARK UNBOUND:                 0.084
REMARK SMILES CC1=CCC[C@H](C)C(=O)C[C@H](C(C)C)C(=O)C1
REMARK SMILES IDX 8 1 9 2 6 3 7 4 5 5 4 6 3 7 2 8 1 9 10 11 11 12 15 13 16 14
REMARK SMILES IDX 17 15 12 17 13 18 14 19
REMARK H PARENT
REMARK Flexibility Score: 70.00
ROOT
ATOM      1  C   UNL     1       2.826  21.506   4.788  1.00  0.00     0.136 C 
ATOM      2  O   UNL     1       2.041  20.839   5.449  1.00  0.00    -0.299 OA
ENDROOT
BRANCH   1   3
ATOM      3  C   UNL     1       3.145  22.916   5.253  1.00  0.00     0.053 C 
ATOM      4  C   UNL     1       1.949  23.852   5.028  1.00  0.00     0.016 C 
BRANCH   3   5
ATOM      5  C   UNL     1       3.572  22.900   6.741  1.00  0.00     0.015 C 
BRANCH   5   6
ATOM      6  C   UNL     1       5.095  22.711   6.925  1.00  0.00     0.028 C 
BRANCH   6   7
ATOM      7  C   UNL     1       5.471  21.255   7.077  1.00  0.00    -0.028 C 
ATOM      8  C   UNL     1       6.193  20.538   6.183  1.00  0.00    -0.070 CG0
ATOM      9  C   UNL     1       6.452  19.084   6.485  1.00  0.00     0.039 C 
ATOM     10  G   UNL     1       6.744  21.125   4.895  1.00  0.00     0.000 G0
ENDBRANCH   6   7
ENDBRANCH   5   6
ENDBRANCH   3   5
ENDBRANCH   1   3
BRANCH   1  11
ATOM     11  C   UNL     1       3.445  20.851   3.564  1.00  0.00     0.087 C 
BRANCH  11  12
ATOM     12  C   UNL     1       4.818  21.404   3.085  1.00  0.00     0.066 C 
BRANCH  12  13
ATOM     13  C   UNL     1       5.979  20.613   3.668  1.00  0.00     0.140 C 
ATOM     14  O   UNL     1       6.359  19.592   3.110  1.00  0.00    -0.299 OA
BRANCH  13  15
ATOM     15  C   UNL     1       6.724  21.125   4.880  1.00  0.00     0.106 CG0
ATOM     16  G   UNL     1       6.199  20.540   6.180  1.00  0.00     0.000 G0
ENDBRANCH  13  15
ENDBRANCH  12  13
BRANCH  12  17
ATOM     17  C   UNL     1       4.945  21.493   1.530  1.00  0.00    -0.006 C 
ATOM     18  C   UNL     1       4.384  22.817   0.985  1.00  0.00     0.008 C 
ATOM     19  C   UNL     1       4.315  20.310   0.775  1.00  0.00     0.008 C 
ENDBRANCH  12  17
ENDBRANCH  11  12
ENDBRANCH   1  11
TORSDOF 1
ENDMDL
MODEL 8
REMARK VINA RESULT:    -3.777      1.702      4.296
REMARK INTER + INTRA:          -5.680
REMARK INTER:                  -6.169
REMARK INTRA:                   0.490
REMARK UNBOUND:                 0.084
REMARK SMILES CC1=CCC[C@H](C)C(=O)C[C@H](C(C)C)C(=O)C1
REMARK SMILES IDX 8 1 9 2 6 3 7 4 5 5 4 6 3 7 2 8 1 9 10 11 11 12 15 13 16 14
REMARK SMILES IDX 17 15 12 17 13 18 14 19
REMARK H PARENT
REMARK Flexibility Score: 70.00
ROOT
ATOM      1  C   UNL     1       5.334  20.947   3.843  1.00  0.00     0.136 C 
ATOM      2  O   UNL     1       6.527  21.041   3.591  1.00  0.00    -0.299 OA
ENDROOT
BRANCH   1   3
ATOM      3  C   UNL     1       4.344  21.642   2.925  1.00  0.00     0.053 C 
ATOM      4  C   UNL     1       4.731  21.445   1.452  1.00  0.00     0.016 C 
BRANCH   3   5
ATOM      5  C   UNL     1       2.911  21.127   3.203  1.00  0.00     0.015 C 
BRANCH   5   6
ATOM      6  C   UNL     1       1.946  22.250   3.646  1.00  0.00     0.028 C 
BRANCH   6   7
ATOM      7  C   UNL     1       2.588  23.186   4.644  1.00  0.00    -0.028 C 
ATOM      8  C   UNL     1       2.662  22.972   5.978  1.00  0.00    -0.070 CG0
ATOM      9  C   UNL     1       3.317  24.029   6.831  1.00  0.00     0.039 C 
ATOM     10  G   UNL     1       2.113  21.728   6.655  1.00  0.00     0.000 G0
ENDBRANCH   6   7
ENDBRANCH   5   6
ENDBRANCH   3   5
ENDBRANCH   1   3
BRANCH   1  11
ATOM     11  C   UNL     1       4.936  20.109   5.048  1.00  0.00     0.087 C 
BRANCH  11  12
ATOM     12  C   UNL     1       4.591  20.875   6.358  1.00  0.00     0.066 C 
BRANCH  12  13
ATOM     13  C   UNL     1       3.154  20.630   6.792  1.00  0.00     0.140 C 
ATOM     14  O   UNL     1       2.849  19.563   7.308  1.00  0.00    -0.299 OA
BRANCH  13  15
ATOM     15  C   UNL     1       2.120  21.727   6.672  1.00  0.00     0.106 CG0
ATOM     16  G   UNL     1       2.655  22.961   5.967  1.00  0.00     0.000 G0
ENDBRANCH  13  15
ENDBRANCH  12  13
BRANCH  12  17
ATOM     17  C   UNL     1       5.575  20.571   7.534  1.00  0.00    -0.006 C 
ATOM     18  C   UNL     1       6.619  21.686   7.709  1.00  0.00     0.008 C 
ATOM     19  C   UNL     1       6.280  19.207   7.434  1.00  0.00     0.008 C 
ENDBRANCH  12  17
ENDBRANCH  11  12
ENDBRANCH   1  11
TORSDOF 1
ENDMDL
MODEL 9
REMARK VINA RESULT:    -3.709      2.004      4.590
REMARK INTER + INTRA:          -5.576
REMARK INTER:                  -5.421
REMARK INTRA:                  -0.155
REMARK UNBOUND:                 0.084
REMARK SMILES CC1=CCC[C@H](C)C(=O)C[C@H](C(C)C)C(=O)C1
REMARK SMILES IDX 8 1 9 2 6 3 7 4 5 5 4 6 3 7 2 8 1 9 10 11 11 12 15 13 16 14
REMARK SMILES IDX 17 15 12 17 13 18 14 19
REMARK H PARENT
REMARK Flexibility Score: 70.00
ROOT
ATOM      1  C   UNL     1       4.684  20.998   3.323  1.00  0.00     0.136 C 
ATOM      2  O   UNL     1       5.875  20.730   3.403  1.00  0.00    -0.299 OA
ENDROOT
BRANCH   1   3
ATOM      3  C   UNL     1       4.061  21.108   1.943  1.00  0.00     0.053 C 
ATOM      4  C   UNL     1       2.645  20.515   1.931  1.00  0.00     0.016 C 
BRANCH   3   5
ATOM      5  C   UNL     1       4.054  22.586   1.481  1.00  0.00     0.015 C 
BRANCH   5   6
ATOM      6  C   UNL     1       2.772  23.340   1.900  1.00  0.00     0.028 C 
BRANCH   6   7
ATOM      7  C   UNL     1       3.085  24.619   2.642  1.00  0.00    -0.028 C 
ATOM      8  C   UNL     1       2.956  24.798   3.978  1.00  0.00    -0.070 CG0
ATOM      9  C   UNL     1       3.289  26.153   4.548  1.00  0.00     0.039 C 
ATOM     10  G   UNL     1       2.487  23.706   4.924  1.00  0.00     0.000 G0
ENDBRANCH   6   7
ENDBRANCH   5   6
ENDBRANCH   3   5
ENDBRANCH   1   3
BRANCH   1  11
ATOM     11  C   UNL     1       3.914  21.168   4.623  1.00  0.00     0.087 C 
BRANCH  11  12
ATOM     12  C   UNL     1       4.499  22.166   5.664  1.00  0.00     0.066 C 
BRANCH  12  13
ATOM     13  C   UNL     1       3.537  23.310   5.949  1.00  0.00     0.140 C 
ATOM     14  O   UNL     1       3.663  23.968   6.973  1.00  0.00    -0.299 OA
BRANCH  13  15
ATOM     15  C   UNL     1       2.483  23.696   4.935  1.00  0.00     0.106 CG0
ATOM     16  G   UNL     1       2.959  24.778   3.981  1.00  0.00     0.000 G0
ENDBRANCH  13  15
ENDBRANCH  12  13
BRANCH  12  17
ATOM     17  C   UNL     1       4.945  21.484   6.997  1.00  0.00    -0.006 C 
ATOM     18  C   UNL     1       6.355  20.881   6.887  1.00  0.00     0.008 C 
ATOM     19  C   UNL     1       3.965  20.423   7.525  1.00  0.00     0.008 C 
ENDBRANCH  12  17
ENDBRANCH  11  12
ENDBRANCH   1  11
TORSDOF 1
ENDMDL
