MODEL 1
REMARK VINA RESULT:    -4.518      0.000      0.000
REMARK INTER + INTRA:          -6.074
REMARK INTER:                  -6.102
REMARK INTRA:                   0.028
REMARK UNBOUND:                 0.028
REMARK SMILES C=C1CCC=C(C)CC[C@H]2[C@@H]1CC2(C)C
REMARK SMILES IDX 11 1 12 2 13 3 10 4 14 5 15 6 9 7 8 8 6 9 7 10 5 11 2 13
REMARK SMILES IDX 1 14 3 15 4 16
REMARK H PARENT
REMARK Flexibility Score: 70.00
ROOT
ATOM      1  C   UNL     1     103.091 106.608 128.744  1.00  0.00     0.018 C 
ATOM      2  C   UNL     1     101.635 106.909 128.360  1.00  0.00     0.015 C 
ATOM      3  C   UNL     1     101.376 105.406 128.145  1.00  0.00    -0.031 C 
ATOM      4  C   UNL     1     102.848 105.100 128.531  1.00  0.00     0.002 C 
ATOM      5  C   UNL     1     100.370 104.835 129.161  1.00  0.00     0.011 C 
ATOM      6  C   UNL     1     100.947 105.076 126.700  1.00  0.00     0.011 C 
ENDROOT
BRANCH   4   7
ATOM      7  C   UNL     1     103.710 104.343 127.487  1.00  0.00     0.009 C 
BRANCH   7   8
ATOM      8  C   UNL     1     104.856 103.533 128.131  1.00  0.00     0.030 C 
BRANCH   8   9
ATOM      9  C   UNL     1     106.227 104.107 127.815  1.00  0.00    -0.077 C 
ATOM     10  C   UNL     1     107.093 103.376 126.821  1.00  0.00     0.039 C 
ATOM     11  C   UNL     1     106.714 105.243 128.365  1.00  0.00    -0.028 CG0
ATOM     12  G   UNL     1     105.954 106.174 129.280  1.00  0.00     0.000 G0
ENDBRANCH   8   9
ENDBRANCH   7   8
ENDBRANCH   4   7
BRANCH   1  13
ATOM     13  C   UNL     1     104.168 107.304 127.915  1.00  0.00    -0.074 C 
ATOM     14  C   UNL     1     103.958 107.769 126.669  1.00  0.00     0.008 C 
BRANCH  13  15
ATOM     15  C   UNL     1     105.541 107.454 128.532  1.00  0.00     0.035 C 
BRANCH  15  16
ATOM     16  C   UNL     1     105.962 106.187 129.281  1.00  0.00     0.032 CG0
ATOM     17  G   UNL     1     106.718 105.248 128.372  1.00  0.00     0.000 G0
ENDBRANCH  15  16
ENDBRANCH  13  15
ENDBRANCH   1  13
TORSDOF 0
ENDMDL
MODEL 2
REMARK VINA RESULT:    -4.509      2.431      4.652
REMARK INTER + INTRA:          -6.063
REMARK INTER:                  -6.088
REMARK INTRA:                   0.025
REMARK UNBOUND:                 0.028
REMARK SMILES C=C1CCC=C(C)CC[C@H]2[C@@H]1CC2(C)C
REMARK SMILES IDX 11 1 12 2 13 3 10 4 14 5 15 6 9 7 8 8 6 9 7 10 5 11 2 13
REMARK SMILES IDX 1 14 3 15 4 16
REMARK H PARENT
REMARK Flexibility Score: 70.00
ROOT
ATOM      1  C   UNL     1     106.744 109.456 128.719  1.00  0.00     0.018 C 
ATOM      2  C   UNL     1     106.948 110.896 128.229  1.00  0.00     0.015 C 
ATOM      3  C   UNL     1     105.424 111.088 128.139  1.00  0.00    -0.031 C 
ATOM      4  C   UNL     1     105.214 109.631 128.633  1.00  0.00     0.002 C 
ATOM      5  C   UNL     1     104.904 112.131 129.146  1.00  0.00     0.011 C 
ATOM      6  C   UNL     1     104.947 111.418 126.710  1.00  0.00     0.011 C 
ENDROOT
BRANCH   4   7
ATOM      7  C   UNL     1     104.402 108.682 127.713  1.00  0.00     0.009 C 
BRANCH   7   8
ATOM      8  C   UNL     1     103.705 107.545 128.491  1.00  0.00     0.030 C 
BRANCH   8   9
ATOM      9  C   UNL     1     104.300 106.180 128.191  1.00  0.00    -0.077 C 
ATOM     10  C   UNL     1     103.511 105.236 127.320  1.00  0.00     0.039 C 
ATOM     11  C   UNL     1     105.503 105.763 128.650  1.00  0.00    -0.028 CG0
ATOM     12  G   UNL     1     106.487 106.604 129.428  1.00  0.00     0.000 G0
ENDBRANCH   8   9
ENDBRANCH   7   8
ENDBRANCH   4   7
BRANCH   1  13
ATOM     13  C   UNL     1     107.407 108.357 127.891  1.00  0.00    -0.074 C 
ATOM     14  C   UNL     1     107.744 108.508 126.597  1.00  0.00     0.008 C 
BRANCH  13  15
ATOM     15  C   UNL     1     107.672 107.031 128.569  1.00  0.00     0.035 C 
BRANCH  15  16
ATOM     16  C   UNL     1     106.492 106.601 129.444  1.00  0.00     0.032 CG0
ATOM     17  G   UNL     1     105.509 105.769 128.655  1.00  0.00     0.000 G0
ENDBRANCH  15  16
ENDBRANCH  13  15
ENDBRANCH   1  13
TORSDOF 0
ENDMDL
MODEL 3
REMARK VINA RESULT:    -4.496      2.466      4.702
REMARK INTER + INTRA:          -6.045
REMARK INTER:                  -6.148
REMARK INTRA:                   0.103
REMARK UNBOUND:                 0.028
REMARK SMILES C=C1CCC=C(C)CC[C@H]2[C@@H]1CC2(C)C
REMARK SMILES IDX 11 1 12 2 13 3 10 4 14 5 15 6 9 7 8 8 6 9 7 10 5 11 2 13
REMARK SMILES IDX 1 14 3 15 4 16
REMARK H PARENT
REMARK Flexibility Score: 70.00
ROOT
ATOM      1  C   UNL     1     105.863 103.071 128.820  1.00  0.00     0.018 C 
ATOM      2  C   UNL     1     105.610 101.621 128.385  1.00  0.00     0.015 C 
ATOM      3  C   UNL     1     107.125 101.400 128.222  1.00  0.00    -0.031 C 
ATOM      4  C   UNL     1     107.384 102.867 128.661  1.00  0.00     0.002 C 
ATOM      5  C   UNL     1     107.679 100.378 129.232  1.00  0.00     0.011 C 
ATOM      6  C   UNL     1     107.521 101.019 126.781  1.00  0.00     0.011 C 
ENDROOT
BRANCH   4   7
ATOM      7  C   UNL     1     108.162 103.773 127.672  1.00  0.00     0.009 C 
BRANCH   7   8
ATOM      8  C   UNL     1     109.006 104.851 128.385  1.00  0.00     0.030 C 
BRANCH   8   9
ATOM      9  C   UNL     1     108.463 106.255 128.175  1.00  0.00    -0.077 C 
ATOM     10  C   UNL     1     109.264 107.209 127.326  1.00  0.00     0.039 C 
ATOM     11  C   UNL     1     107.295 106.697 128.695  1.00  0.00    -0.028 CG0
ATOM     12  G   UNL     1     106.301 105.860 129.464  1.00  0.00     0.000 G0
ENDBRANCH   8   9
ENDBRANCH   7   8
ENDBRANCH   4   7
BRANCH   1  13
ATOM     13  C   UNL     1     105.177 104.157 127.994  1.00  0.00    -0.074 C 
ATOM     14  C   UNL     1     104.682 103.946 126.760  1.00  0.00     0.008 C 
BRANCH  13  15
ATOM     15  C   UNL     1     105.072 105.539 128.599  1.00  0.00     0.035 C 
BRANCH  15  16
ATOM     16  C   UNL     1     106.291 105.866 129.467  1.00  0.00     0.032 CG0
ATOM     17  G   UNL     1     107.291 106.699 128.701  1.00  0.00     0.000 G0
ENDBRANCH  15  16
ENDBRANCH  13  15
ENDBRANCH   1  13
TORSDOF 0
ENDMDL
MODEL 4
REMARK VINA RESULT:    -4.464      3.084      6.591
REMARK INTER + INTRA:          -6.001
REMARK INTER:                  -6.020
REMARK INTRA:                   0.019
REMARK UNBOUND:                 0.028
REMARK SMILES C=C1CCC=C(C)CC[C@H]2[C@@H]1CC2(C)C
REMARK SMILES IDX 11 1 12 2 13 3 10 4 14 5 15 6 9 7 8 8 6 9 7 10 5 11 2 13
REMARK SMILES IDX 1 14 3 15 4 16
REMARK H PARENT
REMARK Flexibility Score: 70.00
ROOT
ATOM      1  C   UNL     1     109.446 105.844 128.891  1.00  0.00     0.018 C 
ATOM      2  C   UNL     1     110.881 105.562 128.426  1.00  0.00     0.015 C 
ATOM      3  C   UNL     1     111.127 107.071 128.250  1.00  0.00    -0.031 C 
ATOM      4  C   UNL     1     109.675 107.360 128.718  1.00  0.00     0.002 C 
ATOM      5  C   UNL     1     112.181 107.611 129.234  1.00  0.00     0.011 C 
ATOM      6  C   UNL     1     111.484 107.452 126.798  1.00  0.00     0.011 C 
ENDROOT
BRANCH   4   7
ATOM      7  C   UNL     1     108.762 108.150 127.744  1.00  0.00     0.009 C 
BRANCH   7   8
ATOM      8  C   UNL     1     107.590 108.854 128.461  1.00  0.00     0.030 C 
BRANCH   8   9
ATOM      9  C   UNL     1     106.240 108.254 128.106  1.00  0.00    -0.077 C 
ATOM     10  C   UNL     1     105.380 108.978 127.103  1.00  0.00     0.039 C 
ATOM     11  C   UNL     1     105.768 107.098 128.628  1.00  0.00    -0.028 CG0
ATOM     12  G   UNL     1     106.529 106.171 129.547  1.00  0.00     0.000 G0
ENDBRANCH   8   9
ENDBRANCH   7   8
ENDBRANCH   4   7
BRANCH   1  13
ATOM     13  C   UNL     1     108.330 105.174 128.093  1.00  0.00    -0.074 C 
ATOM     14  C   UNL     1     108.457 104.816 126.801  1.00  0.00     0.008 C 
BRANCH  13  15
ATOM     15  C   UNL     1     107.015 104.922 128.798  1.00  0.00     0.035 C 
BRANCH  15  16
ATOM     16  C   UNL     1     106.532 106.168 129.546  1.00  0.00     0.032 CG0
ATOM     17  G   UNL     1     105.773 107.092 128.623  1.00  0.00     0.000 G0
ENDBRANCH  15  16
ENDBRANCH  13  15
ENDBRANCH   1  13
TORSDOF 0
ENDMDL
MODEL 5
REMARK VINA RESULT:    -4.079      3.963      6.026
REMARK INTER + INTRA:          -5.481
REMARK INTER:                  -5.554
REMARK INTRA:                   0.073
REMARK UNBOUND:                 0.028
REMARK SMILES C=C1CCC=C(C)CC[C@H]2[C@@H]1CC2(C)C
REMARK SMILES IDX 11 1 12 2 13 3 10 4 14 5 15 6 9 7 8 8 6 9 7 10 5 11 2 13
REMARK SMILES IDX 1 14 3 15 4 16
REMARK H PARENT
REMARK Flexibility Score: 70.00
ROOT
ATOM      1  C   UNL     1     104.616 109.428 127.099  1.00  0.00     0.018 C 
ATOM      2  C   UNL     1     104.604 109.598 128.625  1.00  0.00     0.015 C 
ATOM      3  C   UNL     1     105.573 110.788 128.505  1.00  0.00    -0.031 C 
ATOM      4  C   UNL     1     105.588 110.618 126.962  1.00  0.00     0.002 C 
ATOM      5  C   UNL     1     104.927 112.115 128.945  1.00  0.00     0.011 C 
ATOM      6  C   UNL     1     106.903 110.551 129.250  1.00  0.00     0.011 C 
ENDROOT
BRANCH   4   7
ATOM      7  C   UNL     1     106.966 110.385 126.290  1.00  0.00     0.009 C 
BRANCH   7   8
ATOM      8  C   UNL     1     106.935 110.621 124.764  1.00  0.00     0.030 C 
BRANCH   8   9
ATOM      9  C   UNL     1     107.126 109.340 123.970  1.00  0.00    -0.077 C 
ATOM     10  C   UNL     1     108.517 108.987 123.509  1.00  0.00     0.039 C 
ATOM     11  C   UNL     1     106.122 108.487 123.661  1.00  0.00    -0.028 CG0
ATOM     12  G   UNL     1     104.692 108.602 124.134  1.00  0.00     0.000 G0
ENDBRANCH   8   9
ENDBRANCH   7   8
ENDBRANCH   4   7
BRANCH   1  13
ATOM     13  C   UNL     1     105.046 108.062 126.572  1.00  0.00    -0.074 C 
ATOM     14  C   UNL     1     105.955 107.283 127.190  1.00  0.00     0.008 C 
BRANCH  13  15
ATOM     15  C   UNL     1     104.427 107.580 125.278  1.00  0.00     0.035 C 
BRANCH  15  16
ATOM     16  C   UNL     1     104.678 108.566 124.134  1.00  0.00     0.032 CG0
ATOM     17  G   UNL     1     106.110 108.489 123.660  1.00  0.00     0.000 G0
ENDBRANCH  15  16
ENDBRANCH  13  15
ENDBRANCH   1  13
TORSDOF 0
ENDMDL
MODEL 6
REMARK VINA RESULT:    -3.948      2.807      5.514
REMARK INTER + INTRA:          -5.305
REMARK INTER:                  -5.322
REMARK INTRA:                   0.017
REMARK UNBOUND:                 0.028
REMARK SMILES C=C1CCC=C(C)CC[C@H]2[C@@H]1CC2(C)C
REMARK SMILES IDX 11 1 12 2 13 3 10 4 14 5 15 6 9 7 8 8 6 9 7 10 5 11 2 13
REMARK SMILES IDX 1 14 3 15 4 16
REMARK H PARENT
REMARK Flexibility Score: 70.00
ROOT
ATOM      1  C   UNL     1     107.691 105.629 127.087  1.00  0.00     0.018 C 
ATOM      2  C   UNL     1     108.840 106.589 127.427  1.00  0.00     0.015 C 
ATOM      3  C   UNL     1     109.778 105.391 127.660  1.00  0.00    -0.031 C 
ATOM      4  C   UNL     1     108.617 104.418 127.318  1.00  0.00     0.002 C 
ATOM      5  C   UNL     1     110.919 105.332 126.628  1.00  0.00     0.011 C 
ATOM      6  C   UNL     1     110.334 105.340 129.098  1.00  0.00     0.011 C 
ENDROOT
BRANCH   4   7
ATOM      7  C   UNL     1     108.229 103.373 128.397  1.00  0.00     0.009 C 
BRANCH   7   8
ATOM      8  C   UNL     1     107.543 102.125 127.801  1.00  0.00     0.030 C 
BRANCH   8   9
ATOM      9  C   UNL     1     106.079 102.020 128.191  1.00  0.00    -0.077 C 
ATOM     10  C   UNL     1     105.694 101.023 129.255  1.00  0.00     0.039 C 
ATOM     11  C   UNL     1     105.097 102.777 127.649  1.00  0.00    -0.028 CG0
ATOM     12  G   UNL     1     105.299 103.907 126.667  1.00  0.00     0.000 G0
ENDBRANCH   8   9
ENDBRANCH   7   8
ENDBRANCH   4   7
BRANCH   1  13
ATOM     13  C   UNL     1     106.425 105.759 127.931  1.00  0.00    -0.074 C 
ATOM     14  C   UNL     1     106.418 106.266 129.179  1.00  0.00     0.008 C 
BRANCH  13  15
ATOM     15  C   UNL     1     105.126 105.272 127.330  1.00  0.00     0.035 C 
BRANCH  15  16
ATOM     16  C   UNL     1     105.295 103.907 126.656  1.00  0.00     0.032 CG0
ATOM     17  G   UNL     1     105.094 102.787 127.649  1.00  0.00     0.000 G0
ENDBRANCH  15  16
ENDBRANCH  13  15
ENDBRANCH   1  13
TORSDOF 0
ENDMDL
MODEL 7
REMARK VINA RESULT:    -3.936      1.484      4.410
REMARK INTER + INTRA:          -5.289
REMARK INTER:                  -5.343
REMARK INTRA:                   0.054
REMARK UNBOUND:                 0.028
REMARK SMILES C=C1CCC=C(C)CC[C@H]2[C@@H]1CC2(C)C
REMARK SMILES IDX 11 1 12 2 13 3 10 4 14 5 15 6 9 7 8 8 6 9 7 10 5 11 2 13
REMARK SMILES IDX 1 14 3 15 4 16
REMARK H PARENT
REMARK Flexibility Score: 70.00
ROOT
ATOM      1  C   UNL     1     106.108 104.778 127.638  1.00  0.00     0.018 C 
ATOM      2  C   UNL     1     107.037 103.587 127.914  1.00  0.00     0.015 C 
ATOM      3  C   UNL     1     105.839 102.624 127.819  1.00  0.00    -0.031 C 
ATOM      4  C   UNL     1     104.897 103.827 127.541  1.00  0.00     0.002 C 
ATOM      5  C   UNL     1     105.947 101.671 126.615  1.00  0.00     0.011 C 
ATOM      6  C   UNL     1     105.603 101.836 129.124  1.00  0.00     0.011 C 
ENDROOT
BRANCH   4   7
ATOM      7  C   UNL     1     103.705 104.031 128.513  1.00  0.00     0.009 C 
BRANCH   7   8
ATOM      8  C   UNL     1     102.497 104.718 127.841  1.00  0.00     0.030 C 
BRANCH   8   9
ATOM      9  C   UNL     1     102.255 106.123 128.366  1.00  0.00    -0.077 C 
ATOM     10  C   UNL     1     101.056 106.357 129.249  1.00  0.00     0.039 C 
ATOM     11  C   UNL     1     103.060 107.177 128.098  1.00  0.00    -0.028 CG0
ATOM     12  G   UNL     1     104.365 107.117 127.341  1.00  0.00     0.000 G0
ENDBRANCH   8   9
ENDBRANCH   7   8
ENDBRANCH   4   7
BRANCH   1  13
ATOM     13  C   UNL     1     106.093 105.884 128.690  1.00  0.00    -0.074 C 
ATOM     14  C   UNL     1     106.501 105.702 129.960  1.00  0.00     0.008 C 
BRANCH  13  15
ATOM     15  C   UNL     1     105.573 107.242 128.274  1.00  0.00     0.035 C 
BRANCH  15  16
ATOM     16  C   UNL     1     104.378 107.119 127.324  1.00  0.00     0.032 CG0
ATOM     17  G   UNL     1     103.075 107.187 128.085  1.00  0.00     0.000 G0
ENDBRANCH  15  16
ENDBRANCH  13  15
ENDBRANCH   1  13
TORSDOF 0
ENDMDL
MODEL 8
REMARK VINA RESULT:    -3.907      3.724      4.930
REMARK INTER + INTRA:          -5.250
REMARK INTER:                  -5.248
REMARK INTRA:                  -0.002
REMARK UNBOUND:                 0.028
REMARK SMILES C=C1CCC=C(C)CC[C@H]2[C@@H]1CC2(C)C
REMARK SMILES IDX 11 1 12 2 13 3 10 4 14 5 15 6 9 7 8 8 6 9 7 10 5 11 2 13
REMARK SMILES IDX 1 14 3 15 4 16
REMARK H PARENT
REMARK Flexibility Score: 70.00
ROOT
ATOM      1  C   UNL     1     106.588 104.168 126.813  1.00  0.00     0.018 C 
ATOM      2  C   UNL     1     105.809 102.855 126.660  1.00  0.00     0.015 C 
ATOM      3  C   UNL     1     106.239 102.429 128.076  1.00  0.00    -0.031 C 
ATOM      4  C   UNL     1     107.030 103.756 128.232  1.00  0.00     0.002 C 
ATOM      5  C   UNL     1     105.048 102.336 129.047  1.00  0.00     0.011 C 
ATOM      6  C   UNL     1     107.057 101.121 128.081  1.00  0.00     0.011 C 
ENDROOT
BRANCH   4   7
ATOM      7  C   UNL     1     108.546 103.643 128.542  1.00  0.00     0.009 C 
BRANCH   7   8
ATOM      8  C   UNL     1     109.109 104.900 129.240  1.00  0.00     0.030 C 
BRANCH   8   9
ATOM      9  C   UNL     1     110.071 105.678 128.358  1.00  0.00    -0.077 C 
ATOM     10  C   UNL     1     111.548 105.545 128.626  1.00  0.00     0.039 C 
ATOM     11  C   UNL     1     109.681 106.475 127.337  1.00  0.00    -0.028 CG0
ATOM     12  G   UNL     1     108.265 106.639 126.839  1.00  0.00     0.000 G0
ENDBRANCH   8   9
ENDBRANCH   7   8
ENDBRANCH   4   7
BRANCH   1  13
ATOM     13  C   UNL     1     107.660 104.448 125.761  1.00  0.00    -0.074 C 
ATOM     14  C   UNL     1     108.282 103.478 125.064  1.00  0.00     0.008 C 
BRANCH  13  15
ATOM     15  C   UNL     1     108.045 105.890 125.516  1.00  0.00     0.035 C 
BRANCH  15  16
ATOM     16  C   UNL     1     108.249 106.648 126.830  1.00  0.00     0.032 CG0
ATOM     17  G   UNL     1     109.664 106.487 127.332  1.00  0.00     0.000 G0
ENDBRANCH  15  16
ENDBRANCH  13  15
ENDBRANCH   1  13
TORSDOF 0
ENDMDL
MODEL 9
REMARK VINA RESULT:    -3.902      2.674      4.923
REMARK INTER + INTRA:          -5.243
REMARK INTER:                  -5.238
REMARK INTRA:                  -0.005
REMARK UNBOUND:                 0.028
REMARK SMILES C=C1CCC=C(C)CC[C@H]2[C@@H]1CC2(C)C
REMARK SMILES IDX 11 1 12 2 13 3 10 4 14 5 15 6 9 7 8 8 6 9 7 10 5 11 2 13
REMARK SMILES IDX 1 14 3 15 4 16
REMARK H PARENT
REMARK Flexibility Score: 70.00
ROOT
ATOM      1  C   UNL     1     104.120 109.178 128.238  1.00  0.00     0.018 C 
ATOM      2  C   UNL     1     105.344 110.084 128.436  1.00  0.00     0.015 C 
ATOM      3  C   UNL     1     105.566 110.127 126.913  1.00  0.00    -0.031 C 
ATOM      4  C   UNL     1     104.330 109.210 126.709  1.00  0.00     0.002 C 
ATOM      5  C   UNL     1     105.355 111.537 126.331  1.00  0.00     0.011 C 
ATOM      6  C   UNL     1     106.937 109.559 126.494  1.00  0.00     0.011 C 
ENDROOT
BRANCH   4   7
ATOM      7  C   UNL     1     104.558 107.873 125.957  1.00  0.00     0.009 C 
BRANCH   7   8
ATOM      8  C   UNL     1     103.267 107.320 125.315  1.00  0.00     0.030 C 
BRANCH   8   9
ATOM      9  C   UNL     1     102.777 106.048 125.986  1.00  0.00    -0.077 C 
ATOM     10  C   UNL     1     103.038 104.733 125.297  1.00  0.00     0.039 C 
ATOM     11  C   UNL     1     102.131 106.024 127.174  1.00  0.00    -0.028 CG0
ATOM     12  G   UNL     1     101.888 107.216 128.069  1.00  0.00     0.000 G0
ENDBRANCH   8   9
ENDBRANCH   7   8
ENDBRANCH   4   7
BRANCH   1  13
ATOM     13  C   UNL     1     104.149 107.831 128.956  1.00  0.00    -0.074 C 
ATOM     14  C   UNL     1     105.289 107.195 129.288  1.00  0.00     0.008 C 
BRANCH  13  15
ATOM     15  C   UNL     1     102.824 107.182 129.287  1.00  0.00     0.035 C 
BRANCH  15  16
ATOM     16  C   UNL     1     101.875 107.198 128.085  1.00  0.00     0.032 CG0
ATOM     17  G   UNL     1     102.130 106.016 127.181  1.00  0.00     0.000 G0
ENDBRANCH  15  16
ENDBRANCH  13  15
ENDBRANCH   1  13
TORSDOF 0
ENDMDL
