MODEL 1
REMARK VINA RESULT:    -6.357      0.000      0.000
REMARK INTER + INTRA:          -9.442
REMARK INTER:                  -8.587
REMARK INTRA:                  -0.854
REMARK UNBOUND:                -0.854
REMARK SMILES O=c1c(-c2ccc(O)cc2)coc2c([C@H]3O[C@@H](CO)[C@@H](O)[C@H](O)[C@H]3O)c(O)ccc12
REMARK SMILES IDX 3 1 11 2 12 3 13 4 30 5 2 6 1 7 29 8 28 9 26 10 14 11 4 12
REMARK SMILES IDX 5 13 6 14 7 15 10 16 9 17 8 18 15 20 24 21 16 22 22 23 17 24
REMARK SMILES IDX 20 25 25 26 23 28 18 30 19 31 21 33 27 35
REMARK H PARENT 8 19 25 27 23 29 19 32 21 34 27 36
REMARK Flexibility Score: inf
ROOT
ATOM      1  C   UNL     1      -5.932   6.137  10.151  1.00  0.00     0.065 A 
ATOM      2  C   UNL     1      -5.857   5.143  11.137  1.00  0.00     0.208 A 
ATOM      3  O   UNL     1      -4.684   4.671  11.541  1.00  0.00    -0.463 OA
ATOM      4  C   UNL     1      -3.521   5.095  11.054  1.00  0.00     0.147 A 
ATOM      5  C   UNL     1      -3.503   6.105  10.064  1.00  0.00     0.066 A 
ATOM      6  C   UNL     1      -4.728   6.630   9.614  1.00  0.00     0.200 A 
ATOM      7  O   UNL     1      -4.748   7.552   8.752  1.00  0.00    -0.288 OA
ATOM      8  C   UNL     1      -2.276   6.567   9.567  1.00  0.00     0.020 A 
ATOM      9  C   UNL     1      -1.079   6.042  10.053  1.00  0.00     0.047 A 
ATOM     10  C   UNL     1      -1.084   5.045  11.036  1.00  0.00     0.125 A 
ATOM     11  C   UNL     1      -2.310   4.539  11.531  1.00  0.00     0.069 A 
ENDROOT
BRANCH   1  12
ATOM     12  C   UNL     1      -7.255   6.644   9.709  1.00  0.00    -0.011 A 
ATOM     13  C   UNL     1      -7.872   6.129   8.554  1.00  0.00     0.013 A 
ATOM     14  C   UNL     1      -9.123   6.604   8.149  1.00  0.00     0.047 A 
ATOM     15  C   UNL     1      -9.775   7.595   8.894  1.00  0.00     0.115 A 
ATOM     16  C   UNL     1      -7.921   7.633  10.456  1.00  0.00     0.013 A 
ATOM     17  C   UNL     1      -9.172   8.106  10.047  1.00  0.00     0.047 A 
BRANCH  15  18
ATOM     18  O   UNL     1     -11.022   8.076   8.498  1.00  0.00    -0.508 OA
ATOM     19  H   UNL     1     -11.830   8.010   9.104  1.00  0.00     0.293 HD
ENDBRANCH  15  18
ENDBRANCH   1  12
BRANCH  11  20
ATOM     20  C   UNL     1      -2.346   3.470  12.617  1.00  0.00     0.188 C 
ATOM     21  C   UNL     1      -2.112   4.104  14.008  1.00  0.00     0.179 C 
ATOM     22  O   UNL     1      -1.384   2.461  12.349  1.00  0.00    -0.362 OA
ATOM     23  C   UNL     1      -2.124   3.009  15.094  1.00  0.00     0.177 C 
ATOM     24  C   UNL     1      -1.524   1.380  13.257  1.00  0.00     0.176 C 
ATOM     25  C   UNL     1      -1.200   1.838  14.701  1.00  0.00     0.177 C 
BRANCH  21  26
ATOM     26  O   UNL     1      -0.884   4.786  14.026  1.00  0.00    -0.387 OA
ATOM     27  H   UNL     1      -0.672   5.023  13.085  1.00  0.00     0.211 HD
ENDBRANCH  21  26
BRANCH  23  28
ATOM     28  O   UNL     1      -3.440   2.549  15.272  1.00  0.00    -0.387 OA
ATOM     29  H   UNL     1      -3.385   1.569  15.423  1.00  0.00     0.211 HD
ENDBRANCH  23  28
BRANCH  24  30
ATOM     30  C   UNL     1      -0.605   0.236  12.798  1.00  0.00     0.191 C 
BRANCH  30  31
ATOM     31  O   UNL     1      -1.352  -0.848  12.313  1.00  0.00    -0.394 OA
ATOM     32  H   UNL     1      -2.302  -0.560  12.310  1.00  0.00     0.210 HD
ENDBRANCH  30  31
ENDBRANCH  24  30
BRANCH  25  33
ATOM     33  O   UNL     1       0.139   2.256  14.797  1.00  0.00    -0.388 OA
ATOM     34  H   UNL     1       0.153   3.075  15.357  1.00  0.00     0.211 HD
ENDBRANCH  25  33
ENDBRANCH  11  20
BRANCH  10  35
ATOM     35  O   UNL     1       0.132   4.564  11.521  1.00  0.00    -0.507 OA
ATOM     36  H   UNL     1       1.002   4.711  11.024  1.00  0.00     0.293 HD
ENDBRANCH  10  35
TORSDOF 9
ENDMDL
MODEL 2
REMARK VINA RESULT:    -6.296      2.251      3.260
REMARK INTER + INTRA:          -9.359
REMARK INTER:                  -8.981
REMARK INTRA:                  -0.377
REMARK UNBOUND:                -0.854
REMARK SMILES O=c1c(-c2ccc(O)cc2)coc2c([C@H]3O[C@@H](CO)[C@@H](O)[C@H](O)[C@H]3O)c(O)ccc12
REMARK SMILES IDX 3 1 11 2 12 3 13 4 30 5 2 6 1 7 29 8 28 9 26 10 14 11 4 12
REMARK SMILES IDX 5 13 6 14 7 15 10 16 9 17 8 18 15 20 24 21 16 22 22 23 17 24
REMARK SMILES IDX 20 25 25 26 23 28 18 30 19 31 21 33 27 35
REMARK H PARENT 8 19 25 27 23 29 19 32 21 34 27 36
REMARK Flexibility Score: inf
ROOT
ATOM      1  C   UNL     1      -6.308   5.606  10.373  1.00  0.00     0.065 A 
ATOM      2  C   UNL     1      -5.201   4.746  10.358  1.00  0.00     0.208 A 
ATOM      3  O   UNL     1      -4.163   4.957  11.158  1.00  0.00    -0.463 OA
ATOM      4  C   UNL     1      -4.097   5.975  12.013  1.00  0.00     0.147 A 
ATOM      5  C   UNL     1      -5.176   6.885  12.103  1.00  0.00     0.066 A 
ATOM      6  C   UNL     1      -6.294   6.689  11.271  1.00  0.00     0.200 A 
ATOM      7  O   UNL     1      -7.286   7.466  11.344  1.00  0.00    -0.288 OA
ATOM      8  C   UNL     1      -5.116   7.944  13.020  1.00  0.00     0.020 A 
ATOM      9  C   UNL     1      -4.004   8.093  13.847  1.00  0.00     0.047 A 
ATOM     10  C   UNL     1      -2.931   7.196  13.770  1.00  0.00     0.125 A 
ATOM     11  C   UNL     1      -2.953   6.138  12.831  1.00  0.00     0.069 A 
ENDROOT
BRANCH   1  12
ATOM     12  C   UNL     1      -7.453   5.354   9.463  1.00  0.00    -0.011 A 
ATOM     13  C   UNL     1      -8.296   4.245   9.660  1.00  0.00     0.013 A 
ATOM     14  C   UNL     1      -9.380   4.019   8.806  1.00  0.00     0.047 A 
ATOM     15  C   UNL     1      -9.638   4.900   7.748  1.00  0.00     0.115 A 
ATOM     16  C   UNL     1      -7.725   6.238   8.403  1.00  0.00     0.013 A 
ATOM     17  C   UNL     1      -8.808   6.008   7.550  1.00  0.00     0.047 A 
BRANCH  15  18
ATOM     18  O   UNL     1     -10.714   4.683   6.890  1.00  0.00    -0.508 OA
ATOM     19  H   UNL     1     -11.398   3.959   7.072  1.00  0.00     0.293 HD
ENDBRANCH  15  18
ENDBRANCH   1  12
BRANCH  11  20
ATOM     20  C   UNL     1      -1.811   5.134  12.741  1.00  0.00     0.188 C 
ATOM     21  C   UNL     1      -2.303   3.718  13.122  1.00  0.00     0.179 C 
ATOM     22  O   UNL     1      -0.731   5.537  13.569  1.00  0.00    -0.362 OA
ATOM     23  C   UNL     1      -1.133   2.716  13.053  1.00  0.00     0.177 C 
ATOM     24  C   UNL     1       0.399   4.704  13.364  1.00  0.00     0.176 C 
ATOM     25  C   UNL     1       0.094   3.255  13.818  1.00  0.00     0.177 C 
BRANCH  21  26
ATOM     26  O   UNL     1      -2.849   3.730  14.417  1.00  0.00    -0.387 OA
ATOM     27  H   UNL     1      -2.326   4.390  14.944  1.00  0.00     0.211 HD
ENDBRANCH  21  26
BRANCH  23  28
ATOM     28  O   UNL     1      -0.800   2.487  11.707  1.00  0.00    -0.387 OA
ATOM     29  H   UNL     1      -1.013   3.321  11.211  1.00  0.00     0.211 HD
ENDBRANCH  23  28
BRANCH  24  30
ATOM     30  C   UNL     1       1.592   5.305  14.124  1.00  0.00     0.191 C 
BRANCH  30  31
ATOM     31  O   UNL     1       2.266   4.322  14.863  1.00  0.00    -0.394 OA
ATOM     32  H   UNL     1       1.622   3.580  15.003  1.00  0.00     0.210 HD
ENDBRANCH  30  31
ENDBRANCH  24  30
BRANCH  25  33
ATOM     33  O   UNL     1      -0.172   3.217  15.199  1.00  0.00    -0.388 OA
ATOM     34  H   UNL     1      -0.886   3.882  15.379  1.00  0.00     0.211 HD
ENDBRANCH  25  33
ENDBRANCH  11  20
BRANCH  10  35
ATOM     35  O   UNL     1      -1.848   7.358  14.635  1.00  0.00    -0.507 OA
ATOM     36  H   UNL     1      -1.751   8.177  15.223  1.00  0.00     0.293 HD
ENDBRANCH  10  35
TORSDOF 9
ENDMDL
MODEL 3
REMARK VINA RESULT:    -6.003     15.229     16.780
REMARK INTER + INTRA:          -8.962
REMARK INTER:                  -7.976
REMARK INTRA:                  -0.986
REMARK UNBOUND:                -0.854
REMARK SMILES O=c1c(-c2ccc(O)cc2)coc2c([C@H]3O[C@@H](CO)[C@@H](O)[C@H](O)[C@H]3O)c(O)ccc12
REMARK SMILES IDX 3 1 11 2 12 3 13 4 30 5 2 6 1 7 29 8 28 9 26 10 14 11 4 12
REMARK SMILES IDX 5 13 6 14 7 15 10 16 9 17 8 18 15 20 24 21 16 22 22 23 17 24
REMARK SMILES IDX 20 25 25 26 23 28 18 30 19 31 21 33 27 35
REMARK H PARENT 8 19 25 27 23 29 19 32 21 34 27 36
REMARK Flexibility Score: inf
ROOT
ATOM      1  C   UNL     1       1.611 -10.029  11.949  1.00  0.00     0.065 A 
ATOM      2  C   UNL     1       1.273 -10.578  13.194  1.00  0.00     0.208 A 
ATOM      3  O   UNL     1       2.059 -10.407  14.250  1.00  0.00    -0.463 OA
ATOM      4  C   UNL     1       3.196  -9.717  14.208  1.00  0.00     0.147 A 
ATOM      5  C   UNL     1       3.607  -9.118  12.995  1.00  0.00     0.066 A 
ATOM      6  C   UNL     1       2.797  -9.277  11.856  1.00  0.00     0.200 A 
ATOM      7  O   UNL     1       3.120  -8.734  10.763  1.00  0.00    -0.288 OA
ATOM      8  C   UNL     1       4.795  -8.373  12.957  1.00  0.00     0.020 A 
ATOM      9  C   UNL     1       5.561  -8.214  14.111  1.00  0.00     0.047 A 
ATOM     10  C   UNL     1       5.162  -8.799  15.319  1.00  0.00     0.125 A 
ATOM     11  C   UNL     1       3.984  -9.582  15.376  1.00  0.00     0.069 A 
ENDROOT
BRANCH   1  12
ATOM     12  C   UNL     1       0.721 -10.241  10.780  1.00  0.00    -0.011 A 
ATOM     13  C   UNL     1       0.858 -11.384   9.972  1.00  0.00     0.013 A 
ATOM     14  C   UNL     1       0.011 -11.584   8.878  1.00  0.00     0.047 A 
ATOM     15  C   UNL     1      -0.987 -10.646   8.580  1.00  0.00     0.115 A 
ATOM     16  C   UNL     1      -0.288  -9.308  10.478  1.00  0.00     0.013 A 
ATOM     17  C   UNL     1      -1.133  -9.510   9.383  1.00  0.00     0.047 A 
BRANCH  15  18
ATOM     18  O   UNL     1      -1.836 -10.833   7.492  1.00  0.00    -0.508 OA
ATOM     19  H   UNL     1      -1.953 -11.744   7.064  1.00  0.00     0.293 HD
ENDBRANCH  15  18
ENDBRANCH   1  12
BRANCH  11  20
ATOM     20  C   UNL     1       3.514 -10.212  16.682  1.00  0.00     0.188 C 
ATOM     21  C   UNL     1       2.452  -9.316  17.363  1.00  0.00     0.179 C 
ATOM     22  O   UNL     1       4.616 -10.440  17.546  1.00  0.00    -0.362 OA
ATOM     23  C   UNL     1       2.004  -9.950  18.695  1.00  0.00     0.177 C 
ATOM     24  C   UNL     1       4.214 -11.178  18.689  1.00  0.00     0.176 C 
ATOM     25  C   UNL     1       3.225 -10.351  19.548  1.00  0.00     0.177 C 
BRANCH  21  26
ATOM     26  O   UNL     1       2.979  -8.034  17.594  1.00  0.00    -0.387 OA
ATOM     27  H   UNL     1       3.090  -7.604  16.705  1.00  0.00     0.211 HD
ENDBRANCH  21  26
BRANCH  23  28
ATOM     28  O   UNL     1       1.211 -11.079  18.425  1.00  0.00    -0.387 OA
ATOM     29  H   UNL     1       0.312 -10.899  18.807  1.00  0.00     0.211 HD
ENDBRANCH  23  28
BRANCH  24  30
ATOM     30  C   UNL     1       5.471 -11.573  19.482  1.00  0.00     0.191 C 
BRANCH  30  31
ATOM     31  O   UNL     1       5.168 -11.784  20.835  1.00  0.00    -0.394 OA
ATOM     32  H   UNL     1       5.543 -12.670  21.075  1.00  0.00     0.210 HD
ENDBRANCH  30  31
ENDBRANCH  24  30
BRANCH  25  33
ATOM     33  O   UNL     1       3.848  -9.188  20.035  1.00  0.00    -0.388 OA
ATOM     34  H   UNL     1       4.742  -9.133  19.608  1.00  0.00     0.211 HD
ENDBRANCH  25  33
ENDBRANCH  11  20
BRANCH  10  35
ATOM     35  O   UNL     1       5.936  -8.594  16.461  1.00  0.00    -0.507 OA
ATOM     36  H   UNL     1       5.646  -7.961  17.197  1.00  0.00     0.293 HD
ENDBRANCH  10  35
TORSDOF 9
ENDMDL
MODEL 4
REMARK VINA RESULT:    -5.985      1.315      2.093
REMARK INTER + INTRA:          -8.939
REMARK INTER:                  -9.133
REMARK INTRA:                   0.195
REMARK UNBOUND:                -0.854
REMARK SMILES O=c1c(-c2ccc(O)cc2)coc2c([C@H]3O[C@@H](CO)[C@@H](O)[C@H](O)[C@H]3O)c(O)ccc12
REMARK SMILES IDX 3 1 11 2 12 3 13 4 30 5 2 6 1 7 29 8 28 9 26 10 14 11 4 12
REMARK SMILES IDX 5 13 6 14 7 15 10 16 9 17 8 18 15 20 24 21 16 22 22 23 17 24
REMARK SMILES IDX 20 25 25 26 23 28 18 30 19 31 21 33 27 35
REMARK H PARENT 8 19 25 27 23 29 19 32 21 34 27 36
REMARK Flexibility Score: inf
ROOT
ATOM      1  C   UNL     1      -5.585   5.743  10.351  1.00  0.00     0.065 A 
ATOM      2  C   UNL     1      -5.131   4.862  11.342  1.00  0.00     0.208 A 
ATOM      3  O   UNL     1      -3.844   4.802  11.663  1.00  0.00    -0.463 OA
ATOM      4  C   UNL     1      -2.912   5.555  11.084  1.00  0.00     0.147 A 
ATOM      5  C   UNL     1      -3.284   6.481  10.081  1.00  0.00     0.066 A 
ATOM      6  C   UNL     1      -4.640   6.573   9.718  1.00  0.00     0.200 A 
ATOM      7  O   UNL     1      -5.011   7.407   8.847  1.00  0.00    -0.288 OA
ATOM      8  C   UNL     1      -2.305   7.290   9.487  1.00  0.00     0.020 A 
ATOM      9  C   UNL     1      -0.974   7.190   9.889  1.00  0.00     0.047 A 
ATOM     10  C   UNL     1      -0.594   6.280  10.883  1.00  0.00     0.125 A 
ATOM     11  C   UNL     1      -1.558   5.430  11.476  1.00  0.00     0.069 A 
ENDROOT
BRANCH   1  12
ATOM     12  C   UNL     1      -7.027   5.787  10.003  1.00  0.00    -0.011 A 
ATOM     13  C   UNL     1      -7.616   4.754   9.251  1.00  0.00     0.013 A 
ATOM     14  C   UNL     1      -8.977   4.796   8.935  1.00  0.00     0.047 A 
ATOM     15  C   UNL     1      -9.768   5.868   9.369  1.00  0.00     0.115 A 
ATOM     16  C   UNL     1      -7.831   6.856  10.441  1.00  0.00     0.013 A 
ATOM     17  C   UNL     1      -9.191   6.895  10.123  1.00  0.00     0.047 A 
BRANCH  15  18
ATOM     18  O   UNL     1     -11.125   5.920   9.058  1.00  0.00    -0.508 OA
ATOM     19  H   UNL     1     -11.456   5.794   8.109  1.00  0.00     0.293 HD
ENDBRANCH  15  18
ENDBRANCH   1  12
BRANCH  11  20
ATOM     20  C   UNL     1      -1.178   4.446  12.576  1.00  0.00     0.188 C 
ATOM     21  C   UNL     1      -0.142   3.424  12.054  1.00  0.00     0.179 C 
ATOM     22  O   UNL     1      -2.334   3.790  13.073  1.00  0.00    -0.362 OA
ATOM     23  C   UNL     1       0.214   2.419  13.168  1.00  0.00     0.177 C 
ATOM     24  C   UNL     1      -2.015   3.001  14.209  1.00  0.00     0.176 C 
ATOM     25  C   UNL     1      -1.063   1.844  13.815  1.00  0.00     0.177 C 
BRANCH  21  26
ATOM     26  O   UNL     1      -0.657   2.743  10.938  1.00  0.00    -0.387 OA
ATOM     27  H   UNL     1      -0.466   1.778  11.077  1.00  0.00     0.211 HD
ENDBRANCH  21  26
BRANCH  23  28
ATOM     28  O   UNL     1       0.999   3.064  14.139  1.00  0.00    -0.387 OA
ATOM     29  H   UNL     1       0.448   3.801  14.513  1.00  0.00     0.211 HD
ENDBRANCH  23  28
BRANCH  24  30
ATOM     30  C   UNL     1      -3.324   2.482  14.825  1.00  0.00     0.191 C 
BRANCH  30  31
ATOM     31  O   UNL     1      -3.239   1.111  15.110  1.00  0.00    -0.394 OA
ATOM     32  H   UNL     1      -3.521   0.632  14.288  1.00  0.00     0.210 HD
ENDBRANCH  30  31
ENDBRANCH  24  30
BRANCH  25  33
ATOM     33  O   UNL     1      -1.691   0.978  12.902  1.00  0.00    -0.388 OA
ATOM     34  H   UNL     1      -1.495   1.318  11.991  1.00  0.00     0.211 HD
ENDBRANCH  25  33
ENDBRANCH  11  20
BRANCH  10  35
ATOM     35  O   UNL     1       0.741   6.229  11.283  1.00  0.00    -0.507 OA
ATOM     36  H   UNL     1       1.040   5.681  12.081  1.00  0.00     0.293 HD
ENDBRANCH  10  35
TORSDOF 9
ENDMDL
MODEL 5
REMARK VINA RESULT:    -5.872     15.269     17.057
REMARK INTER + INTRA:          -8.786
REMARK INTER:                  -8.010
REMARK INTRA:                  -0.776
REMARK UNBOUND:                -0.854
REMARK SMILES O=c1c(-c2ccc(O)cc2)coc2c([C@H]3O[C@@H](CO)[C@@H](O)[C@H](O)[C@H]3O)c(O)ccc12
REMARK SMILES IDX 3 1 11 2 12 3 13 4 30 5 2 6 1 7 29 8 28 9 26 10 14 11 4 12
REMARK SMILES IDX 5 13 6 14 7 15 10 16 9 17 8 18 15 20 24 21 16 22 22 23 17 24
REMARK SMILES IDX 20 25 25 26 23 28 18 30 19 31 21 33 27 35
REMARK H PARENT 8 19 25 27 23 29 19 32 21 34 27 36
REMARK Flexibility Score: inf
ROOT
ATOM      1  C   UNL     1      -1.945 -10.244  16.287  1.00  0.00     0.065 A 
ATOM      2  C   UNL     1      -0.797  -9.562  15.862  1.00  0.00     0.208 A 
ATOM      3  O   UNL     1       0.319  -9.593  16.579  1.00  0.00    -0.463 OA
ATOM      4  C   UNL     1       0.431 -10.258  17.726  1.00  0.00     0.147 A 
ATOM      5  C   UNL     1      -0.676 -10.985  18.224  1.00  0.00     0.066 A 
ATOM      6  C   UNL     1      -1.875 -10.976  17.487  1.00  0.00     0.200 A 
ATOM      7  O   UNL     1      -2.873 -11.636  17.888  1.00  0.00    -0.288 OA
ATOM      8  C   UNL     1      -0.551 -11.704  19.421  1.00  0.00     0.020 A 
ATOM      9  C   UNL     1       0.659 -11.712  20.112  1.00  0.00     0.047 A 
ATOM     10  C   UNL     1       1.763 -11.000  19.628  1.00  0.00     0.125 A 
ATOM     11  C   UNL     1       1.654 -10.240  18.438  1.00  0.00     0.069 A 
ENDROOT
BRANCH   1  12
ATOM     12  C   UNL     1      -3.184 -10.188  15.473  1.00  0.00    -0.011 A 
ATOM     13  C   UNL     1      -3.239 -10.798  14.206  1.00  0.00     0.013 A 
ATOM     14  C   UNL     1      -4.413 -10.750  13.448  1.00  0.00     0.047 A 
ATOM     15  C   UNL     1      -5.548 -10.097  13.947  1.00  0.00     0.115 A 
ATOM     16  C   UNL     1      -4.331  -9.541  15.970  1.00  0.00     0.013 A 
ATOM     17  C   UNL     1      -5.503  -9.495  15.209  1.00  0.00     0.047 A 
BRANCH  15  18
ATOM     18  O   UNL     1      -6.722 -10.043  13.200  1.00  0.00    -0.508 OA
ATOM     19  H   UNL     1      -7.287 -10.869  13.041  1.00  0.00     0.293 HD
ENDBRANCH  15  18
ENDBRANCH   1  12
BRANCH  11  20
ATOM     20  C   UNL     1       2.844  -9.473  17.875  1.00  0.00     0.188 C 
ATOM     21  C   UNL     1       3.754 -10.415  17.052  1.00  0.00     0.179 C 
ATOM     22  O   UNL     1       3.572  -8.851  18.923  1.00  0.00    -0.362 OA
ATOM     23  C   UNL     1       4.969  -9.634  16.511  1.00  0.00     0.177 C 
ATOM     24  C   UNL     1       4.578  -7.999  18.399  1.00  0.00     0.176 C 
ATOM     25  C   UNL     1       5.645  -8.824  17.636  1.00  0.00     0.177 C 
BRANCH  21  26
ATOM     26  O   UNL     1       4.189 -11.486  17.852  1.00  0.00    -0.387 OA
ATOM     27  H   UNL     1       3.869 -12.319  17.417  1.00  0.00     0.211 HD
ENDBRANCH  21  26
BRANCH  23  28
ATOM     28  O   UNL     1       4.543  -8.773  15.484  1.00  0.00    -0.387 OA
ATOM     29  H   UNL     1       4.308  -7.909  15.911  1.00  0.00     0.211 HD
ENDBRANCH  23  28
BRANCH  24  30
ATOM     30  C   UNL     1       5.192  -7.199  19.559  1.00  0.00     0.191 C 
BRANCH  30  31
ATOM     31  O   UNL     1       5.261  -5.833  19.249  1.00  0.00    -0.394 OA
ATOM     32  H   UNL     1       5.930  -5.435  19.864  1.00  0.00     0.210 HD
ENDBRANCH  30  31
ENDBRANCH  24  30
BRANCH  25  33
ATOM     33  O   UNL     1       6.300  -9.709  18.511  1.00  0.00    -0.388 OA
ATOM     34  H   UNL     1       7.239  -9.399  18.594  1.00  0.00     0.211 HD
ENDBRANCH  25  33
ENDBRANCH  11  20
BRANCH  10  35
ATOM     35  O   UNL     1       2.968 -11.055  20.329  1.00  0.00    -0.507 OA
ATOM     36  H   UNL     1       3.200 -10.378  21.046  1.00  0.00     0.293 HD
ENDBRANCH  10  35
TORSDOF 9
ENDMDL
MODEL 6
REMARK VINA RESULT:    -5.689     15.390     17.120
REMARK INTER + INTRA:          -8.539
REMARK INTER:                  -7.625
REMARK INTRA:                  -0.913
REMARK UNBOUND:                -0.854
REMARK SMILES O=c1c(-c2ccc(O)cc2)coc2c([C@H]3O[C@@H](CO)[C@@H](O)[C@H](O)[C@H]3O)c(O)ccc12
REMARK SMILES IDX 3 1 11 2 12 3 13 4 30 5 2 6 1 7 29 8 28 9 26 10 14 11 4 12
REMARK SMILES IDX 5 13 6 14 7 15 10 16 9 17 8 18 15 20 24 21 16 22 22 23 17 24
REMARK SMILES IDX 20 25 25 26 23 28 18 30 19 31 21 33 27 35
REMARK H PARENT 8 19 25 27 23 29 19 32 21 34 27 36
REMARK Flexibility Score: inf
ROOT
ATOM      1  C   UNL     1       0.459 -10.447  13.090  1.00  0.00     0.065 A 
ATOM      2  C   UNL     1       1.791 -10.095  13.347  1.00  0.00     0.208 A 
ATOM      3  O   UNL     1       2.228  -9.944  14.591  1.00  0.00    -0.463 OA
ATOM      4  C   UNL     1       1.455 -10.113  15.661  1.00  0.00     0.147 A 
ATOM      5  C   UNL     1       0.099 -10.480  15.494  1.00  0.00     0.066 A 
ATOM      6  C   UNL     1      -0.397 -10.651  14.188  1.00  0.00     0.200 A 
ATOM      7  O   UNL     1      -1.594 -11.006  14.003  1.00  0.00    -0.288 OA
ATOM      8  C   UNL     1      -0.710 -10.679  16.622  1.00  0.00     0.020 A 
ATOM      9  C   UNL     1      -0.179 -10.526  17.902  1.00  0.00     0.047 A 
ATOM     10  C   UNL     1       1.162 -10.166  18.080  1.00  0.00     0.125 A 
ATOM     11  C   UNL     1       1.991  -9.928  16.958  1.00  0.00     0.069 A 
ENDROOT
BRANCH   1  12
ATOM     12  C   UNL     1      -0.009 -10.602  11.690  1.00  0.00    -0.011 A 
ATOM     13  C   UNL     1      -0.037 -11.869  11.078  1.00  0.00     0.013 A 
ATOM     14  C   UNL     1      -0.489 -12.010   9.763  1.00  0.00     0.047 A 
ATOM     15  C   UNL     1      -0.922 -10.888   9.043  1.00  0.00     0.115 A 
ATOM     16  C   UNL     1      -0.453  -9.483  10.962  1.00  0.00     0.013 A 
ATOM     17  C   UNL     1      -0.904  -9.627   9.647  1.00  0.00     0.047 A 
BRANCH  15  18
ATOM     18  O   UNL     1      -1.373 -11.017   7.731  1.00  0.00    -0.508 OA
ATOM     19  H   UNL     1      -1.188 -10.304   7.036  1.00  0.00     0.293 HD
ENDBRANCH  15  18
ENDBRANCH   1  12
BRANCH  11  20
ATOM     20  C   UNL     1       3.461  -9.558  17.121  1.00  0.00     0.188 C 
ATOM     21  C   UNL     1       4.334 -10.832  17.210  1.00  0.00     0.179 C 
ATOM     22  O   UNL     1       3.639  -8.739  18.267  1.00  0.00    -0.362 OA
ATOM     23  C   UNL     1       5.814 -10.444  17.402  1.00  0.00     0.177 C 
ATOM     24  C   UNL     1       4.969  -8.250  18.332  1.00  0.00     0.176 C 
ATOM     25  C   UNL     1       5.966  -9.417  18.543  1.00  0.00     0.177 C 
BRANCH  21  26
ATOM     26  O   UNL     1       3.904 -11.637  18.279  1.00  0.00    -0.387 OA
ATOM     27  H   UNL     1       4.580 -11.540  19.001  1.00  0.00     0.211 HD
ENDBRANCH  21  26
BRANCH  23  28
ATOM     28  O   UNL     1       6.311  -9.910  16.201  1.00  0.00    -0.387 OA
ATOM     29  H   UNL     1       6.008  -8.965  16.158  1.00  0.00     0.211 HD
ENDBRANCH  23  28
BRANCH  24  30
ATOM     30  C   UNL     1       5.053  -7.213  19.464  1.00  0.00     0.191 C 
BRANCH  30  31
ATOM     31  O   UNL     1       5.102  -5.909  18.950  1.00  0.00    -0.394 OA
ATOM     32  H   UNL     1       5.727  -5.399  19.529  1.00  0.00     0.210 HD
ENDBRANCH  30  31
ENDBRANCH  24  30
BRANCH  25  33
ATOM     33  O   UNL     1       5.725 -10.056  19.773  1.00  0.00    -0.388 OA
ATOM     34  H   UNL     1       6.124  -9.488  20.482  1.00  0.00     0.211 HD
ENDBRANCH  25  33
ENDBRANCH  11  20
BRANCH  10  35
ATOM     35  O   UNL     1       1.668 -10.051  19.375  1.00  0.00    -0.507 OA
ATOM     36  H   UNL     1       1.448  -9.259  19.967  1.00  0.00     0.293 HD
ENDBRANCH  10  35
TORSDOF 9
ENDMDL
MODEL 7
REMARK VINA RESULT:    -5.657      4.867      9.333
REMARK INTER + INTRA:          -8.496
REMARK INTER:                  -8.051
REMARK INTRA:                  -0.445
REMARK UNBOUND:                -0.854
REMARK SMILES O=c1c(-c2ccc(O)cc2)coc2c([C@H]3O[C@@H](CO)[C@@H](O)[C@H](O)[C@H]3O)c(O)ccc12
REMARK SMILES IDX 3 1 11 2 12 3 13 4 30 5 2 6 1 7 29 8 28 9 26 10 14 11 4 12
REMARK SMILES IDX 5 13 6 14 7 15 10 16 9 17 8 18 15 20 24 21 16 22 22 23 17 24
REMARK SMILES IDX 20 25 25 26 23 28 18 30 19 31 21 33 27 35
REMARK H PARENT 8 19 25 27 23 29 19 32 21 34 27 36
REMARK Flexibility Score: inf
ROOT
ATOM      1  C   UNL     1       3.263   6.312  14.921  1.00  0.00     0.065 A 
ATOM      2  C   UNL     1       2.171   5.435  14.945  1.00  0.00     0.208 A 
ATOM      3  O   UNL     1       1.247   5.470  13.992  1.00  0.00    -0.463 OA
ATOM      4  C   UNL     1       1.289   6.318  12.967  1.00  0.00     0.147 A 
ATOM      5  C   UNL     1       2.363   7.230  12.857  1.00  0.00     0.066 A 
ATOM      6  C   UNL     1       3.362   7.219  13.849  1.00  0.00     0.200 A 
ATOM      7  O   UNL     1       4.349   8.001  13.768  1.00  0.00    -0.288 OA
ATOM      8  C   UNL     1       2.418   8.109  11.766  1.00  0.00     0.020 A 
ATOM      9  C   UNL     1       1.425   8.076  10.788  1.00  0.00     0.047 A 
ATOM     10  C   UNL     1       0.358   7.174  10.884  1.00  0.00     0.125 A 
ATOM     11  C   UNL     1       0.263   6.299  11.992  1.00  0.00     0.069 A 
ENDROOT
BRANCH   1  12
ATOM     12  C   UNL     1       4.279   6.260  16.001  1.00  0.00    -0.011 A 
ATOM     13  C   UNL     1       4.405   7.318  16.920  1.00  0.00     0.013 A 
ATOM     14  C   UNL     1       5.357   7.259  17.942  1.00  0.00     0.047 A 
ATOM     15  C   UNL     1       6.192   6.141  18.062  1.00  0.00     0.115 A 
ATOM     16  C   UNL     1       5.117   5.138  16.134  1.00  0.00     0.013 A 
ATOM     17  C   UNL     1       6.069   5.082  17.157  1.00  0.00     0.047 A 
BRANCH  15  18
ATOM     18  O   UNL     1       7.145   6.072  19.076  1.00  0.00    -0.508 OA
ATOM     19  H   UNL     1       8.100   6.376  18.926  1.00  0.00     0.293 HD
ENDBRANCH  15  18
ENDBRANCH   1  12
BRANCH  11  20
ATOM     20  C   UNL     1      -0.874   5.292  12.112  1.00  0.00     0.188 C 
ATOM     21  C   UNL     1      -2.033   5.880  12.950  1.00  0.00     0.179 C 
ATOM     22  O   UNL     1      -0.403   4.078  12.677  1.00  0.00    -0.362 OA
ATOM     23  C   UNL     1      -3.166   4.842  13.086  1.00  0.00     0.177 C 
ATOM     24  C   UNL     1      -1.409   3.080  12.635  1.00  0.00     0.176 C 
ATOM     25  C   UNL     1      -2.605   3.477  13.537  1.00  0.00     0.177 C 
BRANCH  21  26
ATOM     26  O   UNL     1      -1.567   6.252  14.223  1.00  0.00    -0.387 OA
ATOM     27  H   UNL     1      -0.964   5.525  14.532  1.00  0.00     0.211 HD
ENDBRANCH  21  26
BRANCH  23  28
ATOM     28  O   UNL     1      -3.822   4.710  11.850  1.00  0.00    -0.387 OA
ATOM     29  H   UNL     1      -4.772   4.499  12.049  1.00  0.00     0.211 HD
ENDBRANCH  23  28
BRANCH  24  30
ATOM     30  C   UNL     1      -0.787   1.742  13.065  1.00  0.00     0.191 C 
BRANCH  30  31
ATOM     31  O   UNL     1      -1.671   1.009  13.870  1.00  0.00    -0.394 OA
ATOM     32  H   UNL     1      -1.345   0.072  13.873  1.00  0.00     0.210 HD
ENDBRANCH  30  31
ENDBRANCH  24  30
BRANCH  25  33
ATOM     33  O   UNL     1      -2.200   3.567  14.881  1.00  0.00    -0.388 OA
ATOM     34  H   UNL     1      -2.954   3.239  15.437  1.00  0.00     0.211 HD
ENDBRANCH  25  33
ENDBRANCH  11  20
BRANCH  10  35
ATOM     35  O   UNL     1      -0.601   7.148   9.872  1.00  0.00    -0.507 OA
ATOM     36  H   UNL     1      -0.530   7.739   9.052  1.00  0.00     0.293 HD
ENDBRANCH  10  35
TORSDOF 9
ENDMDL
MODEL 8
REMARK VINA RESULT:    -5.442      1.636      2.453
REMARK INTER + INTRA:          -8.206
REMARK INTER:                  -8.467
REMARK INTRA:                   0.261
REMARK UNBOUND:                -0.854
REMARK SMILES O=c1c(-c2ccc(O)cc2)coc2c([C@H]3O[C@@H](CO)[C@@H](O)[C@H](O)[C@H]3O)c(O)ccc12
REMARK SMILES IDX 3 1 11 2 12 3 13 4 30 5 2 6 1 7 29 8 28 9 26 10 14 11 4 12
REMARK SMILES IDX 5 13 6 14 7 15 10 16 9 17 8 18 15 20 24 21 16 22 22 23 17 24
REMARK SMILES IDX 20 25 25 26 23 28 18 30 19 31 21 33 27 35
REMARK H PARENT 8 19 25 27 23 29 19 32 21 34 27 36
REMARK Flexibility Score: inf
ROOT
ATOM      1  C   UNL     1      -5.565   5.905  10.036  1.00  0.00     0.065 A 
ATOM      2  C   UNL     1      -5.088   5.090  11.072  1.00  0.00     0.208 A 
ATOM      3  O   UNL     1      -3.796   5.062  11.377  1.00  0.00    -0.463 OA
ATOM      4  C   UNL     1      -2.881   5.788  10.740  1.00  0.00     0.147 A 
ATOM      5  C   UNL     1      -3.276   6.648   9.689  1.00  0.00     0.066 A 
ATOM      6  C   UNL     1      -4.638   6.704   9.341  1.00  0.00     0.200 A 
ATOM      7  O   UNL     1      -5.030   7.480   8.426  1.00  0.00    -0.288 OA
ATOM      8  C   UNL     1      -2.314   7.429   9.033  1.00  0.00     0.020 A 
ATOM      9  C   UNL     1      -0.977   7.368   9.421  1.00  0.00     0.047 A 
ATOM     10  C   UNL     1      -0.574   6.523  10.463  1.00  0.00     0.125 A 
ATOM     11  C   UNL     1      -1.520   5.701  11.120  1.00  0.00     0.069 A 
ENDROOT
BRANCH   1  12
ATOM     12  C   UNL     1      -7.012   5.913   9.707  1.00  0.00    -0.011 A 
ATOM     13  C   UNL     1      -7.555   4.954   8.833  1.00  0.00     0.013 A 
ATOM     14  C   UNL     1      -8.921   4.960   8.534  1.00  0.00     0.047 A 
ATOM     15  C   UNL     1      -9.762   5.922   9.109  1.00  0.00     0.115 A 
ATOM     16  C   UNL     1      -7.866   6.870  10.285  1.00  0.00     0.013 A 
ATOM     17  C   UNL     1      -9.231   6.874   9.984  1.00  0.00     0.047 A 
BRANCH  15  18
ATOM     18  O   UNL     1     -11.124   5.938   8.817  1.00  0.00    -0.508 OA
ATOM     19  H   UNL     1     -11.484   5.559   7.950  1.00  0.00     0.293 HD
ENDBRANCH  15  18
ENDBRANCH   1  12
BRANCH  11  20
ATOM     20  C   UNL     1      -1.114   4.790  12.272  1.00  0.00     0.188 C 
ATOM     21  C   UNL     1      -2.296   4.593  13.249  1.00  0.00     0.179 C 
ATOM     22  O   UNL     1       0.019   5.318  12.944  1.00  0.00    -0.362 OA
ATOM     23  C   UNL     1      -1.865   3.691  14.423  1.00  0.00     0.177 C 
ATOM     24  C   UNL     1       0.507   4.397  13.906  1.00  0.00     0.176 C 
ATOM     25  C   UNL     1      -0.536   4.184  15.032  1.00  0.00     0.177 C 
BRANCH  21  26
ATOM     26  O   UNL     1      -2.734   5.837  13.733  1.00  0.00    -0.387 OA
ATOM     27  H   UNL     1      -3.314   6.232  13.030  1.00  0.00     0.211 HD
ENDBRANCH  21  26
BRANCH  23  28
ATOM     28  O   UNL     1      -1.726   2.370  13.964  1.00  0.00    -0.387 OA
ATOM     29  H   UNL     1      -1.602   1.797  14.766  1.00  0.00     0.211 HD
ENDBRANCH  23  28
BRANCH  24  30
ATOM     30  C   UNL     1       1.842   4.925  14.454  1.00  0.00     0.191 C 
BRANCH  30  31
ATOM     31  O   UNL     1       2.280   6.041  13.725  1.00  0.00    -0.394 OA
ATOM     32  H   UNL     1       2.222   6.821  14.336  1.00  0.00     0.210 HD
ENDBRANCH  30  31
ENDBRANCH  24  30
BRANCH  25  33
ATOM     33  O   UNL     1      -0.765   5.387  15.725  1.00  0.00    -0.388 OA
ATOM     34  H   UNL     1      -1.224   5.154  16.573  1.00  0.00     0.211 HD
ENDBRANCH  25  33
ENDBRANCH  11  20
BRANCH  10  35
ATOM     35  O   UNL     1       0.768   6.510  10.845  1.00  0.00    -0.507 OA
ATOM     36  H   UNL     1       1.372   5.722  10.646  1.00  0.00     0.293 HD
ENDBRANCH  10  35
TORSDOF 9
ENDMDL
MODEL 9
REMARK VINA RESULT:    -5.268     16.806     18.107
REMARK INTER + INTRA:          -7.970
REMARK INTER:                  -7.084
REMARK INTRA:                  -0.886
REMARK UNBOUND:                -0.854
REMARK SMILES O=c1c(-c2ccc(O)cc2)coc2c([C@H]3O[C@@H](CO)[C@@H](O)[C@H](O)[C@H]3O)c(O)ccc12
REMARK SMILES IDX 3 1 11 2 12 3 13 4 30 5 2 6 1 7 29 8 28 9 26 10 14 11 4 12
REMARK SMILES IDX 5 13 6 14 7 15 10 16 9 17 8 18 15 20 24 21 16 22 22 23 17 24
REMARK SMILES IDX 20 25 25 26 23 28 18 30 19 31 21 33 27 35
REMARK H PARENT 8 19 25 27 23 29 19 32 21 34 27 36
REMARK Flexibility Score: inf
ROOT
ATOM      1  C   UNL     1      -1.258 -11.010  18.640  1.00  0.00     0.065 A 
ATOM      2  C   UNL     1      -0.297 -10.346  19.415  1.00  0.00     0.208 A 
ATOM      3  O   UNL     1       0.960 -10.245  19.001  1.00  0.00    -0.463 OA
ATOM      4  C   UNL     1       1.392 -10.753  17.849  1.00  0.00     0.147 A 
ATOM      5  C   UNL     1       0.486 -11.429  16.999  1.00  0.00     0.066 A 
ATOM      6  C   UNL     1      -0.856 -11.552  17.405  1.00  0.00     0.200 A 
ATOM      7  O   UNL     1      -1.697 -12.125  16.659  1.00  0.00    -0.288 OA
ATOM      8  C   UNL     1       0.936 -11.944  15.775  1.00  0.00     0.020 A 
ATOM      9  C   UNL     1       2.266 -11.782  15.392  1.00  0.00     0.047 A 
ATOM     10  C   UNL     1       3.172 -11.111  16.224  1.00  0.00     0.125 A 
ATOM     11  C   UNL     1       2.750 -10.610  17.478  1.00  0.00     0.069 A 
ENDROOT
BRANCH   1  12
ATOM     12  C   UNL     1      -2.656 -11.118  19.127  1.00  0.00    -0.011 A 
ATOM     13  C   UNL     1      -2.946 -11.769  20.340  1.00  0.00     0.013 A 
ATOM     14  C   UNL     1      -4.264 -11.858  20.798  1.00  0.00     0.047 A 
ATOM     15  C   UNL     1      -5.308 -11.295  20.053  1.00  0.00     0.115 A 
ATOM     16  C   UNL     1      -3.710 -10.548  18.390  1.00  0.00     0.013 A 
ATOM     17  C   UNL     1      -5.027 -10.640  18.850  1.00  0.00     0.047 A 
BRANCH  15  18
ATOM     18  O   UNL     1      -6.625 -11.379  20.500  1.00  0.00    -0.508 OA
ATOM     19  H   UNL     1      -6.849 -11.733  21.422  1.00  0.00     0.293 HD
ENDBRANCH  15  18
ENDBRANCH   1  12
BRANCH  11  20
ATOM     20  C   UNL     1       3.708  -9.856  18.393  1.00  0.00     0.188 C 
ATOM     21  C   UNL     1       3.833  -8.380  17.948  1.00  0.00     0.179 C 
ATOM     22  O   UNL     1       4.977 -10.491  18.412  1.00  0.00    -0.362 OA
ATOM     23  C   UNL     1       4.824  -7.635  18.864  1.00  0.00     0.177 C 
ATOM     24  C   UNL     1       5.820  -9.899  19.387  1.00  0.00     0.176 C 
ATOM     25  C   UNL     1       6.138  -8.430  19.010  1.00  0.00     0.177 C 
BRANCH  21  26
ATOM     26  O   UNL     1       4.270  -8.315  16.614  1.00  0.00    -0.387 OA
ATOM     27  H   UNL     1       4.538  -7.374  16.444  1.00  0.00     0.211 HD
ENDBRANCH  21  26
BRANCH  23  28
ATOM     28  O   UNL     1       4.233  -7.443  20.125  1.00  0.00    -0.387 OA
ATOM     29  H   UNL     1       4.961  -7.498  20.797  1.00  0.00     0.211 HD
ENDBRANCH  23  28
BRANCH  24  30
ATOM     30  C   UNL     1       7.096 -10.749  19.509  1.00  0.00     0.191 C 
BRANCH  30  31
ATOM     31  O   UNL     1       8.170  -9.981  19.981  1.00  0.00    -0.394 OA
ATOM     32  H   UNL     1       8.699 -10.569  20.580  1.00  0.00     0.210 HD
ENDBRANCH  30  31
ENDBRANCH  24  30
BRANCH  25  33
ATOM     33  O   UNL     1       6.847  -8.375  17.797  1.00  0.00    -0.388 OA
ATOM     34  H   UNL     1       7.016  -7.418  17.598  1.00  0.00     0.211 HD
ENDBRANCH  25  33
ENDBRANCH  11  20
BRANCH  10  35
ATOM     35  O   UNL     1       4.489 -10.940  15.795  1.00  0.00    -0.507 OA
ATOM     36  H   UNL     1       5.065 -10.178  16.131  1.00  0.00     0.293 HD
ENDBRANCH  10  35
TORSDOF 9
ENDMDL
