MODEL 1
REMARK VINA RESULT:    -5.431      0.000      0.000
REMARK INTER + INTRA:          -6.552
REMARK INTER:                  -6.224
REMARK INTRA:                  -0.328
REMARK UNBOUND:                -0.328
REMARK SMILES COc1ccc(C(C)=O)c(O)c1
REMARK SMILES IDX 6 1 10 2 12 3 3 4 4 5 5 6 7 7 8 8 9 9 11 10 2 12 1 13
REMARK H PARENT 11 11
REMARK Flexibility Score: inf
ROOT
ATOM      1  C   UNL     1      -8.269   0.322  -3.917  1.00  0.00     0.059 A 
ATOM      2  C   UNL     1      -7.290   1.286  -4.257  1.00  0.00     0.130 A 
ATOM      3  C   UNL     1      -7.506   2.640  -3.958  1.00  0.00     0.093 A 
ATOM      4  C   UNL     1      -8.696   3.057  -3.336  1.00  0.00     0.122 A 
ATOM      5  C   UNL     1      -9.666   2.105  -3.018  1.00  0.00     0.047 A 
ATOM      6  C   UNL     1      -9.460   0.755  -3.307  1.00  0.00     0.019 A 
ENDROOT
BRANCH   1   7
ATOM      7  C   UNL     1      -8.091  -1.129  -4.191  1.00  0.00     0.163 C 
ATOM      8  C   UNL     1      -8.532  -2.190  -3.229  1.00  0.00     0.093 C 
ATOM      9  O   UNL     1      -7.551  -1.492  -5.271  1.00  0.00    -0.294 OA
ENDBRANCH   1   7
BRANCH   2  10
ATOM     10  O   UNL     1      -6.116   0.912  -4.911  1.00  0.00    -0.507 OA
ATOM     11  H   UNL     1      -5.447   0.280  -4.487  1.00  0.00     0.293 HD
ENDBRANCH   2  10
BRANCH   4  12
ATOM     12  O   UNL     1      -8.951   4.400  -3.021  1.00  0.00    -0.497 OA
ATOM     13  C   UNL     1     -10.072   5.140  -3.496  1.00  0.00     0.278 C 
ENDBRANCH   4  12
TORSDOF 3
ENDMDL
MODEL 2
REMARK VINA RESULT:    -4.833      2.387      5.270
REMARK INTER + INTRA:          -5.868
REMARK INTER:                  -5.569
REMARK INTRA:                  -0.299
REMARK UNBOUND:                -0.328
REMARK SMILES COc1ccc(C(C)=O)c(O)c1
REMARK SMILES IDX 6 1 10 2 12 3 3 4 4 5 5 6 7 7 8 8 9 9 11 10 2 12 1 13
REMARK H PARENT 11 11
REMARK Flexibility Score: inf
ROOT
ATOM      1  C   UNL     1      -7.675  -0.109  -3.872  1.00  0.00     0.059 A 
ATOM      2  C   UNL     1      -8.091  -1.423  -3.550  1.00  0.00     0.130 A 
ATOM      3  C   UNL     1      -8.352  -2.347  -4.573  1.00  0.00     0.093 A 
ATOM      4  C   UNL     1      -8.220  -1.978  -5.924  1.00  0.00     0.122 A 
ATOM      5  C   UNL     1      -7.827  -0.675  -6.238  1.00  0.00     0.047 A 
ATOM      6  C   UNL     1      -7.560   0.249  -5.228  1.00  0.00     0.019 A 
ENDROOT
BRANCH   1   7
ATOM      7  C   UNL     1      -7.366   0.910  -2.833  1.00  0.00     0.163 C 
ATOM      8  C   UNL     1      -7.445   2.382  -3.101  1.00  0.00     0.093 C 
ATOM      9  O   UNL     1      -7.024   0.531  -1.681  1.00  0.00    -0.294 OA
ENDBRANCH   1   7
BRANCH   2  10
ATOM     10  O   UNL     1      -8.269  -1.810  -2.222  1.00  0.00    -0.507 OA
ATOM     11  H   UNL     1      -9.191  -1.915  -1.816  1.00  0.00     0.293 HD
ENDBRANCH   2  10
BRANCH   4  12
ATOM     12  O   UNL     1      -8.473  -2.870  -6.977  1.00  0.00    -0.497 OA
ATOM     13  C   UNL     1      -8.380  -4.288  -6.871  1.00  0.00     0.278 C 
ENDBRANCH   4  12
TORSDOF 3
ENDMDL
MODEL 3
REMARK VINA RESULT:    -4.745      1.789      4.714
REMARK INTER + INTRA:          -5.767
REMARK INTER:                  -5.442
REMARK INTRA:                  -0.325
REMARK UNBOUND:                -0.328
REMARK SMILES COc1ccc(C(C)=O)c(O)c1
REMARK SMILES IDX 6 1 10 2 12 3 3 4 4 5 5 6 7 7 8 8 9 9 11 10 2 12 1 13
REMARK H PARENT 11 11
REMARK Flexibility Score: inf
ROOT
ATOM      1  C   UNL     1      -8.371   0.675  -3.797  1.00  0.00     0.059 A 
ATOM      2  C   UNL     1      -7.411   0.239  -4.741  1.00  0.00     0.130 A 
ATOM      3  C   UNL     1      -7.691  -0.860  -5.569  1.00  0.00     0.093 A 
ATOM      4  C   UNL     1      -8.913  -1.547  -5.461  1.00  0.00     0.122 A 
ATOM      5  C   UNL     1      -9.849  -1.124  -4.515  1.00  0.00     0.047 A 
ATOM      6  C   UNL     1      -9.583  -0.030  -3.691  1.00  0.00     0.019 A 
ENDROOT
BRANCH   1   7
ATOM      7  C   UNL     1      -8.141   1.843  -2.905  1.00  0.00     0.163 C 
ATOM      8  C   UNL     1      -9.038   3.044  -2.903  1.00  0.00     0.093 C 
ATOM      9  O   UNL     1      -7.159   1.833  -2.116  1.00  0.00    -0.294 OA
ENDBRANCH   1   7
BRANCH   2  10
ATOM     10  O   UNL     1      -6.174   0.873  -4.847  1.00  0.00    -0.507 OA
ATOM     11  H   UNL     1      -5.382   0.427  -5.296  1.00  0.00     0.293 HD
ENDBRANCH   2  10
BRANCH   4  12
ATOM     12  O   UNL     1      -9.231  -2.650  -6.267  1.00  0.00    -0.497 OA
ATOM     13  C   UNL     1      -8.761  -3.976  -6.041  1.00  0.00     0.278 C 
ENDBRANCH   4  12
TORSDOF 3
ENDMDL
MODEL 4
REMARK VINA RESULT:    -4.735     12.110     12.977
REMARK INTER + INTRA:          -5.756
REMARK INTER:                  -5.417
REMARK INTRA:                  -0.339
REMARK UNBOUND:                -0.328
REMARK SMILES COc1ccc(C(C)=O)c(O)c1
REMARK SMILES IDX 6 1 10 2 12 3 3 4 4 5 5 6 7 7 8 8 9 9 11 10 2 12 1 13
REMARK H PARENT 11 11
REMARK Flexibility Score: inf
ROOT
ATOM      1  C   UNL     1      -3.441  -7.609   3.381  1.00  0.00     0.059 A 
ATOM      2  C   UNL     1      -2.224  -6.929   3.625  1.00  0.00     0.130 A 
ATOM      3  C   UNL     1      -1.963  -6.392   4.895  1.00  0.00     0.093 A 
ATOM      4  C   UNL     1      -2.908  -6.505   5.930  1.00  0.00     0.122 A 
ATOM      5  C   UNL     1      -4.115  -7.161   5.680  1.00  0.00     0.047 A 
ATOM      6  C   UNL     1      -4.382  -7.704   4.423  1.00  0.00     0.019 A 
ENDROOT
BRANCH   1   7
ATOM      7  C   UNL     1      -3.768  -8.216   2.064  1.00  0.00     0.163 C 
ATOM      8  C   UNL     1      -4.125  -9.664   1.910  1.00  0.00     0.093 C 
ATOM      9  O   UNL     1      -3.749  -7.495   1.030  1.00  0.00    -0.294 OA
ENDBRANCH   1   7
BRANCH   2  10
ATOM     10  O   UNL     1      -1.283  -6.764   2.610  1.00  0.00    -0.507 OA
ATOM     11  H   UNL     1      -1.542  -6.420   1.693  1.00  0.00     0.293 HD
ENDBRANCH   2  10
BRANCH   4  12
ATOM     12  O   UNL     1      -2.687  -5.981   7.213  1.00  0.00    -0.497 OA
ATOM     13  C   UNL     1      -3.700  -5.407   8.033  1.00  0.00     0.278 C 
ENDBRANCH   4  12
TORSDOF 3
ENDMDL
MODEL 5
REMARK VINA RESULT:    -4.632      2.158      3.354
REMARK INTER + INTRA:          -5.637
REMARK INTER:                  -5.437
REMARK INTRA:                  -0.201
REMARK UNBOUND:                -0.328
REMARK SMILES COc1ccc(C(C)=O)c(O)c1
REMARK SMILES IDX 6 1 10 2 12 3 3 4 4 5 5 6 7 7 8 8 9 9 11 10 2 12 1 13
REMARK H PARENT 11 11
REMARK Flexibility Score: inf
ROOT
ATOM      1  C   UNL     1      -8.298  -1.913  -4.646  1.00  0.00     0.059 A 
ATOM      2  C   UNL     1      -8.245  -1.660  -3.255  1.00  0.00     0.130 A 
ATOM      3  C   UNL     1      -7.835  -0.403  -2.786  1.00  0.00     0.093 A 
ATOM      4  C   UNL     1      -7.457   0.610  -3.684  1.00  0.00     0.122 A 
ATOM      5  C   UNL     1      -7.493   0.351  -5.056  1.00  0.00     0.047 A 
ATOM      6  C   UNL     1      -7.905  -0.894  -5.533  1.00  0.00     0.019 A 
ENDROOT
BRANCH   1   7
ATOM      7  C   UNL     1      -8.741  -3.218  -5.205  1.00  0.00     0.163 C 
ATOM      8  C   UNL     1      -8.654  -3.540  -6.667  1.00  0.00     0.093 C 
ATOM      9  O   UNL     1      -9.209  -4.095  -4.430  1.00  0.00    -0.294 OA
ENDBRANCH   1   7
BRANCH   2  10
ATOM     10  O   UNL     1      -8.575  -2.655  -2.335  1.00  0.00    -0.507 OA
ATOM     11  H   UNL     1      -9.300  -3.337  -2.523  1.00  0.00     0.293 HD
ENDBRANCH   2  10
BRANCH   4  12
ATOM     12  O   UNL     1      -7.040   1.880  -3.257  1.00  0.00    -0.497 OA
ATOM     13  C   UNL     1      -7.132   3.065  -4.042  1.00  0.00     0.278 C 
ENDBRANCH   4  12
TORSDOF 3
ENDMDL
MODEL 6
REMARK VINA RESULT:    -4.489     13.464     14.390
REMARK INTER + INTRA:          -5.473
REMARK INTER:                  -5.144
REMARK INTRA:                  -0.329
REMARK UNBOUND:                -0.328
REMARK SMILES COc1ccc(C(C)=O)c(O)c1
REMARK SMILES IDX 6 1 10 2 12 3 3 4 4 5 5 6 7 7 8 8 9 9 11 10 2 12 1 13
REMARK H PARENT 11 11
REMARK Flexibility Score: inf
ROOT
ATOM      1  C   UNL     1      -1.232   5.604   6.281  1.00  0.00     0.059 A 
ATOM      2  C   UNL     1      -0.024   4.876   6.161  1.00  0.00     0.130 A 
ATOM      3  C   UNL     1       0.807   4.708   7.280  1.00  0.00     0.093 A 
ATOM      4  C   UNL     1       0.462   5.271   8.521  1.00  0.00     0.122 A 
ATOM      5  C   UNL     1      -0.722   6.004   8.630  1.00  0.00     0.047 A 
ATOM      6  C   UNL     1      -1.558   6.172   7.525  1.00  0.00     0.019 A 
ENDROOT
BRANCH   1   7
ATOM      7  C   UNL     1      -2.163   5.801   5.138  1.00  0.00     0.163 C 
ATOM      8  C   UNL     1      -2.578   7.160   4.662  1.00  0.00     0.093 C 
ATOM      9  O   UNL     1      -2.626   4.793   4.538  1.00  0.00    -0.294 OA
ENDBRANCH   1   7
BRANCH   2  10
ATOM     10  O   UNL     1       0.368   4.338   4.935  1.00  0.00    -0.507 OA
ATOM     11  H   UNL     1      -0.231   3.712   4.412  1.00  0.00     0.293 HD
ENDBRANCH   2  10
BRANCH   4  12
ATOM     12  O   UNL     1       1.265   5.128   9.663  1.00  0.00    -0.497 OA
ATOM     13  C   UNL     1       1.934   3.926  10.032  1.00  0.00     0.278 C 
ENDBRANCH   4  12
TORSDOF 3
ENDMDL
MODEL 7
REMARK VINA RESULT:    -4.406     12.124     13.736
REMARK INTER + INTRA:          -5.378
REMARK INTER:                  -5.058
REMARK INTRA:                  -0.321
REMARK UNBOUND:                -0.328
REMARK SMILES COc1ccc(C(C)=O)c(O)c1
REMARK SMILES IDX 6 1 10 2 12 3 3 4 4 5 5 6 7 7 8 8 9 9 11 10 2 12 1 13
REMARK H PARENT 11 11
REMARK Flexibility Score: inf
ROOT
ATOM      1  C   UNL     1      -3.210  -8.119   3.382  1.00  0.00     0.059 A 
ATOM      2  C   UNL     1      -3.195  -6.781   3.843  1.00  0.00     0.130 A 
ATOM      3  C   UNL     1      -2.614  -6.473   5.083  1.00  0.00     0.093 A 
ATOM      4  C   UNL     1      -2.057  -7.483   5.886  1.00  0.00     0.122 A 
ATOM      5  C   UNL     1      -2.090  -8.805   5.436  1.00  0.00     0.047 A 
ATOM      6  C   UNL     1      -2.661  -9.122   4.203  1.00  0.00     0.019 A 
ENDROOT
BRANCH   1   7
ATOM      7  C   UNL     1      -3.794  -8.507   2.071  1.00  0.00     0.163 C 
ATOM      8  C   UNL     1      -4.471  -9.825   1.849  1.00  0.00     0.093 C 
ATOM      9  O   UNL     1      -3.723  -7.704   1.102  1.00  0.00    -0.294 OA
ENDBRANCH   1   7
BRANCH   2  10
ATOM     10  O   UNL     1      -3.774  -5.760   3.090  1.00  0.00    -0.507 OA
ATOM     11  H   UNL     1      -4.727  -5.820   2.754  1.00  0.00     0.293 HD
ENDBRANCH   2  10
BRANCH   4  12
ATOM     12  O   UNL     1      -1.468  -7.218   7.131  1.00  0.00    -0.497 OA
ATOM     13  C   UNL     1      -1.889  -7.799   8.362  1.00  0.00     0.278 C 
ENDBRANCH   4  12
TORSDOF 3
ENDMDL
MODEL 8
REMARK VINA RESULT:    -4.273     12.448     13.682
REMARK INTER + INTRA:          -5.226
REMARK INTER:                  -4.896
REMARK INTRA:                  -0.329
REMARK UNBOUND:                -0.328
REMARK SMILES COc1ccc(C(C)=O)c(O)c1
REMARK SMILES IDX 6 1 10 2 12 3 3 4 4 5 5 6 7 7 8 8 9 9 11 10 2 12 1 13
REMARK H PARENT 11 11
REMARK Flexibility Score: inf
ROOT
ATOM      1  C   UNL     1      -2.870  -7.009   5.315  1.00  0.00     0.059 A 
ATOM      2  C   UNL     1      -1.907  -6.917   4.282  1.00  0.00     0.130 A 
ATOM      3  C   UNL     1      -2.224  -7.356   2.987  1.00  0.00     0.093 A 
ATOM      4  C   UNL     1      -3.488  -7.905   2.705  1.00  0.00     0.122 A 
ATOM      5  C   UNL     1      -4.428  -8.010   3.732  1.00  0.00     0.047 A 
ATOM      6  C   UNL     1      -4.124  -7.572   5.021  1.00  0.00     0.019 A 
ENDROOT
BRANCH   1   7
ATOM      7  C   UNL     1      -2.600  -6.544   6.702  1.00  0.00     0.163 C 
ATOM      8  C   UNL     1      -3.414  -5.475   7.366  1.00  0.00     0.093 C 
ATOM      9  O   UNL     1      -1.654  -7.062   7.354  1.00  0.00    -0.294 OA
ENDBRANCH   1   7
BRANCH   2  10
ATOM     10  O   UNL     1      -0.631  -6.415   4.536  1.00  0.00    -0.507 OA
ATOM     11  H   UNL     1      -0.337  -5.508   4.194  1.00  0.00     0.293 HD
ENDBRANCH   2  10
BRANCH   4  12
ATOM     12  O   UNL     1      -3.844  -8.357   1.425  1.00  0.00    -0.497 OA
ATOM     13  C   UNL     1      -4.382  -9.646   1.148  1.00  0.00     0.278 C 
ENDBRANCH   4  12
TORSDOF 3
ENDMDL
MODEL 9
REMARK VINA RESULT:    -4.207     10.900     12.505
REMARK INTER + INTRA:          -5.150
REMARK INTER:                  -4.843
REMARK INTRA:                  -0.307
REMARK UNBOUND:                -0.328
REMARK SMILES COc1ccc(C(C)=O)c(O)c1
REMARK SMILES IDX 6 1 10 2 12 3 3 4 4 5 5 6 7 7 8 8 9 9 11 10 2 12 1 13
REMARK H PARENT 11 11
REMARK Flexibility Score: inf
ROOT
ATOM      1  C   UNL     1       1.975   8.653  -5.476  1.00  0.00     0.059 A 
ATOM      2  C   UNL     1       1.525   7.927  -6.605  1.00  0.00     0.130 A 
ATOM      3  C   UNL     1       0.200   8.067  -7.045  1.00  0.00     0.093 A 
ATOM      4  C   UNL     1      -0.697   8.911  -6.367  1.00  0.00     0.122 A 
ATOM      5  C   UNL     1      -0.254   9.612  -5.243  1.00  0.00     0.047 A 
ATOM      6  C   UNL     1       1.063   9.483  -4.800  1.00  0.00     0.019 A 
ENDROOT
BRANCH   1   7
ATOM      7  C   UNL     1       3.371   8.561  -4.971  1.00  0.00     0.163 C 
ATOM      8  C   UNL     1       4.329   9.712  -5.038  1.00  0.00     0.093 C 
ATOM      9  O   UNL     1       3.775   7.479  -4.466  1.00  0.00    -0.294 OA
ENDBRANCH   1   7
BRANCH   2  10
ATOM     10  O   UNL     1       2.377   7.051  -7.277  1.00  0.00    -0.507 OA
ATOM     11  H   UNL     1       3.043   6.470  -6.782  1.00  0.00     0.293 HD
ENDBRANCH   2  10
BRANCH   4  12
ATOM     12  O   UNL     1      -2.029   9.078  -6.774  1.00  0.00    -0.497 OA
ATOM     13  C   UNL     1      -2.920  10.051  -6.236  1.00  0.00     0.278 C 
ENDBRANCH   4  12
TORSDOF 3
ENDMDL
