MODEL 1
REMARK VINA RESULT:    -3.328      0.000      0.000
REMARK INTER + INTRA:          -5.759
REMARK INTER:                  -4.593
REMARK INTRA:                  -1.166
REMARK UNBOUND:                -1.166
REMARK SMILES CCCCc1cccc(O)c1CCCC
REMARK SMILES IDX 5 1 11 2 9 3 8 4 7 5 6 6 4 7 3 8 2 9 1 10 12 11 13 12 14 13
REMARK SMILES IDX 15 14 10 15
REMARK H PARENT 10 16
REMARK Flexibility Score: inf
ROOT
ATOM      1  C   UNL     1      78.506   2.467  66.885  1.00  0.00    -0.041 A 
ATOM      2  C   UNL     1      79.768   2.846  66.336  1.00  0.00    -0.003 A 
ATOM      3  C   UNL     1      80.872   3.010  67.207  1.00  0.00     0.119 A 
ATOM      4  C   UNL     1      80.715   2.846  68.588  1.00  0.00     0.046 A 
ATOM      5  C   UNL     1      79.473   2.519  69.121  1.00  0.00     0.004 A 
ATOM      6  C   UNL     1      78.379   2.331  68.280  1.00  0.00     0.004 A 
ENDROOT
BRANCH   1   7
ATOM      7  C   UNL     1      77.276   2.194  66.041  1.00  0.00     0.036 C 
BRANCH   7   8
ATOM      8  C   UNL     1      76.433   3.464  65.852  1.00  0.00     0.004 C 
BRANCH   8   9
ATOM      9  C   UNL     1      76.374   3.921  64.387  1.00  0.00    -0.003 C 
ATOM     10  C   UNL     1      77.009   5.294  64.169  1.00  0.00     0.004 C 
ENDBRANCH   8   9
ENDBRANCH   7   8
ENDBRANCH   1   7
BRANCH   2  11
ATOM     11  C   UNL     1      79.972   3.122  64.856  1.00  0.00     0.040 C 
BRANCH  11  12
ATOM     12  C   UNL     1      80.028   1.811  64.050  1.00  0.00     0.005 C 
BRANCH  12  13
ATOM     13  C   UNL     1      79.375   1.939  62.665  1.00  0.00    -0.003 C 
ATOM     14  C   UNL     1      79.404   3.371  62.132  1.00  0.00     0.004 C 
ENDBRANCH  12  13
ENDBRANCH  11  12
ENDBRANCH   2  11
BRANCH   3  15
ATOM     15  O   UNL     1      82.128   3.337  66.694  1.00  0.00    -0.508 OA
ATOM     16  H   UNL     1      82.247   4.059  65.993  1.00  0.00     0.293 HD
ENDBRANCH   3  15
TORSDOF 7
ENDMDL
MODEL 2
REMARK VINA RESULT:    -3.211      1.547      3.294
REMARK INTER + INTRA:          -5.597
REMARK INTER:                  -4.284
REMARK INTRA:                  -1.312
REMARK UNBOUND:                -1.166
REMARK SMILES CCCCc1cccc(O)c1CCCC
REMARK SMILES IDX 5 1 11 2 9 3 8 4 7 5 6 6 4 7 3 8 2 9 1 10 12 11 13 12 14 13
REMARK SMILES IDX 15 14 10 15
REMARK H PARENT 10 16
REMARK Flexibility Score: inf
ROOT
ATOM      1  C   UNL     1      79.917   2.740  66.176  1.00  0.00    -0.041 A 
ATOM      2  C   UNL     1      78.695   2.498  66.873  1.00  0.00    -0.003 A 
ATOM      3  C   UNL     1      78.694   2.544  68.288  1.00  0.00     0.119 A 
ATOM      4  C   UNL     1      79.881   2.780  68.990  1.00  0.00     0.046 A 
ATOM      5  C   UNL     1      81.076   2.972  68.306  1.00  0.00     0.004 A 
ATOM      6  C   UNL     1      81.096   2.953  66.913  1.00  0.00     0.004 A 
ENDROOT
BRANCH   1   7
ATOM      7  C   UNL     1      80.020   2.786  64.663  1.00  0.00     0.036 C 
BRANCH   7   8
ATOM      8  C   UNL     1      79.906   4.225  64.138  1.00  0.00     0.004 C 
BRANCH   8   9
ATOM      9  C   UNL     1      79.645   4.281  62.625  1.00  0.00    -0.003 C 
ATOM     10  C   UNL     1      79.649   2.899  61.971  1.00  0.00     0.004 C 
ENDBRANCH   8   9
ENDBRANCH   7   8
ENDBRANCH   1   7
BRANCH   2  11
ATOM     11  C   UNL     1      77.397   2.151  66.163  1.00  0.00     0.040 C 
BRANCH  11  12
ATOM     12  C   UNL     1      76.607   3.422  65.799  1.00  0.00     0.005 C 
BRANCH  12  13
ATOM     13  C   UNL     1      76.247   3.487  64.307  1.00  0.00    -0.003 C 
ATOM     14  C   UNL     1      76.411   2.141  63.602  1.00  0.00     0.004 C 
ENDBRANCH  12  13
ENDBRANCH  11  12
ENDBRANCH   2  11
BRANCH   3  15
ATOM     15  O   UNL     1      77.506   2.355  68.995  1.00  0.00    -0.508 OA
ATOM     16  H   UNL     1      77.202   3.004  69.712  1.00  0.00     0.293 HD
ENDBRANCH   3  15
TORSDOF 7
ENDMDL
MODEL 3
REMARK VINA RESULT:    -3.210      8.273      9.957
REMARK INTER + INTRA:          -5.596
REMARK INTER:                  -4.327
REMARK INTRA:                  -1.269
REMARK UNBOUND:                -1.166
REMARK SMILES CCCCc1cccc(O)c1CCCC
REMARK SMILES IDX 5 1 11 2 9 3 8 4 7 5 6 6 4 7 3 8 2 9 1 10 12 11 13 12 14 13
REMARK SMILES IDX 15 14 10 15
REMARK H PARENT 10 16
REMARK Flexibility Score: inf
ROOT
ATOM      1  C   UNL     1      82.971   5.277  57.862  1.00  0.00    -0.041 A 
ATOM      2  C   UNL     1      82.815   6.636  57.454  1.00  0.00    -0.003 A 
ATOM      3  C   UNL     1      82.849   7.654  58.436  1.00  0.00     0.119 A 
ATOM      4  C   UNL     1      82.988   7.327  59.790  1.00  0.00     0.046 A 
ATOM      5  C   UNL     1      83.095   5.998  60.185  1.00  0.00     0.004 A 
ATOM      6  C   UNL     1      83.087   4.983  59.232  1.00  0.00     0.004 A 
ENDROOT
BRANCH   1   7
ATOM      7  C   UNL     1      83.022   4.114  56.889  1.00  0.00     0.036 C 
BRANCH   7   8
ATOM      8  C   UNL     1      82.301   2.881  57.452  1.00  0.00     0.004 C 
BRANCH   8   9
ATOM      9  C   UNL     1      81.380   2.214  56.419  1.00  0.00    -0.003 C 
ATOM     10  C   UNL     1      81.856   2.419  54.981  1.00  0.00     0.004 C 
ENDBRANCH   8   9
ENDBRANCH   7   8
ENDBRANCH   1   7
BRANCH   2  11
ATOM     11  C   UNL     1      82.574   7.039  56.008  1.00  0.00     0.040 C 
BRANCH  11  12
ATOM     12  C   UNL     1      81.069   7.195  55.719  1.00  0.00     0.005 C 
BRANCH  12  13
ATOM     13  C   UNL     1      80.442   5.917  55.140  1.00  0.00    -0.003 C 
ATOM     14  C   UNL     1      79.391   5.306  56.067  1.00  0.00     0.004 C 
ENDBRANCH  12  13
ENDBRANCH  11  12
ENDBRANCH   2  11
BRANCH   3  15
ATOM     15  O   UNL     1      82.743   8.994  58.063  1.00  0.00    -0.508 OA
ATOM     16  H   UNL     1      83.419   9.431  57.447  1.00  0.00     0.293 HD
ENDBRANCH   3  15
TORSDOF 7
ENDMDL
MODEL 4
REMARK VINA RESULT:    -3.189     17.263     19.513
REMARK INTER + INTRA:          -5.567
REMARK INTER:                  -4.297
REMARK INTRA:                  -1.270
REMARK UNBOUND:                -1.166
REMARK SMILES CCCCc1cccc(O)c1CCCC
REMARK SMILES IDX 5 1 11 2 9 3 8 4 7 5 6 6 4 7 3 8 2 9 1 10 12 11 13 12 14 13
REMARK SMILES IDX 15 14 10 15
REMARK H PARENT 10 16
REMARK Flexibility Score: inf
ROOT
ATOM      1  C   UNL     1      67.219   4.824  51.277  1.00  0.00    -0.041 A 
ATOM      2  C   UNL     1      65.868   5.253  51.438  1.00  0.00    -0.003 A 
ATOM      3  C   UNL     1      64.942   5.002  50.398  1.00  0.00     0.119 A 
ATOM      4  C   UNL     1      65.357   4.382  49.214  1.00  0.00     0.046 A 
ATOM      5  C   UNL     1      66.685   4.005  49.046  1.00  0.00     0.004 A 
ATOM      6  C   UNL     1      67.608   4.223  50.066  1.00  0.00     0.004 A 
ENDROOT
BRANCH   1   7
ATOM      7  C   UNL     1      68.277   4.976  52.354  1.00  0.00     0.036 C 
BRANCH   7   8
ATOM      8  C   UNL     1      69.255   6.113  52.022  1.00  0.00     0.004 C 
BRANCH   8   9
ATOM      9  C   UNL     1      69.183   7.267  53.034  1.00  0.00    -0.003 C 
ATOM     10  C   UNL     1      68.216   8.371  52.605  1.00  0.00     0.004 C 
ENDBRANCH   8   9
ENDBRANCH   7   8
ENDBRANCH   1   7
BRANCH   2  11
ATOM     11  C   UNL     1      65.385   6.008  52.666  1.00  0.00     0.040 C 
BRANCH  11  12
ATOM     12  C   UNL     1      64.845   5.040  53.735  1.00  0.00     0.005 C 
BRANCH  12  13
ATOM     13  C   UNL     1      65.786   4.908  54.942  1.00  0.00    -0.003 C 
ATOM     14  C   UNL     1      66.399   6.245  55.359  1.00  0.00     0.004 C 
ENDBRANCH  12  13
ENDBRANCH  11  12
ENDBRANCH   2  11
BRANCH   3  15
ATOM     15  O   UNL     1      63.604   5.371  50.545  1.00  0.00    -0.508 OA
ATOM     16  H   UNL     1      63.009   4.952  51.250  1.00  0.00     0.293 HD
ENDBRANCH   3  15
TORSDOF 7
ENDMDL
MODEL 5
REMARK VINA RESULT:    -3.156     18.599     20.023
REMARK INTER + INTRA:          -5.521
REMARK INTER:                  -4.400
REMARK INTRA:                  -1.121
REMARK UNBOUND:                -1.166
REMARK SMILES CCCCc1cccc(O)c1CCCC
REMARK SMILES IDX 5 1 11 2 9 3 8 4 7 5 6 6 4 7 3 8 2 9 1 10 12 11 13 12 14 13
REMARK SMILES IDX 15 14 10 15
REMARK H PARENT 10 16
REMARK Flexibility Score: inf
ROOT
ATOM      1  C   UNL     1      69.618  -7.951  52.910  1.00  0.00    -0.041 A 
ATOM      2  C   UNL     1      70.145  -9.273  53.018  1.00  0.00    -0.003 A 
ATOM      3  C   UNL     1      71.112  -9.704  52.079  1.00  0.00     0.119 A 
ATOM      4  C   UNL     1      71.509  -8.862  51.034  1.00  0.00     0.046 A 
ATOM      5  C   UNL     1      70.959  -7.590  50.908  1.00  0.00     0.004 A 
ATOM      6  C   UNL     1      70.024  -7.139  51.835  1.00  0.00     0.004 A 
ENDROOT
BRANCH   1   7
ATOM      7  C   UNL     1      68.634  -7.361  53.901  1.00  0.00     0.036 C 
BRANCH   7   8
ATOM      8  C   UNL     1      67.213  -7.316  53.321  1.00  0.00     0.004 C 
BRANCH   8   9
ATOM      9  C   UNL     1      66.413  -8.592  53.620  1.00  0.00    -0.003 C 
ATOM     10  C   UNL     1      65.787  -8.586  55.015  1.00  0.00     0.004 C 
ENDBRANCH   8   9
ENDBRANCH   7   8
ENDBRANCH   1   7
BRANCH   2  11
ATOM     11  C   UNL     1      69.684 -10.258  54.080  1.00  0.00     0.040 C 
BRANCH  11  12
ATOM     12  C   UNL     1      70.491 -10.090  55.381  1.00  0.00     0.005 C 
BRANCH  12  13
ATOM     13  C   UNL     1      69.675 -10.443  56.633  1.00  0.00    -0.003 C 
ATOM     14  C   UNL     1      68.772  -9.297  57.089  1.00  0.00     0.004 C 
ENDBRANCH  12  13
ENDBRANCH  11  12
ENDBRANCH   2  11
BRANCH   3  15
ATOM     15  O   UNL     1      71.678 -10.975  52.186  1.00  0.00    -0.508 OA
ATOM     16  H   UNL     1      71.107 -11.812  52.229  1.00  0.00     0.293 HD
ENDBRANCH   3  15
TORSDOF 7
ENDMDL
MODEL 6
REMARK VINA RESULT:    -3.121     11.907     13.150
REMARK INTER + INTRA:          -5.473
REMARK INTER:                  -4.353
REMARK INTRA:                  -1.121
REMARK UNBOUND:                -1.166
REMARK SMILES CCCCc1cccc(O)c1CCCC
REMARK SMILES IDX 5 1 11 2 9 3 8 4 7 5 6 6 4 7 3 8 2 9 1 10 12 11 13 12 14 13
REMARK SMILES IDX 15 14 10 15
REMARK H PARENT 10 16
REMARK Flexibility Score: inf
ROOT
ATOM      1  C   UNL     1      71.831  -9.044  66.385  1.00  0.00    -0.041 A 
ATOM      2  C   UNL     1      72.615  -7.964  66.893  1.00  0.00    -0.003 A 
ATOM      3  C   UNL     1      72.160  -7.269  68.038  1.00  0.00     0.119 A 
ATOM      4  C   UNL     1      70.940  -7.607  68.635  1.00  0.00     0.046 A 
ATOM      5  C   UNL     1      70.160  -8.632  68.109  1.00  0.00     0.004 A 
ATOM      6  C   UNL     1      70.600  -9.343  66.995  1.00  0.00     0.004 A 
ENDROOT
BRANCH   1   7
ATOM      7  C   UNL     1      72.257  -9.903  65.209  1.00  0.00     0.036 C 
BRANCH   7   8
ATOM      8  C   UNL     1      71.640  -9.399  63.895  1.00  0.00     0.004 C 
BRANCH   8   9
ATOM      9  C   UNL     1      72.690  -8.822  62.934  1.00  0.00    -0.003 C 
ATOM     10  C   UNL     1      72.575  -7.307  62.771  1.00  0.00     0.004 C 
ENDBRANCH   8   9
ENDBRANCH   7   8
ENDBRANCH   1   7
BRANCH   2  11
ATOM     11  C   UNL     1      73.902  -7.499  66.232  1.00  0.00     0.040 C 
BRANCH  11  12
ATOM     12  C   UNL     1      75.094  -8.374  66.662  1.00  0.00     0.005 C 
BRANCH  12  13
ATOM     13  C   UNL     1      76.350  -8.119  65.816  1.00  0.00    -0.003 C 
ATOM     14  C   UNL     1      76.023  -7.791  64.360  1.00  0.00     0.004 C 
ENDBRANCH  12  13
ENDBRANCH  11  12
ENDBRANCH   2  11
BRANCH   3  15
ATOM     15  O   UNL     1      72.926  -6.238  68.584  1.00  0.00    -0.508 OA
ATOM     16  H   UNL     1      72.553  -5.303  68.706  1.00  0.00     0.293 HD
ENDBRANCH   3  15
TORSDOF 7
ENDMDL
MODEL 7
REMARK VINA RESULT:    -3.110      1.300      2.168
REMARK INTER + INTRA:          -5.458
REMARK INTER:                  -4.338
REMARK INTRA:                  -1.120
REMARK UNBOUND:                -1.166
REMARK SMILES CCCCc1cccc(O)c1CCCC
REMARK SMILES IDX 5 1 11 2 9 3 8 4 7 5 6 6 4 7 3 8 2 9 1 10 12 11 13 12 14 13
REMARK SMILES IDX 15 14 10 15
REMARK H PARENT 10 16
REMARK Flexibility Score: inf
ROOT
ATOM      1  C   UNL     1      77.646   3.487  65.130  1.00  0.00    -0.041 A 
ATOM      2  C   UNL     1      79.066   3.623  65.064  1.00  0.00    -0.003 A 
ATOM      3  C   UNL     1      79.854   3.081  66.107  1.00  0.00     0.119 A 
ATOM      4  C   UNL     1      79.247   2.462  67.206  1.00  0.00     0.046 A 
ATOM      5  C   UNL     1      77.861   2.372  67.285  1.00  0.00     0.004 A 
ATOM      6  C   UNL     1      77.068   2.878  66.259  1.00  0.00     0.004 A 
ENDROOT
BRANCH   1   7
ATOM      7  C   UNL     1      76.711   3.964  64.036  1.00  0.00     0.036 C 
BRANCH   7   8
ATOM      8  C   UNL     1      75.969   5.243  64.452  1.00  0.00     0.004 C 
BRANCH   8   9
ATOM      9  C   UNL     1      76.269   6.428  63.521  1.00  0.00    -0.003 C 
ATOM     10  C   UNL     1      77.437   7.284  64.010  1.00  0.00     0.004 C 
ENDBRANCH   8   9
ENDBRANCH   7   8
ENDBRANCH   1   7
BRANCH   2  11
ATOM     11  C   UNL     1      79.770   4.361  63.939  1.00  0.00     0.040 C 
BRANCH  11  12
ATOM     12  C   UNL     1      79.802   3.514  62.653  1.00  0.00     0.005 C 
BRANCH  12  13
ATOM     13  C   UNL     1      79.724   4.368  61.379  1.00  0.00    -0.003 C 
ATOM     14  C   UNL     1      78.311   4.430  60.798  1.00  0.00     0.004 C 
ENDBRANCH  12  13
ENDBRANCH  11  12
ENDBRANCH   2  11
BRANCH   3  15
ATOM     15  O   UNL     1      81.246   3.159  66.049  1.00  0.00    -0.508 OA
ATOM     16  H   UNL     1      81.816   2.357  65.809  1.00  0.00     0.293 HD
ENDBRANCH   3  15
TORSDOF 7
ENDMDL
MODEL 8
REMARK VINA RESULT:    -3.099     16.195     18.844
REMARK INTER + INTRA:          -5.442
REMARK INTER:                  -4.264
REMARK INTRA:                  -1.178
REMARK UNBOUND:                -1.166
REMARK SMILES CCCCc1cccc(O)c1CCCC
REMARK SMILES IDX 5 1 11 2 9 3 8 4 7 5 6 6 4 7 3 8 2 9 1 10 12 11 13 12 14 13
REMARK SMILES IDX 15 14 10 15
REMARK H PARENT 10 16
REMARK Flexibility Score: inf
ROOT
ATOM      1  C   UNL     1      65.397   5.748  52.252  1.00  0.00    -0.041 A 
ATOM      2  C   UNL     1      66.777   5.696  51.892  1.00  0.00    -0.003 A 
ATOM      3  C   UNL     1      67.159   4.952  50.751  1.00  0.00     0.119 A 
ATOM      4  C   UNL     1      66.203   4.242  50.015  1.00  0.00     0.046 A 
ATOM      5  C   UNL     1      64.866   4.261  50.397  1.00  0.00     0.004 A 
ATOM      6  C   UNL     1      64.466   5.006  51.503  1.00  0.00     0.004 A 
ENDROOT
BRANCH   1   7
ATOM      7  C   UNL     1      64.867   6.572  53.410  1.00  0.00     0.036 C 
BRANCH   7   8
ATOM      8  C   UNL     1      64.728   5.724  54.683  1.00  0.00     0.004 C 
BRANCH   8   9
ATOM      9  C   UNL     1      65.728   6.132  55.775  1.00  0.00    -0.003 C 
ATOM     10  C   UNL     1      66.779   5.055  56.047  1.00  0.00     0.004 C 
ENDBRANCH   8   9
ENDBRANCH   7   8
ENDBRANCH   1   7
BRANCH   2  11
ATOM     11  C   UNL     1      67.866   6.376  52.706  1.00  0.00     0.040 C 
BRANCH  11  12
ATOM     12  C   UNL     1      68.004   7.860  52.318  1.00  0.00     0.005 C 
BRANCH  12  13
ATOM     13  C   UNL     1      68.590   8.716  53.451  1.00  0.00    -0.003 C 
ATOM     14  C   UNL     1      68.885   7.901  54.711  1.00  0.00     0.004 C 
ENDBRANCH  12  13
ENDBRANCH  11  12
ENDBRANCH   2  11
BRANCH   3  15
ATOM     15  O   UNL     1      68.495   4.919  50.349  1.00  0.00    -0.508 OA
ATOM     16  H   UNL     1      68.936   4.063  50.032  1.00  0.00     0.293 HD
ENDBRANCH   3  15
TORSDOF 7
ENDMDL
MODEL 9
REMARK VINA RESULT:    -3.096      2.244      4.509
REMARK INTER + INTRA:          -5.438
REMARK INTER:                  -4.343
REMARK INTRA:                  -1.095
REMARK UNBOUND:                -1.166
REMARK SMILES CCCCc1cccc(O)c1CCCC
REMARK SMILES IDX 5 1 11 2 9 3 8 4 7 5 6 6 4 7 3 8 2 9 1 10 12 11 13 12 14 13
REMARK SMILES IDX 15 14 10 15
REMARK H PARENT 10 16
REMARK Flexibility Score: inf
ROOT
ATOM      1  C   UNL     1      79.456   4.028  64.190  1.00  0.00    -0.041 A 
ATOM      2  C   UNL     1      78.105   4.320  64.544  1.00  0.00    -0.003 A 
ATOM      3  C   UNL     1      77.531   3.661  65.657  1.00  0.00     0.119 A 
ATOM      4  C   UNL     1      78.264   2.704  66.369  1.00  0.00     0.046 A 
ATOM      5  C   UNL     1      79.566   2.392  65.991  1.00  0.00     0.004 A 
ATOM      6  C   UNL     1      80.157   3.046  64.913  1.00  0.00     0.004 A 
ENDROOT
BRANCH   1   7
ATOM      7  C   UNL     1      80.194   4.726  63.063  1.00  0.00     0.036 C 
BRANCH   7   8
ATOM      8  C   UNL     1      80.104   3.928  61.754  1.00  0.00     0.004 C 
BRANCH   8   9
ATOM      9  C   UNL     1      79.308   4.665  60.667  1.00  0.00    -0.003 C 
ATOM     10  C   UNL     1      77.985   3.977  60.332  1.00  0.00     0.004 C 
ENDBRANCH   8   9
ENDBRANCH   7   8
ENDBRANCH   1   7
BRANCH   2  11
ATOM     11  C   UNL     1      77.237   5.284  63.752  1.00  0.00     0.040 C 
BRANCH  11  12
ATOM     12  C   UNL     1      77.563   6.746  64.110  1.00  0.00     0.005 C 
BRANCH  12  13
ATOM     13  C   UNL     1      76.876   7.752  63.174  1.00  0.00    -0.003 C 
ATOM     14  C   UNL     1      76.807   7.258  61.729  1.00  0.00     0.004 C 
ENDBRANCH  12  13
ENDBRANCH  11  12
ENDBRANCH   2  11
BRANCH   3  15
ATOM     15  O   UNL     1      76.227   3.959  66.054  1.00  0.00    -0.508 OA
ATOM     16  H   UNL     1      76.033   4.635  66.783  1.00  0.00     0.293 HD
ENDBRANCH   3  15
TORSDOF 7
ENDMDL
