MODEL 1
REMARK VINA RESULT:    -2.077      0.000      0.000
REMARK INTER + INTRA:          -2.077
REMARK INTER:                  -2.077
REMARK INTRA:                   0.000
REMARK UNBOUND:                 0.000
REMARK SMILES CC(=O)[O-]
REMARK SMILES IDX 1 1 2 2 3 3 4 4
REMARK H PARENT
REMARK Flexibility Score: inf
ROOT
ATOM      1  C   UNL     1      28.013   2.237   6.620  1.00  0.00     0.063 C 
ATOM      2  C   UNL     1      27.489   1.467   5.457  1.00  0.00     0.038 C 
ATOM      3  O   UNL     1      27.927   0.311   5.215  1.00  0.00    -0.550 OA
ATOM      4  O   UNL     1      26.478   1.999   4.667  1.00  0.00    -0.550 OA
ENDROOT
TORSDOF 0
ENDMDL
MODEL 2
REMARK VINA RESULT:    -2.059      1.421      1.763
REMARK INTER + INTRA:          -2.059
REMARK INTER:                  -2.059
REMARK INTRA:                   0.000
REMARK UNBOUND:                 0.000
REMARK SMILES CC(=O)[O-]
REMARK SMILES IDX 1 1 2 2 3 3 4 4
REMARK H PARENT
REMARK Flexibility Score: inf
ROOT
ATOM      1  C   UNL     1      26.434   1.934   4.839  1.00  0.00     0.063 C 
ATOM      2  C   UNL     1      27.615   1.393   5.569  1.00  0.00     0.038 C 
ATOM      3  O   UNL     1      27.957   0.192   5.415  1.00  0.00    -0.550 OA
ATOM      4  O   UNL     1      28.374   2.227   6.381  1.00  0.00    -0.550 OA
ENDROOT
TORSDOF 0
ENDMDL
MODEL 3
REMARK VINA RESULT:    -2.045     14.382     14.751
REMARK INTER + INTRA:          -2.045
REMARK INTER:                  -2.045
REMARK INTRA:                   0.000
REMARK UNBOUND:                 0.000
REMARK SMILES CC(=O)[O-]
REMARK SMILES IDX 1 1 2 2 3 3 4 4
REMARK H PARENT
REMARK Flexibility Score: inf
ROOT
ATOM      1  C   UNL     1      25.794  -4.469  17.451  1.00  0.00     0.063 C 
ATOM      2  C   UNL     1      25.229  -5.658  18.150  1.00  0.00     0.038 C 
ATOM      3  O   UNL     1      25.743  -6.794  17.979  1.00  0.00    -0.550 OA
ATOM      4  O   UNL     1      24.168  -5.507  19.033  1.00  0.00    -0.550 OA
ENDROOT
TORSDOF 0
ENDMDL
MODEL 4
REMARK VINA RESULT:    -2.041     14.355     14.794
REMARK INTER + INTRA:          -2.041
REMARK INTER:                  -2.041
REMARK INTRA:                   0.000
REMARK UNBOUND:                 0.000
REMARK SMILES CC(=O)[O-]
REMARK SMILES IDX 1 1 2 2 3 3 4 4
REMARK H PARENT
REMARK Flexibility Score: inf
ROOT
ATOM      1  C   UNL     1      25.782  -4.463  17.462  1.00  0.00     0.063 C 
ATOM      2  C   UNL     1      25.229  -5.662  18.152  1.00  0.00     0.038 C 
ATOM      3  O   UNL     1      24.260  -5.544  18.947  1.00  0.00    -0.550 OA
ATOM      4  O   UNL     1      25.745  -6.923  17.878  1.00  0.00    -0.550 OA
ENDROOT
TORSDOF 0
ENDMDL
MODEL 5
REMARK VINA RESULT:    -2.013     14.336     14.717
REMARK INTER + INTRA:          -2.013
REMARK INTER:                  -2.013
REMARK INTRA:                   0.000
REMARK UNBOUND:                 0.000
REMARK SMILES CC(=O)[O-]
REMARK SMILES IDX 1 1 2 2 3 3 4 4
REMARK H PARENT
REMARK Flexibility Score: inf
ROOT
ATOM      1  C   UNL     1      24.151  -5.308  18.888  1.00  0.00     0.063 C 
ATOM      2  C   UNL     1      25.403  -5.621  18.142  1.00  0.00     0.038 C 
ATOM      3  O   UNL     1      25.796  -6.812  18.039  1.00  0.00    -0.550 OA
ATOM      4  O   UNL     1      26.111  -4.605  17.513  1.00  0.00    -0.550 OA
ENDROOT
TORSDOF 0
ENDMDL
MODEL 6
REMARK VINA RESULT:    -2.010     14.331     14.773
REMARK INTER + INTRA:          -2.010
REMARK INTER:                  -2.010
REMARK INTRA:                   0.000
REMARK UNBOUND:                 0.000
REMARK SMILES CC(=O)[O-]
REMARK SMILES IDX 1 1 2 2 3 3 4 4
REMARK H PARENT
REMARK Flexibility Score: inf
ROOT
ATOM      1  C   UNL     1      24.173  -5.291  18.870  1.00  0.00     0.063 C 
ATOM      2  C   UNL     1      25.392  -5.619  18.078  1.00  0.00     0.038 C 
ATOM      3  O   UNL     1      26.094  -4.696  17.587  1.00  0.00    -0.550 OA
ATOM      4  O   UNL     1      25.789  -6.941  17.924  1.00  0.00    -0.550 OA
ENDROOT
TORSDOF 0
ENDMDL
MODEL 7
REMARK VINA RESULT:    -1.941      1.643      2.204
REMARK INTER + INTRA:          -1.941
REMARK INTER:                  -1.941
REMARK INTRA:                   0.000
REMARK UNBOUND:                 0.000
REMARK SMILES CC(=O)[O-]
REMARK SMILES IDX 1 1 2 2 3 3 4 4
REMARK H PARENT
REMARK Flexibility Score: inf
ROOT
ATOM      1  C   UNL     1      27.996   1.739   5.569  1.00  0.00     0.063 C 
ATOM      2  C   UNL     1      27.749   0.456   6.285  1.00  0.00     0.038 C 
ATOM      3  O   UNL     1      27.068  -0.452   5.739  1.00  0.00    -0.550 OA
ATOM      4  O   UNL     1      28.313   0.237   7.536  1.00  0.00    -0.550 OA
ENDROOT
TORSDOF 0
ENDMDL
MODEL 8
REMARK VINA RESULT:    -1.918      1.789      2.077
REMARK INTER + INTRA:          -1.918
REMARK INTER:                  -1.918
REMARK INTRA:                   0.000
REMARK UNBOUND:                 0.000
REMARK SMILES CC(=O)[O-]
REMARK SMILES IDX 1 1 2 2 3 3 4 4
REMARK H PARENT
REMARK Flexibility Score: inf
ROOT
ATOM      1  C   UNL     1      27.947   1.580   5.510  1.00  0.00     0.063 C 
ATOM      2  C   UNL     1      27.726   0.335   6.299  1.00  0.00     0.038 C 
ATOM      3  O   UNL     1      28.267   0.198   7.427  1.00  0.00    -0.550 OA
ATOM      4  O   UNL     1      26.880  -0.655   5.815  1.00  0.00    -0.550 OA
ENDROOT
TORSDOF 0
ENDMDL
MODEL 9
REMARK VINA RESULT:    -1.656      2.993      3.358
REMARK INTER + INTRA:          -1.656
REMARK INTER:                  -1.656
REMARK INTRA:                   0.000
REMARK UNBOUND:                 0.000
REMARK SMILES CC(=O)[O-]
REMARK SMILES IDX 1 1 2 2 3 3 4 4
REMARK H PARENT
REMARK Flexibility Score: inf
ROOT
ATOM      1  C   UNL     1      27.057   0.221   9.234  1.00  0.00     0.063 C 
ATOM      2  C   UNL     1      28.124  -0.016   8.221  1.00  0.00     0.038 C 
ATOM      3  O   UNL     1      29.125  -0.723   8.510  1.00  0.00    -0.550 OA
ATOM      4  O   UNL     1      27.992   0.499   6.937  1.00  0.00    -0.550 OA
ENDROOT
TORSDOF 0
ENDMDL
