MODEL 1
REMARK VINA RESULT:    -5.198      0.000      0.000
REMARK INTER + INTRA:          -6.728
REMARK INTER:                  -6.413
REMARK INTRA:                  -0.315
REMARK UNBOUND:                -0.315
REMARK SMILES O=c1c(O)c(-c2cc(O)c(O)c(O)c2)oc2cc(O)cc(O)c12
REMARK SMILES IDX 5 1 3 2 2 3 1 4 23 5 21 6 20 7 18 8 17 9 16 10 15 11 6 12
REMARK SMILES IDX 7 13 8 14 14 15 10 16 12 17 9 18 11 20 13 22 4 24 22 26
REMARK SMILES IDX 19 28
REMARK H PARENT 9 19 11 21 13 23 4 25 22 27 19 29
REMARK Flexibility Score: inf
ROOT
ATOM      1  C   UNL     1      14.723   4.672   5.990  1.00  0.00     0.180 A 
ATOM      2  C   UNL     1      15.011   5.947   6.508  1.00  0.00     0.208 A 
ATOM      3  C   UNL     1      13.947   6.794   6.862  1.00  0.00     0.238 A 
ATOM      4  O   UNL     1      14.210   7.954   7.275  1.00  0.00    -0.285 OA
ATOM      5  C   UNL     1      12.612   6.350   6.708  1.00  0.00     0.111 A 
ATOM      6  C   UNL     1      11.459   7.108   7.071  1.00  0.00     0.134 A 
ATOM      7  C   UNL     1      10.184   6.623   6.753  1.00  0.00     0.093 A 
ATOM      8  C   UNL     1      10.019   5.376   6.144  1.00  0.00     0.123 A 
ATOM      9  C   UNL     1      11.137   4.603   5.840  1.00  0.00     0.094 A 
ATOM     10  C   UNL     1      12.423   5.076   6.111  1.00  0.00     0.146 A 
ATOM     11  O   UNL     1      13.461   4.310   5.796  1.00  0.00    -0.452 OA
ENDROOT
BRANCH   1  12
ATOM     12  C   UNL     1      15.790   3.715   5.618  1.00  0.00     0.029 A 
ATOM     13  C   UNL     1      16.046   3.458   4.264  1.00  0.00     0.062 A 
ATOM     14  C   UNL     1      17.033   2.543   3.877  1.00  0.00     0.162 A 
ATOM     15  C   UNL     1      16.513   3.013   6.594  1.00  0.00     0.062 A 
ATOM     16  C   UNL     1      17.774   1.856   4.868  1.00  0.00     0.200 A 
ATOM     17  C   UNL     1      17.503   2.094   6.222  1.00  0.00     0.162 A 
BRANCH  14  18
ATOM     18  O   UNL     1      17.239   2.349   2.510  1.00  0.00    -0.504 OA
ATOM     19  H   UNL     1      16.529   2.024   1.870  1.00  0.00     0.293 HD
ENDBRANCH  14  18
BRANCH  16  20
ATOM     20  O   UNL     1      18.776   0.936   4.551  1.00  0.00    -0.502 OA
ATOM     21  H   UNL     1      18.877   0.033   4.992  1.00  0.00     0.293 HD
ENDBRANCH  16  20
BRANCH  17  22
ATOM     22  O   UNL     1      18.223   1.407   7.199  1.00  0.00    -0.504 OA
ATOM     23  H   UNL     1      18.234   1.714   8.165  1.00  0.00     0.293 HD
ENDBRANCH  17  22
ENDBRANCH   1  12
BRANCH   2  24
ATOM     24  O   UNL     1      16.335   6.373   6.632  1.00  0.00    -0.502 OA
ATOM     25  H   UNL     1      17.046   5.817   7.092  1.00  0.00     0.293 HD
ENDBRANCH   2  24
BRANCH   6  26
ATOM     26  O   UNL     1      11.509   8.322   7.764  1.00  0.00    -0.507 OA
ATOM     27  H   UNL     1      10.711   8.786   8.168  1.00  0.00     0.293 HD
ENDBRANCH   6  26
BRANCH   8  28
ATOM     28  O   UNL     1       8.747   4.894   5.846  1.00  0.00    -0.508 OA
ATOM     29  H   UNL     1       8.458   4.717   4.892  1.00  0.00     0.293 HD
ENDBRANCH   8  28
TORSDOF 7
ENDMDL
MODEL 2
REMARK VINA RESULT:    -5.137      1.697      2.738
REMARK INTER + INTRA:          -6.653
REMARK INTER:                  -6.394
REMARK INTRA:                  -0.258
REMARK UNBOUND:                -0.315
REMARK SMILES O=c1c(O)c(-c2cc(O)c(O)c(O)c2)oc2cc(O)cc(O)c12
REMARK SMILES IDX 5 1 3 2 2 3 1 4 23 5 21 6 20 7 18 8 17 9 16 10 15 11 6 12
REMARK SMILES IDX 7 13 8 14 14 15 10 16 12 17 9 18 11 20 13 22 4 24 22 26
REMARK SMILES IDX 19 28
REMARK H PARENT 9 19 11 21 13 23 4 25 22 27 19 29
REMARK Flexibility Score: inf
ROOT
ATOM      1  C   UNL     1      14.659   4.317   6.654  1.00  0.00     0.180 A 
ATOM      2  C   UNL     1      13.651   3.985   7.576  1.00  0.00     0.208 A 
ATOM      3  C   UNL     1      12.725   4.970   7.957  1.00  0.00     0.238 A 
ATOM      4  O   UNL     1      11.858   4.681   8.824  1.00  0.00    -0.285 OA
ATOM      5  C   UNL     1      12.809   6.268   7.400  1.00  0.00     0.111 A 
ATOM      6  C   UNL     1      11.900   7.332   7.684  1.00  0.00     0.134 A 
ATOM      7  C   UNL     1      12.155   8.612   7.177  1.00  0.00     0.093 A 
ATOM      8  C   UNL     1      13.250   8.852   6.343  1.00  0.00     0.123 A 
ATOM      9  C   UNL     1      14.109   7.806   6.013  1.00  0.00     0.094 A 
ATOM     10  C   UNL     1      13.902   6.526   6.532  1.00  0.00     0.146 A 
ATOM     11  O   UNL     1      14.751   5.561   6.200  1.00  0.00    -0.452 OA
ENDROOT
BRANCH   1  12
ATOM     12  C   UNL     1      15.655   3.327   6.185  1.00  0.00     0.029 A 
ATOM     13  C   UNL     1      15.555   2.809   4.887  1.00  0.00     0.062 A 
ATOM     14  C   UNL     1      16.466   1.856   4.417  1.00  0.00     0.162 A 
ATOM     15  C   UNL     1      16.667   2.851   7.033  1.00  0.00     0.062 A 
ATOM     16  C   UNL     1      17.498   1.398   5.270  1.00  0.00     0.200 A 
ATOM     17  C   UNL     1      17.586   1.897   6.577  1.00  0.00     0.162 A 
BRANCH  14  18
ATOM     18  O   UNL     1      16.309   1.395   3.108  1.00  0.00    -0.504 OA
ATOM     19  H   UNL     1      16.465   0.440   2.821  1.00  0.00     0.293 HD
ENDBRANCH  14  18
BRANCH  16  20
ATOM     20  O   UNL     1      18.444   0.454   4.863  1.00  0.00    -0.502 OA
ATOM     21  H   UNL     1      19.024  -0.077   5.497  1.00  0.00     0.293 HD
ENDBRANCH  16  20
BRANCH  17  22
ATOM     22  O   UNL     1      18.593   1.435   7.423  1.00  0.00    -0.504 OA
ATOM     23  H   UNL     1      18.503   0.562   7.929  1.00  0.00     0.293 HD
ENDBRANCH  17  22
ENDBRANCH   1  12
BRANCH   2  24
ATOM     24  O   UNL     1      13.600   2.703   8.130  1.00  0.00    -0.502 OA
ATOM     25  H   UNL     1      13.222   1.908   7.629  1.00  0.00     0.293 HD
ENDBRANCH   2  24
BRANCH   6  26
ATOM     26  O   UNL     1      10.728   7.178   8.429  1.00  0.00    -0.507 OA
ATOM     27  H   UNL     1       9.935   7.801   8.390  1.00  0.00     0.293 HD
ENDBRANCH   6  26
BRANCH   8  28
ATOM     28  O   UNL     1      13.488  10.125   5.830  1.00  0.00    -0.508 OA
ATOM     29  H   UNL     1      13.542  10.937   6.433  1.00  0.00     0.293 HD
ENDBRANCH   8  28
TORSDOF 7
ENDMDL
MODEL 3
REMARK VINA RESULT:    -5.125     11.298     14.405
REMARK INTER + INTRA:          -6.639
REMARK INTER:                  -6.334
REMARK INTRA:                  -0.305
REMARK UNBOUND:                -0.315
REMARK SMILES O=c1c(O)c(-c2cc(O)c(O)c(O)c2)oc2cc(O)cc(O)c12
REMARK SMILES IDX 5 1 3 2 2 3 1 4 23 5 21 6 20 7 18 8 17 9 16 10 15 11 6 12
REMARK SMILES IDX 7 13 8 14 14 15 10 16 12 17 9 18 11 20 13 22 4 24 22 26
REMARK SMILES IDX 19 28
REMARK H PARENT 9 19 11 21 13 23 4 25 22 27 19 29
REMARK Flexibility Score: inf
ROOT
ATOM      1  C   UNL     1       6.602  -5.577   5.846  1.00  0.00     0.180 A 
ATOM      2  C   UNL     1       6.266  -6.843   6.356  1.00  0.00     0.208 A 
ATOM      3  C   UNL     1       7.296  -7.723   6.728  1.00  0.00     0.238 A 
ATOM      4  O   UNL     1       6.989  -8.875   7.132  1.00  0.00    -0.285 OA
ATOM      5  C   UNL     1       8.646  -7.320   6.600  1.00  0.00     0.111 A 
ATOM      6  C   UNL     1       9.769  -8.114   6.983  1.00  0.00     0.134 A 
ATOM      7  C   UNL     1      11.063  -7.668   6.691  1.00  0.00     0.093 A 
ATOM      8  C   UNL     1      11.278  -6.426   6.088  1.00  0.00     0.123 A 
ATOM      9  C   UNL     1      10.190  -5.617   5.765  1.00  0.00     0.094 A 
ATOM     10  C   UNL     1       8.886  -6.051   6.011  1.00  0.00     0.146 A 
ATOM     11  O   UNL     1       7.878  -5.253   5.677  1.00  0.00    -0.452 OA
ENDROOT
BRANCH   1  12
ATOM     12  C   UNL     1       5.573  -4.586   5.458  1.00  0.00     0.029 A 
ATOM     13  C   UNL     1       5.371  -4.295   4.101  1.00  0.00     0.062 A 
ATOM     14  C   UNL     1       4.422  -3.349   3.698  1.00  0.00     0.162 A 
ATOM     15  C   UNL     1       4.831  -3.887   6.422  1.00  0.00     0.062 A 
ATOM     16  C   UNL     1       3.661  -2.664   4.676  1.00  0.00     0.200 A 
ATOM     17  C   UNL     1       3.877  -2.936   6.034  1.00  0.00     0.162 A 
BRANCH  14  18
ATOM     18  O   UNL     1       4.269  -3.122   2.329  1.00  0.00    -0.504 OA
ATOM     19  H   UNL     1       4.756  -2.401   1.817  1.00  0.00     0.293 HD
ENDBRANCH  14  18
BRANCH  16  20
ATOM     20  O   UNL     1       2.694  -1.713   4.343  1.00  0.00    -0.502 OA
ATOM     21  H   UNL     1       1.897  -1.899   3.751  1.00  0.00     0.293 HD
ENDBRANCH  16  20
BRANCH  17  22
ATOM     22  O   UNL     1       3.140  -2.251   6.998  1.00  0.00    -0.504 OA
ATOM     23  H   UNL     1       3.591  -1.703   7.722  1.00  0.00     0.293 HD
ENDBRANCH  17  22
ENDBRANCH   1  12
BRANCH   2  24
ATOM     24  O   UNL     1       4.926  -7.228   6.454  1.00  0.00    -0.502 OA
ATOM     25  H   UNL     1       4.625  -8.188   6.331  1.00  0.00     0.293 HD
ENDBRANCH   2  24
BRANCH   6  26
ATOM     26  O   UNL     1       9.668  -9.327   7.672  1.00  0.00    -0.507 OA
ATOM     27  H   UNL     1      10.403 -10.014   7.737  1.00  0.00     0.293 HD
ENDBRANCH   6  26
BRANCH   8  28
ATOM     28  O   UNL     1      12.570  -5.982   5.815  1.00  0.00    -0.508 OA
ATOM     29  H   UNL     1      13.373  -6.588   5.930  1.00  0.00     0.293 HD
ENDBRANCH   8  28
TORSDOF 7
ENDMDL
MODEL 4
REMARK VINA RESULT:    -5.125      0.164      1.763
REMARK INTER + INTRA:          -6.638
REMARK INTER:                  -6.318
REMARK INTRA:                  -0.320
REMARK UNBOUND:                -0.315
REMARK SMILES O=c1c(O)c(-c2cc(O)c(O)c(O)c2)oc2cc(O)cc(O)c12
REMARK SMILES IDX 5 1 3 2 2 3 1 4 23 5 21 6 20 7 18 8 17 9 16 10 15 11 6 12
REMARK SMILES IDX 7 13 8 14 14 15 10 16 12 17 9 18 11 20 13 22 4 24 22 26
REMARK SMILES IDX 19 28
REMARK H PARENT 9 19 11 21 13 23 4 25 22 27 19 29
REMARK Flexibility Score: inf
ROOT
ATOM      1  C   UNL     1      14.757   4.668   5.955  1.00  0.00     0.180 A 
ATOM      2  C   UNL     1      15.060   5.916   6.526  1.00  0.00     0.208 A 
ATOM      3  C   UNL     1      14.007   6.752   6.936  1.00  0.00     0.238 A 
ATOM      4  O   UNL     1      14.284   7.891   7.396  1.00  0.00    -0.285 OA
ATOM      5  C   UNL     1      12.668   6.322   6.785  1.00  0.00     0.111 A 
ATOM      6  C   UNL     1      11.525   7.069   7.202  1.00  0.00     0.134 A 
ATOM      7  C   UNL     1      10.243   6.605   6.884  1.00  0.00     0.093 A 
ATOM      8  C   UNL     1      10.060   5.388   6.222  1.00  0.00     0.123 A 
ATOM      9  C   UNL     1      11.168   4.623   5.864  1.00  0.00     0.094 A 
ATOM     10  C   UNL     1      12.461   5.077   6.134  1.00  0.00     0.146 A 
ATOM     11  O   UNL     1      13.489   4.321   5.767  1.00  0.00    -0.452 OA
ENDROOT
BRANCH   1  12
ATOM     12  C   UNL     1      15.811   3.723   5.523  1.00  0.00     0.029 A 
ATOM     13  C   UNL     1      16.497   2.967   6.484  1.00  0.00     0.062 A 
ATOM     14  C   UNL     1      17.514   2.079   6.113  1.00  0.00     0.162 A 
ATOM     15  C   UNL     1      16.180   3.607   4.174  1.00  0.00     0.062 A 
ATOM     16  C   UNL     1      17.864   1.951   4.748  1.00  0.00     0.200 A 
ATOM     17  C   UNL     1      17.195   2.723   3.788  1.00  0.00     0.162 A 
BRANCH  14  18
ATOM     18  O   UNL     1      18.144   1.352   7.125  1.00  0.00    -0.504 OA
ATOM     19  H   UNL     1      17.949   0.383   7.331  1.00  0.00     0.293 HD
ENDBRANCH  14  18
BRANCH  16  20
ATOM     20  O   UNL     1      18.864   1.080   4.309  1.00  0.00    -0.502 OA
ATOM     21  H   UNL     1      19.181   1.017   3.352  1.00  0.00     0.293 HD
ENDBRANCH  16  20
BRANCH  17  22
ATOM     22  O   UNL     1      17.550   2.608   2.445  1.00  0.00    -0.504 OA
ATOM     23  H   UNL     1      17.719   3.425   1.868  1.00  0.00     0.293 HD
ENDBRANCH  17  22
ENDBRANCH   1  12
BRANCH   2  24
ATOM     24  O   UNL     1      16.389   6.330   6.647  1.00  0.00    -0.502 OA
ATOM     25  H   UNL     1      17.069   5.825   7.202  1.00  0.00     0.293 HD
ENDBRANCH   2  24
BRANCH   6  26
ATOM     26  O   UNL     1      11.594   8.249   7.948  1.00  0.00    -0.507 OA
ATOM     27  H   UNL     1      10.930   8.521   8.656  1.00  0.00     0.293 HD
ENDBRANCH   6  26
BRANCH   8  28
ATOM     28  O   UNL     1       8.780   4.926   5.924  1.00  0.00    -0.508 OA
ATOM     29  H   UNL     1       8.566   3.936   5.900  1.00  0.00     0.293 HD
ENDBRANCH   8  28
TORSDOF 7
ENDMDL
MODEL 5
REMARK VINA RESULT:    -5.120      1.649      3.224
REMARK INTER + INTRA:          -6.633
REMARK INTER:                  -6.415
REMARK INTRA:                  -0.218
REMARK UNBOUND:                -0.315
REMARK SMILES O=c1c(O)c(-c2cc(O)c(O)c(O)c2)oc2cc(O)cc(O)c12
REMARK SMILES IDX 5 1 3 2 2 3 1 4 23 5 21 6 20 7 18 8 17 9 16 10 15 11 6 12
REMARK SMILES IDX 7 13 8 14 14 15 10 16 12 17 9 18 11 20 13 22 4 24 22 26
REMARK SMILES IDX 19 28
REMARK H PARENT 9 19 11 21 13 23 4 25 22 27 19 29
REMARK Flexibility Score: inf
ROOT
ATOM      1  C   UNL     1      14.691   4.299   6.572  1.00  0.00     0.180 A 
ATOM      2  C   UNL     1      13.685   3.937   7.485  1.00  0.00     0.208 A 
ATOM      3  C   UNL     1      12.757   4.909   7.895  1.00  0.00     0.238 A 
ATOM      4  O   UNL     1      11.892   4.593   8.754  1.00  0.00    -0.285 OA
ATOM      5  C   UNL     1      12.837   6.223   7.376  1.00  0.00     0.111 A 
ATOM      6  C   UNL     1      11.925   7.275   7.690  1.00  0.00     0.134 A 
ATOM      7  C   UNL     1      12.176   8.570   7.221  1.00  0.00     0.093 A 
ATOM      8  C   UNL     1      13.270   8.837   6.393  1.00  0.00     0.123 A 
ATOM      9  C   UNL     1      14.131   7.803   6.031  1.00  0.00     0.094 A 
ATOM     10  C   UNL     1      13.928   6.509   6.514  1.00  0.00     0.146 A 
ATOM     11  O   UNL     1      14.779   5.556   6.153  1.00  0.00    -0.452 OA
ENDROOT
BRANCH   1  12
ATOM     12  C   UNL     1      15.689   3.326   6.073  1.00  0.00     0.029 A 
ATOM     13  C   UNL     1      16.666   2.828   6.948  1.00  0.00     0.062 A 
ATOM     14  C   UNL     1      17.637   1.922   6.506  1.00  0.00     0.162 A 
ATOM     15  C   UNL     1      15.716   2.931   4.727  1.00  0.00     0.062 A 
ATOM     16  C   UNL     1      17.643   1.512   5.152  1.00  0.00     0.200 A 
ATOM     17  C   UNL     1      16.682   2.025   4.270  1.00  0.00     0.162 A 
BRANCH  14  18
ATOM     18  O   UNL     1      18.569   1.462   7.438  1.00  0.00    -0.504 OA
ATOM     19  H   UNL     1      18.575   1.728   8.412  1.00  0.00     0.293 HD
ENDBRANCH  14  18
BRANCH  16  20
ATOM     20  O   UNL     1      18.579   0.607   4.647  1.00  0.00    -0.502 OA
ATOM     21  H   UNL     1      19.335   0.859   4.026  1.00  0.00     0.293 HD
ENDBRANCH  16  20
BRANCH  17  22
ATOM     22  O   UNL     1      16.697   1.633   2.933  1.00  0.00    -0.504 OA
ATOM     23  H   UNL     1      16.311   2.221   2.202  1.00  0.00     0.293 HD
ENDBRANCH  17  22
ENDBRANCH   1  12
BRANCH   2  24
ATOM     24  O   UNL     1      13.638   2.640   8.002  1.00  0.00    -0.502 OA
ATOM     25  H   UNL     1      12.925   1.972   7.734  1.00  0.00     0.293 HD
ENDBRANCH   2  24
BRANCH   6  26
ATOM     26  O   UNL     1      10.754   7.097   8.433  1.00  0.00    -0.507 OA
ATOM     27  H   UNL     1      10.211   6.247   8.455  1.00  0.00     0.293 HD
ENDBRANCH   6  26
BRANCH   8  28
ATOM     28  O   UNL     1      13.503  10.125   5.917  1.00  0.00    -0.508 OA
ATOM     29  H   UNL     1      13.331  10.941   6.491  1.00  0.00     0.293 HD
ENDBRANCH   8  28
TORSDOF 7
ENDMDL
MODEL 6
REMARK VINA RESULT:    -5.054      1.366      7.167
REMARK INTER + INTRA:          -6.551
REMARK INTER:                  -6.187
REMARK INTRA:                  -0.365
REMARK UNBOUND:                -0.315
REMARK SMILES O=c1c(O)c(-c2cc(O)c(O)c(O)c2)oc2cc(O)cc(O)c12
REMARK SMILES IDX 5 1 3 2 2 3 1 4 23 5 21 6 20 7 18 8 17 9 16 10 15 11 6 12
REMARK SMILES IDX 7 13 8 14 14 15 10 16 12 17 9 18 11 20 13 22 4 24 22 26
REMARK SMILES IDX 19 28
REMARK H PARENT 9 19 11 21 13 23 4 25 22 27 19 29
REMARK Flexibility Score: inf
ROOT
ATOM      1  C   UNL     1      13.711   5.055   5.321  1.00  0.00     0.180 A 
ATOM      2  C   UNL     1      14.195   5.463   4.066  1.00  0.00     0.208 A 
ATOM      3  C   UNL     1      15.392   4.907   3.585  1.00  0.00     0.238 A 
ATOM      4  O   UNL     1      15.848   5.316   2.485  1.00  0.00    -0.285 OA
ATOM      5  C   UNL     1      16.080   3.940   4.356  1.00  0.00     0.111 A 
ATOM      6  C   UNL     1      17.278   3.281   3.949  1.00  0.00     0.134 A 
ATOM      7  C   UNL     1      17.944   2.439   4.847  1.00  0.00     0.093 A 
ATOM      8  C   UNL     1      17.418   2.179   6.116  1.00  0.00     0.123 A 
ATOM      9  C   UNL     1      16.217   2.771   6.500  1.00  0.00     0.094 A 
ATOM     10  C   UNL     1      15.549   3.645   5.639  1.00  0.00     0.146 A 
ATOM     11  O   UNL     1      14.413   4.195   6.050  1.00  0.00    -0.452 OA
ENDROOT
BRANCH   1  12
ATOM     12  C   UNL     1      12.444   5.576   5.884  1.00  0.00     0.029 A 
ATOM     13  C   UNL     1      12.470   6.708   6.711  1.00  0.00     0.062 A 
ATOM     14  C   UNL     1      11.295   7.216   7.277  1.00  0.00     0.162 A 
ATOM     15  C   UNL     1      11.221   4.929   5.654  1.00  0.00     0.062 A 
ATOM     16  C   UNL     1      10.062   6.570   7.022  1.00  0.00     0.200 A 
ATOM     17  C   UNL     1      10.037   5.425   6.214  1.00  0.00     0.162 A 
BRANCH  14  18
ATOM     18  O   UNL     1      11.398   8.353   8.081  1.00  0.00    -0.504 OA
ATOM     19  H   UNL     1      12.234   8.915   8.163  1.00  0.00     0.293 HD
ENDBRANCH  14  18
BRANCH  16  20
ATOM     20  O   UNL     1       8.852   7.028   7.549  1.00  0.00    -0.502 OA
ATOM     21  H   UNL     1       8.309   7.781   7.152  1.00  0.00     0.293 HD
ENDBRANCH  16  20
BRANCH  17  22
ATOM     22  O   UNL     1       8.825   4.779   5.974  1.00  0.00    -0.504 OA
ATOM     23  H   UNL     1       7.975   5.047   6.458  1.00  0.00     0.293 HD
ENDBRANCH  17  22
ENDBRANCH   1  12
BRANCH   2  24
ATOM     24  O   UNL     1      13.511   6.434   3.331  1.00  0.00    -0.502 OA
ATOM     25  H   UNL     1      13.127   6.252   2.411  1.00  0.00     0.293 HD
ENDBRANCH   2  24
BRANCH   6  26
ATOM     26  O   UNL     1      17.838   3.399   2.673  1.00  0.00    -0.507 OA
ATOM     27  H   UNL     1      18.076   4.273   2.228  1.00  0.00     0.293 HD
ENDBRANCH   6  26
BRANCH   8  28
ATOM     28  O   UNL     1      18.078   1.327   6.998  1.00  0.00    -0.508 OA
ATOM     29  H   UNL     1      19.046   1.477   7.255  1.00  0.00     0.293 HD
ENDBRANCH   8  28
TORSDOF 7
ENDMDL
MODEL 7
REMARK VINA RESULT:    -4.955     12.384     14.730
REMARK INTER + INTRA:          -6.429
REMARK INTER:                  -6.521
REMARK INTRA:                   0.092
REMARK UNBOUND:                -0.315
REMARK SMILES O=c1c(O)c(-c2cc(O)c(O)c(O)c2)oc2cc(O)cc(O)c12
REMARK SMILES IDX 5 1 3 2 2 3 1 4 23 5 21 6 20 7 18 8 17 9 16 10 15 11 6 12
REMARK SMILES IDX 7 13 8 14 14 15 10 16 12 17 9 18 11 20 13 22 4 24 22 26
REMARK SMILES IDX 19 28
REMARK H PARENT 9 19 11 21 13 23 4 25 22 27 19 29
REMARK Flexibility Score: inf
ROOT
ATOM      1  C   UNL     1       7.748  -6.588   6.614  1.00  0.00     0.180 A 
ATOM      2  C   UNL     1       8.423  -6.328   7.819  1.00  0.00     0.208 A 
ATOM      3  C   UNL     1       9.751  -6.764   7.963  1.00  0.00     0.238 A 
ATOM      4  O   UNL     1      10.332  -6.576   9.064  1.00  0.00    -0.285 OA
ATOM      5  C   UNL     1      10.391  -7.438   6.896  1.00  0.00     0.111 A 
ATOM      6  C   UNL     1      11.745  -7.888   6.916  1.00  0.00     0.134 A 
ATOM      7  C   UNL     1      12.234  -8.659   5.855  1.00  0.00     0.093 A 
ATOM      8  C   UNL     1      11.436  -8.942   4.742  1.00  0.00     0.123 A 
ATOM      9  C   UNL     1      10.132  -8.456   4.687  1.00  0.00     0.094 A 
ATOM     10  C   UNL     1       9.604  -7.715   5.746  1.00  0.00     0.146 A 
ATOM     11  O   UNL     1       8.353  -7.280   5.656  1.00  0.00    -0.452 OA
ENDROOT
BRANCH   1  12
ATOM     12  C   UNL     1       6.357  -6.138   6.378  1.00  0.00     0.029 A 
ATOM     13  C   UNL     1       5.481  -6.956   5.651  1.00  0.00     0.062 A 
ATOM     14  C   UNL     1       4.165  -6.554   5.391  1.00  0.00     0.162 A 
ATOM     15  C   UNL     1       5.911  -4.883   6.818  1.00  0.00     0.062 A 
ATOM     16  C   UNL     1       3.716  -5.295   5.858  1.00  0.00     0.200 A 
ATOM     17  C   UNL     1       4.597  -4.466   6.565  1.00  0.00     0.162 A 
BRANCH  14  18
ATOM     18  O   UNL     1       3.348  -7.427   4.672  1.00  0.00    -0.504 OA
ATOM     19  H   UNL     1       2.410  -7.682   4.947  1.00  0.00     0.293 HD
ENDBRANCH  14  18
BRANCH  16  20
ATOM     20  O   UNL     1       2.415  -4.835   5.640  1.00  0.00    -0.502 OA
ATOM     21  H   UNL     1       1.593  -5.231   6.073  1.00  0.00     0.293 HD
ENDBRANCH  16  20
BRANCH  17  22
ATOM     22  O   UNL     1       4.160  -3.220   7.012  1.00  0.00    -0.504 OA
ATOM     23  H   UNL     1       4.660  -2.708   7.730  1.00  0.00     0.293 HD
ENDBRANCH  17  22
ENDBRANCH   1  12
BRANCH   2  24
ATOM     24  O   UNL     1       7.766  -5.680   8.868  1.00  0.00    -0.502 OA
ATOM     25  H   UNL     1       7.873  -5.962   9.835  1.00  0.00     0.293 HD
ENDBRANCH   2  24
BRANCH   6  26
ATOM     26  O   UNL     1      12.652  -7.584   7.936  1.00  0.00    -0.507 OA
ATOM     27  H   UNL     1      13.351  -8.219   8.291  1.00  0.00     0.293 HD
ENDBRANCH   6  26
BRANCH   8  28
ATOM     28  O   UNL     1      11.936  -9.696   3.684  1.00  0.00    -0.508 OA
ATOM     29  H   UNL     1      11.438 -10.503   3.327  1.00  0.00     0.293 HD
ENDBRANCH   8  28
TORSDOF 7
ENDMDL
MODEL 8
REMARK VINA RESULT:    -4.951     11.209     12.743
REMARK INTER + INTRA:          -6.424
REMARK INTER:                  -6.055
REMARK INTRA:                  -0.369
REMARK UNBOUND:                -0.315
REMARK SMILES O=c1c(O)c(-c2cc(O)c(O)c(O)c2)oc2cc(O)cc(O)c12
REMARK SMILES IDX 5 1 3 2 2 3 1 4 23 5 21 6 20 7 18 8 17 9 16 10 15 11 6 12
REMARK SMILES IDX 7 13 8 14 14 15 10 16 12 17 9 18 11 20 13 22 4 24 22 26
REMARK SMILES IDX 19 28
REMARK H PARENT 9 19 11 21 13 23 4 25 22 27 19 29
REMARK Flexibility Score: inf
ROOT
ATOM      1  C   UNL     1       7.738  -5.832   5.173  1.00  0.00     0.180 A 
ATOM      2  C   UNL     1       7.290  -6.149   3.879  1.00  0.00     0.208 A 
ATOM      3  C   UNL     1       6.104  -5.562   3.406  1.00  0.00     0.238 A 
ATOM      4  O   UNL     1       5.679  -5.892   2.268  1.00  0.00    -0.285 OA
ATOM      5  C   UNL     1       5.392  -4.655   4.226  1.00  0.00     0.111 A 
ATOM      6  C   UNL     1       4.202  -3.971   3.835  1.00  0.00     0.134 A 
ATOM      7  C   UNL     1       3.509  -3.197   4.773  1.00  0.00     0.093 A 
ATOM      8  C   UNL     1       3.999  -3.028   6.071  1.00  0.00     0.123 A 
ATOM      9  C   UNL     1       5.192  -3.644   6.444  1.00  0.00     0.094 A 
ATOM     10  C   UNL     1       5.887  -4.452   5.541  1.00  0.00     0.146 A 
ATOM     11  O   UNL     1       7.014  -5.028   5.942  1.00  0.00    -0.452 OA
ENDROOT
BRANCH   1  12
ATOM     12  C   UNL     1       8.991  -6.390   5.731  1.00  0.00     0.029 A 
ATOM     13  C   UNL     1       8.939  -7.543   6.527  1.00  0.00     0.062 A 
ATOM     14  C   UNL     1      10.101  -8.086   7.088  1.00  0.00     0.162 A 
ATOM     15  C   UNL     1      10.227  -5.758   5.527  1.00  0.00     0.062 A 
ATOM     16  C   UNL     1      11.347  -7.455   6.859  1.00  0.00     0.200 A 
ATOM     17  C   UNL     1      11.398  -6.290   6.082  1.00  0.00     0.162 A 
BRANCH  14  18
ATOM     18  O   UNL     1       9.971  -9.242   7.860  1.00  0.00    -0.504 OA
ATOM     19  H   UNL     1      10.750  -9.753   8.250  1.00  0.00     0.293 HD
ENDBRANCH  14  18
BRANCH  16  20
ATOM     20  O   UNL     1      12.544  -7.947   7.383  1.00  0.00    -0.502 OA
ATOM     21  H   UNL     1      12.601  -8.676   8.081  1.00  0.00     0.293 HD
ENDBRANCH  16  20
BRANCH  17  22
ATOM     22  O   UNL     1      12.622  -5.659   5.869  1.00  0.00    -0.504 OA
ATOM     23  H   UNL     1      13.332  -5.616   6.592  1.00  0.00     0.293 HD
ENDBRANCH  17  22
ENDBRANCH   1  12
BRANCH   2  24
ATOM     24  O   UNL     1       7.997  -7.064   3.094  1.00  0.00    -0.502 OA
ATOM     25  H   UNL     1       8.980  -6.950   2.877  1.00  0.00     0.293 HD
ENDBRANCH   2  24
BRANCH   6  26
ATOM     26  O   UNL     1       3.677  -3.998   2.539  1.00  0.00    -0.507 OA
ATOM     27  H   UNL     1       2.712  -4.185   2.314  1.00  0.00     0.293 HD
ENDBRANCH   6  26
BRANCH   8  28
ATOM     28  O   UNL     1       3.312  -2.243   6.994  1.00  0.00    -0.508 OA
ATOM     29  H   UNL     1       2.301  -2.192   6.997  1.00  0.00     0.293 HD
ENDBRANCH   8  28
TORSDOF 7
ENDMDL
MODEL 9
REMARK VINA RESULT:    -4.937      2.136      2.875
REMARK INTER + INTRA:          -6.406
REMARK INTER:                  -6.443
REMARK INTRA:                   0.037
REMARK UNBOUND:                -0.315
REMARK SMILES O=c1c(O)c(-c2cc(O)c(O)c(O)c2)oc2cc(O)cc(O)c12
REMARK SMILES IDX 5 1 3 2 2 3 1 4 23 5 21 6 20 7 18 8 17 9 16 10 15 11 6 12
REMARK SMILES IDX 7 13 8 14 14 15 10 16 12 17 9 18 11 20 13 22 4 24 22 26
REMARK SMILES IDX 19 28
REMARK H PARENT 9 19 11 21 13 23 4 25 22 27 19 29
REMARK Flexibility Score: inf
ROOT
ATOM      1  C   UNL     1      13.632   5.652   6.649  1.00  0.00     0.180 A 
ATOM      2  C   UNL     1      12.937   5.406   7.846  1.00  0.00     0.208 A 
ATOM      3  C   UNL     1      11.609   5.851   7.966  1.00  0.00     0.238 A 
ATOM      4  O   UNL     1      11.010   5.676   9.059  1.00  0.00    -0.285 OA
ATOM      5  C   UNL     1      10.990   6.519   6.883  1.00  0.00     0.111 A 
ATOM      6  C   UNL     1       9.638   6.977   6.879  1.00  0.00     0.134 A 
ATOM      7  C   UNL     1       9.170   7.741   5.803  1.00  0.00     0.093 A 
ATOM      8  C   UNL     1       9.986   8.009   4.701  1.00  0.00     0.123 A 
ATOM      9  C   UNL     1      11.288   7.516   4.669  1.00  0.00     0.094 A 
ATOM     10  C   UNL     1      11.796   6.781   5.744  1.00  0.00     0.146 A 
ATOM     11  O   UNL     1      13.046   6.339   5.676  1.00  0.00    -0.452 OA
ENDROOT
BRANCH   1  12
ATOM     12  C   UNL     1      15.024   5.193   6.439  1.00  0.00     0.029 A 
ATOM     13  C   UNL     1      15.939   6.035   5.793  1.00  0.00     0.062 A 
ATOM     14  C   UNL     1      17.257   5.626   5.559  1.00  0.00     0.162 A 
ATOM     15  C   UNL     1      15.434   3.907   6.822  1.00  0.00     0.062 A 
ATOM     16  C   UNL     1      17.670   4.336   5.969  1.00  0.00     0.200 A 
ATOM     17  C   UNL     1      16.750   3.483   6.594  1.00  0.00     0.162 A 
BRANCH  14  18
ATOM     18  O   UNL     1      18.114   6.525   4.920  1.00  0.00    -0.504 OA
ATOM     19  H   UNL     1      17.819   7.408   4.531  1.00  0.00     0.293 HD
ENDBRANCH  14  18
BRANCH  16  20
ATOM     20  O   UNL     1      18.970   3.867   5.772  1.00  0.00    -0.502 OA
ATOM     21  H   UNL     1      19.560   3.503   6.508  1.00  0.00     0.293 HD
ENDBRANCH  16  20
BRANCH  17  22
ATOM     22  O   UNL     1      17.151   2.206   6.985  1.00  0.00    -0.504 OA
ATOM     23  H   UNL     1      16.541   1.597   7.517  1.00  0.00     0.293 HD
ENDBRANCH  17  22
ENDBRANCH   1  12
BRANCH   2  24
ATOM     24  O   UNL     1      13.574   4.764   8.911  1.00  0.00    -0.502 OA
ATOM     25  H   UNL     1      13.329   3.826   9.206  1.00  0.00     0.293 HD
ENDBRANCH   2  24
BRANCH   6  26
ATOM     26  O   UNL     1       8.713   6.687   7.887  1.00  0.00    -0.507 OA
ATOM     27  H   UNL     1       8.896   6.768   8.875  1.00  0.00     0.293 HD
ENDBRANCH   6  26
BRANCH   8  28
ATOM     28  O   UNL     1       9.507   8.757   3.628  1.00  0.00    -0.508 OA
ATOM     29  H   UNL     1       9.138   8.313   2.795  1.00  0.00     0.293 HD
ENDBRANCH   8  28
TORSDOF 7
ENDMDL
