MODEL 1
REMARK VINA RESULT:    -4.174      0.000      0.000
REMARK INTER + INTRA:         -10.048
REMARK INTER:                  -7.834
REMARK INTRA:                  -2.214
REMARK UNBOUND:                -2.214
REMARK SMILES O=C([O-])CCCCCCCCCCCCCCC(=O)[O-]
REMARK SMILES IDX 10 1 9 2 8 3 7 4 6 5 5 6 4 7 2 8 1 9 3 10 11 11 12 12 13 13
REMARK SMILES IDX 14 14 15 15 16 16 17 17 18 18 19 19 20 20
REMARK H PARENT
REMARK Flexibility Score: inf
ROOT
ATOM      1  C   UNL     1       5.922  77.162  39.425  1.00  0.00     0.000 C 
ENDROOT
BRANCH   1   2
ATOM      2  C   UNL     1       5.368  78.532  39.855  1.00  0.00     0.000 C 
BRANCH   2   3
ATOM      3  C   UNL     1       5.677  79.638  38.834  1.00  0.00     0.000 C 
BRANCH   3   4
ATOM      4  C   UNL     1       5.958  79.084  37.427  1.00  0.00     0.000 C 
BRANCH   4   5
ATOM      5  C   UNL     1       7.256  79.661  36.819  1.00  0.00     0.000 C 
BRANCH   5   6
ATOM      6  C   UNL     1       8.277  78.580  36.408  1.00  0.00     0.006 C 
BRANCH   6   7
ATOM      7  C   UNL     1       9.013  77.934  37.591  1.00  0.00     0.053 C 
BRANCH   7   8
ATOM      8  C   UNL     1       9.510  78.958  38.565  1.00  0.00     0.041 C 
ATOM      9  O   UNL     1       9.082  78.964  39.749  1.00  0.00    -0.550 OA
ATOM     10  O   UNL     1      10.467  79.888  38.177  1.00  0.00    -0.550 OA
ENDBRANCH   7   8
ENDBRANCH   6   7
ENDBRANCH   5   6
ENDBRANCH   4   5
ENDBRANCH   3   4
ENDBRANCH   2   3
ENDBRANCH   1   2
BRANCH   1  11
ATOM     11  C   UNL     1       4.820  76.103  39.261  1.00  0.00     0.000 C 
BRANCH  11  12
ATOM     12  C   UNL     1       4.832  75.448  37.871  1.00  0.00     0.000 C 
BRANCH  12  13
ATOM     13  C   UNL     1       6.242  75.463  37.269  1.00  0.00     0.000 C 
BRANCH  13  14
ATOM     14  C   UNL     1       6.550  74.140  36.553  1.00  0.00     0.000 C 
BRANCH  14  15
ATOM     15  C   UNL     1       7.700  73.355  37.209  1.00  0.00     0.000 C 
BRANCH  15  16
ATOM     16  C   UNL     1       7.336  71.931  37.669  1.00  0.00     0.006 C 
BRANCH  16  17
ATOM     17  C   UNL     1       7.409  71.757  39.192  1.00  0.00     0.053 C 
BRANCH  17  18
ATOM     18  C   UNL     1       6.279  72.479  39.854  1.00  0.00     0.041 C 
ATOM     19  O   UNL     1       5.087  72.183  39.573  1.00  0.00    -0.550 OA
ATOM     20  O   UNL     1       6.541  73.443  40.819  1.00  0.00    -0.550 OA
ENDBRANCH  17  18
ENDBRANCH  16  17
ENDBRANCH  15  16
ENDBRANCH  14  15
ENDBRANCH  13  14
ENDBRANCH  12  13
ENDBRANCH  11  12
ENDBRANCH   1  11
TORSDOF 15
ENDMDL
MODEL 2
REMARK VINA RESULT:    -4.164      2.879      6.121
REMARK INTER + INTRA:         -10.030
REMARK INTER:                  -7.946
REMARK INTRA:                  -2.083
REMARK UNBOUND:                -2.214
REMARK SMILES O=C([O-])CCCCCCCCCCCCCCC(=O)[O-]
REMARK SMILES IDX 10 1 9 2 8 3 7 4 6 5 5 6 4 7 2 8 1 9 3 10 11 11 12 12 13 13
REMARK SMILES IDX 14 14 15 15 16 16 17 17 18 18 19 19 20 20
REMARK H PARENT
REMARK Flexibility Score: inf
ROOT
ATOM      1  C   UNL     1       7.298  72.409  39.537  1.00  0.00     0.000 C 
ENDROOT
BRANCH   1   2
ATOM      2  C   UNL     1       6.578  71.195  38.924  1.00  0.00     0.000 C 
BRANCH   2   3
ATOM      3  C   UNL     1       6.722  71.136  37.395  1.00  0.00     0.000 C 
BRANCH   3   4
ATOM      4  C   UNL     1       7.235  72.457  36.797  1.00  0.00     0.000 C 
BRANCH   4   5
ATOM      5  C   UNL     1       8.585  72.284  36.066  1.00  0.00     0.000 C 
BRANCH   5   6
ATOM      6  C   UNL     1       9.802  72.697  36.917  1.00  0.00     0.006 C 
BRANCH   6   7
ATOM      7  C   UNL     1      10.947  71.674  36.910  1.00  0.00     0.053 C 
BRANCH   7   8
ATOM      8  C   UNL     1      12.028  72.038  37.882  1.00  0.00     0.041 C 
ATOM      9  O   UNL     1      13.134  72.469  37.464  1.00  0.00    -0.550 OA
ATOM     10  O   UNL     1      11.805  71.930  39.249  1.00  0.00    -0.550 OA
ENDBRANCH   7   8
ENDBRANCH   6   7
ENDBRANCH   5   6
ENDBRANCH   4   5
ENDBRANCH   3   4
ENDBRANCH   2   3
ENDBRANCH   1   2
BRANCH   1  11
ATOM     11  C   UNL     1       6.354  73.303  40.358  1.00  0.00     0.000 C 
BRANCH  11  12
ATOM     12  C   UNL     1       4.945  73.391  39.751  1.00  0.00     0.000 C 
BRANCH  12  13
ATOM     13  C   UNL     1       4.625  74.824  39.312  1.00  0.00     0.000 C 
BRANCH  13  14
ATOM     14  C   UNL     1       4.712  74.965  37.785  1.00  0.00     0.000 C 
BRANCH  14  15
ATOM     15  C   UNL     1       5.627  76.119  37.338  1.00  0.00     0.000 C 
BRANCH  15  16
ATOM     16  C   UNL     1       7.034  76.112  37.962  1.00  0.00     0.006 C 
BRANCH  16  17
ATOM     17  C   UNL     1       8.149  75.945  36.922  1.00  0.00     0.053 C 
BRANCH  17  18
ATOM     18  C   UNL     1       8.962  77.197  36.823  1.00  0.00     0.041 C 
ATOM     19  O   UNL     1       8.460  78.306  37.149  1.00  0.00    -0.550 OA
ATOM     20  O   UNL     1      10.290  77.134  36.420  1.00  0.00    -0.550 OA
ENDBRANCH  17  18
ENDBRANCH  16  17
ENDBRANCH  15  16
ENDBRANCH  14  15
ENDBRANCH  13  14
ENDBRANCH  12  13
ENDBRANCH  11  12
ENDBRANCH   1  11
TORSDOF 15
ENDMDL
MODEL 3
REMARK VINA RESULT:    -4.136      3.818      7.321
REMARK INTER + INTRA:          -9.977
REMARK INTER:                  -8.602
REMARK INTRA:                  -1.375
REMARK UNBOUND:                -2.214
REMARK SMILES O=C([O-])CCCCCCCCCCCCCCC(=O)[O-]
REMARK SMILES IDX 10 1 9 2 8 3 7 4 6 5 5 6 4 7 2 8 1 9 3 10 11 11 12 12 13 13
REMARK SMILES IDX 14 14 15 15 16 16 17 17 18 18 19 19 20 20
REMARK H PARENT
REMARK Flexibility Score: inf
ROOT
ATOM      1  C   UNL     1       9.657  79.151  38.499  1.00  0.00     0.000 C 
ENDROOT
BRANCH   1   2
ATOM      2  C   UNL     1       9.985  78.142  37.384  1.00  0.00     0.000 C 
BRANCH   2   3
ATOM      3  C   UNL     1       8.762  77.807  36.516  1.00  0.00     0.000 C 
BRANCH   3   4
ATOM      4  C   UNL     1       7.883  79.037  36.229  1.00  0.00     0.000 C 
BRANCH   4   5
ATOM      5  C   UNL     1       6.454  78.882  36.796  1.00  0.00     0.000 C 
BRANCH   5   6
ATOM      6  C   UNL     1       5.988  80.095  37.626  1.00  0.00     0.006 C 
BRANCH   6   7
ATOM      7  C   UNL     1       5.255  79.721  38.923  1.00  0.00     0.053 C 
BRANCH   7   8
ATOM      8  C   UNL     1       6.178  79.103  39.927  1.00  0.00     0.041 C 
ATOM      9  O   UNL     1       6.868  79.834  40.685  1.00  0.00    -0.550 OA
ATOM     10  O   UNL     1       6.258  77.721  40.048  1.00  0.00    -0.550 OA
ENDBRANCH   7   8
ENDBRANCH   6   7
ENDBRANCH   5   6
ENDBRANCH   4   5
ENDBRANCH   3   4
ENDBRANCH   2   3
ENDBRANCH   1   2
BRANCH   1  11
ATOM     11  C   UNL     1      10.576  80.384  38.471  1.00  0.00     0.000 C 
BRANCH  11  12
ATOM     12  C   UNL     1      11.320  80.597  39.797  1.00  0.00     0.000 C 
BRANCH  12  13
ATOM     13  C   UNL     1      10.667  79.795  40.929  1.00  0.00     0.000 C 
BRANCH  13  14
ATOM     14  C   UNL     1      11.648  79.583  42.092  1.00  0.00     0.000 C 
BRANCH  14  15
ATOM     15  C   UNL     1      12.239  80.899  42.626  1.00  0.00     0.000 C 
BRANCH  15  16
ATOM     16  C   UNL     1      11.547  81.461  43.881  1.00  0.00     0.006 C 
BRANCH  16  17
ATOM     17  C   UNL     1      10.599  80.453  44.544  1.00  0.00     0.053 C 
BRANCH  17  18
ATOM     18  C   UNL     1       9.190  80.950  44.491  1.00  0.00     0.041 C 
ATOM     19  O   UNL     1       8.759  81.523  43.454  1.00  0.00    -0.550 OA
ATOM     20  O   UNL     1       8.335  80.736  45.565  1.00  0.00    -0.550 OA
ENDBRANCH  17  18
ENDBRANCH  16  17
ENDBRANCH  15  16
ENDBRANCH  14  15
ENDBRANCH  13  14
ENDBRANCH  12  13
ENDBRANCH  11  12
ENDBRANCH   1  11
TORSDOF 15
ENDMDL
MODEL 4
REMARK VINA RESULT:    -4.126      0.815      6.286
REMARK INTER + INTRA:          -9.957
REMARK INTER:                  -7.980
REMARK INTRA:                  -1.977
REMARK UNBOUND:                -2.214
REMARK SMILES O=C([O-])CCCCCCCCCCCCCCC(=O)[O-]
REMARK SMILES IDX 10 1 9 2 8 3 7 4 6 5 5 6 4 7 2 8 1 9 3 10 11 11 12 12 13 13
REMARK SMILES IDX 14 14 15 15 16 16 17 17 18 18 19 19 20 20
REMARK H PARENT
REMARK Flexibility Score: inf
ROOT
ATOM      1  C   UNL     1       5.928  77.116  39.255  1.00  0.00     0.000 C 
ENDROOT
BRANCH   1   2
ATOM      2  C   UNL     1       4.751  76.126  39.207  1.00  0.00     0.000 C 
BRANCH   2   3
ATOM      3  C   UNL     1       4.733  75.295  37.913  1.00  0.00     0.000 C 
BRANCH   3   4
ATOM      4  C   UNL     1       6.139  75.087  37.324  1.00  0.00     0.000 C 
BRANCH   4   5
ATOM      5  C   UNL     1       6.448  73.597  37.057  1.00  0.00     0.000 C 
BRANCH   5   6
ATOM      6  C   UNL     1       7.525  73.014  37.993  1.00  0.00     0.006 C 
BRANCH   6   7
ATOM      7  C   UNL     1       7.020  71.883  38.901  1.00  0.00     0.053 C 
BRANCH   7   8
ATOM      8  C   UNL     1       5.963  72.359  39.850  1.00  0.00     0.041 C 
ATOM      9  O   UNL     1       4.812  71.850  39.821  1.00  0.00    -0.550 OA
ATOM     10  O   UNL     1       6.254  73.345  40.784  1.00  0.00    -0.550 OA
ENDBRANCH   7   8
ENDBRANCH   6   7
ENDBRANCH   5   6
ENDBRANCH   4   5
ENDBRANCH   3   4
ENDBRANCH   2   3
ENDBRANCH   1   2
BRANCH   1  11
ATOM     11  C   UNL     1       5.485  78.544  39.617  1.00  0.00     0.000 C 
BRANCH  11  12
ATOM     12  C   UNL     1       5.698  79.539  38.467  1.00  0.00     0.000 C 
BRANCH  12  13
ATOM     13  C   UNL     1       6.037  78.806  37.163  1.00  0.00     0.000 C 
BRANCH  13  14
ATOM     14  C   UNL     1       7.387  79.277  36.601  1.00  0.00     0.000 C 
BRANCH  14  15
ATOM     15  C   UNL     1       8.453  78.168  36.592  1.00  0.00     0.000 C 
BRANCH  15  16
ATOM     16  C   UNL     1       9.733  78.490  37.385  1.00  0.00     0.006 C 
BRANCH  16  17
ATOM     17  C   UNL     1       9.451  78.896  38.837  1.00  0.00     0.053 C 
BRANCH  17  18
ATOM     18  C   UNL     1       9.911  80.298  39.084  1.00  0.00     0.041 C 
ATOM     19  O   UNL     1       9.074  81.237  39.150  1.00  0.00    -0.550 OA
ATOM     20  O   UNL     1      11.260  80.560  39.294  1.00  0.00    -0.550 OA
ENDBRANCH  17  18
ENDBRANCH  16  17
ENDBRANCH  15  16
ENDBRANCH  14  15
ENDBRANCH  13  14
ENDBRANCH  12  13
ENDBRANCH  11  12
ENDBRANCH   1  11
TORSDOF 15
ENDMDL
MODEL 5
REMARK VINA RESULT:    -4.120      3.700      6.151
REMARK INTER + INTRA:          -9.947
REMARK INTER:                  -8.419
REMARK INTRA:                  -1.527
REMARK UNBOUND:                -2.214
REMARK SMILES O=C([O-])CCCCCCCCCCCCCCC(=O)[O-]
REMARK SMILES IDX 10 1 9 2 8 3 7 4 6 5 5 6 4 7 2 8 1 9 3 10 11 11 12 12 13 13
REMARK SMILES IDX 14 14 15 15 16 16 17 17 18 18 19 19 20 20
REMARK H PARENT
REMARK Flexibility Score: inf
ROOT
ATOM      1  C   UNL     1       9.669  79.360  38.594  1.00  0.00     0.000 C 
ENDROOT
BRANCH   1   2
ATOM      2  C   UNL     1      10.771  80.431  38.516  1.00  0.00     0.000 C 
BRANCH   2   3
ATOM      3  C   UNL     1      11.306  80.827  39.902  1.00  0.00     0.000 C 
BRANCH   3   4
ATOM      4  C   UNL     1      10.634  80.044  41.042  1.00  0.00     0.000 C 
BRANCH   4   5
ATOM      5  C   UNL     1      11.587  79.813  42.236  1.00  0.00     0.000 C 
BRANCH   5   6
ATOM      6  C   UNL     1      11.027  80.325  43.578  1.00  0.00     0.006 C 
BRANCH   6   7
ATOM      7  C   UNL     1      10.035  81.488  43.439  1.00  0.00     0.053 C 
BRANCH   7   8
ATOM      8  C   UNL     1       8.720  81.181  44.089  1.00  0.00     0.041 C 
ATOM      9  O   UNL     1       7.645  81.401  43.473  1.00  0.00    -0.550 OA
ATOM     10  O   UNL     1       8.681  80.627  45.362  1.00  0.00    -0.550 OA
ENDBRANCH   7   8
ENDBRANCH   6   7
ENDBRANCH   5   6
ENDBRANCH   4   5
ENDBRANCH   3   4
ENDBRANCH   2   3
ENDBRANCH   1   2
BRANCH   1  11
ATOM     11  C   UNL     1       9.737  78.356  37.431  1.00  0.00     0.000 C 
BRANCH  11  12
ATOM     12  C   UNL     1       8.481  78.390  36.547  1.00  0.00     0.000 C 
BRANCH  12  13
ATOM     13  C   UNL     1       7.573  79.565  36.928  1.00  0.00     0.000 C 
BRANCH  13  14
ATOM     14  C   UNL     1       6.142  79.085  37.217  1.00  0.00     0.000 C 
BRANCH  14  15
ATOM     15  C   UNL     1       6.086  77.632  37.720  1.00  0.00     0.000 C 
BRANCH  15  16
ATOM     16  C   UNL     1       5.843  77.475  39.232  1.00  0.00     0.006 C 
BRANCH  16  17
ATOM     17  C   UNL     1       4.967  78.591  39.816  1.00  0.00     0.053 C 
BRANCH  17  18
ATOM     18  C   UNL     1       5.706  79.328  40.887  1.00  0.00     0.041 C 
ATOM     19  O   UNL     1       6.818  79.865  40.635  1.00  0.00    -0.550 OA
ATOM     20  O   UNL     1       5.144  79.466  42.151  1.00  0.00    -0.550 OA
ENDBRANCH  17  18
ENDBRANCH  16  17
ENDBRANCH  15  16
ENDBRANCH  14  15
ENDBRANCH  13  14
ENDBRANCH  12  13
ENDBRANCH  11  12
ENDBRANCH   1  11
TORSDOF 15
ENDMDL
MODEL 6
REMARK VINA RESULT:    -4.055      5.230      7.958
REMARK INTER + INTRA:          -9.824
REMARK INTER:                  -8.192
REMARK INTRA:                  -1.632
REMARK UNBOUND:                -2.214
REMARK SMILES O=C([O-])CCCCCCCCCCCCCCC(=O)[O-]
REMARK SMILES IDX 10 1 9 2 8 3 7 4 6 5 5 6 4 7 2 8 1 9 3 10 11 11 12 12 13 13
REMARK SMILES IDX 14 14 15 15 16 16 17 17 18 18 19 19 20 20
REMARK H PARENT
REMARK Flexibility Score: inf
ROOT
ATOM      1  C   UNL     1      11.377  81.640  43.612  1.00  0.00     0.000 C 
ENDROOT
BRANCH   1   2
ATOM      2  C   UNL     1      10.612  82.958  43.401  1.00  0.00     0.000 C 
BRANCH   2   3
ATOM      3  C   UNL     1       9.428  82.802  42.432  1.00  0.00     0.000 C 
BRANCH   3   4
ATOM      4  C   UNL     1       8.431  81.722  42.885  1.00  0.00     0.000 C 
BRANCH   4   5
ATOM      5  C   UNL     1       7.834  82.022  44.278  1.00  0.00     0.000 C 
BRANCH   5   6
ATOM      6  C   UNL     1       8.163  80.947  45.333  1.00  0.00     0.006 C 
BRANCH   6   7
ATOM      7  C   UNL     1       7.162  80.884  46.496  1.00  0.00     0.053 C 
BRANCH   7   8
ATOM      8  C   UNL     1       6.996  79.488  47.014  1.00  0.00     0.041 C 
ATOM      9  O   UNL     1       5.844  79.026  47.224  1.00  0.00    -0.550 OA
ATOM     10  O   UNL     1       8.108  78.688  47.239  1.00  0.00    -0.550 OA
ENDBRANCH   7   8
ENDBRANCH   6   7
ENDBRANCH   5   6
ENDBRANCH   4   5
ENDBRANCH   3   4
ENDBRANCH   2   3
ENDBRANCH   1   2
BRANCH   1  11
ATOM     11  C   UNL     1      12.355  81.333  42.466  1.00  0.00     0.000 C 
BRANCH  11  12
ATOM     12  C   UNL     1      11.801  80.294  41.479  1.00  0.00     0.000 C 
BRANCH  12  13
ATOM     13  C   UNL     1      11.695  80.882  40.067  1.00  0.00     0.000 C 
BRANCH  13  14
ATOM     14  C   UNL     1      10.431  80.377  39.353  1.00  0.00     0.000 C 
BRANCH  14  15
ATOM     15  C   UNL     1       9.610  79.396  40.208  1.00  0.00     0.000 C 
BRANCH  15  16
ATOM     16  C   UNL     1       8.252  78.990  39.607  1.00  0.00     0.006 C 
BRANCH  16  17
ATOM     17  C   UNL     1       7.068  79.720  40.256  1.00  0.00     0.053 C 
BRANCH  17  18
ATOM     18  C   UNL     1       5.835  78.876  40.185  1.00  0.00     0.041 C 
ATOM     19  O   UNL     1       4.696  79.412  40.249  1.00  0.00    -0.550 OA
ATOM     20  O   UNL     1       5.941  77.504  39.997  1.00  0.00    -0.550 OA
ENDBRANCH  17  18
ENDBRANCH  16  17
ENDBRANCH  15  16
ENDBRANCH  14  15
ENDBRANCH  13  14
ENDBRANCH  12  13
ENDBRANCH  11  12
ENDBRANCH   1  11
TORSDOF 15
ENDMDL
MODEL 7
REMARK VINA RESULT:    -4.039      1.448      5.951
REMARK INTER + INTRA:          -9.794
REMARK INTER:                  -7.400
REMARK INTRA:                  -2.394
REMARK UNBOUND:                -2.214
REMARK SMILES O=C([O-])CCCCCCCCCCCCCCC(=O)[O-]
REMARK SMILES IDX 10 1 9 2 8 3 7 4 6 5 5 6 4 7 2 8 1 9 3 10 11 11 12 12 13 13
REMARK SMILES IDX 14 14 15 15 16 16 17 17 18 18 19 19 20 20
REMARK H PARENT
REMARK Flexibility Score: inf
ROOT
ATOM      1  C   UNL     1       5.234  78.768  39.228  1.00  0.00     0.000 C 
ENDROOT
BRANCH   1   2
ATOM      2  C   UNL     1       6.215  77.873  40.005  1.00  0.00     0.000 C 
BRANCH   2   3
ATOM      3  C   UNL     1       6.113  76.395  39.598  1.00  0.00     0.000 C 
BRANCH   3   4
ATOM      4  C   UNL     1       4.916  76.116  38.673  1.00  0.00     0.000 C 
BRANCH   4   5
ATOM      5  C   UNL     1       5.354  75.560  37.299  1.00  0.00     0.000 C 
BRANCH   5   6
ATOM      6  C   UNL     1       6.652  74.732  37.356  1.00  0.00     0.006 C 
BRANCH   6   7
ATOM      7  C   UNL     1       6.428  73.233  37.604  1.00  0.00     0.053 C 
BRANCH   7   8
ATOM      8  C   UNL     1       7.245  72.729  38.754  1.00  0.00     0.041 C 
ATOM      9  O   UNL     1       6.822  72.856  39.933  1.00  0.00    -0.550 OA
ATOM     10  O   UNL     1       8.460  72.095  38.526  1.00  0.00    -0.550 OA
ENDBRANCH   7   8
ENDBRANCH   6   7
ENDBRANCH   5   6
ENDBRANCH   4   5
ENDBRANCH   3   4
ENDBRANCH   2   3
ENDBRANCH   1   2
BRANCH   1  11
ATOM     11  C   UNL     1       5.948  79.741  38.275  1.00  0.00     0.000 C 
BRANCH  11  12
ATOM     12  C   UNL     1       6.069  79.188  36.847  1.00  0.00     0.000 C 
BRANCH  12  13
ATOM     13  C   UNL     1       7.526  79.214  36.370  1.00  0.00     0.000 C 
BRANCH  13  14
ATOM     14  C   UNL     1       8.328  78.056  36.983  1.00  0.00     0.000 C 
BRANCH  14  15
ATOM     15  C   UNL     1       9.806  78.410  37.223  1.00  0.00     0.000 C 
BRANCH  15  16
ATOM     16  C   UNL     1      10.045  79.589  38.184  1.00  0.00     0.006 C 
BRANCH  16  17
ATOM     17  C   UNL     1       9.507  79.329  39.597  1.00  0.00     0.053 C 
BRANCH  17  18
ATOM     18  C   UNL     1       9.018  80.602  40.210  1.00  0.00     0.041 C 
ATOM     19  O   UNL     1       9.461  81.711  39.808  1.00  0.00    -0.550 OA
ATOM     20  O   UNL     1       8.035  80.568  41.192  1.00  0.00    -0.550 OA
ENDBRANCH  17  18
ENDBRANCH  16  17
ENDBRANCH  15  16
ENDBRANCH  14  15
ENDBRANCH  13  14
ENDBRANCH  12  13
ENDBRANCH  11  12
ENDBRANCH   1  11
TORSDOF 15
ENDMDL
MODEL 8
REMARK VINA RESULT:    -4.035      1.248      2.353
REMARK INTER + INTRA:          -9.787
REMARK INTER:                  -7.442
REMARK INTRA:                  -2.345
REMARK UNBOUND:                -2.214
REMARK SMILES O=C([O-])CCCCCCCCCCCCCCC(=O)[O-]
REMARK SMILES IDX 10 1 9 2 8 3 7 4 6 5 5 6 4 7 2 8 1 9 3 10 11 11 12 12 13 13
REMARK SMILES IDX 14 14 15 15 16 16 17 17 18 18 19 19 20 20
REMARK H PARENT
REMARK Flexibility Score: inf
ROOT
ATOM      1  C   UNL     1       5.270  79.477  38.914  1.00  0.00     0.000 C 
ENDROOT
BRANCH   1   2
ATOM      2  C   UNL     1       6.141  80.122  37.821  1.00  0.00     0.000 C 
BRANCH   2   3
ATOM      3  C   UNL     1       6.332  79.204  36.603  1.00  0.00     0.000 C 
BRANCH   3   4
ATOM      4  C   UNL     1       7.809  79.061  36.196  1.00  0.00     0.000 C 
BRANCH   4   5
ATOM      5  C   UNL     1       8.637  78.295  37.252  1.00  0.00     0.000 C 
BRANCH   5   6
ATOM      6  C   UNL     1       9.756  79.141  37.890  1.00  0.00     0.006 C 
BRANCH   6   7
ATOM      7  C   UNL     1       9.796  79.074  39.423  1.00  0.00     0.053 C 
BRANCH   7   8
ATOM      8  C   UNL     1       9.328  80.352  40.050  1.00  0.00     0.041 C 
ATOM      9  O   UNL     1       9.263  80.454  41.303  1.00  0.00    -0.550 OA
ATOM     10  O   UNL     1       8.990  81.439  39.255  1.00  0.00    -0.550 OA
ENDBRANCH   7   8
ENDBRANCH   6   7
ENDBRANCH   5   6
ENDBRANCH   4   5
ENDBRANCH   3   4
ENDBRANCH   2   3
ENDBRANCH   1   2
BRANCH   1  11
ATOM     11  C   UNL     1       6.103  78.730  39.969  1.00  0.00     0.000 C 
BRANCH  11  12
ATOM     12  C   UNL     1       5.998  77.204  39.832  1.00  0.00     0.000 C 
BRANCH  12  13
ATOM     13  C   UNL     1       4.708  76.805  39.106  1.00  0.00     0.000 C 
BRANCH  13  14
ATOM     14  C   UNL     1       4.923  75.547  38.251  1.00  0.00     0.000 C 
BRANCH  14  15
ATOM     15  C   UNL     1       6.248  75.570  37.470  1.00  0.00     0.000 C 
BRANCH  15  16
ATOM     16  C   UNL     1       7.050  74.257  37.511  1.00  0.00     0.006 C 
BRANCH  16  17
ATOM     17  C   UNL     1       6.324  73.134  38.263  1.00  0.00     0.053 C 
BRANCH  17  18
ATOM     18  C   UNL     1       7.026  72.829  39.548  1.00  0.00     0.041 C 
ATOM     19  O   UNL     1       8.033  72.073  39.556  1.00  0.00    -0.550 OA
ATOM     20  O   UNL     1       6.599  73.421  40.731  1.00  0.00    -0.550 OA
ENDBRANCH  17  18
ENDBRANCH  16  17
ENDBRANCH  15  16
ENDBRANCH  14  15
ENDBRANCH  13  14
ENDBRANCH  12  13
ENDBRANCH  11  12
ENDBRANCH   1  11
TORSDOF 15
ENDMDL
MODEL 9
REMARK VINA RESULT:    -4.020      2.870      6.891
REMARK INTER + INTRA:          -9.758
REMARK INTER:                  -7.840
REMARK INTRA:                  -1.919
REMARK UNBOUND:                -2.214
REMARK SMILES O=C([O-])CCCCCCCCCCCCCCC(=O)[O-]
REMARK SMILES IDX 10 1 9 2 8 3 7 4 6 5 5 6 4 7 2 8 1 9 3 10 11 11 12 12 13 13
REMARK SMILES IDX 14 14 15 15 16 16 17 17 18 18 19 19 20 20
REMARK H PARENT
REMARK Flexibility Score: inf
ROOT
ATOM      1  C   UNL     1       8.487  77.806  37.009  1.00  0.00     0.000 C 
ENDROOT
BRANCH   1   2
ATOM      2  C   UNL     1       7.919  78.996  36.216  1.00  0.00     0.000 C 
BRANCH   2   3
ATOM      3  C   UNL     1       6.434  79.250  36.520  1.00  0.00     0.000 C 
BRANCH   3   4
ATOM      4  C   UNL     1       6.227  80.289  37.635  1.00  0.00     0.000 C 
BRANCH   4   5
ATOM      5  C   UNL     1       5.286  79.774  38.748  1.00  0.00     0.000 C 
BRANCH   5   6
ATOM      6  C   UNL     1       5.858  78.577  39.533  1.00  0.00     0.006 C 
BRANCH   6   7
ATOM      7  C   UNL     1       4.962  77.331  39.515  1.00  0.00     0.053 C 
BRANCH   7   8
ATOM      8  C   UNL     1       5.622  76.179  38.820  1.00  0.00     0.041 C 
ATOM      9  O   UNL     1       5.514  76.047  37.573  1.00  0.00    -0.550 OA
ATOM     10  O   UNL     1       6.380  75.267  39.543  1.00  0.00    -0.550 OA
ENDBRANCH   7   8
ENDBRANCH   6   7
ENDBRANCH   5   6
ENDBRANCH   4   5
ENDBRANCH   3   4
ENDBRANCH   2   3
ENDBRANCH   1   2
BRANCH   1  11
ATOM     11  C   UNL     1       9.271  78.247  38.256  1.00  0.00     0.000 C 
BRANCH  11  12
ATOM     12  C   UNL     1      10.049  79.553  38.035  1.00  0.00     0.000 C 
BRANCH  12  13
ATOM     13  C   UNL     1       9.981  80.449  39.277  1.00  0.00     0.000 C 
BRANCH  13  14
ATOM     14  C   UNL     1      11.355  81.060  39.592  1.00  0.00     0.000 C 
BRANCH  14  15
ATOM     15  C   UNL     1      12.022  80.433  40.829  1.00  0.00     0.000 C 
BRANCH  15  16
ATOM     16  C   UNL     1      11.076  79.629  41.740  1.00  0.00     0.006 C 
BRANCH  16  17
ATOM     17  C   UNL     1      10.956  80.220  43.150  1.00  0.00     0.053 C 
BRANCH  17  18
ATOM     18  C   UNL     1       9.961  81.337  43.165  1.00  0.00     0.041 C 
ATOM     19  O   UNL     1       8.846  81.199  42.594  1.00  0.00    -0.550 OA
ATOM     20  O   UNL     1      10.243  82.511  43.851  1.00  0.00    -0.550 OA
ENDBRANCH  17  18
ENDBRANCH  16  17
ENDBRANCH  15  16
ENDBRANCH  14  15
ENDBRANCH  13  14
ENDBRANCH  12  13
ENDBRANCH  11  12
ENDBRANCH   1  11
TORSDOF 15
ENDMDL
