MODEL 1
REMARK VINA RESULT:    -4.745      0.000      0.000
REMARK INTER + INTRA:          -6.723
REMARK INTER:                  -5.993
REMARK INTRA:                  -0.731
REMARK UNBOUND:                -0.731
REMARK SMILES O=C(C=Cc1ccc(O)cc1)c1ccc(O)cc1O
REMARK SMILES IDX 4 1 3 2 5 3 6 4 7 5 8 6 11 7 10 8 9 9 2 11 1 12 12 13 18 14
REMARK SMILES IDX 13 15 17 16 14 17 15 18 19 19 16 21
REMARK H PARENT 9 10 19 20 16 22
REMARK Flexibility Score: inf
ROOT
ATOM      1  C   UNL     1      25.004  37.094  23.987  1.00  0.00     0.012 C 
ATOM      2  C   UNL     1      25.259  38.403  24.134  1.00  0.00     0.053 C 
ENDROOT
BRANCH   1   3
ATOM      3  C   UNL     1      25.420  36.297  22.806  1.00  0.00    -0.025 A 
ATOM      4  C   UNL     1      24.648  35.179  22.447  1.00  0.00     0.012 A 
ATOM      5  C   UNL     1      25.004  34.392  21.347  1.00  0.00     0.047 A 
ATOM      6  C   UNL     1      26.140  34.705  20.596  1.00  0.00     0.115 A 
ATOM      7  C   UNL     1      26.573  36.597  22.053  1.00  0.00     0.012 A 
ATOM      8  C   UNL     1      26.924  35.808  20.953  1.00  0.00     0.047 A 
BRANCH   6   9
ATOM      9  O   UNL     1      26.481  33.913  19.502  1.00  0.00    -0.508 OA
ATOM     10  H   UNL     1      25.774  33.443  18.948  1.00  0.00     0.293 HD
ENDBRANCH   6   9
ENDBRANCH   1   3
BRANCH   2  11
ATOM     11  C   UNL     1      24.835  39.175  25.322  1.00  0.00     0.189 C 
ATOM     12  O   UNL     1      24.024  40.125  25.155  1.00  0.00    -0.289 OA
BRANCH  11  13
ATOM     13  C   UNL     1      25.300  38.861  26.696  1.00  0.00     0.064 A 
ATOM     14  C   UNL     1      24.376  38.550  27.716  1.00  0.00     0.130 A 
ATOM     15  C   UNL     1      26.676  38.824  26.983  1.00  0.00     0.020 A 
ATOM     16  C   UNL     1      24.836  38.228  29.002  1.00  0.00     0.093 A 
ATOM     17  C   UNL     1      27.125  38.505  28.267  1.00  0.00     0.047 A 
ATOM     18  C   UNL     1      26.204  38.207  29.280  1.00  0.00     0.119 A 
BRANCH  14  19
ATOM     19  O   UNL     1      23.006  38.576  27.455  1.00  0.00    -0.507 OA
ATOM     20  H   UNL     1      22.567  39.366  26.994  1.00  0.00     0.293 HD
ENDBRANCH  14  19
BRANCH  18  21
ATOM     21  O   UNL     1      26.641  37.887  30.564  1.00  0.00    -0.508 OA
ATOM     22  H   UNL     1      26.712  38.591  31.290  1.00  0.00     0.293 HD
ENDBRANCH  18  21
ENDBRANCH  11  13
ENDBRANCH   2  11
TORSDOF 6
ENDMDL
MODEL 2
REMARK VINA RESULT:    -4.500      1.901      7.423
REMARK INTER + INTRA:          -6.415
REMARK INTER:                  -5.856
REMARK INTRA:                  -0.559
REMARK UNBOUND:                -0.731
REMARK SMILES O=C(C=Cc1ccc(O)cc1)c1ccc(O)cc1O
REMARK SMILES IDX 4 1 3 2 5 3 6 4 7 5 8 6 11 7 10 8 9 9 2 11 1 12 12 13 18 14
REMARK SMILES IDX 13 15 17 16 14 17 15 18 19 19 16 21
REMARK H PARENT 9 10 19 20 16 22
REMARK Flexibility Score: inf
ROOT
ATOM      1  C   UNL     1      25.445  38.134  24.272  1.00  0.00     0.012 C 
ATOM      2  C   UNL     1      26.618  37.690  23.794  1.00  0.00     0.053 C 
ENDROOT
BRANCH   1   3
ATOM      3  C   UNL     1      25.256  38.650  25.651  1.00  0.00    -0.025 A 
ATOM      4  C   UNL     1      26.207  38.314  26.629  1.00  0.00     0.012 A 
ATOM      5  C   UNL     1      26.067  38.769  27.944  1.00  0.00     0.047 A 
ATOM      6  C   UNL     1      24.971  39.558  28.303  1.00  0.00     0.115 A 
ATOM      7  C   UNL     1      24.145  39.434  26.024  1.00  0.00     0.012 A 
ATOM      8  C   UNL     1      24.010  39.887  27.340  1.00  0.00     0.047 A 
BRANCH   6   9
ATOM      9  O   UNL     1      24.846  40.006  29.616  1.00  0.00    -0.508 OA
ATOM     10  H   UNL     1      25.528  40.631  30.029  1.00  0.00     0.293 HD
ENDBRANCH   6   9
ENDBRANCH   1   3
BRANCH   2  11
ATOM     11  C   UNL     1      26.781  37.182  22.415  1.00  0.00     0.189 C 
ATOM     12  O   UNL     1      27.122  38.000  21.518  1.00  0.00    -0.289 OA
BRANCH  11  13
ATOM     13  C   UNL     1      26.591  35.756  22.052  1.00  0.00     0.064 A 
ATOM     14  C   UNL     1      26.247  35.388  20.735  1.00  0.00     0.130 A 
ATOM     15  C   UNL     1      26.799  34.750  23.013  1.00  0.00     0.020 A 
ATOM     16  C   UNL     1      26.099  34.032  20.403  1.00  0.00     0.093 A 
ATOM     17  C   UNL     1      26.647  33.403  22.674  1.00  0.00     0.047 A 
ATOM     18  C   UNL     1      26.296  33.042  21.368  1.00  0.00     0.119 A 
BRANCH  14  19
ATOM     19  O   UNL     1      26.039  36.367  19.762  1.00  0.00    -0.507 OA
ATOM     20  H   UNL     1      25.686  37.287  20.001  1.00  0.00     0.293 HD
ENDBRANCH  14  19
BRANCH  18  21
ATOM     21  O   UNL     1      26.142  31.701  21.019  1.00  0.00    -0.508 OA
ATOM     22  H   UNL     1      25.359  31.153  21.356  1.00  0.00     0.293 HD
ENDBRANCH  18  21
ENDBRANCH  11  13
ENDBRANCH   2  11
TORSDOF 6
ENDMDL
MODEL 3
REMARK VINA RESULT:    -4.316     11.933     14.801
REMARK INTER + INTRA:          -6.182
REMARK INTER:                  -5.643
REMARK INTRA:                  -0.538
REMARK UNBOUND:                -0.731
REMARK SMILES O=C(C=Cc1ccc(O)cc1)c1ccc(O)cc1O
REMARK SMILES IDX 4 1 3 2 5 3 6 4 7 5 8 6 11 7 10 8 9 9 2 11 1 12 12 13 18 14
REMARK SMILES IDX 13 15 17 16 14 17 15 18 19 19 16 21
REMARK H PARENT 9 10 19 20 16 22
REMARK Flexibility Score: inf
ROOT
ATOM      1  C   UNL     1      12.308  38.595  29.158  1.00  0.00     0.012 C 
ATOM      2  C   UNL     1      13.355  38.209  29.903  1.00  0.00     0.053 C 
ENDROOT
BRANCH   1   3
ATOM      3  C   UNL     1      10.927  38.737  29.682  1.00  0.00    -0.025 A 
ATOM      4  C   UNL     1      10.227  39.926  29.413  1.00  0.00     0.012 A 
ATOM      5  C   UNL     1       8.926  40.111  29.892  1.00  0.00     0.047 A 
ATOM      6  C   UNL     1       8.310  39.115  30.654  1.00  0.00     0.115 A 
ATOM      7  C   UNL     1      10.303  37.744  30.463  1.00  0.00     0.012 A 
ATOM      8  C   UNL     1       9.002  37.933  30.940  1.00  0.00     0.047 A 
BRANCH   6   9
ATOM      9  O   UNL     1       7.013  39.312  31.123  1.00  0.00    -0.508 OA
ATOM     10  H   UNL     1       6.734  39.012  32.050  1.00  0.00     0.293 HD
ENDBRANCH   6   9
ENDBRANCH   1   3
BRANCH   2  11
ATOM     11  C   UNL     1      14.723  38.076  29.358  1.00  0.00     0.189 C 
ATOM     12  O   UNL     1      15.613  37.579  30.099  1.00  0.00    -0.289 OA
BRANCH  11  13
ATOM     13  C   UNL     1      15.082  38.475  27.974  1.00  0.00     0.064 A 
ATOM     14  C   UNL     1      14.800  37.625  26.884  1.00  0.00     0.130 A 
ATOM     15  C   UNL     1      15.668  39.730  27.732  1.00  0.00     0.020 A 
ATOM     16  C   UNL     1      15.121  38.031  25.579  1.00  0.00     0.093 A 
ATOM     17  C   UNL     1      15.987  40.124  26.430  1.00  0.00     0.047 A 
ATOM     18  C   UNL     1      15.714  39.275  25.351  1.00  0.00     0.119 A 
BRANCH  14  19
ATOM     19  O   UNL     1      14.215  36.377  27.098  1.00  0.00    -0.507 OA
ATOM     20  H   UNL     1      13.904  35.796  26.326  1.00  0.00     0.293 HD
ENDBRANCH  14  19
BRANCH  18  21
ATOM     21  O   UNL     1      16.028  39.659  24.048  1.00  0.00    -0.508 OA
ATOM     22  H   UNL     1      15.305  39.866  23.369  1.00  0.00     0.293 HD
ENDBRANCH  18  21
ENDBRANCH  11  13
ENDBRANCH   2  11
TORSDOF 6
ENDMDL
MODEL 4
REMARK VINA RESULT:    -3.325     12.016     14.873
REMARK INTER + INTRA:          -4.931
REMARK INTER:                  -4.349
REMARK INTRA:                  -0.581
REMARK UNBOUND:                -0.731
REMARK SMILES O=C(C=Cc1ccc(O)cc1)c1ccc(O)cc1O
REMARK SMILES IDX 4 1 3 2 5 3 6 4 7 5 8 6 11 7 10 8 9 9 2 11 1 12 12 13 18 14
REMARK SMILES IDX 13 15 17 16 14 17 15 18 19 19 16 21
REMARK H PARENT 9 10 19 20 16 22
REMARK Flexibility Score: inf
ROOT
ATOM      1  C   UNL     1      12.295  38.302  29.520  1.00  0.00     0.012 C 
ATOM      2  C   UNL     1      12.670  37.385  28.616  1.00  0.00     0.053 C 
ENDROOT
BRANCH   1   3
ATOM      3  C   UNL     1      10.891  38.515  29.951  1.00  0.00    -0.025 A 
ATOM      4  C   UNL     1      10.262  39.726  29.614  1.00  0.00     0.012 A 
ATOM      5  C   UNL     1       8.942  39.975  30.005  1.00  0.00     0.047 A 
ATOM      6  C   UNL     1       8.236  39.024  30.744  1.00  0.00     0.115 A 
ATOM      7  C   UNL     1      10.176  37.566  30.710  1.00  0.00     0.012 A 
ATOM      8  C   UNL     1       8.856  37.820  31.098  1.00  0.00     0.047 A 
BRANCH   6   9
ATOM      9  O   UNL     1       6.921  39.286  31.125  1.00  0.00    -0.508 OA
ATOM     10  H   UNL     1       6.709  39.873  31.923  1.00  0.00     0.293 HD
ENDBRANCH   6   9
ENDBRANCH   1   3
BRANCH   2  11
ATOM     11  C   UNL     1      14.077  37.191  28.206  1.00  0.00     0.189 C 
ATOM     12  O   UNL     1      14.752  36.304  28.795  1.00  0.00    -0.289 OA
BRANCH  11  13
ATOM     13  C   UNL     1      14.715  37.973  27.117  1.00  0.00     0.064 A 
ATOM     14  C   UNL     1      15.548  39.072  27.412  1.00  0.00     0.130 A 
ATOM     15  C   UNL     1      14.529  37.594  25.775  1.00  0.00     0.020 A 
ATOM     16  C   UNL     1      16.165  39.782  26.371  1.00  0.00     0.093 A 
ATOM     17  C   UNL     1      15.146  38.308  24.745  1.00  0.00     0.047 A 
ATOM     18  C   UNL     1      15.965  39.404  25.041  1.00  0.00     0.119 A 
BRANCH  14  19
ATOM     19  O   UNL     1      15.751  39.466  28.736  1.00  0.00    -0.507 OA
ATOM     20  H   UNL     1      15.577  40.418  29.040  1.00  0.00     0.293 HD
ENDBRANCH  14  19
BRANCH  18  21
ATOM     21  O   UNL     1      16.584  40.124  24.021  1.00  0.00    -0.508 OA
ATOM     22  H   UNL     1      16.082  40.393  23.182  1.00  0.00     0.293 HD
ENDBRANCH  18  21
ENDBRANCH  11  13
ENDBRANCH   2  11
TORSDOF 6
ENDMDL
MODEL 5
REMARK VINA RESULT:    -3.261      1.324      2.045
REMARK INTER + INTRA:          -4.849
REMARK INTER:                  -4.807
REMARK INTRA:                  -0.042
REMARK UNBOUND:                -0.731
REMARK SMILES O=C(C=Cc1ccc(O)cc1)c1ccc(O)cc1O
REMARK SMILES IDX 4 1 3 2 5 3 6 4 7 5 8 6 11 7 10 8 9 9 2 11 1 12 12 13 18 14
REMARK SMILES IDX 13 15 17 16 14 17 15 18 19 19 16 21
REMARK H PARENT 9 10 19 20 16 22
REMARK Flexibility Score: inf
ROOT
ATOM      1  C   UNL     1      24.734  36.855  23.174  1.00  0.00     0.012 C 
ATOM      2  C   UNL     1      25.441  37.832  23.761  1.00  0.00     0.053 C 
ENDROOT
BRANCH   1   3
ATOM      3  C   UNL     1      25.315  35.855  22.244  1.00  0.00    -0.025 A 
ATOM      4  C   UNL     1      25.961  36.316  21.083  1.00  0.00     0.012 A 
ATOM      5  C   UNL     1      26.518  35.412  20.172  1.00  0.00     0.047 A 
ATOM      6  C   UNL     1      26.430  34.037  20.403  1.00  0.00     0.115 A 
ATOM      7  C   UNL     1      25.218  34.466  22.461  1.00  0.00     0.012 A 
ATOM      8  C   UNL     1      25.777  33.566  21.548  1.00  0.00     0.047 A 
BRANCH   6   9
ATOM      9  O   UNL     1      26.991  33.149  19.487  1.00  0.00    -0.508 OA
ATOM     10  H   UNL     1      26.413  32.546  18.913  1.00  0.00     0.293 HD
ENDBRANCH   6   9
ENDBRANCH   1   3
BRANCH   2  11
ATOM     11  C   UNL     1      24.838  38.815  24.686  1.00  0.00     0.189 C 
ATOM     12  O   UNL     1      24.288  39.836  24.192  1.00  0.00    -0.289 OA
BRANCH  11  13
ATOM     13  C   UNL     1      24.827  38.636  26.159  1.00  0.00     0.064 A 
ATOM     14  C   UNL     1      25.974  38.168  26.836  1.00  0.00     0.130 A 
ATOM     15  C   UNL     1      23.683  38.975  26.903  1.00  0.00     0.020 A 
ATOM     16  C   UNL     1      25.954  38.032  28.233  1.00  0.00     0.093 A 
ATOM     17  C   UNL     1      23.672  38.834  28.292  1.00  0.00     0.047 A 
ATOM     18  C   UNL     1      24.809  38.361  28.960  1.00  0.00     0.119 A 
BRANCH  14  19
ATOM     19  O   UNL     1      27.123  37.828  26.121  1.00  0.00    -0.507 OA
ATOM     20  H   UNL     1      27.558  38.477  25.474  1.00  0.00     0.293 HD
ENDBRANCH  14  19
BRANCH  18  21
ATOM     21  O   UNL     1      24.808  38.216  30.346  1.00  0.00    -0.508 OA
ATOM     22  H   UNL     1      24.708  37.307  30.784  1.00  0.00     0.293 HD
ENDBRANCH  18  21
ENDBRANCH  11  13
ENDBRANCH   2  11
TORSDOF 6
ENDMDL
MODEL 6
REMARK VINA RESULT:    -2.670      2.114      7.166
REMARK INTER + INTRA:          -4.103
REMARK INTER:                  -4.510
REMARK INTRA:                   0.407
REMARK UNBOUND:                -0.731
REMARK SMILES O=C(C=Cc1ccc(O)cc1)c1ccc(O)cc1O
REMARK SMILES IDX 4 1 3 2 5 3 6 4 7 5 8 6 11 7 10 8 9 9 2 11 1 12 12 13 18 14
REMARK SMILES IDX 13 15 17 16 14 17 15 18 19 19 16 21
REMARK H PARENT 9 10 19 20 16 22
REMARK Flexibility Score: inf
ROOT
ATOM      1  C   UNL     1      25.313  37.920  23.847  1.00  0.00     0.012 C 
ATOM      2  C   UNL     1      26.557  37.827  23.354  1.00  0.00     0.053 C 
ENDROOT
BRANCH   1   3
ATOM      3  C   UNL     1      24.988  38.505  25.171  1.00  0.00    -0.025 A 
ATOM      4  C   UNL     1      23.725  38.242  25.730  1.00  0.00     0.012 A 
ATOM      5  C   UNL     1      23.370  38.778  26.972  1.00  0.00     0.047 A 
ATOM      6  C   UNL     1      24.267  39.591  27.669  1.00  0.00     0.115 A 
ATOM      7  C   UNL     1      25.882  39.338  25.875  1.00  0.00     0.012 A 
ATOM      8  C   UNL     1      25.522  39.871  27.118  1.00  0.00     0.047 A 
BRANCH   6   9
ATOM      9  O   UNL     1      23.900  40.116  28.907  1.00  0.00    -0.508 OA
ATOM     10  H   UNL     1      24.559  40.171  29.675  1.00  0.00     0.293 HD
ENDBRANCH   6   9
ENDBRANCH   1   3
BRANCH   2  11
ATOM     11  C   UNL     1      26.854  37.242  22.030  1.00  0.00     0.189 C 
ATOM     12  O   UNL     1      27.116  38.026  21.078  1.00  0.00    -0.289 OA
BRANCH  11  13
ATOM     13  C   UNL     1      26.885  35.779  21.783  1.00  0.00     0.064 A 
ATOM     14  C   UNL     1      26.998  34.870  22.855  1.00  0.00     0.130 A 
ATOM     15  C   UNL     1      26.755  35.282  20.474  1.00  0.00     0.020 A 
ATOM     16  C   UNL     1      26.997  33.488  22.605  1.00  0.00     0.093 A 
ATOM     17  C   UNL     1      26.758  33.905  20.234  1.00  0.00     0.047 A 
ATOM     18  C   UNL     1      26.880  33.006  21.300  1.00  0.00     0.119 A 
BRANCH  14  19
ATOM     19  O   UNL     1      27.125  35.337  24.164  1.00  0.00    -0.507 OA
ATOM     20  H   UNL     1      27.346  34.714  24.932  1.00  0.00     0.293 HD
ENDBRANCH  14  19
BRANCH  18  21
ATOM     21  O   UNL     1      26.884  31.631  21.072  1.00  0.00    -0.508 OA
ATOM     22  H   UNL     1      27.476  31.007  21.608  1.00  0.00     0.293 HD
ENDBRANCH  18  21
ENDBRANCH  11  13
ENDBRANCH   2  11
TORSDOF 6
ENDMDL
MODEL 7
REMARK VINA RESULT:    -1.925     12.627     14.524
REMARK INTER + INTRA:          -3.162
REMARK INTER:                  -2.499
REMARK INTRA:                  -0.663
REMARK UNBOUND:                -0.731
REMARK SMILES O=C(C=Cc1ccc(O)cc1)c1ccc(O)cc1O
REMARK SMILES IDX 4 1 3 2 5 3 6 4 7 5 8 6 11 7 10 8 9 9 2 11 1 12 12 13 18 14
REMARK SMILES IDX 13 15 17 16 14 17 15 18 19 19 16 21
REMARK H PARENT 9 10 19 20 16 22
REMARK Flexibility Score: inf
ROOT
ATOM      1  C   UNL     1      13.077  37.881  28.016  1.00  0.00     0.012 C 
ATOM      2  C   UNL     1      13.093  38.345  29.274  1.00  0.00     0.053 C 
ENDROOT
BRANCH   1   3
ATOM      3  C   UNL     1      13.963  38.383  26.937  1.00  0.00    -0.025 A 
ATOM      4  C   UNL     1      14.943  39.337  27.263  1.00  0.00     0.012 A 
ATOM      5  C   UNL     1      15.796  39.846  26.279  1.00  0.00     0.047 A 
ATOM      6  C   UNL     1      15.677  39.418  24.954  1.00  0.00     0.115 A 
ATOM      7  C   UNL     1      13.840  37.968  25.595  1.00  0.00     0.012 A 
ATOM      8  C   UNL     1      14.696  38.480  24.615  1.00  0.00     0.047 A 
BRANCH   6   9
ATOM      9  O   UNL     1      16.535  39.934  23.985  1.00  0.00    -0.508 OA
ATOM     10  H   UNL     1      17.463  40.265  24.223  1.00  0.00     0.293 HD
ENDBRANCH   6   9
ENDBRANCH   1   3
BRANCH   2  11
ATOM     11  C   UNL     1      12.200  37.826  30.332  1.00  0.00     0.189 C 
ATOM     12  O   UNL     1      12.659  36.958  31.124  1.00  0.00    -0.289 OA
BRANCH  11  13
ATOM     13  C   UNL     1      10.807  38.301  30.518  1.00  0.00     0.064 A 
ATOM     14  C   UNL     1       9.788  37.408  30.914  1.00  0.00     0.130 A 
ATOM     15  C   UNL     1      10.496  39.661  30.343  1.00  0.00     0.020 A 
ATOM     16  C   UNL     1       8.482  37.881  31.112  1.00  0.00     0.093 A 
ATOM     17  C   UNL     1       9.192  40.122  30.540  1.00  0.00     0.047 A 
ATOM     18  C   UNL     1       8.182  39.232  30.924  1.00  0.00     0.119 A 
BRANCH  14  19
ATOM     19  O   UNL     1      10.072  36.054  31.097  1.00  0.00    -0.507 OA
ATOM     20  H   UNL     1       9.765  35.352  30.432  1.00  0.00     0.293 HD
ENDBRANCH  14  19
BRANCH  18  21
ATOM     21  O   UNL     1       6.877  39.681  31.123  1.00  0.00    -0.508 OA
ATOM     22  H   UNL     1       6.652  40.343  31.857  1.00  0.00     0.293 HD
ENDBRANCH  18  21
ENDBRANCH  11  13
ENDBRANCH   2  11
TORSDOF 6
ENDMDL
