MODEL 1
REMARK VINA RESULT:    -4.234      0.000      0.000
REMARK INTER + INTRA:          -8.521
REMARK INTER:                  -6.834
REMARK INTRA:                  -1.687
REMARK UNBOUND:                -1.687
REMARK SMILES CCCCCCCCCCCCO
REMARK SMILES IDX 7 1 6 2 5 3 4 4 3 5 2 6 1 7 8 8 9 9 10 10 11 11 12 12 13 13
REMARK H PARENT 13 14
REMARK Flexibility Score: inf
ROOT
ATOM      1  C   UNL     1     204.795 205.624 230.899  1.00  0.00     0.000 C 
ENDROOT
BRANCH   1   2
ATOM      2  C   UNL     1     204.210 205.256 232.273  1.00  0.00    -0.000 C 
BRANCH   2   3
ATOM      3  C   UNL     1     205.098 204.265 233.047  1.00  0.00    -0.000 C 
BRANCH   3   4
ATOM      4  C   UNL     1     204.356 202.968 233.412  1.00  0.00    -0.000 C 
BRANCH   4   5
ATOM      5  C   UNL     1     204.977 201.726 232.749  1.00  0.00    -0.000 C 
BRANCH   5   6
ATOM      6  C   UNL     1     206.326 202.030 232.078  1.00  0.00    -0.003 C 
ATOM      7  C   UNL     1     206.416 201.486 230.652  1.00  0.00     0.004 C 
ENDBRANCH   5   6
ENDBRANCH   4   5
ENDBRANCH   3   4
ENDBRANCH   2   3
ENDBRANCH   1   2
BRANCH   1   8
ATOM      8  C   UNL     1     204.543 204.536 229.839  1.00  0.00     0.000 C 
BRANCH   8   9
ATOM      9  C   UNL     1     203.093 204.025 229.851  1.00  0.00     0.000 C 
BRANCH   9  10
ATOM     10  C   UNL     1     202.998 202.506 229.644  1.00  0.00     0.002 C 
BRANCH  10  11
ATOM     11  C   UNL     1     201.976 201.886 230.605  1.00  0.00     0.028 C 
BRANCH  11  12
ATOM     12  C   UNL     1     201.976 200.358 230.501  1.00  0.00     0.156 C 
BRANCH  12  13
ATOM     13  O   UNL     1     203.266 199.891 230.214  1.00  0.00    -0.396 OA
ATOM     14  H   UNL     1     203.661 200.529 229.564  1.00  0.00     0.210 HD
ENDBRANCH  12  13
ENDBRANCH  11  12
ENDBRANCH  10  11
ENDBRANCH   9  10
ENDBRANCH   8   9
ENDBRANCH   1   8
TORSDOF 11
ENDMDL
MODEL 2
REMARK VINA RESULT:    -4.153      3.051      4.991
REMARK INTER + INTRA:          -8.390
REMARK INTER:                  -7.006
REMARK INTRA:                  -1.384
REMARK UNBOUND:                -1.687
REMARK SMILES CCCCCCCCCCCCO
REMARK SMILES IDX 7 1 6 2 5 3 4 4 3 5 2 6 1 7 8 8 9 9 10 10 11 11 12 12 13 13
REMARK H PARENT 13 14
REMARK Flexibility Score: inf
ROOT
ATOM      1  C   UNL     1     203.695 203.339 229.306  1.00  0.00     0.000 C 
ENDROOT
BRANCH   1   2
ATOM      2  C   UNL     1     202.384 202.784 229.887  1.00  0.00    -0.000 C 
BRANCH   2   3
ATOM      3  C   UNL     1     201.368 203.892 230.218  1.00  0.00    -0.000 C 
BRANCH   3   4
ATOM      4  C   UNL     1     200.985 203.917 231.707  1.00  0.00    -0.000 C 
BRANCH   4   5
ATOM      5  C   UNL     1     201.828 202.944 232.550  1.00  0.00    -0.000 C 
BRANCH   5   6
ATOM      6  C   UNL     1     201.802 203.290 234.047  1.00  0.00    -0.003 C 
ATOM      7  C   UNL     1     201.505 204.766 234.311  1.00  0.00     0.004 C 
ENDBRANCH   5   6
ENDBRANCH   4   5
ENDBRANCH   3   4
ENDBRANCH   2   3
ENDBRANCH   1   2
BRANCH   1   8
ATOM      8  C   UNL     1     204.911 203.045 230.204  1.00  0.00     0.000 C 
BRANCH   8   9
ATOM      9  C   UNL     1     205.214 204.192 231.181  1.00  0.00     0.000 C 
BRANCH   9  10
ATOM     10  C   UNL     1     204.715 205.553 230.673  1.00  0.00     0.002 C 
BRANCH  10  11
ATOM     11  C   UNL     1     203.844 206.245 231.729  1.00  0.00     0.028 C 
BRANCH  11  12
ATOM     12  C   UNL     1     204.691 206.744 232.903  1.00  0.00     0.156 C 
BRANCH  12  13
ATOM     13  O   UNL     1     204.902 208.125 232.797  1.00  0.00    -0.396 OA
ATOM     14  H   UNL     1     204.982 208.327 231.828  1.00  0.00     0.210 HD
ENDBRANCH  12  13
ENDBRANCH  11  12
ENDBRANCH  10  11
ENDBRANCH   9  10
ENDBRANCH   8   9
ENDBRANCH   1   8
TORSDOF 11
ENDMDL
MODEL 3
REMARK VINA RESULT:    -4.137      2.850      4.180
REMARK INTER + INTRA:          -8.363
REMARK INTER:                  -6.999
REMARK INTRA:                  -1.364
REMARK UNBOUND:                -1.687
REMARK SMILES CCCCCCCCCCCCO
REMARK SMILES IDX 7 1 6 2 5 3 4 4 3 5 2 6 1 7 8 8 9 9 10 10 11 11 12 12 13 13
REMARK H PARENT 13 14
REMARK Flexibility Score: inf
ROOT
ATOM      1  C   UNL     1     202.524 202.758 229.887  1.00  0.00     0.000 C 
ENDROOT
BRANCH   1   2
ATOM      2  C   UNL     1     203.857 203.071 229.188  1.00  0.00    -0.000 C 
BRANCH   2   3
ATOM      3  C   UNL     1     204.671 204.151 229.923  1.00  0.00    -0.000 C 
BRANCH   3   4
ATOM      4  C   UNL     1     205.286 203.637 231.235  1.00  0.00    -0.000 C 
BRANCH   4   5
ATOM      5  C   UNL     1     205.043 204.593 232.416  1.00  0.00    -0.000 C 
BRANCH   5   6
ATOM      6  C   UNL     1     204.540 205.972 231.962  1.00  0.00    -0.003 C 
ATOM      7  C   UNL     1     203.744 206.701 233.046  1.00  0.00     0.004 C 
ENDBRANCH   5   6
ENDBRANCH   4   5
ENDBRANCH   3   4
ENDBRANCH   2   3
ENDBRANCH   1   2
BRANCH   1   8
ATOM      8  C   UNL     1     201.519 203.920 229.792  1.00  0.00     0.000 C 
BRANCH   8   9
ATOM      9  C   UNL     1     201.269 204.598 231.148  1.00  0.00     0.000 C 
BRANCH   9  10
ATOM     10  C   UNL     1     201.460 203.642 232.334  1.00  0.00     0.002 C 
BRANCH  10  11
ATOM     11  C   UNL     1     200.485 203.978 233.470  1.00  0.00     0.028 C 
BRANCH  11  12
ATOM     12  C   UNL     1     199.138 203.280 233.266  1.00  0.00     0.156 C 
BRANCH  12  13
ATOM     13  O   UNL     1     198.203 204.176 232.731  1.00  0.00    -0.396 OA
ATOM     14  H   UNL     1     197.897 203.787 231.870  1.00  0.00     0.210 HD
ENDBRANCH  12  13
ENDBRANCH  11  12
ENDBRANCH  10  11
ENDBRANCH   9  10
ENDBRANCH   8   9
ENDBRANCH   1   8
TORSDOF 11
ENDMDL
MODEL 4
REMARK VINA RESULT:    -4.110      2.643      4.371
REMARK INTER + INTRA:          -8.320
REMARK INTER:                  -6.956
REMARK INTRA:                  -1.364
REMARK UNBOUND:                -1.687
REMARK SMILES CCCCCCCCCCCCO
REMARK SMILES IDX 7 1 6 2 5 3 4 4 3 5 2 6 1 7 8 8 9 9 10 10 11 11 12 12 13 13
REMARK H PARENT 13 14
REMARK Flexibility Score: inf
ROOT
ATOM      1  C   UNL     1     202.705 202.991 230.355  1.00  0.00     0.000 C 
ENDROOT
BRANCH   1   2
ATOM      2  C   UNL     1     203.935 202.372 229.670  1.00  0.00    -0.000 C 
BRANCH   2   3
ATOM      3  C   UNL     1     204.702 201.407 230.592  1.00  0.00    -0.000 C 
BRANCH   3   4
ATOM      4  C   UNL     1     206.191 201.768 230.718  1.00  0.00    -0.000 C 
BRANCH   4   5
ATOM      5  C   UNL     1     206.557 202.288 232.119  1.00  0.00    -0.000 C 
BRANCH   5   6
ATOM      6  C   UNL     1     205.415 202.102 233.131  1.00  0.00    -0.003 C 
ATOM      7  C   UNL     1     205.733 201.057 234.201  1.00  0.00     0.004 C 
ENDBRANCH   5   6
ENDBRANCH   4   5
ENDBRANCH   3   4
ENDBRANCH   2   3
ENDBRANCH   1   2
BRANCH   1   8
ATOM      8  C   UNL     1     202.885 204.491 230.649  1.00  0.00     0.000 C 
BRANCH   8   9
ATOM      9  C   UNL     1     204.212 205.045 230.106  1.00  0.00     0.000 C 
BRANCH   9  10
ATOM     10  C   UNL     1     205.014 205.812 231.168  1.00  0.00     0.002 C 
BRANCH  10  11
ATOM     11  C   UNL     1     204.404 205.617 232.562  1.00  0.00     0.028 C 
BRANCH  11  12
ATOM     12  C   UNL     1     204.232 206.957 233.282  1.00  0.00     0.156 C 
BRANCH  12  13
ATOM     13  O   UNL     1     204.943 207.962 232.613  1.00  0.00    -0.396 OA
ATOM     14  H   UNL     1     204.765 208.809 233.100  1.00  0.00     0.210 HD
ENDBRANCH  12  13
ENDBRANCH  11  12
ENDBRANCH  10  11
ENDBRANCH   9  10
ENDBRANCH   8   9
ENDBRANCH   1   8
TORSDOF 11
ENDMDL
MODEL 5
REMARK VINA RESULT:    -4.075      2.495      3.534
REMARK INTER + INTRA:          -8.264
REMARK INTER:                  -6.709
REMARK INTRA:                  -1.555
REMARK UNBOUND:                -1.687
REMARK SMILES CCCCCCCCCCCCO
REMARK SMILES IDX 7 1 6 2 5 3 4 4 3 5 2 6 1 7 8 8 9 9 10 10 11 11 12 12 13 13
REMARK H PARENT 13 14
REMARK Flexibility Score: inf
ROOT
ATOM      1  C   UNL     1     203.436 203.282 229.149  1.00  0.00     0.000 C 
ENDROOT
BRANCH   1   2
ATOM      2  C   UNL     1     204.735 202.664 229.692  1.00  0.00    -0.000 C 
BRANCH   2   3
ATOM      3  C   UNL     1     205.024 203.078 231.146  1.00  0.00    -0.000 C 
BRANCH   3   4
ATOM      4  C   UNL     1     204.943 201.895 232.125  1.00  0.00    -0.000 C 
BRANCH   4   5
ATOM      5  C   UNL     1     204.398 200.617 231.463  1.00  0.00    -0.000 C 
BRANCH   5   6
ATOM      6  C   UNL     1     202.930 200.346 231.827  1.00  0.00    -0.003 C 
ATOM      7  C   UNL     1     202.027 200.223 230.599  1.00  0.00     0.004 C 
ENDBRANCH   5   6
ENDBRANCH   4   5
ENDBRANCH   3   4
ENDBRANCH   2   3
ENDBRANCH   1   2
BRANCH   1   8
ATOM      8  C   UNL     1     202.695 204.123 230.203  1.00  0.00     0.000 C 
BRANCH   8   9
ATOM      9  C   UNL     1     201.186 203.831 230.238  1.00  0.00     0.000 C 
BRANCH   9  10
ATOM     10  C   UNL     1     200.646 203.664 231.666  1.00  0.00     0.002 C 
BRANCH  10  11
ATOM     11  C   UNL     1     201.761 203.868 232.700  1.00  0.00     0.028 C 
BRANCH  11  12
ATOM     12  C   UNL     1     201.182 204.212 234.075  1.00  0.00     0.156 C 
BRANCH  12  13
ATOM     13  O   UNL     1     200.817 203.042 234.755  1.00  0.00    -0.396 OA
ATOM     14  H   UNL     1     201.017 202.284 234.144  1.00  0.00     0.210 HD
ENDBRANCH  12  13
ENDBRANCH  11  12
ENDBRANCH  10  11
ENDBRANCH   9  10
ENDBRANCH   8   9
ENDBRANCH   1   8
TORSDOF 11
ENDMDL
MODEL 6
REMARK VINA RESULT:    -4.035      2.222      3.613
REMARK INTER + INTRA:          -8.199
REMARK INTER:                  -6.660
REMARK INTRA:                  -1.539
REMARK UNBOUND:                -1.687
REMARK SMILES CCCCCCCCCCCCO
REMARK SMILES IDX 7 1 6 2 5 3 4 4 3 5 2 6 1 7 8 8 9 9 10 10 11 11 12 12 13 13
REMARK H PARENT 13 14
REMARK Flexibility Score: inf
ROOT
ATOM      1  C   UNL     1     206.260 201.832 230.692  1.00  0.00     0.000 C 
ENDROOT
BRANCH   1   2
ATOM      2  C   UNL     1     205.990 202.168 232.169  1.00  0.00    -0.000 C 
BRANCH   2   3
ATOM      3  C   UNL     1     205.058 201.148 232.846  1.00  0.00    -0.000 C 
BRANCH   3   4
ATOM      4  C   UNL     1     203.788 201.798 233.421  1.00  0.00    -0.000 C 
BRANCH   4   5
ATOM      5  C   UNL     1     202.499 201.207 232.822  1.00  0.00    -0.000 C 
BRANCH   5   6
ATOM      6  C   UNL     1     202.783 200.110 231.783  1.00  0.00    -0.003 C 
ATOM      7  C   UNL     1     202.064 200.351 230.455  1.00  0.00     0.004 C 
ENDBRANCH   5   6
ENDBRANCH   4   5
ENDBRANCH   3   4
ENDBRANCH   2   3
ENDBRANCH   1   2
BRANCH   1   8
ATOM      8  C   UNL     1     205.111 202.269 229.767  1.00  0.00     0.000 C 
BRANCH   8   9
ATOM      9  C   UNL     1     204.586 203.675 230.100  1.00  0.00     0.000 C 
BRANCH   9  10
ATOM     10  C   UNL     1     203.138 203.894 229.636  1.00  0.00     0.002 C 
BRANCH  10  11
ATOM     11  C   UNL     1     202.225 204.213 230.826  1.00  0.00     0.028 C 
BRANCH  11  12
ATOM     12  C   UNL     1     202.832 205.305 231.712  1.00  0.00     0.156 C 
BRANCH  12  13
ATOM     13  O   UNL     1     203.038 206.474 230.967  1.00  0.00    -0.396 OA
ATOM     14  H   UNL     1     203.810 206.942 231.381  1.00  0.00     0.210 HD
ENDBRANCH  12  13
ENDBRANCH  11  12
ENDBRANCH  10  11
ENDBRANCH   9  10
ENDBRANCH   8   9
ENDBRANCH   1   8
TORSDOF 11
ENDMDL
MODEL 7
REMARK VINA RESULT:    -4.031      2.464      3.945
REMARK INTER + INTRA:          -8.193
REMARK INTER:                  -6.858
REMARK INTRA:                  -1.335
REMARK UNBOUND:                -1.687
REMARK SMILES CCCCCCCCCCCCO
REMARK SMILES IDX 7 1 6 2 5 3 4 4 3 5 2 6 1 7 8 8 9 9 10 10 11 11 12 12 13 13
REMARK H PARENT 13 14
REMARK Flexibility Score: inf
ROOT
ATOM      1  C   UNL     1     203.868 205.422 233.460  1.00  0.00     0.000 C 
ENDROOT
BRANCH   1   2
ATOM      2  C   UNL     1     202.870 206.151 234.375  1.00  0.00    -0.000 C 
BRANCH   2   3
ATOM      3  C   UNL     1     201.676 205.265 234.773  1.00  0.00    -0.000 C 
BRANCH   3   4
ATOM      4  C   UNL     1     201.703 203.892 234.080  1.00  0.00    -0.000 C 
BRANCH   4   5
ATOM      5  C   UNL     1     200.528 203.698 233.105  1.00  0.00    -0.000 C 
BRANCH   5   6
ATOM      6  C   UNL     1     200.994 203.324 231.690  1.00  0.00    -0.003 C 
ATOM      7  C   UNL     1     201.002 204.516 230.732  1.00  0.00     0.004 C 
ENDBRANCH   5   6
ENDBRANCH   4   5
ENDBRANCH   3   4
ENDBRANCH   2   3
ENDBRANCH   1   2
BRANCH   1   8
ATOM      8  C   UNL     1     204.332 206.293 232.278  1.00  0.00     0.000 C 
BRANCH   8   9
ATOM      9  C   UNL     1     204.708 205.460 231.043  1.00  0.00     0.000 C 
BRANCH   9  10
ATOM     10  C   UNL     1     204.640 203.948 231.303  1.00  0.00     0.002 C 
BRANCH  10  11
ATOM     11  C   UNL     1     204.644 203.165 229.984  1.00  0.00     0.028 C 
BRANCH  11  12
ATOM     12  C   UNL     1     205.795 202.156 229.943  1.00  0.00     0.156 C 
BRANCH  12  13
ATOM     13  O   UNL     1     206.919 202.675 230.600  1.00  0.00    -0.396 OA
ATOM     14  H   UNL     1     206.801 202.475 231.566  1.00  0.00     0.210 HD
ENDBRANCH  12  13
ENDBRANCH  11  12
ENDBRANCH  10  11
ENDBRANCH   9  10
ENDBRANCH   8   9
ENDBRANCH   1   8
TORSDOF 11
ENDMDL
MODEL 8
REMARK VINA RESULT:    -4.028      1.742      3.753
REMARK INTER + INTRA:          -8.188
REMARK INTER:                  -6.711
REMARK INTRA:                  -1.476
REMARK UNBOUND:                -1.687
REMARK SMILES CCCCCCCCCCCCO
REMARK SMILES IDX 7 1 6 2 5 3 4 4 3 5 2 6 1 7 8 8 9 9 10 10 11 11 12 12 13 13
REMARK H PARENT 13 14
REMARK Flexibility Score: inf
ROOT
ATOM      1  C   UNL     1     200.870 204.112 231.287  1.00  0.00     0.000 C 
ENDROOT
BRANCH   1   2
ATOM      2  C   UNL     1     201.485 204.034 229.880  1.00  0.00    -0.000 C 
BRANCH   2   3
ATOM      3  C   UNL     1     202.486 202.873 229.736  1.00  0.00    -0.000 C 
BRANCH   3   4
ATOM      4  C   UNL     1     203.884 203.349 229.305  1.00  0.00    -0.000 C 
BRANCH   4   5
ATOM      5  C   UNL     1     204.731 203.846 230.490  1.00  0.00    -0.000 C 
BRANCH   5   6
ATOM      6  C   UNL     1     204.825 205.378 230.543  1.00  0.00    -0.003 C 
ATOM      7  C   UNL     1     204.347 205.957 231.875  1.00  0.00     0.004 C 
ENDBRANCH   5   6
ENDBRANCH   4   5
ENDBRANCH   3   4
ENDBRANCH   2   3
ENDBRANCH   1   2
BRANCH   1   8
ATOM      8  C   UNL     1     200.946 202.772 232.041  1.00  0.00     0.000 C 
BRANCH   8   9
ATOM      9  C   UNL     1     201.757 202.871 233.342  1.00  0.00     0.000 C 
BRANCH   9  10
ATOM     10  C   UNL     1     203.038 202.024 233.309  1.00  0.00     0.002 C 
BRANCH  10  11
ATOM     11  C   UNL     1     202.785 200.673 232.629  1.00  0.00     0.028 C 
BRANCH  11  12
ATOM     12  C   UNL     1     204.019 200.204 231.854  1.00  0.00     0.156 C 
BRANCH  12  13
ATOM     13  O   UNL     1     203.647 199.725 230.592  1.00  0.00    -0.396 OA
ATOM     14  H   UNL     1     203.705 200.495 229.967  1.00  0.00     0.210 HD
ENDBRANCH  12  13
ENDBRANCH  11  12
ENDBRANCH  10  11
ENDBRANCH   9  10
ENDBRANCH   8   9
ENDBRANCH   1   8
TORSDOF 11
ENDMDL
MODEL 9
REMARK VINA RESULT:    -4.023      2.801      4.539
REMARK INTER + INTRA:          -8.180
REMARK INTER:                  -7.019
REMARK INTRA:                  -1.161
REMARK UNBOUND:                -1.687
REMARK SMILES CCCCCCCCCCCCO
REMARK SMILES IDX 7 1 6 2 5 3 4 4 3 5 2 6 1 7 8 8 9 9 10 10 11 11 12 12 13 13
REMARK H PARENT 13 14
REMARK Flexibility Score: inf
ROOT
ATOM      1  C   UNL     1     201.353 203.784 229.895  1.00  0.00     0.000 C 
ENDROOT
BRANCH   1   2
ATOM      2  C   UNL     1     200.891 204.454 231.200  1.00  0.00    -0.000 C 
BRANCH   2   3
ATOM      3  C   UNL     1     200.511 203.432 232.286  1.00  0.00    -0.000 C 
BRANCH   3   4
ATOM      4  C   UNL     1     200.953 203.872 233.692  1.00  0.00    -0.000 C 
BRANCH   4   5
ATOM      5  C   UNL     1     202.482 203.853 233.864  1.00  0.00    -0.000 C 
BRANCH   5   6
ATOM      6  C   UNL     1     203.037 205.204 234.342  1.00  0.00    -0.003 C 
ATOM      7  C   UNL     1     202.047 205.979 235.212  1.00  0.00     0.004 C 
ENDBRANCH   5   6
ENDBRANCH   4   5
ENDBRANCH   3   4
ENDBRANCH   2   3
ENDBRANCH   1   2
BRANCH   1   8
ATOM      8  C   UNL     1     202.414 202.694 230.132  1.00  0.00     0.000 C 
BRANCH   8   9
ATOM      9  C   UNL     1     203.701 202.939 229.328  1.00  0.00     0.000 C 
BRANCH   9  10
ATOM     10  C   UNL     1     204.956 202.975 230.213  1.00  0.00     0.002 C 
BRANCH  10  11
ATOM     11  C   UNL     1     204.990 204.251 231.063  1.00  0.00     0.028 C 
BRANCH  11  12
ATOM     12  C   UNL     1     204.904 205.502 230.185  1.00  0.00     0.156 C 
BRANCH  12  13
ATOM     13  O   UNL     1     203.840 206.314 230.601  1.00  0.00    -0.396 OA
ATOM     14  H   UNL     1     204.214 207.224 230.739  1.00  0.00     0.210 HD
ENDBRANCH  12  13
ENDBRANCH  11  12
ENDBRANCH  10  11
ENDBRANCH   9  10
ENDBRANCH   8   9
ENDBRANCH   1   8
TORSDOF 11
ENDMDL
