MODEL 1
REMARK VINA RESULT:    -4.198      0.000      0.000
REMARK INTER + INTRA:         -10.132
REMARK INTER:                  -7.634
REMARK INTRA:                  -2.498
REMARK UNBOUND:                -2.498
REMARK SMILES CCCCCC=CCC=CCCCCCCCC(=O)[O-]
REMARK SMILES IDX 11 1 12 2 13 3 14 4 15 5 16 6 17 7 18 8 19 9 20 10 10 11
REMARK SMILES IDX 9 12 8 13 7 14 6 15 5 16 4 17 3 18 2 19 1 20
REMARK H PARENT
REMARK Flexibility Score: inf
ROOT
ATOM      1  C   UNL     1      31.740  24.120  33.170  1.00  0.00     0.027 C 
ENDROOT
BRANCH   1   2
ATOM      2  C   UNL     1      31.839  23.014  32.110  1.00  0.00     0.004 C 
BRANCH   2   3
ATOM      3  C   UNL     1      31.131  21.715  32.532  1.00  0.00     0.000 C 
BRANCH   3   4
ATOM      4  C   UNL     1      31.933  20.438  32.200  1.00  0.00     0.000 C 
BRANCH   4   5
ATOM      5  C   UNL     1      31.722  19.334  33.251  1.00  0.00     0.000 C 
BRANCH   5   6
ATOM      6  C   UNL     1      31.850  19.857  34.690  1.00  0.00     0.006 C 
BRANCH   6   7
ATOM      7  C   UNL     1      32.763  18.976  35.554  1.00  0.00     0.053 C 
BRANCH   7   8
ATOM      8  C   UNL     1      31.968  18.290  36.620  1.00  0.00     0.041 C 
ATOM      9  O   UNL     1      32.436  18.175  37.784  1.00  0.00    -0.550 OA
ATOM     10  O   UNL     1      30.691  17.821  36.341  1.00  0.00    -0.550 OA
ENDBRANCH   7   8
ENDBRANCH   6   7
ENDBRANCH   5   6
ENDBRANCH   4   5
ENDBRANCH   3   4
ENDBRANCH   2   3
ENDBRANCH   1   2
BRANCH   1  11
ATOM     11  C   UNL     1      33.006  24.927  33.236  1.00  0.00    -0.031 C 
ATOM     12  C   UNL     1      33.496  25.554  32.157  1.00  0.00    -0.027 C 
BRANCH  12  13
ATOM     13  C   UNL     1      34.771  26.349  32.220  1.00  0.00     0.054 C 
BRANCH  13  14
ATOM     14  C   UNL     1      35.083  26.765  33.637  1.00  0.00    -0.027 C 
ATOM     15  C   UNL     1      36.098  26.271  34.370  1.00  0.00    -0.031 C 
BRANCH  15  16
ATOM     16  C   UNL     1      37.121  25.283  33.864  1.00  0.00     0.027 C 
BRANCH  16  17
ATOM     17  C   UNL     1      36.785  23.845  34.285  1.00  0.00     0.004 C 
BRANCH  17  18
ATOM     18  C   UNL     1      36.203  23.023  33.122  1.00  0.00     0.000 C 
BRANCH  18  19
ATOM     19  C   UNL     1      35.140  22.017  33.588  1.00  0.00    -0.003 C 
ATOM     20  C   UNL     1      34.714  22.237  35.039  1.00  0.00     0.004 C 
ENDBRANCH  18  19
ENDBRANCH  17  18
ENDBRANCH  16  17
ENDBRANCH  15  16
ENDBRANCH  13  14
ENDBRANCH  12  13
ENDBRANCH   1  11
TORSDOF 14
ENDMDL
MODEL 2
REMARK VINA RESULT:    -4.173      3.678      8.678
REMARK INTER + INTRA:         -10.086
REMARK INTER:                  -7.920
REMARK INTRA:                  -2.167
REMARK UNBOUND:                -2.498
REMARK SMILES CCCCCC=CCC=CCCCCCCCC(=O)[O-]
REMARK SMILES IDX 11 1 12 2 13 3 14 4 15 5 16 6 17 7 18 8 19 9 20 10 10 11
REMARK SMILES IDX 9 12 8 13 7 14 6 15 5 16 4 17 3 18 2 19 1 20
REMARK H PARENT
REMARK Flexibility Score: inf
ROOT
ATOM      1  C   UNL     1      29.941  17.071  35.576  1.00  0.00     0.027 C 
ENDROOT
BRANCH   1   2
ATOM      2  C   UNL     1      31.246  17.741  35.123  1.00  0.00     0.004 C 
BRANCH   2   3
ATOM      3  C   UNL     1      31.456  19.128  35.752  1.00  0.00     0.000 C 
BRANCH   3   4
ATOM      4  C   UNL     1      32.092  20.154  34.789  1.00  0.00     0.000 C 
BRANCH   4   5
ATOM      5  C   UNL     1      31.226  20.385  33.538  1.00  0.00     0.000 C 
BRANCH   5   6
ATOM      6  C   UNL     1      30.552  21.766  33.534  1.00  0.00     0.006 C 
BRANCH   6   7
ATOM      7  C   UNL     1      31.259  22.760  32.604  1.00  0.00     0.053 C 
BRANCH   7   8
ATOM      8  C   UNL     1      31.709  23.963  33.371  1.00  0.00     0.041 C 
ATOM      9  O   UNL     1      31.286  25.108  33.061  1.00  0.00    -0.550 OA
ATOM     10  O   UNL     1      32.559  23.815  34.460  1.00  0.00    -0.550 OA
ENDBRANCH   7   8
ENDBRANCH   6   7
ENDBRANCH   5   6
ENDBRANCH   4   5
ENDBRANCH   3   4
ENDBRANCH   2   3
ENDBRANCH   1   2
BRANCH   1  11
ATOM     11  C   UNL     1      30.189  16.089  36.687  1.00  0.00    -0.031 C 
ATOM     12  C   UNL     1      30.714  14.878  36.449  1.00  0.00    -0.027 C 
BRANCH  12  13
ATOM     13  C   UNL     1      30.949  13.891  37.559  1.00  0.00     0.054 C 
BRANCH  13  14
ATOM     14  C   UNL     1      30.661  14.507  38.905  1.00  0.00    -0.027 C 
ATOM     15  C   UNL     1      31.570  15.151  39.660  1.00  0.00    -0.031 C 
BRANCH  15  16
ATOM     16  C   UNL     1      32.996  15.418  39.243  1.00  0.00     0.027 C 
BRANCH  16  17
ATOM     17  C   UNL     1      33.176  16.841  38.695  1.00  0.00     0.004 C 
BRANCH  17  18
ATOM     18  C   UNL     1      33.961  16.856  37.372  1.00  0.00     0.000 C 
BRANCH  18  19
ATOM     19  C   UNL     1      34.291  15.444  36.867  1.00  0.00    -0.003 C 
ATOM     20  C   UNL     1      34.125  15.303  35.354  1.00  0.00     0.004 C 
ENDBRANCH  18  19
ENDBRANCH  17  18
ENDBRANCH  16  17
ENDBRANCH  15  16
ENDBRANCH  13  14
ENDBRANCH  12  13
ENDBRANCH   1  11
TORSDOF 14
ENDMDL
MODEL 3
REMARK VINA RESULT:    -4.147      1.463      2.265
REMARK INTER + INTRA:         -10.039
REMARK INTER:                  -7.628
REMARK INTRA:                  -2.412
REMARK UNBOUND:                -2.498
REMARK SMILES CCCCCC=CCC=CCCCCCCCC(=O)[O-]
REMARK SMILES IDX 11 1 12 2 13 3 14 4 15 5 16 6 17 7 18 8 19 9 20 10 10 11
REMARK SMILES IDX 9 12 8 13 7 14 6 15 5 16 4 17 3 18 2 19 1 20
REMARK H PARENT
REMARK Flexibility Score: inf
ROOT
ATOM      1  C   UNL     1      30.789  22.677  32.808  1.00  0.00     0.027 C 
ENDROOT
BRANCH   1   2
ATOM      2  C   UNL     1      31.205  21.501  33.703  1.00  0.00     0.004 C 
BRANCH   2   3
ATOM      3  C   UNL     1      31.012  20.135  33.025  1.00  0.00     0.000 C 
BRANCH   3   4
ATOM      4  C   UNL     1      31.453  18.942  33.901  1.00  0.00     0.000 C 
BRANCH   4   5
ATOM      5  C   UNL     1      31.623  19.341  35.377  1.00  0.00     0.000 C 
BRANCH   5   6
ATOM      6  C   UNL     1      31.692  18.124  36.312  1.00  0.00     0.006 C 
BRANCH   6   7
ATOM      7  C   UNL     1      31.257  16.826  35.617  1.00  0.00     0.053 C 
BRANCH   7   8
ATOM      8  C   UNL     1      30.315  16.058  36.489  1.00  0.00     0.041 C 
ATOM      9  O   UNL     1      29.542  15.200  35.986  1.00  0.00    -0.550 OA
ATOM     10  O   UNL     1      30.325  16.254  37.864  1.00  0.00    -0.550 OA
ENDBRANCH   7   8
ENDBRANCH   6   7
ENDBRANCH   5   6
ENDBRANCH   4   5
ENDBRANCH   3   4
ENDBRANCH   2   3
ENDBRANCH   1   2
BRANCH   1  11
ATOM     11  C   UNL     1      31.883  23.703  32.711  1.00  0.00    -0.031 C 
ATOM     12  C   UNL     1      32.858  23.606  31.795  1.00  0.00    -0.027 C 
BRANCH  12  13
ATOM     13  C   UNL     1      33.960  24.625  31.709  1.00  0.00     0.054 C 
BRANCH  13  14
ATOM     14  C   UNL     1      34.004  25.486  32.947  1.00  0.00    -0.027 C 
ATOM     15  C   UNL     1      34.873  25.320  33.961  1.00  0.00    -0.031 C 
BRANCH  15  16
ATOM     16  C   UNL     1      35.982  24.296  33.981  1.00  0.00     0.027 C 
BRANCH  16  17
ATOM     17  C   UNL     1      35.847  23.330  35.167  1.00  0.00     0.004 C 
BRANCH  17  18
ATOM     18  C   UNL     1      34.588  22.452  35.059  1.00  0.00     0.000 C 
BRANCH  18  19
ATOM     19  C   UNL     1      34.913  21.003  34.664  1.00  0.00    -0.003 C 
ATOM     20  C   UNL     1      34.799  20.762  33.159  1.00  0.00     0.004 C 
ENDBRANCH  18  19
ENDBRANCH  17  18
ENDBRANCH  16  17
ENDBRANCH  15  16
ENDBRANCH  13  14
ENDBRANCH  12  13
ENDBRANCH   1  11
TORSDOF 14
ENDMDL
MODEL 4
REMARK VINA RESULT:    -4.077      1.041      2.723
REMARK INTER + INTRA:          -9.911
REMARK INTER:                  -7.295
REMARK INTRA:                  -2.616
REMARK UNBOUND:                -2.498
REMARK SMILES CCCCCC=CCC=CCCCCCCCC(=O)[O-]
REMARK SMILES IDX 11 1 12 2 13 3 14 4 15 5 16 6 17 7 18 8 19 9 20 10 10 11
REMARK SMILES IDX 9 12 8 13 7 14 6 15 5 16 4 17 3 18 2 19 1 20
REMARK H PARENT
REMARK Flexibility Score: inf
ROOT
ATOM      1  C   UNL     1      31.336  22.700  32.453  1.00  0.00     0.027 C 
ENDROOT
BRANCH   1   2
ATOM      2  C   UNL     1      31.964  21.647  31.529  1.00  0.00     0.004 C 
BRANCH   2   3
ATOM      3  C   UNL     1      31.248  20.288  31.596  1.00  0.00     0.000 C 
BRANCH   3   4
ATOM      4  C   UNL     1      31.918  19.284  32.559  1.00  0.00     0.000 C 
BRANCH   4   5
ATOM      5  C   UNL     1      31.058  19.019  33.807  1.00  0.00     0.000 C 
BRANCH   5   6
ATOM      6  C   UNL     1      31.564  19.778  35.044  1.00  0.00     0.006 C 
BRANCH   6   7
ATOM      7  C   UNL     1      32.949  19.298  35.499  1.00  0.00     0.053 C 
BRANCH   7   8
ATOM      8  C   UNL     1      32.820  18.113  36.403  1.00  0.00     0.041 C 
ATOM      9  O   UNL     1      33.250  16.987  36.037  1.00  0.00    -0.550 OA
ATOM     10  O   UNL     1      32.270  18.262  37.669  1.00  0.00    -0.550 OA
ENDBRANCH   7   8
ENDBRANCH   6   7
ENDBRANCH   5   6
ENDBRANCH   4   5
ENDBRANCH   3   4
ENDBRANCH   2   3
ENDBRANCH   1   2
BRANCH   1  11
ATOM     11  C   UNL     1      32.259  23.049  33.587  1.00  0.00    -0.031 C 
ATOM     12  C   UNL     1      33.527  22.614  33.621  1.00  0.00    -0.027 C 
BRANCH  12  13
ATOM     13  C   UNL     1      34.445  22.952  34.763  1.00  0.00     0.054 C 
BRANCH  13  14
ATOM     14  C   UNL     1      35.885  22.969  34.317  1.00  0.00    -0.027 C 
ATOM     15  C   UNL     1      36.638  24.080  34.209  1.00  0.00    -0.031 C 
BRANCH  15  16
ATOM     16  C   UNL     1      36.178  25.467  34.588  1.00  0.00     0.027 C 
BRANCH  16  17
ATOM     17  C   UNL     1      35.936  26.348  33.354  1.00  0.00     0.004 C 
BRANCH  17  18
ATOM     18  C   UNL     1      34.541  26.996  33.369  1.00  0.00     0.000 C 
BRANCH  18  19
ATOM     19  C   UNL     1      33.527  26.232  32.503  1.00  0.00    -0.003 C 
ATOM     20  C   UNL     1      34.190  25.460  31.362  1.00  0.00     0.004 C 
ENDBRANCH  18  19
ENDBRANCH  17  18
ENDBRANCH  16  17
ENDBRANCH  15  16
ENDBRANCH  13  14
ENDBRANCH  12  13
ENDBRANCH   1  11
TORSDOF 14
ENDMDL
MODEL 5
REMARK VINA RESULT:    -4.014      2.033      4.473
REMARK INTER + INTRA:          -9.797
REMARK INTER:                  -7.358
REMARK INTRA:                  -2.439
REMARK UNBOUND:                -2.498
REMARK SMILES CCCCCC=CCC=CCCCCCCCC(=O)[O-]
REMARK SMILES IDX 11 1 12 2 13 3 14 4 15 5 16 6 17 7 18 8 19 9 20 10 10 11
REMARK SMILES IDX 9 12 8 13 7 14 6 15 5 16 4 17 3 18 2 19 1 20
REMARK H PARENT
REMARK Flexibility Score: inf
ROOT
ATOM      1  C   UNL     1      34.509  18.572  33.494  1.00  0.00     0.027 C 
ENDROOT
BRANCH   1   2
ATOM      2  C   UNL     1      33.685  17.919  34.613  1.00  0.00     0.004 C 
BRANCH   2   3
ATOM      3  C   UNL     1      33.263  18.916  35.705  1.00  0.00     0.000 C 
BRANCH   3   4
ATOM      4  C   UNL     1      31.737  18.974  35.933  1.00  0.00     0.000 C 
BRANCH   4   5
ATOM      5  C   UNL     1      30.972  18.075  34.946  1.00  0.00     0.000 C 
BRANCH   5   6
ATOM      6  C   UNL     1      29.871  17.251  35.633  1.00  0.00     0.006 C 
BRANCH   6   7
ATOM      7  C   UNL     1      30.285  15.790  35.853  1.00  0.00     0.053 C 
BRANCH   7   8
ATOM      8  C   UNL     1      30.174  15.428  37.300  1.00  0.00     0.041 C 
ATOM      9  O   UNL     1      30.677  16.176  38.180  1.00  0.00    -0.550 OA
ATOM     10  O   UNL     1      29.474  14.291  37.681  1.00  0.00    -0.550 OA
ENDBRANCH   7   8
ENDBRANCH   6   7
ENDBRANCH   5   6
ENDBRANCH   4   5
ENDBRANCH   3   4
ENDBRANCH   2   3
ENDBRANCH   1   2
BRANCH   1  11
ATOM     11  C   UNL     1      34.450  20.072  33.578  1.00  0.00    -0.031 C 
ATOM     12  C   UNL     1      35.030  20.851  32.653  1.00  0.00    -0.027 C 
BRANCH  12  13
ATOM     13  C   UNL     1      34.982  22.351  32.746  1.00  0.00     0.054 C 
BRANCH  13  14
ATOM     14  C   UNL     1      34.489  22.797  34.099  1.00  0.00    -0.027 C 
ATOM     15  C   UNL     1      33.527  23.718  34.295  1.00  0.00    -0.031 C 
BRANCH  15  16
ATOM     16  C   UNL     1      32.746  24.390  33.192  1.00  0.00     0.027 C 
BRANCH  16  17
ATOM     17  C   UNL     1      31.335  23.801  33.049  1.00  0.00     0.004 C 
BRANCH  17  18
ATOM     18  C   UNL     1      31.306  22.591  32.100  1.00  0.00     0.000 C 
BRANCH  18  19
ATOM     19  C   UNL     1      31.075  21.266  32.842  1.00  0.00    -0.003 C 
ATOM     20  C   UNL     1      30.937  20.074  31.895  1.00  0.00     0.004 C 
ENDBRANCH  18  19
ENDBRANCH  17  18
ENDBRANCH  16  17
ENDBRANCH  15  16
ENDBRANCH  13  14
ENDBRANCH  12  13
ENDBRANCH   1  11
TORSDOF 14
ENDMDL
MODEL 6
REMARK VINA RESULT:    -4.014      1.691      3.720
REMARK INTER + INTRA:          -9.797
REMARK INTER:                  -7.543
REMARK INTRA:                  -2.254
REMARK UNBOUND:                -2.498
REMARK SMILES CCCCCC=CCC=CCCCCCCCC(=O)[O-]
REMARK SMILES IDX 11 1 12 2 13 3 14 4 15 5 16 6 17 7 18 8 19 9 20 10 10 11
REMARK SMILES IDX 9 12 8 13 7 14 6 15 5 16 4 17 3 18 2 19 1 20
REMARK H PARENT
REMARK Flexibility Score: inf
ROOT
ATOM      1  C   UNL     1      36.253  22.496  35.128  1.00  0.00     0.027 C 
ENDROOT
BRANCH   1   2
ATOM      2  C   UNL     1      34.722  22.387  35.122  1.00  0.00     0.004 C 
BRANCH   2   3
ATOM      3  C   UNL     1      34.110  22.631  33.732  1.00  0.00     0.000 C 
BRANCH   3   4
ATOM      4  C   UNL     1      32.910  23.603  33.747  1.00  0.00     0.000 C 
BRANCH   4   5
ATOM      5  C   UNL     1      31.903  23.295  32.626  1.00  0.00     0.000 C 
BRANCH   5   6
ATOM      6  C   UNL     1      30.774  22.360  33.087  1.00  0.00     0.006 C 
BRANCH   6   7
ATOM      7  C   UNL     1      31.002  20.906  32.651  1.00  0.00     0.053 C 
BRANCH   7   8
ATOM      8  C   UNL     1      31.427  20.072  33.817  1.00  0.00     0.041 C 
ATOM      9  O   UNL     1      31.384  20.544  34.984  1.00  0.00    -0.550 OA
ATOM     10  O   UNL     1      31.823  18.755  33.621  1.00  0.00    -0.550 OA
ENDBRANCH   7   8
ENDBRANCH   6   7
ENDBRANCH   5   6
ENDBRANCH   4   5
ENDBRANCH   3   4
ENDBRANCH   2   3
ENDBRANCH   1   2
BRANCH   1  11
ATOM     11  C   UNL     1      36.720  23.664  34.305  1.00  0.00    -0.031 C 
ATOM     12  C   UNL     1      36.689  24.917  34.783  1.00  0.00    -0.027 C 
BRANCH  12  13
ATOM     13  C   UNL     1      37.142  26.087  33.954  1.00  0.00     0.054 C 
BRANCH  13  14
ATOM     14  C   UNL     1      36.282  27.300  34.208  1.00  0.00    -0.027 C 
ATOM     15  C   UNL     1      35.069  27.502  33.661  1.00  0.00    -0.031 C 
BRANCH  15  16
ATOM     16  C   UNL     1      34.354  26.515  32.771  1.00  0.00     0.027 C 
BRANCH  16  17
ATOM     17  C   UNL     1      35.046  26.366  31.408  1.00  0.00     0.004 C 
BRANCH  17  18
ATOM     18  C   UNL     1      34.407  25.260  30.552  1.00  0.00     0.000 C 
BRANCH  18  19
ATOM     19  C   UNL     1      35.235  23.965  30.550  1.00  0.00    -0.003 C 
ATOM     20  C   UNL     1      36.736  24.224  30.677  1.00  0.00     0.004 C 
ENDBRANCH  18  19
ENDBRANCH  17  18
ENDBRANCH  16  17
ENDBRANCH  15  16
ENDBRANCH  13  14
ENDBRANCH  12  13
ENDBRANCH   1  11
TORSDOF 14
ENDMDL
MODEL 7
REMARK VINA RESULT:    -3.978      2.162      4.908
REMARK INTER + INTRA:          -9.731
REMARK INTER:                  -7.678
REMARK INTRA:                  -2.053
REMARK UNBOUND:                -2.498
REMARK SMILES CCCCCC=CCC=CCCCCCCCC(=O)[O-]
REMARK SMILES IDX 11 1 12 2 13 3 14 4 15 5 16 6 17 7 18 8 19 9 20 10 10 11
REMARK SMILES IDX 9 12 8 13 7 14 6 15 5 16 4 17 3 18 2 19 1 20
REMARK H PARENT
REMARK Flexibility Score: inf
ROOT
ATOM      1  C   UNL     1      31.362  18.988  35.578  1.00  0.00     0.027 C 
ENDROOT
BRANCH   1   2
ATOM      2  C   UNL     1      32.447  17.933  35.317  1.00  0.00     0.004 C 
BRANCH   2   3
ATOM      3  C   UNL     1      33.695  18.129  36.193  1.00  0.00     0.000 C 
BRANCH   3   4
ATOM      4  C   UNL     1      34.166  16.837  36.896  1.00  0.00     0.000 C 
BRANCH   4   5
ATOM      5  C   UNL     1      33.439  16.609  38.233  1.00  0.00     0.000 C 
BRANCH   5   6
ATOM      6  C   UNL     1      32.977  15.154  38.413  1.00  0.00     0.006 C 
BRANCH   6   7
ATOM      7  C   UNL     1      31.921  14.743  37.378  1.00  0.00     0.053 C 
BRANCH   7   8
ATOM      8  C   UNL     1      30.559  15.171  37.824  1.00  0.00     0.041 C 
ATOM      9  O   UNL     1      30.122  16.312  37.521  1.00  0.00    -0.550 OA
ATOM     10  O   UNL     1      29.752  14.291  38.534  1.00  0.00    -0.550 OA
ENDBRANCH   7   8
ENDBRANCH   6   7
ENDBRANCH   5   6
ENDBRANCH   4   5
ENDBRANCH   3   4
ENDBRANCH   2   3
ENDBRANCH   1   2
BRANCH   1  11
ATOM     11  C   UNL     1      31.507  20.160  34.648  1.00  0.00    -0.031 C 
ATOM     12  C   UNL     1      30.999  20.137  33.406  1.00  0.00    -0.027 C 
BRANCH  12  13
ATOM     13  C   UNL     1      31.156  21.305  32.471  1.00  0.00     0.054 C 
BRANCH  13  14
ATOM     14  C   UNL     1      30.986  22.614  33.202  1.00  0.00    -0.027 C 
ATOM     15  C   UNL     1      31.808  23.672  33.072  1.00  0.00    -0.031 C 
BRANCH  15  16
ATOM     16  C   UNL     1      32.979  23.736  32.122  1.00  0.00     0.027 C 
BRANCH  16  17
ATOM     17  C   UNL     1      34.274  23.229  32.774  1.00  0.00     0.004 C 
BRANCH  17  18
ATOM     18  C   UNL     1      34.266  23.418  34.301  1.00  0.00     0.000 C 
BRANCH  18  19
ATOM     19  C   UNL     1      34.671  22.143  35.054  1.00  0.00    -0.003 C 
ATOM     20  C   UNL     1      35.011  20.985  34.115  1.00  0.00     0.004 C 
ENDBRANCH  18  19
ENDBRANCH  17  18
ENDBRANCH  16  17
ENDBRANCH  15  16
ENDBRANCH  13  14
ENDBRANCH  12  13
ENDBRANCH   1  11
TORSDOF 14
ENDMDL
MODEL 8
REMARK VINA RESULT:    -3.977      1.336      3.051
REMARK INTER + INTRA:          -9.730
REMARK INTER:                  -7.341
REMARK INTRA:                  -2.389
REMARK UNBOUND:                -2.498
REMARK SMILES CCCCCC=CCC=CCCCCCCCC(=O)[O-]
REMARK SMILES IDX 11 1 12 2 13 3 14 4 15 5 16 6 17 7 18 8 19 9 20 10 10 11
REMARK SMILES IDX 9 12 8 13 7 14 6 15 5 16 4 17 3 18 2 19 1 20
REMARK H PARENT
REMARK Flexibility Score: inf
ROOT
ATOM      1  C   UNL     1      35.169  21.825  35.161  1.00  0.00     0.027 C 
ENDROOT
BRANCH   1   2
ATOM      2  C   UNL     1      35.315  21.079  33.827  1.00  0.00     0.004 C 
BRANCH   2   3
ATOM      3  C   UNL     1      34.138  20.134  33.538  1.00  0.00     0.000 C 
BRANCH   3   4
ATOM      4  C   UNL     1      32.990  20.244  34.565  1.00  0.00     0.000 C 
BRANCH   4   5
ATOM      5  C   UNL     1      32.318  18.885  34.829  1.00  0.00     0.000 C 
BRANCH   5   6
ATOM      6  C   UNL     1      32.166  18.584  36.328  1.00  0.00     0.006 C 
BRANCH   6   7
ATOM      7  C   UNL     1      32.041  17.082  36.614  1.00  0.00     0.053 C 
BRANCH   7   8
ATOM      8  C   UNL     1      30.619  16.725  36.917  1.00  0.00     0.041 C 
ATOM      9  O   UNL     1      30.349  15.958  37.878  1.00  0.00    -0.550 OA
ATOM     10  O   UNL     1      29.590  17.280  36.167  1.00  0.00    -0.550 OA
ENDBRANCH   7   8
ENDBRANCH   6   7
ENDBRANCH   5   6
ENDBRANCH   4   5
ENDBRANCH   3   4
ENDBRANCH   2   3
ENDBRANCH   1   2
BRANCH   1  11
ATOM     11  C   UNL     1      35.568  23.268  35.026  1.00  0.00    -0.031 C 
ATOM     12  C   UNL     1      36.560  23.648  34.207  1.00  0.00    -0.027 C 
BRANCH  12  13
ATOM     13  C   UNL     1      36.968  25.090  34.084  1.00  0.00     0.054 C 
BRANCH  13  14
ATOM     14  C   UNL     1      35.816  26.011  34.402  1.00  0.00    -0.027 C 
ATOM     15  C   UNL     1      35.021  26.586  33.481  1.00  0.00    -0.031 C 
BRANCH  15  16
ATOM     16  C   UNL     1      35.114  26.340  31.994  1.00  0.00     0.027 C 
BRANCH  16  17
ATOM     17  C   UNL     1      33.902  25.559  31.466  1.00  0.00     0.004 C 
BRANCH  17  18
ATOM     18  C   UNL     1      34.086  24.038  31.610  1.00  0.00     0.000 C 
BRANCH  18  19
ATOM     19  C   UNL     1      32.824  23.341  32.141  1.00  0.00    -0.003 C 
ATOM     20  C   UNL     1      32.336  23.930  33.464  1.00  0.00     0.004 C 
ENDBRANCH  18  19
ENDBRANCH  17  18
ENDBRANCH  16  17
ENDBRANCH  15  16
ENDBRANCH  13  14
ENDBRANCH  12  13
ENDBRANCH   1  11
TORSDOF 14
ENDMDL
MODEL 9
REMARK VINA RESULT:    -3.972      1.541      2.444
REMARK INTER + INTRA:          -9.720
REMARK INTER:                  -7.559
REMARK INTRA:                  -2.161
REMARK UNBOUND:                -2.498
REMARK SMILES CCCCCC=CCC=CCCCCCCCC(=O)[O-]
REMARK SMILES IDX 11 1 12 2 13 3 14 4 15 5 16 6 17 7 18 8 19 9 20 10 10 11
REMARK SMILES IDX 9 12 8 13 7 14 6 15 5 16 4 17 3 18 2 19 1 20
REMARK H PARENT
REMARK Flexibility Score: inf
ROOT
ATOM      1  C   UNL     1      33.142  23.486  33.418  1.00  0.00     0.027 C 
ENDROOT
BRANCH   1   2
ATOM      2  C   UNL     1      31.715  23.815  32.957  1.00  0.00     0.004 C 
BRANCH   2   3
ATOM      3  C   UNL     1      30.821  22.569  32.843  1.00  0.00     0.000 C 
BRANCH   3   4
ATOM      4  C   UNL     1      31.418  21.460  31.950  1.00  0.00     0.000 C 
BRANCH   4   5
ATOM      5  C   UNL     1      31.619  20.144  32.719  1.00  0.00     0.000 C 
BRANCH   5   6
ATOM      6  C   UNL     1      30.982  20.175  34.117  1.00  0.00     0.006 C 
BRANCH   6   7
ATOM      7  C   UNL     1      31.933  19.659  35.206  1.00  0.00     0.053 C 
BRANCH   7   8
ATOM      8  C   UNL     1      31.343  18.468  35.892  1.00  0.00     0.041 C 
ATOM      9  O   UNL     1      30.369  17.858  35.379  1.00  0.00    -0.550 OA
ATOM     10  O   UNL     1      31.902  18.001  37.075  1.00  0.00    -0.550 OA
ENDBRANCH   7   8
ENDBRANCH   6   7
ENDBRANCH   5   6
ENDBRANCH   4   5
ENDBRANCH   3   4
ENDBRANCH   2   3
ENDBRANCH   1   2
BRANCH   1  11
ATOM     11  C   UNL     1      33.971  24.733  33.558  1.00  0.00    -0.031 C 
ATOM     12  C   UNL     1      33.530  25.922  33.120  1.00  0.00    -0.027 C 
BRANCH  12  13
ATOM     13  C   UNL     1      34.365  27.166  33.248  1.00  0.00     0.054 C 
BRANCH  13  14
ATOM     14  C   UNL     1      35.737  26.847  33.788  1.00  0.00    -0.027 C 
ATOM     15  C   UNL     1      36.850  26.754  33.037  1.00  0.00    -0.031 C 
BRANCH  15  16
ATOM     16  C   UNL     1      36.909  27.026  31.554  1.00  0.00     0.027 C 
BRANCH  16  17
ATOM     17  C   UNL     1      36.591  25.771  30.728  1.00  0.00     0.004 C 
BRANCH  17  18
ATOM     18  C   UNL     1      35.309  25.936  29.894  1.00  0.00     0.000 C 
BRANCH  18  19
ATOM     19  C   UNL     1      34.451  24.662  29.875  1.00  0.00    -0.003 C 
ATOM     20  C   UNL     1      35.224  23.423  30.323  1.00  0.00     0.004 C 
ENDBRANCH  18  19
ENDBRANCH  17  18
ENDBRANCH  16  17
ENDBRANCH  15  16
ENDBRANCH  13  14
ENDBRANCH  12  13
ENDBRANCH   1  11
TORSDOF 14
ENDMDL
