MODEL 1
REMARK VINA RESULT:    14.769      0.000      0.000
REMARK INTER + INTRA:          27.509
REMARK INTER:                  28.583
REMARK INTRA:                  -1.074
REMARK UNBOUND:                -1.074
REMARK SMILES CCCCCCCCCCCCCCCCCC(=O)[O-]
REMARK SMILES IDX 10 1 11 2 12 3 13 4 14 5 15 6 16 7 17 8 18 9 19 10 20 11
REMARK SMILES IDX 9 12 8 13 7 14 6 15 5 16 4 17 3 18 2 19 1 20
REMARK H PARENT
REMARK Flexibility Score: inf
ROOT
ATOM      1  C   UNL     1      -5.656 -18.472  24.706  1.00  0.00     0.000 C 
ENDROOT
BRANCH   1   2
ATOM      2  C   UNL     1      -4.446 -19.257  24.173  1.00  0.00     0.000 C 
BRANCH   2   3
ATOM      3  C   UNL     1      -4.638 -19.739  22.726  1.00  0.00     0.000 C 
BRANCH   3   4
ATOM      4  C   UNL     1      -3.656 -20.872  22.392  1.00  0.00     0.000 C 
BRANCH   4   5
ATOM      5  C   UNL     1      -2.193 -20.401  22.357  1.00  0.00     0.000 C 
BRANCH   5   6
ATOM      6  C   UNL     1      -1.331 -21.066  23.446  1.00  0.00     0.000 C 
BRANCH   6   7
ATOM      7  C   UNL     1      -0.583 -20.039  24.312  1.00  0.00     0.006 C 
BRANCH   7   8
ATOM      8  C   UNL     1      -0.296 -18.730  23.563  1.00  0.00     0.053 C 
BRANCH   8   9
ATOM      9  C   UNL     1      -0.639 -17.554  24.422  1.00  0.00     0.041 C 
ATOM     10  O   UNL     1      -1.350 -17.706  25.450  1.00  0.00    -0.550 OA
ATOM     11  O   UNL     1      -0.219 -16.281  24.056  1.00  0.00    -0.550 OA
ENDBRANCH   8   9
ENDBRANCH   7   8
ENDBRANCH   6   7
ENDBRANCH   5   6
ENDBRANCH   4   5
ENDBRANCH   3   4
ENDBRANCH   2   3
ENDBRANCH   1   2
BRANCH   1  12
ATOM     12  C   UNL     1      -6.093 -18.936  26.106  1.00  0.00     0.000 C 
BRANCH  12  13
ATOM     13  C   UNL     1      -6.120 -17.788  27.134  1.00  0.00    -0.000 C 
BRANCH  13  14
ATOM     14  C   UNL     1      -7.447 -17.007  27.201  1.00  0.00    -0.000 C 
BRANCH  14  15
ATOM     15  C   UNL     1      -8.680 -17.909  27.017  1.00  0.00    -0.000 C 
BRANCH  15  16
ATOM     16  C   UNL     1      -9.504 -18.058  28.306  1.00  0.00    -0.000 C 
BRANCH  16  17
ATOM     17  C   UNL     1      -8.815 -17.411  29.521  1.00  0.00    -0.000 C 
BRANCH  17  18
ATOM     18  C   UNL     1      -9.188 -18.095  30.847  1.00  0.00    -0.000 C 
BRANCH  18  19
ATOM     19  C   UNL     1      -8.843 -17.239  32.075  1.00  0.00    -0.003 C 
ATOM     20  C   UNL     1      -7.352 -16.923  32.125  1.00  0.00     0.004 C 
ENDBRANCH  18  19
ENDBRANCH  17  18
ENDBRANCH  16  17
ENDBRANCH  15  16
ENDBRANCH  14  15
ENDBRANCH  13  14
ENDBRANCH  12  13
ENDBRANCH   1  12
TORSDOF 16
ENDMDL
MODEL 2
REMARK VINA RESULT:    15.149      2.107      3.333
REMARK INTER + INTRA:          28.245
REMARK INTER:                  29.132
REMARK INTRA:                  -0.887
REMARK UNBOUND:                -1.074
REMARK SMILES CCCCCCCCCCCCCCCCCC(=O)[O-]
REMARK SMILES IDX 10 1 11 2 12 3 13 4 14 5 15 6 16 7 17 8 18 9 19 10 20 11
REMARK SMILES IDX 9 12 8 13 7 14 6 15 5 16 4 17 3 18 2 19 1 20
REMARK H PARENT
REMARK Flexibility Score: inf
ROOT
ATOM      1  C   UNL     1      -3.243 -18.083  27.208  1.00  0.00     0.000 C 
ENDROOT
BRANCH   1   2
ATOM      2  C   UNL     1      -2.644 -17.561  25.891  1.00  0.00     0.000 C 
BRANCH   2   3
ATOM      3  C   UNL     1      -1.116 -17.720  25.828  1.00  0.00     0.000 C 
BRANCH   3   4
ATOM      4  C   UNL     1      -0.553 -17.080  24.549  1.00  0.00     0.000 C 
BRANCH   4   5
ATOM      5  C   UNL     1      -0.192 -18.117  23.473  1.00  0.00     0.000 C 
BRANCH   5   6
ATOM      6  C   UNL     1      -0.907 -19.463  23.685  1.00  0.00     0.000 C 
BRANCH   6   7
ATOM      7  C   UNL     1      -1.625 -19.953  22.417  1.00  0.00     0.006 C 
BRANCH   7   8
ATOM      8  C   UNL     1      -2.554 -21.146  22.686  1.00  0.00     0.053 C 
BRANCH   8   9
ATOM      9  C   UNL     1      -3.984 -20.741  22.518  1.00  0.00     0.041 C 
ATOM     10  O   UNL     1      -4.410 -19.683  23.053  1.00  0.00    -0.550 OA
ATOM     11  O   UNL     1      -4.859 -21.559  21.817  1.00  0.00    -0.550 OA
ENDBRANCH   8   9
ENDBRANCH   7   8
ENDBRANCH   6   7
ENDBRANCH   5   6
ENDBRANCH   4   5
ENDBRANCH   3   4
ENDBRANCH   2   3
ENDBRANCH   1   2
BRANCH   1  12
ATOM     12  C   UNL     1      -4.744 -17.771  27.339  1.00  0.00     0.000 C 
BRANCH  12  13
ATOM     13  C   UNL     1      -5.582 -18.373  26.196  1.00  0.00    -0.000 C 
BRANCH  13  14
ATOM     14  C   UNL     1      -6.963 -17.721  25.988  1.00  0.00    -0.000 C 
BRANCH  14  15
ATOM     15  C   UNL     1      -7.557 -17.155  27.290  1.00  0.00    -0.000 C 
BRANCH  15  16
ATOM     16  C   UNL     1      -8.957 -17.713  27.594  1.00  0.00    -0.000 C 
BRANCH  16  17
ATOM     17  C   UNL     1      -9.431 -17.366  29.017  1.00  0.00    -0.000 C 
BRANCH  17  18
ATOM     18  C   UNL     1      -8.278 -17.335  30.033  1.00  0.00    -0.000 C 
BRANCH  18  19
ATOM     19  C   UNL     1      -8.751 -17.579  31.475  1.00  0.00    -0.003 C 
ATOM     20  C   UNL     1      -7.973 -18.719  32.124  1.00  0.00     0.004 C 
ENDBRANCH  18  19
ENDBRANCH  17  18
ENDBRANCH  16  17
ENDBRANCH  15  16
ENDBRANCH  14  15
ENDBRANCH  13  14
ENDBRANCH  12  13
ENDBRANCH   1  12
TORSDOF 16
ENDMDL
MODEL 3
REMARK VINA RESULT:    15.467      3.243      8.719
REMARK INTER + INTRA:          28.861
REMARK INTER:                  30.090
REMARK INTRA:                  -1.228
REMARK UNBOUND:                -1.074
REMARK SMILES CCCCCCCCCCCCCCCCCC(=O)[O-]
REMARK SMILES IDX 10 1 11 2 12 3 13 4 14 5 15 6 16 7 17 8 18 9 19 10 20 11
REMARK SMILES IDX 9 12 8 13 7 14 6 15 5 16 4 17 3 18 2 19 1 20
REMARK H PARENT
REMARK Flexibility Score: inf
ROOT
ATOM      1  C   UNL     1      -5.743 -18.608  25.105  1.00  0.00     0.000 C 
ENDROOT
BRANCH   1   2
ATOM      2  C   UNL     1      -5.427 -18.012  26.487  1.00  0.00     0.000 C 
BRANCH   2   3
ATOM      3  C   UNL     1      -6.672 -17.882  27.379  1.00  0.00     0.000 C 
BRANCH   3   4
ATOM      4  C   UNL     1      -7.674 -16.883  26.778  1.00  0.00     0.000 C 
BRANCH   4   5
ATOM      5  C   UNL     1      -8.947 -16.733  27.627  1.00  0.00     0.000 C 
BRANCH   5   6
ATOM      6  C   UNL     1      -9.554 -18.089  28.029  1.00  0.00     0.000 C 
BRANCH   6   7
ATOM      7  C   UNL     1      -9.269 -18.448  29.496  1.00  0.00     0.006 C 
BRANCH   7   8
ATOM      8  C   UNL     1      -9.068 -17.210  30.381  1.00  0.00     0.053 C 
BRANCH   8   9
ATOM      9  C   UNL     1      -8.276 -17.564  31.600  1.00  0.00     0.041 C 
ATOM     10  O   UNL     1      -7.508 -16.715  32.125  1.00  0.00    -0.550 OA
ATOM     11  O   UNL     1      -8.344 -18.848  32.124  1.00  0.00    -0.550 OA
ENDBRANCH   8   9
ENDBRANCH   7   8
ENDBRANCH   6   7
ENDBRANCH   5   6
ENDBRANCH   4   5
ENDBRANCH   3   4
ENDBRANCH   2   3
ENDBRANCH   1   2
BRANCH   1  12
ATOM     12  C   UNL     1      -4.553 -19.377  24.506  1.00  0.00     0.000 C 
BRANCH  12  13
ATOM     13  C   UNL     1      -4.700 -19.619  22.992  1.00  0.00    -0.000 C 
BRANCH  13  14
ATOM     14  C   UNL     1      -3.831 -20.761  22.429  1.00  0.00    -0.000 C 
BRANCH  14  15
ATOM     15  C   UNL     1      -2.339 -20.393  22.350  1.00  0.00    -0.000 C 
BRANCH  15  16
ATOM     16  C   UNL     1      -1.513 -21.017  23.486  1.00  0.00    -0.000 C 
BRANCH  16  17
ATOM     17  C   UNL     1      -0.600 -19.992  24.181  1.00  0.00    -0.000 C 
BRANCH  17  18
ATOM     18  C   UNL     1      -0.452 -18.690  23.376  1.00  0.00    -0.000 C 
BRANCH  18  19
ATOM     19  C   UNL     1      -0.617 -17.433  24.244  1.00  0.00    -0.003 C 
ATOM     20  C   UNL     1      -1.320 -17.759  25.558  1.00  0.00     0.004 C 
ENDBRANCH  18  19
ENDBRANCH  17  18
ENDBRANCH  16  17
ENDBRANCH  15  16
ENDBRANCH  14  15
ENDBRANCH  13  14
ENDBRANCH  12  13
ENDBRANCH   1  12
TORSDOF 16
ENDMDL
MODEL 4
REMARK VINA RESULT:    15.809      2.107      2.829
REMARK INTER + INTRA:          29.522
REMARK INTER:                  30.489
REMARK INTRA:                  -0.968
REMARK UNBOUND:                -1.074
REMARK SMILES CCCCCCCCCCCCCCCCCC(=O)[O-]
REMARK SMILES IDX 10 1 11 2 12 3 13 4 14 5 15 6 16 7 17 8 18 9 19 10 20 11
REMARK SMILES IDX 9 12 8 13 7 14 6 15 5 16 4 17 3 18 2 19 1 20
REMARK H PARENT
REMARK Flexibility Score: inf
ROOT
ATOM      1  C   UNL     1      -6.245 -18.193  24.635  1.00  0.00     0.000 C 
ENDROOT
BRANCH   1   2
ATOM      2  C   UNL     1      -5.465 -18.607  23.377  1.00  0.00     0.000 C 
BRANCH   2   3
ATOM      3  C   UNL     1      -4.385 -19.662  23.666  1.00  0.00     0.000 C 
BRANCH   3   4
ATOM      4  C   UNL     1      -4.022 -20.437  22.389  1.00  0.00     0.000 C 
BRANCH   4   5
ATOM      5  C   UNL     1      -2.504 -20.567  22.182  1.00  0.00     0.000 C 
BRANCH   5   6
ATOM      6  C   UNL     1      -1.742 -20.774  23.502  1.00  0.00     0.000 C 
BRANCH   6   7
ATOM      7  C   UNL     1      -0.585 -19.776  23.676  1.00  0.00     0.006 C 
BRANCH   7   8
ATOM      8  C   UNL     1      -0.455 -19.264  25.117  1.00  0.00     0.053 C 
BRANCH   8   9
ATOM      9  C   UNL     1      -1.035 -17.891  25.236  1.00  0.00     0.041 C 
ATOM     10  O   UNL     1      -1.922 -17.650  26.097  1.00  0.00    -0.550 OA
ATOM     11  O   UNL     1      -0.635 -16.890  24.360  1.00  0.00    -0.550 OA
ENDBRANCH   8   9
ENDBRANCH   7   8
ENDBRANCH   6   7
ENDBRANCH   5   6
ENDBRANCH   4   5
ENDBRANCH   3   4
ENDBRANCH   2   3
ENDBRANCH   1   2
BRANCH   1  12
ATOM     12  C   UNL     1      -5.441 -18.408  25.929  1.00  0.00     0.000 C 
BRANCH  12  13
ATOM     13  C   UNL     1      -6.182 -17.910  27.184  1.00  0.00    -0.000 C 
BRANCH  13  14
ATOM     14  C   UNL     1      -7.527 -17.208  26.909  1.00  0.00    -0.000 C 
BRANCH  14  15
ATOM     15  C   UNL     1      -8.698 -17.840  27.680  1.00  0.00    -0.000 C 
BRANCH  15  16
ATOM     16  C   UNL     1      -9.785 -16.818  28.050  1.00  0.00    -0.000 C 
BRANCH  16  17
ATOM     17  C   UNL     1     -10.272 -16.012  26.832  1.00  0.00    -0.000 C 
BRANCH  17  18
ATOM     18  C   UNL     1      -9.945 -14.514  26.945  1.00  0.00    -0.000 C 
BRANCH  18  19
ATOM     19  C   UNL     1     -11.093 -13.617  26.457  1.00  0.00    -0.003 C 
ATOM     20  C   UNL     1     -11.368 -12.488  27.445  1.00  0.00     0.004 C 
ENDBRANCH  18  19
ENDBRANCH  17  18
ENDBRANCH  16  17
ENDBRANCH  15  16
ENDBRANCH  14  15
ENDBRANCH  13  14
ENDBRANCH  12  13
ENDBRANCH   1  12
TORSDOF 16
ENDMDL
MODEL 5
REMARK VINA RESULT:    15.822      3.345      8.776
REMARK INTER + INTRA:          29.548
REMARK INTER:                  30.739
REMARK INTRA:                  -1.191
REMARK UNBOUND:                -1.074
REMARK SMILES CCCCCCCCCCCCCCCCCC(=O)[O-]
REMARK SMILES IDX 10 1 11 2 12 3 13 4 14 5 15 6 16 7 17 8 18 9 19 10 20 11
REMARK SMILES IDX 9 12 8 13 7 14 6 15 5 16 4 17 3 18 2 19 1 20
REMARK H PARENT
REMARK Flexibility Score: inf
ROOT
ATOM      1  C   UNL     1      -4.039 -18.090  26.346  1.00  0.00     0.000 C 
ENDROOT
BRANCH   1   2
ATOM      2  C   UNL     1      -5.128 -17.877  27.410  1.00  0.00     0.000 C 
BRANCH   2   3
ATOM      3  C   UNL     1      -6.548 -18.087  26.861  1.00  0.00     0.000 C 
BRANCH   3   4
ATOM      4  C   UNL     1      -7.262 -16.741  26.659  1.00  0.00     0.000 C 
BRANCH   4   5
ATOM      5  C   UNL     1      -8.676 -16.720  27.263  1.00  0.00     0.000 C 
BRANCH   5   6
ATOM      6  C   UNL     1      -9.171 -18.122  27.658  1.00  0.00     0.000 C 
BRANCH   6   7
ATOM      7  C   UNL     1      -9.332 -18.282  29.179  1.00  0.00     0.006 C 
BRANCH   7   8
ATOM      8  C   UNL     1      -8.501 -17.265  29.973  1.00  0.00     0.053 C 
BRANCH   8   9
ATOM      9  C   UNL     1      -8.588 -17.551  31.438  1.00  0.00     0.041 C 
ATOM     10  O   UNL     1      -9.525 -17.063  32.124  1.00  0.00    -0.550 OA
ATOM     11  O   UNL     1      -7.604 -18.312  32.057  1.00  0.00    -0.550 OA
ENDBRANCH   8   9
ENDBRANCH   7   8
ENDBRANCH   6   7
ENDBRANCH   5   6
ENDBRANCH   4   5
ENDBRANCH   3   4
ENDBRANCH   2   3
ENDBRANCH   1   2
BRANCH   1  12
ATOM     12  C   UNL     1      -2.701 -17.434  26.728  1.00  0.00     0.000 C 
BRANCH  12  13
ATOM     13  C   UNL     1      -1.489 -18.123  26.072  1.00  0.00    -0.000 C 
BRANCH  13  14
ATOM     14  C   UNL     1      -1.070 -17.540  24.708  1.00  0.00    -0.000 C 
BRANCH  14  15
ATOM     15  C   UNL     1      -0.092 -18.451  23.946  1.00  0.00    -0.000 C 
BRANCH  15  16
ATOM     16  C   UNL     1      -0.672 -19.850  23.678  1.00  0.00    -0.000 C 
BRANCH  16  17
ATOM     17  C   UNL     1      -1.740 -19.842  22.570  1.00  0.00    -0.000 C 
BRANCH  17  18
ATOM     18  C   UNL     1      -2.522 -21.163  22.493  1.00  0.00    -0.000 C 
BRANCH  18  19
ATOM     19  C   UNL     1      -4.044 -20.952  22.483  1.00  0.00    -0.003 C 
ATOM     20  C   UNL     1      -4.429 -19.683  23.236  1.00  0.00     0.004 C 
ENDBRANCH  18  19
ENDBRANCH  17  18
ENDBRANCH  16  17
ENDBRANCH  15  16
ENDBRANCH  14  15
ENDBRANCH  13  14
ENDBRANCH  12  13
ENDBRANCH   1  12
TORSDOF 16
ENDMDL
MODEL 6
REMARK VINA RESULT:    16.170      2.570      4.079
REMARK INTER + INTRA:          30.222
REMARK INTER:                  31.242
REMARK INTRA:                  -1.020
REMARK UNBOUND:                -1.074
REMARK SMILES CCCCCCCCCCCCCCCCCC(=O)[O-]
REMARK SMILES IDX 10 1 11 2 12 3 13 4 14 5 15 6 16 7 17 8 18 9 19 10 20 11
REMARK SMILES IDX 9 12 8 13 7 14 6 15 5 16 4 17 3 18 2 19 1 20
REMARK H PARENT
REMARK Flexibility Score: inf
ROOT
ATOM      1  C   UNL     1      -3.345 -17.886  27.367  1.00  0.00     0.000 C 
ENDROOT
BRANCH   1   2
ATOM      2  C   UNL     1      -2.774 -17.487  25.996  1.00  0.00     0.000 C 
BRANCH   2   3
ATOM      3  C   UNL     1      -1.346 -18.009  25.769  1.00  0.00     0.000 C 
BRANCH   3   4
ATOM      4  C   UNL     1      -0.582 -17.102  24.792  1.00  0.00     0.000 C 
BRANCH   4   5
ATOM      5  C   UNL     1      -0.283 -17.792  23.450  1.00  0.00     0.000 C 
BRANCH   5   6
ATOM      6  C   UNL     1      -0.709 -19.270  23.437  1.00  0.00     0.000 C 
BRANCH   6   7
ATOM      7  C   UNL     1      -1.729 -19.579  22.328  1.00  0.00     0.006 C 
BRANCH   7   8
ATOM      8  C   UNL     1      -2.341 -20.980  22.460  1.00  0.00     0.053 C 
BRANCH   8   9
ATOM      9  C   UNL     1      -3.832 -20.892  22.546  1.00  0.00     0.041 C 
ATOM     10  O   UNL     1      -4.543 -21.888  22.249  1.00  0.00    -0.550 OA
ATOM     11  O   UNL     1      -4.437 -19.693  22.902  1.00  0.00    -0.550 OA
ENDBRANCH   8   9
ENDBRANCH   7   8
ENDBRANCH   6   7
ENDBRANCH   5   6
ENDBRANCH   4   5
ENDBRANCH   3   4
ENDBRANCH   2   3
ENDBRANCH   1   2
BRANCH   1  12
ATOM     12  C   UNL     1      -4.881 -17.824  27.410  1.00  0.00     0.000 C 
BRANCH  12  13
ATOM     13  C   UNL     1      -5.533 -18.245  26.079  1.00  0.00    -0.000 C 
BRANCH  13  14
ATOM     14  C   UNL     1      -7.071 -18.145  26.049  1.00  0.00    -0.000 C 
BRANCH  14  15
ATOM     15  C   UNL     1      -7.620 -17.085  27.019  1.00  0.00    -0.000 C 
BRANCH  15  16
ATOM     16  C   UNL     1      -8.771 -17.617  27.888  1.00  0.00    -0.000 C 
BRANCH  16  17
ATOM     17  C   UNL     1      -9.835 -16.543  28.176  1.00  0.00    -0.000 C 
BRANCH  17  18
ATOM     18  C   UNL     1     -10.369 -15.881  26.895  1.00  0.00    -0.000 C 
BRANCH  18  19
ATOM     19  C   UNL     1     -10.030 -14.385  26.813  1.00  0.00    -0.003 C 
ATOM     20  C   UNL     1     -11.250 -13.566  26.404  1.00  0.00     0.004 C 
ENDBRANCH  18  19
ENDBRANCH  17  18
ENDBRANCH  16  17
ENDBRANCH  15  16
ENDBRANCH  14  15
ENDBRANCH  13  14
ENDBRANCH  12  13
ENDBRANCH   1  12
TORSDOF 16
ENDMDL
MODEL 7
REMARK VINA RESULT:    16.401      4.065      9.014
REMARK INTER + INTRA:          30.668
REMARK INTER:                  31.736
REMARK INTRA:                  -1.068
REMARK UNBOUND:                -1.074
REMARK SMILES CCCCCCCCCCCCCCCCCC(=O)[O-]
REMARK SMILES IDX 10 1 11 2 12 3 13 4 14 5 15 6 16 7 17 8 18 9 19 10 20 11
REMARK SMILES IDX 9 12 8 13 7 14 6 15 5 16 4 17 3 18 2 19 1 20
REMARK H PARENT
REMARK Flexibility Score: inf
ROOT
ATOM      1  C   UNL     1      -4.910 -18.646  24.959  1.00  0.00     0.000 C 
ENDROOT
BRANCH   1   2
ATOM      2  C   UNL     1      -6.377 -18.480  25.390  1.00  0.00     0.000 C 
BRANCH   2   3
ATOM      3  C   UNL     1      -6.522 -18.018  26.848  1.00  0.00     0.000 C 
BRANCH   3   4
ATOM      4  C   UNL     1      -7.693 -17.033  26.996  1.00  0.00     0.000 C 
BRANCH   4   5
ATOM      5  C   UNL     1      -8.796 -17.555  27.932  1.00  0.00     0.000 C 
BRANCH   5   6
ATOM      6  C   UNL     1      -9.961 -16.562  28.086  1.00  0.00     0.000 C 
BRANCH   6   7
ATOM      7  C   UNL     1     -10.259 -15.799  26.785  1.00  0.00     0.006 C 
BRANCH   7   8
ATOM      8  C   UNL     1      -9.824 -14.328  26.848  1.00  0.00     0.053 C 
BRANCH   8   9
ATOM      9  C   UNL     1     -11.013 -13.428  26.740  1.00  0.00     0.041 C 
ATOM     10  O   UNL     1     -11.895 -13.647  25.867  1.00  0.00    -0.550 OA
ATOM     11  O   UNL     1     -11.121 -12.316  27.564  1.00  0.00    -0.550 OA
ENDBRANCH   8   9
ENDBRANCH   7   8
ENDBRANCH   6   7
ENDBRANCH   5   6
ENDBRANCH   4   5
ENDBRANCH   3   4
ENDBRANCH   2   3
ENDBRANCH   1   2
BRANCH   1  12
ATOM     12  C   UNL     1      -4.769 -19.069  23.487  1.00  0.00     0.000 C 
BRANCH  12  13
ATOM     13  C   UNL     1      -4.511 -20.579  23.323  1.00  0.00    -0.000 C 
BRANCH  13  14
ATOM     14  C   UNL     1      -3.555 -20.954  22.173  1.00  0.00    -0.000 C 
BRANCH  14  15
ATOM     15  C   UNL     1      -2.186 -20.260  22.285  1.00  0.00    -0.000 C 
BRANCH  15  16
ATOM     16  C   UNL     1      -1.426 -20.652  23.562  1.00  0.00    -0.000 C 
BRANCH  16  17
ATOM     17  C   UNL     1      -0.431 -19.566  24.010  1.00  0.00    -0.000 C 
BRANCH  17  18
ATOM     18  C   UNL     1      -0.982 -18.693  25.150  1.00  0.00    -0.000 C 
BRANCH  18  19
ATOM     19  C   UNL     1      -0.945 -17.193  24.820  1.00  0.00    -0.003 C 
ATOM     20  C   UNL     1       0.031 -16.903  23.684  1.00  0.00     0.004 C 
ENDBRANCH  18  19
ENDBRANCH  17  18
ENDBRANCH  16  17
ENDBRANCH  15  16
ENDBRANCH  14  15
ENDBRANCH  13  14
ENDBRANCH  12  13
ENDBRANCH   1  12
TORSDOF 16
ENDMDL
