MODEL 1
REMARK VINA RESULT:    -7.260      0.000      0.000
REMARK INTER + INTRA:          -8.804
REMARK INTER:                  -8.533
REMARK INTRA:                  -0.271
REMARK UNBOUND:                -0.271
REMARK SMILES O=c1cc(-c2ccc(O)c(O)c2)oc2cc(O)cc(O)c12
REMARK SMILES IDX 4 1 3 2 2 3 1 4 21 5 19 6 18 7 16 8 15 9 14 10 13 11 5 12
REMARK SMILES IDX 6 13 7 14 8 15 12 16 10 17 9 18 11 20 20 22 17 24
REMARK H PARENT 9 19 11 21 20 23 17 25
REMARK Flexibility Score: inf
ROOT
ATOM      1  C   UNL     1      15.284 -23.873 -28.346  1.00  0.00     0.138 A 
ATOM      2  C   UNL     1      16.474 -23.474 -27.716  1.00  0.00     0.100 A 
ATOM      3  C   UNL     1      17.532 -24.377 -27.611  1.00  0.00     0.197 A 
ATOM      4  O   UNL     1      18.596 -24.011 -27.042  1.00  0.00    -0.289 OA
ATOM      5  C   UNL     1      17.390 -25.678 -28.134  1.00  0.00     0.107 A 
ATOM      6  C   UNL     1      18.412 -26.655 -28.071  1.00  0.00     0.134 A 
ATOM      7  C   UNL     1      18.189 -27.931 -28.612  1.00  0.00     0.093 A 
ATOM      8  C   UNL     1      16.965 -28.246 -29.213  1.00  0.00     0.123 A 
ATOM      9  C   UNL     1      15.954 -27.285 -29.278  1.00  0.00     0.094 A 
ATOM     10  C   UNL     1      16.156 -26.008 -28.745  1.00  0.00     0.146 A 
ATOM     11  O   UNL     1      15.178 -25.111 -28.821  1.00  0.00    -0.456 OA
ENDROOT
BRANCH   1  12
ATOM     12  C   UNL     1      14.126 -22.954 -28.486  1.00  0.00     0.021 A 
ATOM     13  C   UNL     1      13.494 -22.743 -29.726  1.00  0.00     0.016 A 
ATOM     14  C   UNL     1      12.399 -21.880 -29.827  1.00  0.00     0.051 A 
ATOM     15  C   UNL     1      11.914 -21.219 -28.692  1.00  0.00     0.157 A 
ATOM     16  C   UNL     1      13.623 -22.295 -27.349  1.00  0.00     0.062 A 
ATOM     17  C   UNL     1      12.527 -21.429 -27.450  1.00  0.00     0.158 A 
BRANCH  15  18
ATOM     18  O   UNL     1      10.824 -20.357 -28.788  1.00  0.00    -0.504 OA
ATOM     19  H   UNL     1      10.084 -20.512 -29.463  1.00  0.00     0.293 HD
ENDBRANCH  15  18
BRANCH  17  20
ATOM     20  O   UNL     1      12.039 -20.772 -26.320  1.00  0.00    -0.504 OA
ATOM     21  H   UNL     1      11.673 -21.285 -25.527  1.00  0.00     0.293 HD
ENDBRANCH  17  20
ENDBRANCH   1  12
BRANCH   6  22
ATOM     22  O   UNL     1      19.642 -26.369 -27.477  1.00  0.00    -0.507 OA
ATOM     23  H   UNL     1      19.881 -25.434 -27.170  1.00  0.00     0.293 HD
ENDBRANCH   6  22
BRANCH   8  24
ATOM     24  O   UNL     1      16.744 -29.513 -29.749  1.00  0.00    -0.508 OA
ATOM     25  H   UNL     1      16.092 -30.162 -29.324  1.00  0.00     0.293 HD
ENDBRANCH   8  24
TORSDOF 5
ENDMDL
MODEL 2
REMARK VINA RESULT:    -6.734      3.064      3.649
REMARK INTER + INTRA:          -8.187
REMARK INTER:                  -7.868
REMARK INTRA:                  -0.318
REMARK UNBOUND:                -0.271
REMARK SMILES O=c1cc(-c2ccc(O)c(O)c2)oc2cc(O)cc(O)c12
REMARK SMILES IDX 4 1 3 2 2 3 1 4 21 5 19 6 18 7 16 8 15 9 14 10 13 11 5 12
REMARK SMILES IDX 6 13 7 14 8 15 12 16 10 17 9 18 11 20 20 22 17 24
REMARK H PARENT 9 19 11 21 20 23 17 25
REMARK Flexibility Score: inf
ROOT
ATOM      1  C   UNL     1      15.388 -23.178 -27.824  1.00  0.00     0.138 A 
ATOM      2  C   UNL     1      16.430 -23.011 -28.751  1.00  0.00     0.100 A 
ATOM      3  C   UNL     1      17.754 -23.119 -28.324  1.00  0.00     0.197 A 
ATOM      4  O   UNL     1      18.683 -22.965 -29.162  1.00  0.00    -0.289 OA
ATOM      5  C   UNL     1      18.027 -23.390 -26.968  1.00  0.00     0.107 A 
ATOM      6  C   UNL     1      19.339 -23.516 -26.452  1.00  0.00     0.134 A 
ATOM      7  C   UNL     1      19.526 -23.783 -25.087  1.00  0.00     0.093 A 
ATOM      8  C   UNL     1      18.427 -23.924 -24.231  1.00  0.00     0.123 A 
ATOM      9  C   UNL     1      17.132 -23.801 -24.736  1.00  0.00     0.094 A 
ATOM     10  C   UNL     1      16.924 -23.536 -26.093  1.00  0.00     0.146 A 
ATOM     11  O   UNL     1      15.680 -23.425 -26.549  1.00  0.00    -0.456 OA
ENDROOT
BRANCH   1  12
ATOM     12  C   UNL     1      13.961 -23.074 -28.222  1.00  0.00     0.021 A 
ATOM     13  C   UNL     1      13.582 -22.699 -29.525  1.00  0.00     0.016 A 
ATOM     14  C   UNL     1      12.231 -22.619 -29.875  1.00  0.00     0.051 A 
ATOM     15  C   UNL     1      11.238 -22.917 -28.933  1.00  0.00     0.157 A 
ATOM     16  C   UNL     1      12.958 -23.384 -27.287  1.00  0.00     0.062 A 
ATOM     17  C   UNL     1      11.603 -23.303 -27.637  1.00  0.00     0.158 A 
BRANCH  15  18
ATOM     18  O   UNL     1       9.891 -22.838 -29.278  1.00  0.00    -0.504 OA
ATOM     19  H   UNL     1       9.597 -22.522 -30.194  1.00  0.00     0.293 HD
ENDBRANCH  15  18
BRANCH  17  20
ATOM     20  O   UNL     1      10.613 -23.603 -26.703  1.00  0.00    -0.504 OA
ATOM     21  H   UNL     1      10.746 -23.428 -25.714  1.00  0.00     0.293 HD
ENDBRANCH  17  20
ENDBRANCH   1  12
BRANCH   6  22
ATOM     22  O   UNL     1      20.452 -23.380 -27.281  1.00  0.00    -0.507 OA
ATOM     23  H   UNL     1      20.910 -22.486 -27.416  1.00  0.00     0.293 HD
ENDBRANCH   6  22
BRANCH   8  24
ATOM     24  O   UNL     1      18.614 -24.188 -22.875  1.00  0.00    -0.508 OA
ATOM     25  H   UNL     1      18.165 -24.975 -22.422  1.00  0.00     0.293 HD
ENDBRANCH   8  24
TORSDOF 5
ENDMDL
MODEL 3
REMARK VINA RESULT:    -6.734      3.060      3.359
REMARK INTER + INTRA:          -8.186
REMARK INTER:                  -7.893
REMARK INTRA:                  -0.294
REMARK UNBOUND:                -0.271
REMARK SMILES O=c1cc(-c2ccc(O)c(O)c2)oc2cc(O)cc(O)c12
REMARK SMILES IDX 4 1 3 2 2 3 1 4 21 5 19 6 18 7 16 8 15 9 14 10 13 11 5 12
REMARK SMILES IDX 6 13 7 14 8 15 12 16 10 17 9 18 11 20 20 22 17 24
REMARK H PARENT 9 19 11 21 20 23 17 25
REMARK Flexibility Score: inf
ROOT
ATOM      1  C   UNL     1      15.342 -23.090 -27.966  1.00  0.00     0.138 A 
ATOM      2  C   UNL     1      15.768 -23.249 -26.637  1.00  0.00     0.100 A 
ATOM      3  C   UNL     1      17.133 -23.300 -26.354  1.00  0.00     0.197 A 
ATOM      4  O   UNL     1      17.506 -23.445 -25.158  1.00  0.00    -0.289 OA
ATOM      5  C   UNL     1      18.065 -23.196 -27.405  1.00  0.00     0.107 A 
ATOM      6  C   UNL     1      19.466 -23.238 -27.206  1.00  0.00     0.134 A 
ATOM      7  C   UNL     1      20.328 -23.132 -28.308  1.00  0.00     0.093 A 
ATOM      8  C   UNL     1      19.816 -22.987 -29.603  1.00  0.00     0.123 A 
ATOM      9  C   UNL     1      18.435 -22.945 -29.804  1.00  0.00     0.094 A 
ATOM     10  C   UNL     1      17.559 -23.048 -28.719  1.00  0.00     0.146 A 
ATOM     11  O   UNL     1      16.248 -23.004 -28.937  1.00  0.00    -0.456 OA
ENDROOT
BRANCH   1  12
ATOM     12  C   UNL     1      13.903 -23.030 -28.326  1.00  0.00     0.021 A 
ATOM     13  C   UNL     1      13.478 -22.671 -29.620  1.00  0.00     0.016 A 
ATOM     14  C   UNL     1      12.117 -22.632 -29.933  1.00  0.00     0.051 A 
ATOM     15  C   UNL     1      11.159 -22.956 -28.964  1.00  0.00     0.157 A 
ATOM     16  C   UNL     1      12.934 -23.366 -27.363  1.00  0.00     0.062 A 
ATOM     17  C   UNL     1      11.569 -23.325 -27.677  1.00  0.00     0.158 A 
BRANCH  15  18
ATOM     18  O   UNL     1       9.801 -22.917 -29.273  1.00  0.00    -0.504 OA
ATOM     19  H   UNL     1       9.117 -22.567 -28.612  1.00  0.00     0.293 HD
ENDBRANCH  15  18
BRANCH  17  20
ATOM     20  O   UNL     1      10.613 -23.651 -26.716  1.00  0.00    -0.504 OA
ATOM     21  H   UNL     1       9.824 -23.045 -26.526  1.00  0.00     0.293 HD
ENDBRANCH  17  20
ENDBRANCH   1  12
BRANCH   6  22
ATOM     22  O   UNL     1      20.005 -23.382 -25.928  1.00  0.00    -0.507 OA
ATOM     23  H   UNL     1      20.279 -22.581 -25.370  1.00  0.00     0.293 HD
ENDBRANCH   6  22
BRANCH   8  24
ATOM     24  O   UNL     1      20.672 -22.883 -30.697  1.00  0.00    -0.508 OA
ATOM     25  H   UNL     1      21.617 -23.248 -30.667  1.00  0.00     0.293 HD
ENDBRANCH   8  24
TORSDOF 5
ENDMDL
MODEL 4
REMARK VINA RESULT:    -6.578      4.352      6.788
REMARK INTER + INTRA:          -8.003
REMARK INTER:                  -7.708
REMARK INTRA:                  -0.295
REMARK UNBOUND:                -0.271
REMARK SMILES O=c1cc(-c2ccc(O)c(O)c2)oc2cc(O)cc(O)c12
REMARK SMILES IDX 4 1 3 2 2 3 1 4 21 5 19 6 18 7 16 8 15 9 14 10 13 11 5 12
REMARK SMILES IDX 6 13 7 14 8 15 12 16 10 17 9 18 11 20 20 22 17 24
REMARK H PARENT 9 19 11 21 20 23 17 25
REMARK Flexibility Score: inf
ROOT
ATOM      1  C   UNL     1      18.196 -25.120 -27.283  1.00  0.00     0.138 A 
ATOM      2  C   UNL     1      18.383 -25.134 -25.891  1.00  0.00     0.100 A 
ATOM      3  C   UNL     1      18.814 -23.975 -25.244  1.00  0.00     0.197 A 
ATOM      4  O   UNL     1      18.981 -23.996 -23.995  1.00  0.00    -0.289 OA
ATOM      5  C   UNL     1      19.059 -22.809 -25.997  1.00  0.00     0.107 A 
ATOM      6  C   UNL     1      19.496 -21.592 -25.421  1.00  0.00     0.134 A 
ATOM      7  C   UNL     1      19.723 -20.477 -26.242  1.00  0.00     0.093 A 
ATOM      8  C   UNL     1      19.521 -20.557 -27.625  1.00  0.00     0.123 A 
ATOM      9  C   UNL     1      19.089 -21.755 -28.197  1.00  0.00     0.094 A 
ATOM     10  C   UNL     1      18.857 -22.878 -27.397  1.00  0.00     0.146 A 
ATOM     11  O   UNL     1      18.445 -24.006 -27.966  1.00  0.00    -0.456 OA
ENDROOT
BRANCH   1  12
ATOM     12  C   UNL     1      17.740 -26.324 -28.023  1.00  0.00     0.021 A 
ATOM     13  C   UNL     1      17.711 -26.360 -29.431  1.00  0.00     0.016 A 
ATOM     14  C   UNL     1      17.286 -27.510 -30.102  1.00  0.00     0.051 A 
ATOM     15  C   UNL     1      16.889 -28.644 -29.380  1.00  0.00     0.157 A 
ATOM     16  C   UNL     1      17.352 -27.471 -27.308  1.00  0.00     0.062 A 
ATOM     17  C   UNL     1      16.924 -28.624 -27.981  1.00  0.00     0.158 A 
BRANCH  15  18
ATOM     18  O   UNL     1      16.464 -29.792 -30.046  1.00  0.00    -0.504 OA
ATOM     19  H   UNL     1      17.112 -30.376 -30.561  1.00  0.00     0.293 HD
ENDBRANCH  15  18
BRANCH  17  20
ATOM     20  O   UNL     1      16.533 -29.755 -27.265  1.00  0.00    -0.504 OA
ATOM     21  H   UNL     1      16.944 -29.982 -26.367  1.00  0.00     0.293 HD
ENDBRANCH  17  20
ENDBRANCH   1  12
BRANCH   6  22
ATOM     22  O   UNL     1      19.706 -21.483 -24.047  1.00  0.00    -0.507 OA
ATOM     23  H   UNL     1      20.400 -20.854 -23.661  1.00  0.00     0.293 HD
ENDBRANCH   6  22
BRANCH   8  24
ATOM     24  O   UNL     1      19.747 -19.449 -28.440  1.00  0.00    -0.508 OA
ATOM     25  H   UNL     1      19.297 -18.559 -28.260  1.00  0.00     0.293 HD
ENDBRANCH   8  24
TORSDOF 5
ENDMDL
MODEL 5
REMARK VINA RESULT:    -6.532      2.953      4.852
REMARK INTER + INTRA:          -7.948
REMARK INTER:                  -7.680
REMARK INTRA:                  -0.268
REMARK UNBOUND:                -0.271
REMARK SMILES O=c1cc(-c2ccc(O)c(O)c2)oc2cc(O)cc(O)c12
REMARK SMILES IDX 4 1 3 2 2 3 1 4 21 5 19 6 18 7 16 8 15 9 14 10 13 11 5 12
REMARK SMILES IDX 6 13 7 14 8 15 12 16 10 17 9 18 11 20 20 22 17 24
REMARK H PARENT 9 19 11 21 20 23 17 25
REMARK Flexibility Score: inf
ROOT
ATOM      1  C   UNL     1      16.297 -22.987 -26.839  1.00  0.00     0.138 A 
ATOM      2  C   UNL     1      16.655 -24.215 -26.257  1.00  0.00     0.100 A 
ATOM      3  C   UNL     1      17.800 -24.292 -25.464  1.00  0.00     0.197 A 
ATOM      4  O   UNL     1      18.114 -25.398 -24.948  1.00  0.00    -0.289 OA
ATOM      5  C   UNL     1      18.583 -23.138 -25.259  1.00  0.00     0.107 A 
ATOM      6  C   UNL     1      19.757 -23.128 -24.469  1.00  0.00     0.134 A 
ATOM      7  C   UNL     1      20.484 -21.937 -24.319  1.00  0.00     0.093 A 
ATOM      8  C   UNL     1      20.059 -20.759 -24.945  1.00  0.00     0.123 A 
ATOM      9  C   UNL     1      18.901 -20.764 -25.725  1.00  0.00     0.094 A 
ATOM     10  C   UNL     1      18.162 -21.941 -25.887  1.00  0.00     0.146 A 
ATOM     11  O   UNL     1      17.063 -21.918 -26.633  1.00  0.00    -0.456 OA
ENDROOT
BRANCH   1  12
ATOM     12  C   UNL     1      15.090 -22.847 -27.692  1.00  0.00     0.021 A 
ATOM     13  C   UNL     1      15.066 -23.310 -29.022  1.00  0.00     0.016 A 
ATOM     14  C   UNL     1      13.913 -23.173 -29.799  1.00  0.00     0.051 A 
ATOM     15  C   UNL     1      12.764 -22.579 -29.262  1.00  0.00     0.157 A 
ATOM     16  C   UNL     1      13.928 -22.263 -27.157  1.00  0.00     0.062 A 
ATOM     17  C   UNL     1      12.772 -22.125 -27.937  1.00  0.00     0.158 A 
BRANCH  15  18
ATOM     18  O   UNL     1      11.613 -22.441 -30.034  1.00  0.00    -0.504 OA
ATOM     19  H   UNL     1      11.425 -21.594 -30.557  1.00  0.00     0.293 HD
ENDBRANCH  15  18
BRANCH  17  20
ATOM     20  O   UNL     1      11.625 -21.538 -27.403  1.00  0.00    -0.504 OA
ATOM     21  H   UNL     1      11.045 -22.025 -26.730  1.00  0.00     0.293 HD
ENDBRANCH  17  20
ENDBRANCH   1  12
BRANCH   6  22
ATOM     22  O   UNL     1      20.204 -24.287 -23.834  1.00  0.00    -0.507 OA
ATOM     23  H   UNL     1      19.577 -25.053 -23.619  1.00  0.00     0.293 HD
ENDBRANCH   6  22
BRANCH   8  24
ATOM     24  O   UNL     1      20.782 -19.577 -24.797  1.00  0.00    -0.508 OA
ATOM     25  H   UNL     1      20.749 -19.040 -23.938  1.00  0.00     0.293 HD
ENDBRANCH   8  24
TORSDOF 5
ENDMDL
MODEL 6
REMARK VINA RESULT:    -6.528      3.390      5.559
REMARK INTER + INTRA:          -7.944
REMARK INTER:                  -7.649
REMARK INTRA:                  -0.295
REMARK UNBOUND:                -0.271
REMARK SMILES O=c1cc(-c2ccc(O)c(O)c2)oc2cc(O)cc(O)c12
REMARK SMILES IDX 4 1 3 2 2 3 1 4 21 5 19 6 18 7 16 8 15 9 14 10 13 11 5 12
REMARK SMILES IDX 6 13 7 14 8 15 12 16 10 17 9 18 11 20 20 22 17 24
REMARK H PARENT 9 19 11 21 20 23 17 25
REMARK Flexibility Score: inf
ROOT
ATOM      1  C   UNL     1      18.208 -23.699 -27.036  1.00  0.00     0.138 A 
ATOM      2  C   UNL     1      17.664 -23.068 -28.167  1.00  0.00     0.100 A 
ATOM      3  C   UNL     1      17.065 -23.840 -29.163  1.00  0.00     0.197 A 
ATOM      4  O   UNL     1      16.581 -23.266 -30.176  1.00  0.00    -0.289 OA
ATOM      5  C   UNL     1      17.016 -25.241 -29.021  1.00  0.00     0.107 A 
ATOM      6  C   UNL     1      16.427 -26.098 -29.982  1.00  0.00     0.134 A 
ATOM      7  C   UNL     1      16.424 -27.485 -29.769  1.00  0.00     0.093 A 
ATOM      8  C   UNL     1      17.000 -28.029 -28.614  1.00  0.00     0.123 A 
ATOM      9  C   UNL     1      17.582 -27.188 -27.664  1.00  0.00     0.094 A 
ATOM     10  C   UNL     1      17.595 -25.803 -27.858  1.00  0.00     0.146 A 
ATOM     11  O   UNL     1      18.154 -25.025 -26.937  1.00  0.00    -0.456 OA
ENDROOT
BRANCH   1  12
ATOM     12  C   UNL     1      18.858 -22.928 -25.946  1.00  0.00     0.021 A 
ATOM     13  C   UNL     1      19.393 -23.562 -24.808  1.00  0.00     0.016 A 
ATOM     14  C   UNL     1      20.008 -22.812 -23.802  1.00  0.00     0.051 A 
ATOM     15  C   UNL     1      20.105 -21.420 -23.917  1.00  0.00     0.157 A 
ATOM     16  C   UNL     1      18.971 -21.531 -26.059  1.00  0.00     0.062 A 
ATOM     17  C   UNL     1      19.587 -20.778 -25.049  1.00  0.00     0.158 A 
BRANCH  15  18
ATOM     18  O   UNL     1      20.717 -20.669 -22.916  1.00  0.00    -0.504 OA
ATOM     19  H   UNL     1      21.358 -21.091 -22.254  1.00  0.00     0.293 HD
ENDBRANCH  15  18
BRANCH  17  20
ATOM     20  O   UNL     1      19.689 -19.393 -25.164  1.00  0.00    -0.504 OA
ATOM     21  H   UNL     1      19.206 -18.885 -25.895  1.00  0.00     0.293 HD
ENDBRANCH  17  20
ENDBRANCH   1  12
BRANCH   6  22
ATOM     22  O   UNL     1      15.847 -25.583 -31.142  1.00  0.00    -0.507 OA
ATOM     23  H   UNL     1      14.910 -25.843 -31.429  1.00  0.00     0.293 HD
ENDBRANCH   6  22
BRANCH   8  24
ATOM     24  O   UNL     1      16.998 -29.406 -28.403  1.00  0.00    -0.508 OA
ATOM     25  H   UNL     1      16.370 -30.019 -28.911  1.00  0.00     0.293 HD
ENDBRANCH   8  24
TORSDOF 5
ENDMDL
MODEL 7
REMARK VINA RESULT:    -6.428      3.941      5.041
REMARK INTER + INTRA:          -7.826
REMARK INTER:                  -7.508
REMARK INTRA:                  -0.318
REMARK UNBOUND:                -0.271
REMARK SMILES O=c1cc(-c2ccc(O)c(O)c2)oc2cc(O)cc(O)c12
REMARK SMILES IDX 4 1 3 2 2 3 1 4 21 5 19 6 18 7 16 8 15 9 14 10 13 11 5 12
REMARK SMILES IDX 6 13 7 14 8 15 12 16 10 17 9 18 11 20 20 22 17 24
REMARK H PARENT 9 19 11 21 20 23 17 25
REMARK Flexibility Score: inf
ROOT
ATOM      1  C   UNL     1      18.039 -24.029 -27.983  1.00  0.00     0.138 A 
ATOM      2  C   UNL     1      17.739 -23.879 -29.347  1.00  0.00     0.100 A 
ATOM      3  C   UNL     1      17.248 -24.969 -30.066  1.00  0.00     0.197 A 
ATOM      4  O   UNL     1      16.984 -24.827 -31.291  1.00  0.00    -0.289 OA
ATOM      5  C   UNL     1      17.062 -26.205 -29.415  1.00  0.00     0.107 A 
ATOM      6  C   UNL     1      16.568 -27.359 -30.068  1.00  0.00     0.134 A 
ATOM      7  C   UNL     1      16.417 -28.554 -29.348  1.00  0.00     0.093 A 
ATOM      8  C   UNL     1      16.751 -28.615 -27.990  1.00  0.00     0.123 A 
ATOM      9  C   UNL     1      17.238 -27.480 -27.341  1.00  0.00     0.094 A 
ATOM     10  C   UNL     1      17.396 -26.279 -28.041  1.00  0.00     0.146 A 
ATOM     11  O   UNL     1      17.861 -25.211 -27.399  1.00  0.00    -0.456 OA
ENDROOT
BRANCH   1  12
ATOM     12  C   UNL     1      18.565 -22.903 -27.169  1.00  0.00     0.021 A 
ATOM     13  C   UNL     1      18.863 -21.652 -27.741  1.00  0.00     0.016 A 
ATOM     14  C   UNL     1      19.348 -20.608 -26.949  1.00  0.00     0.051 A 
ATOM     15  C   UNL     1      19.536 -20.792 -25.573  1.00  0.00     0.157 A 
ATOM     16  C   UNL     1      18.744 -23.076 -25.784  1.00  0.00     0.062 A 
ATOM     17  C   UNL     1      19.231 -22.029 -24.990  1.00  0.00     0.158 A 
BRANCH  15  18
ATOM     18  O   UNL     1      20.019 -19.754 -24.781  1.00  0.00    -0.504 OA
ATOM     19  H   UNL     1      19.485 -19.390 -24.000  1.00  0.00     0.293 HD
ENDBRANCH  15  18
BRANCH  17  20
ATOM     20  O   UNL     1      19.415 -22.208 -23.620  1.00  0.00    -0.504 OA
ATOM     21  H   UNL     1      19.761 -23.082 -23.242  1.00  0.00     0.293 HD
ENDBRANCH  17  20
ENDBRANCH   1  12
BRANCH   6  22
ATOM     22  O   UNL     1      16.228 -27.328 -31.420  1.00  0.00    -0.507 OA
ATOM     23  H   UNL     1      15.832 -26.500 -31.851  1.00  0.00     0.293 HD
ENDBRANCH   6  22
BRANCH   8  24
ATOM     24  O   UNL     1      16.601 -29.803 -27.276  1.00  0.00    -0.508 OA
ATOM     25  H   UNL     1      16.146 -29.823 -26.371  1.00  0.00     0.293 HD
ENDBRANCH   8  24
TORSDOF 5
ENDMDL
MODEL 8
REMARK VINA RESULT:    -6.419      4.557      6.739
REMARK INTER + INTRA:          -7.816
REMARK INTER:                  -7.543
REMARK INTRA:                  -0.273
REMARK UNBOUND:                -0.271
REMARK SMILES O=c1cc(-c2ccc(O)c(O)c2)oc2cc(O)cc(O)c12
REMARK SMILES IDX 4 1 3 2 2 3 1 4 21 5 19 6 18 7 16 8 15 9 14 10 13 11 5 12
REMARK SMILES IDX 6 13 7 14 8 15 12 16 10 17 9 18 11 20 20 22 17 24
REMARK H PARENT 9 19 11 21 20 23 17 25
REMARK Flexibility Score: inf
ROOT
ATOM      1  C   UNL     1      18.873 -25.342 -28.450  1.00  0.00     0.138 A 
ATOM      2  C   UNL     1      18.485 -24.706 -27.259  1.00  0.00     0.100 A 
ATOM      3  C   UNL     1      19.258 -23.659 -26.755  1.00  0.00     0.197 A 
ATOM      4  O   UNL     1      18.903 -23.096 -25.685  1.00  0.00    -0.289 OA
ATOM      5  C   UNL     1      20.418 -23.257 -27.446  1.00  0.00     0.107 A 
ATOM      6  C   UNL     1      21.257 -22.206 -27.005  1.00  0.00     0.134 A 
ATOM      7  C   UNL     1      22.400 -21.870 -27.748  1.00  0.00     0.093 A 
ATOM      8  C   UNL     1      22.717 -22.566 -28.921  1.00  0.00     0.123 A 
ATOM      9  C   UNL     1      21.892 -23.604 -29.359  1.00  0.00     0.094 A 
ATOM     10  C   UNL     1      20.749 -23.953 -28.633  1.00  0.00     0.146 A 
ATOM     11  O   UNL     1      19.980 -24.944 -29.073  1.00  0.00    -0.456 OA
ENDROOT
BRANCH   1  12
ATOM     12  C   UNL     1      18.090 -26.461 -29.032  1.00  0.00     0.021 A 
ATOM     13  C   UNL     1      17.727 -26.481 -30.393  1.00  0.00     0.016 A 
ATOM     14  C   UNL     1      16.998 -27.552 -30.916  1.00  0.00     0.051 A 
ATOM     15  C   UNL     1      16.624 -28.622 -30.093  1.00  0.00     0.157 A 
ATOM     16  C   UNL     1      17.721 -27.546 -28.216  1.00  0.00     0.062 A 
ATOM     17  C   UNL     1      16.989 -28.619 -28.741  1.00  0.00     0.158 A 
BRANCH  15  18
ATOM     18  O   UNL     1      15.896 -29.691 -30.611  1.00  0.00    -0.504 OA
ATOM     19  H   UNL     1      14.905 -29.613 -30.804  1.00  0.00     0.293 HD
ENDBRANCH  15  18
BRANCH  17  20
ATOM     20  O   UNL     1      16.619 -29.687 -27.924  1.00  0.00    -0.504 OA
ATOM     21  H   UNL     1      16.642 -29.615 -26.914  1.00  0.00     0.293 HD
ENDBRANCH  17  20
ENDBRANCH   1  12
BRANCH   6  22
ATOM     22  O   UNL     1      20.966 -21.496 -25.840  1.00  0.00    -0.507 OA
ATOM     23  H   UNL     1      21.668 -21.326 -25.130  1.00  0.00     0.293 HD
ENDBRANCH   6  22
BRANCH   8  24
ATOM     24  O   UNL     1      23.852 -22.233 -29.658  1.00  0.00    -0.508 OA
ATOM     25  H   UNL     1      24.639 -22.866 -29.735  1.00  0.00     0.293 HD
ENDBRANCH   8  24
TORSDOF 5
ENDMDL
MODEL 9
REMARK VINA RESULT:    -6.311      4.664      6.697
REMARK INTER + INTRA:          -7.688
REMARK INTER:                  -7.382
REMARK INTRA:                  -0.306
REMARK UNBOUND:                -0.271
REMARK SMILES O=c1cc(-c2ccc(O)c(O)c2)oc2cc(O)cc(O)c12
REMARK SMILES IDX 4 1 3 2 2 3 1 4 21 5 19 6 18 7 16 8 15 9 14 10 13 11 5 12
REMARK SMILES IDX 6 13 7 14 8 15 12 16 10 17 9 18 11 20 20 22 17 24
REMARK H PARENT 9 19 11 21 20 23 17 25
REMARK Flexibility Score: inf
ROOT
ATOM      1  C   UNL     1      18.828 -25.184 -28.180  1.00  0.00     0.138 A 
ATOM      2  C   UNL     1      19.771 -24.431 -28.900  1.00  0.00     0.100 A 
ATOM      3  C   UNL     1      20.445 -23.387 -28.265  1.00  0.00     0.197 A 
ATOM      4  O   UNL     1      21.288 -22.715 -28.919  1.00  0.00    -0.289 OA
ATOM      5  C   UNL     1      20.167 -23.100 -26.914  1.00  0.00     0.107 A 
ATOM      6  C   UNL     1      20.805 -22.061 -26.195  1.00  0.00     0.134 A 
ATOM      7  C   UNL     1      20.468 -21.836 -24.852  1.00  0.00     0.093 A 
ATOM      8  C   UNL     1      19.506 -22.631 -24.216  1.00  0.00     0.123 A 
ATOM      9  C   UNL     1      18.875 -23.657 -24.921  1.00  0.00     0.094 A 
ATOM     10  C   UNL     1      19.197 -23.897 -26.260  1.00  0.00     0.146 A 
ATOM     11  O   UNL     1      18.582 -24.882 -26.908  1.00  0.00    -0.456 OA
ENDROOT
BRANCH   1  12
ATOM     12  C   UNL     1      18.081 -26.306 -28.804  1.00  0.00     0.021 A 
ATOM     13  C   UNL     1      17.791 -26.326 -30.182  1.00  0.00     0.016 A 
ATOM     14  C   UNL     1      17.095 -27.400 -30.744  1.00  0.00     0.051 A 
ATOM     15  C   UNL     1      16.684 -28.473 -29.943  1.00  0.00     0.157 A 
ATOM     16  C   UNL     1      17.676 -27.394 -28.010  1.00  0.00     0.062 A 
ATOM     17  C   UNL     1      16.976 -28.470 -28.573  1.00  0.00     0.158 A 
BRANCH  15  18
ATOM     18  O   UNL     1      15.989 -29.544 -30.499  1.00  0.00    -0.504 OA
ATOM     19  H   UNL     1      15.053 -29.785 -30.194  1.00  0.00     0.293 HD
ENDBRANCH  15  18
BRANCH  17  20
ATOM     20  O   UNL     1      16.570 -29.541 -27.779  1.00  0.00    -0.504 OA
ATOM     21  H   UNL     1      16.616 -29.498 -26.768  1.00  0.00     0.293 HD
ENDBRANCH  17  20
ENDBRANCH   1  12
BRANCH   6  22
ATOM     22  O   UNL     1      21.766 -21.253 -26.803  1.00  0.00    -0.507 OA
ATOM     23  H   UNL     1      21.810 -21.142 -27.810  1.00  0.00     0.293 HD
ENDBRANCH   6  22
BRANCH   8  24
ATOM     24  O   UNL     1      19.172 -22.407 -22.882  1.00  0.00    -0.508 OA
ATOM     25  H   UNL     1      18.681 -21.569 -22.592  1.00  0.00     0.293 HD
ENDBRANCH   8  24
TORSDOF 5
ENDMDL
