MODEL 1
REMARK VINA RESULT:    -6.753      0.000      0.000
REMARK INTER + INTRA:          -8.234
REMARK INTER:                  -7.937
REMARK INTRA:                  -0.296
REMARK UNBOUND:                -0.296
REMARK SMILES O=c1cc(-c2ccc(O)c(O)c2)oc2cc(O)cc(O)c12
REMARK SMILES IDX 4 1 3 2 2 3 1 4 21 5 19 6 18 7 16 8 15 9 14 10 13 11 5 12
REMARK SMILES IDX 6 13 7 14 8 15 12 16 10 17 9 18 11 20 20 22 17 24
REMARK H PARENT 9 19 11 21 20 23 17 25
REMARK Flexibility Score: inf
ROOT
ATOM      1  C   UNL     1      -8.146  15.362  -3.588  1.00  0.00     0.138 A 
ATOM      2  C   UNL     1      -9.209  16.145  -3.117  1.00  0.00     0.100 A 
ATOM      3  C   UNL     1      -9.242  16.532  -1.777  1.00  0.00     0.197 A 
ATOM      4  O   UNL     1     -10.176  17.285  -1.398  1.00  0.00    -0.289 OA
ATOM      5  C   UNL     1      -8.218  16.105  -0.897  1.00  0.00     0.107 A 
ATOM      6  C   UNL     1      -8.170  16.405   0.497  1.00  0.00     0.134 A 
ATOM      7  C   UNL     1      -7.047  16.027   1.245  1.00  0.00     0.093 A 
ATOM      8  C   UNL     1      -6.001  15.310   0.664  1.00  0.00     0.123 A 
ATOM      9  C   UNL     1      -6.063  14.966  -0.687  1.00  0.00     0.094 A 
ATOM     10  C   UNL     1      -7.154  15.358  -1.467  1.00  0.00     0.146 A 
ATOM     11  O   UNL     1      -7.169  15.022  -2.753  1.00  0.00    -0.456 OA
ENDROOT
BRANCH   1  12
ATOM     12  C   UNL     1      -8.062  14.922  -5.003  1.00  0.00     0.021 A 
ATOM     13  C   UNL     1      -6.894  14.292  -5.464  1.00  0.00     0.016 A 
ATOM     14  C   UNL     1      -6.793  13.861  -6.789  1.00  0.00     0.051 A 
ATOM     15  C   UNL     1      -7.861  14.045  -7.675  1.00  0.00     0.157 A 
ATOM     16  C   UNL     1      -9.138  15.092  -5.896  1.00  0.00     0.062 A 
ATOM     17  C   UNL     1      -9.040  14.660  -7.224  1.00  0.00     0.158 A 
BRANCH  15  18
ATOM     18  O   UNL     1      -7.757  13.616  -8.997  1.00  0.00    -0.504 OA
ATOM     19  H   UNL     1      -7.358  12.715  -9.233  1.00  0.00     0.293 HD
ENDBRANCH  15  18
BRANCH  17  20
ATOM     20  O   UNL     1     -10.127  14.848  -8.079  1.00  0.00    -0.504 OA
ATOM     21  H   UNL     1     -11.035  15.139  -7.738  1.00  0.00     0.293 HD
ENDBRANCH  17  20
ENDBRANCH   1  12
BRANCH   6  22
ATOM     22  O   UNL     1      -9.198  17.042   1.197  1.00  0.00    -0.507 OA
ATOM     23  H   UNL     1      -9.561  16.742   2.089  1.00  0.00     0.293 HD
ENDBRANCH   6  22
BRANCH   8  24
ATOM     24  O   UNL     1      -4.907  14.938   1.442  1.00  0.00    -0.508 OA
ATOM     25  H   UNL     1      -4.949  14.950   2.455  1.00  0.00     0.293 HD
ENDBRANCH   8  24
TORSDOF 5
ENDMDL
MODEL 2
REMARK VINA RESULT:    -6.738      1.548      3.360
REMARK INTER + INTRA:          -8.216
REMARK INTER:                  -7.920
REMARK INTRA:                  -0.296
REMARK UNBOUND:                -0.296
REMARK SMILES O=c1cc(-c2ccc(O)c(O)c2)oc2cc(O)cc(O)c12
REMARK SMILES IDX 4 1 3 2 2 3 1 4 21 5 19 6 18 7 16 8 15 9 14 10 13 11 5 12
REMARK SMILES IDX 6 13 7 14 8 15 12 16 10 17 9 18 11 20 20 22 17 24
REMARK H PARENT 9 19 11 21 20 23 17 25
REMARK Flexibility Score: inf
ROOT
ATOM      1  C   UNL     1      -7.394  15.148  -2.168  1.00  0.00     0.138 A 
ATOM      2  C   UNL     1      -6.481  14.451  -1.366  1.00  0.00     0.100 A 
ATOM      3  C   UNL     1      -6.529  14.596   0.021  1.00  0.00     0.197 A 
ATOM      4  O   UNL     1      -5.737  13.910   0.718  1.00  0.00    -0.289 OA
ATOM      5  C   UNL     1      -7.478  15.470   0.604  1.00  0.00     0.107 A 
ATOM      6  C   UNL     1      -7.592  15.727   2.003  1.00  0.00     0.134 A 
ATOM      7  C   UNL     1      -8.645  16.521   2.475  1.00  0.00     0.093 A 
ATOM      8  C   UNL     1      -9.551  17.115   1.595  1.00  0.00     0.123 A 
ATOM      9  C   UNL     1      -9.417  16.913   0.221  1.00  0.00     0.094 A 
ATOM     10  C   UNL     1      -8.397  16.098  -0.277  1.00  0.00     0.146 A 
ATOM     11  O   UNL     1      -8.312  15.919  -1.591  1.00  0.00    -0.456 OA
ENDROOT
BRANCH   1  12
ATOM     12  C   UNL     1      -7.388  15.031  -3.648  1.00  0.00     0.021 A 
ATOM     13  C   UNL     1      -8.428  15.611  -4.393  1.00  0.00     0.016 A 
ATOM     14  C   UNL     1      -8.441  15.522  -5.787  1.00  0.00     0.051 A 
ATOM     15  C   UNL     1      -7.409  14.859  -6.462  1.00  0.00     0.157 A 
ATOM     16  C   UNL     1      -6.346  14.377  -4.334  1.00  0.00     0.062 A 
ATOM     17  C   UNL     1      -6.355  14.287  -5.731  1.00  0.00     0.158 A 
BRANCH  15  18
ATOM     18  O   UNL     1      -7.425  14.770  -7.853  1.00  0.00    -0.504 OA
ATOM     19  H   UNL     1      -6.731  15.239  -8.423  1.00  0.00     0.293 HD
ENDBRANCH  15  18
BRANCH  17  20
ATOM     20  O   UNL     1      -5.306  13.630  -6.374  1.00  0.00    -0.504 OA
ATOM     21  H   UNL     1      -5.314  12.629  -6.531  1.00  0.00     0.293 HD
ENDBRANCH  17  20
ENDBRANCH   1  12
BRANCH   6  22
ATOM     22  O   UNL     1      -6.692  15.254   2.962  1.00  0.00    -0.507 OA
ATOM     23  H   UNL     1      -6.754  14.356   3.417  1.00  0.00     0.293 HD
ENDBRANCH   6  22
BRANCH   8  24
ATOM     24  O   UNL     1     -10.577  17.910   2.099  1.00  0.00    -0.508 OA
ATOM     25  H   UNL     1     -10.800  17.924   3.088  1.00  0.00     0.293 HD
ENDBRANCH   8  24
TORSDOF 5
ENDMDL
MODEL 3
REMARK VINA RESULT:    -6.641      0.623      1.500
REMARK INTER + INTRA:          -8.101
REMARK INTER:                  -7.785
REMARK INTRA:                  -0.316
REMARK UNBOUND:                -0.296
REMARK SMILES O=c1cc(-c2ccc(O)c(O)c2)oc2cc(O)cc(O)c12
REMARK SMILES IDX 4 1 3 2 2 3 1 4 21 5 19 6 18 7 16 8 15 9 14 10 13 11 5 12
REMARK SMILES IDX 6 13 7 14 8 15 12 16 10 17 9 18 11 20 20 22 17 24
REMARK H PARENT 9 19 11 21 20 23 17 25
REMARK Flexibility Score: inf
ROOT
ATOM      1  C   UNL     1      -8.155  15.375  -3.527  1.00  0.00     0.138 A 
ATOM      2  C   UNL     1      -9.244  16.133  -3.077  1.00  0.00     0.100 A 
ATOM      3  C   UNL     1      -9.298  16.542  -1.744  1.00  0.00     0.197 A 
ATOM      4  O   UNL     1     -10.257  17.273  -1.385  1.00  0.00    -0.289 OA
ATOM      5  C   UNL     1      -8.269  16.161  -0.850  1.00  0.00     0.107 A 
ATOM      6  C   UNL     1      -8.240  16.485   0.539  1.00  0.00     0.134 A 
ATOM      7  C   UNL     1      -7.112  16.154   1.301  1.00  0.00     0.093 A 
ATOM      8  C   UNL     1      -6.041  15.458   0.740  1.00  0.00     0.123 A 
ATOM      9  C   UNL     1      -6.083  15.089  -0.605  1.00  0.00     0.094 A 
ATOM     10  C   UNL     1      -7.179  15.435  -1.399  1.00  0.00     0.146 A 
ATOM     11  O   UNL     1      -7.174  15.078  -2.679  1.00  0.00    -0.456 OA
ENDROOT
BRANCH   1  12
ATOM     12  C   UNL     1      -8.047  14.913  -4.934  1.00  0.00     0.021 A 
ATOM     13  C   UNL     1      -9.151  15.045  -5.793  1.00  0.00     0.016 A 
ATOM     14  C   UNL     1      -9.072  14.625  -7.123  1.00  0.00     0.051 A 
ATOM     15  C   UNL     1      -7.885  14.073  -7.620  1.00  0.00     0.157 A 
ATOM     16  C   UNL     1      -6.851  14.368  -5.444  1.00  0.00     0.062 A 
ATOM     17  C   UNL     1      -6.769  13.948  -6.777  1.00  0.00     0.158 A 
BRANCH  15  18
ATOM     18  O   UNL     1      -7.810  13.653  -8.947  1.00  0.00    -0.504 OA
ATOM     19  H   UNL     1      -8.462  12.979  -9.329  1.00  0.00     0.293 HD
ENDBRANCH  15  18
BRANCH  17  20
ATOM     20  O   UNL     1      -5.569  13.413  -7.245  1.00  0.00    -0.504 OA
ATOM     21  H   UNL     1      -5.537  12.752  -8.012  1.00  0.00     0.293 HD
ENDBRANCH  17  20
ENDBRANCH   1  12
BRANCH   6  22
ATOM     22  O   UNL     1      -9.292  17.104   1.220  1.00  0.00    -0.507 OA
ATOM     23  H   UNL     1      -9.875  16.655   1.911  1.00  0.00     0.293 HD
ENDBRANCH   6  22
BRANCH   8  24
ATOM     24  O   UNL     1      -4.943  15.132   1.533  1.00  0.00    -0.508 OA
ATOM     25  H   UNL     1      -4.336  14.353   1.303  1.00  0.00     0.293 HD
ENDBRANCH   8  24
TORSDOF 5
ENDMDL
MODEL 4
REMARK VINA RESULT:    -6.419      1.748      7.364
REMARK INTER + INTRA:          -7.841
REMARK INTER:                  -7.574
REMARK INTRA:                  -0.267
REMARK UNBOUND:                -0.296
REMARK SMILES O=c1cc(-c2ccc(O)c(O)c2)oc2cc(O)cc(O)c12
REMARK SMILES IDX 4 1 3 2 2 3 1 4 21 5 19 6 18 7 16 8 15 9 14 10 13 11 5 12
REMARK SMILES IDX 6 13 7 14 8 15 12 16 10 17 9 18 11 20 20 22 17 24
REMARK H PARENT 9 19 11 21 20 23 17 25
REMARK Flexibility Score: inf
ROOT
ATOM      1  C   UNL     1      -7.417  14.352  -2.822  1.00  0.00     0.138 A 
ATOM      2  C   UNL     1      -7.470  12.952  -2.869  1.00  0.00     0.100 A 
ATOM      3  C   UNL     1      -7.575  12.305  -4.101  1.00  0.00     0.197 A 
ATOM      4  O   UNL     1      -7.558  11.047  -4.116  1.00  0.00    -0.289 OA
ATOM      5  C   UNL     1      -7.659  13.069  -5.291  1.00  0.00     0.107 A 
ATOM      6  C   UNL     1      -7.809  12.519  -6.599  1.00  0.00     0.134 A 
ATOM      7  C   UNL     1      -7.764  13.367  -7.713  1.00  0.00     0.093 A 
ATOM      8  C   UNL     1      -7.634  14.748  -7.563  1.00  0.00     0.123 A 
ATOM      9  C   UNL     1      -7.540  15.301  -6.286  1.00  0.00     0.094 A 
ATOM     10  C   UNL     1      -7.548  14.478  -5.157  1.00  0.00     0.146 A 
ATOM     11  O   UNL     1      -7.441  15.043  -3.958  1.00  0.00    -0.456 OA
ENDROOT
BRANCH   1  12
ATOM     12  C   UNL     1      -7.306  15.091  -1.540  1.00  0.00     0.021 A 
ATOM     13  C   UNL     1      -8.307  16.009  -1.181  1.00  0.00     0.016 A 
ATOM     14  C   UNL     1      -8.229  16.712   0.024  1.00  0.00     0.051 A 
ATOM     15  C   UNL     1      -7.154  16.502   0.897  1.00  0.00     0.157 A 
ATOM     16  C   UNL     1      -6.234  14.875  -0.651  1.00  0.00     0.062 A 
ATOM     17  C   UNL     1      -6.155  15.576   0.558  1.00  0.00     0.158 A 
BRANCH  15  18
ATOM     18  O   UNL     1      -7.079  17.205   2.097  1.00  0.00    -0.504 OA
ATOM     19  H   UNL     1      -6.955  18.210   2.117  1.00  0.00     0.293 HD
ENDBRANCH  15  18
BRANCH  17  20
ATOM     20  O   UNL     1      -5.077  15.335   1.410  1.00  0.00    -0.504 OA
ATOM     21  H   UNL     1      -5.116  14.637   2.143  1.00  0.00     0.293 HD
ENDBRANCH  17  20
ENDBRANCH   1  12
BRANCH   6  22
ATOM     22  O   UNL     1      -8.030  11.163  -6.857  1.00  0.00    -0.507 OA
ATOM     23  H   UNL     1      -7.309  10.457  -6.883  1.00  0.00     0.293 HD
ENDBRANCH   6  22
BRANCH   8  24
ATOM     24  O   UNL     1      -7.608  15.561  -8.694  1.00  0.00    -0.508 OA
ATOM     25  H   UNL     1      -7.471  16.563  -8.622  1.00  0.00     0.293 HD
ENDBRANCH   8  24
TORSDOF 5
ENDMDL
MODEL 5
REMARK VINA RESULT:    -6.369      2.876      5.368
REMARK INTER + INTRA:          -7.782
REMARK INTER:                  -7.512
REMARK INTRA:                  -0.270
REMARK UNBOUND:                -0.296
REMARK SMILES O=c1cc(-c2ccc(O)c(O)c2)oc2cc(O)cc(O)c12
REMARK SMILES IDX 4 1 3 2 2 3 1 4 21 5 19 6 18 7 16 8 15 9 14 10 13 11 5 12
REMARK SMILES IDX 6 13 7 14 8 15 12 16 10 17 9 18 11 20 20 22 17 24
REMARK H PARENT 9 19 11 21 20 23 17 25
REMARK Flexibility Score: inf
ROOT
ATOM      1  C   UNL     1      -7.455  16.033   1.015  1.00  0.00     0.138 A 
ATOM      2  C   UNL     1      -7.482  14.819   1.716  1.00  0.00     0.100 A 
ATOM      3  C   UNL     1      -7.181  14.801   3.078  1.00  0.00     0.197 A 
ATOM      4  O   UNL     1      -7.273  13.707   3.692  1.00  0.00    -0.289 OA
ATOM      5  C   UNL     1      -6.820  16.002   3.734  1.00  0.00     0.107 A 
ATOM      6  C   UNL     1      -6.454  16.096   5.110  1.00  0.00     0.134 A 
ATOM      7  C   UNL     1      -6.229  17.356   5.679  1.00  0.00     0.093 A 
ATOM      8  C   UNL     1      -6.298  18.518   4.910  1.00  0.00     0.123 A 
ATOM      9  C   UNL     1      -6.603  18.432   3.551  1.00  0.00     0.094 A 
ATOM     10  C   UNL     1      -6.866  17.193   2.962  1.00  0.00     0.146 A 
ATOM     11  O   UNL     1      -7.167  17.155   1.668  1.00  0.00    -0.456 OA
ENDROOT
BRANCH   1  12
ATOM     12  C   UNL     1      -7.766  16.110  -0.434  1.00  0.00     0.021 A 
ATOM     13  C   UNL     1      -8.794  16.958  -0.878  1.00  0.00     0.016 A 
ATOM     14  C   UNL     1      -9.101  17.054  -2.237  1.00  0.00     0.051 A 
ATOM     15  C   UNL     1      -8.379  16.311  -3.179  1.00  0.00     0.157 A 
ATOM     16  C   UNL     1      -7.034  15.374  -1.388  1.00  0.00     0.062 A 
ATOM     17  C   UNL     1      -7.339  15.470  -2.751  1.00  0.00     0.158 A 
BRANCH  15  18
ATOM     18  O   UNL     1      -8.688  16.408  -4.534  1.00  0.00    -0.504 OA
ATOM     19  H   UNL     1      -7.966  16.412  -5.245  1.00  0.00     0.293 HD
ENDBRANCH  15  18
BRANCH  17  20
ATOM     20  O   UNL     1      -6.593  14.725  -3.665  1.00  0.00    -0.504 OA
ATOM     21  H   UNL     1      -6.126  13.865  -3.404  1.00  0.00     0.293 HD
ENDBRANCH  17  20
ENDBRANCH   1  12
BRANCH   6  22
ATOM     22  O   UNL     1      -6.273  14.993   5.949  1.00  0.00    -0.507 OA
ATOM     23  H   UNL     1      -5.425  14.786   6.454  1.00  0.00     0.293 HD
ENDBRANCH   6  22
BRANCH   8  24
ATOM     24  O   UNL     1      -6.054  19.753   5.507  1.00  0.00    -0.508 OA
ATOM     25  H   UNL     1      -5.197  20.266   5.331  1.00  0.00     0.293 HD
ENDBRANCH   8  24
TORSDOF 5
ENDMDL
MODEL 6
REMARK VINA RESULT:    -6.093      1.758      7.064
REMARK INTER + INTRA:          -7.457
REMARK INTER:                  -7.186
REMARK INTRA:                  -0.271
REMARK UNBOUND:                -0.296
REMARK SMILES O=c1cc(-c2ccc(O)c(O)c2)oc2cc(O)cc(O)c12
REMARK SMILES IDX 4 1 3 2 2 3 1 4 21 5 19 6 18 7 16 8 15 9 14 10 13 11 5 12
REMARK SMILES IDX 6 13 7 14 8 15 12 16 10 17 9 18 11 20 20 22 17 24
REMARK H PARENT 9 19 11 21 20 23 17 25
REMARK Flexibility Score: inf
ROOT
ATOM      1  C   UNL     1      -8.513  15.084  -2.072  1.00  0.00     0.138 A 
ATOM      2  C   UNL     1      -9.700  14.339  -2.082  1.00  0.00     0.100 A 
ATOM      3  C   UNL     1     -10.219  13.885  -3.295  1.00  0.00     0.197 A 
ATOM      4  O   UNL     1     -11.252  13.167  -3.267  1.00  0.00    -0.289 OA
ATOM      5  C   UNL     1      -9.561  14.207  -4.506  1.00  0.00     0.107 A 
ATOM      6  C   UNL     1     -10.022  13.833  -5.804  1.00  0.00     0.134 A 
ATOM      7  C   UNL     1      -9.225  14.107  -6.924  1.00  0.00     0.093 A 
ATOM      8  C   UNL     1      -8.018  14.793  -6.799  1.00  0.00     0.123 A 
ATOM      9  C   UNL     1      -7.584  15.211  -5.541  1.00  0.00     0.094 A 
ATOM     10  C   UNL     1      -8.339  14.922  -4.401  1.00  0.00     0.146 A 
ATOM     11  O   UNL     1      -7.884  15.325  -3.219  1.00  0.00    -0.456 OA
ENDROOT
BRANCH   1  12
ATOM     12  C   UNL     1      -7.916  15.593  -0.811  1.00  0.00     0.021 A 
ATOM     13  C   UNL     1      -8.598  16.571  -0.068  1.00  0.00     0.016 A 
ATOM     14  C   UNL     1      -8.061  17.060   1.126  1.00  0.00     0.051 A 
ATOM     15  C   UNL     1      -6.837  16.574   1.602  1.00  0.00     0.157 A 
ATOM     16  C   UNL     1      -6.691  15.099  -0.320  1.00  0.00     0.062 A 
ATOM     17  C   UNL     1      -6.152  15.586   0.876  1.00  0.00     0.158 A 
BRANCH  15  18
ATOM     18  O   UNL     1      -6.304  17.065   2.792  1.00  0.00    -0.504 OA
ATOM     19  H   UNL     1      -6.866  17.153   3.630  1.00  0.00     0.293 HD
ENDBRANCH  15  18
BRANCH  17  20
ATOM     20  O   UNL     1      -4.937  15.073   1.330  1.00  0.00    -0.504 OA
ATOM     21  H   UNL     1      -4.077  15.606   1.284  1.00  0.00     0.293 HD
ENDBRANCH  17  20
ENDBRANCH   1  12
BRANCH   6  22
ATOM     22  O   UNL     1     -11.253  13.218  -6.051  1.00  0.00    -0.507 OA
ATOM     23  H   UNL     1     -11.545  12.852  -6.944  1.00  0.00     0.293 HD
ENDBRANCH   6  22
BRANCH   8  24
ATOM     24  O   UNL     1      -7.260  15.062  -7.937  1.00  0.00    -0.508 OA
ATOM     25  H   UNL     1      -7.338  15.944  -8.430  1.00  0.00     0.293 HD
ENDBRANCH   8  24
TORSDOF 5
ENDMDL
MODEL 7
REMARK VINA RESULT:    -5.790      3.177      8.485
REMARK INTER + INTRA:          -7.102
REMARK INTER:                  -6.790
REMARK INTRA:                  -0.312
REMARK UNBOUND:                -0.296
REMARK SMILES O=c1cc(-c2ccc(O)c(O)c2)oc2cc(O)cc(O)c12
REMARK SMILES IDX 4 1 3 2 2 3 1 4 21 5 19 6 18 7 16 8 15 9 14 10 13 11 5 12
REMARK SMILES IDX 6 13 7 14 8 15 12 16 10 17 9 18 11 20 20 22 17 24
REMARK H PARENT 9 19 11 21 20 23 17 25
REMARK Flexibility Score: inf
ROOT
ATOM      1  C   UNL     1      -7.485  16.502   2.012  1.00  0.00     0.138 A 
ATOM      2  C   UNL     1      -7.520  15.115   2.206  1.00  0.00     0.100 A 
ATOM      3  C   UNL     1      -7.812  14.274   1.131  1.00  0.00     0.197 A 
ATOM      4  O   UNL     1      -7.776  13.031   1.322  1.00  0.00    -0.289 OA
ATOM      5  C   UNL     1      -8.100  14.831  -0.138  1.00  0.00     0.107 A 
ATOM      6  C   UNL     1      -8.450  14.073  -1.296  1.00  0.00     0.134 A 
ATOM      7  C   UNL     1      -8.600  14.724  -2.527  1.00  0.00     0.093 A 
ATOM      8  C   UNL     1      -8.471  16.110  -2.631  1.00  0.00     0.123 A 
ATOM      9  C   UNL     1      -8.182  16.866  -1.494  1.00  0.00     0.094 A 
ATOM     10  C   UNL     1      -7.993  16.242  -0.259  1.00  0.00     0.146 A 
ATOM     11  O   UNL     1      -7.704  16.996   0.797  1.00  0.00    -0.456 OA
ENDROOT
BRANCH   1  12
ATOM     12  C   UNL     1      -7.181  17.443   3.120  1.00  0.00     0.021 A 
ATOM     13  C   UNL     1      -6.503  16.975   4.259  1.00  0.00     0.016 A 
ATOM     14  C   UNL     1      -6.199  17.842   5.312  1.00  0.00     0.051 A 
ATOM     15  C   UNL     1      -6.560  19.193   5.241  1.00  0.00     0.157 A 
ATOM     16  C   UNL     1      -7.530  18.806   3.050  1.00  0.00     0.062 A 
ATOM     17  C   UNL     1      -7.225  19.677   4.103  1.00  0.00     0.158 A 
BRANCH  15  18
ATOM     18  O   UNL     1      -6.256  20.055   6.294  1.00  0.00    -0.504 OA
ATOM     19  H   UNL     1      -5.332  20.085   6.706  1.00  0.00     0.293 HD
ENDBRANCH  15  18
BRANCH  17  20
ATOM     20  O   UNL     1      -7.587  21.020   3.997  1.00  0.00    -0.504 OA
ATOM     21  H   UNL     1      -7.428  21.681   4.748  1.00  0.00     0.293 HD
ENDBRANCH  17  20
ENDBRANCH   1  12
BRANCH   6  22
ATOM     22  O   UNL     1      -8.686  12.695  -1.287  1.00  0.00    -0.507 OA
ATOM     23  H   UNL     1      -8.496  12.083  -0.509  1.00  0.00     0.293 HD
ENDBRANCH   6  22
BRANCH   8  24
ATOM     24  O   UNL     1      -8.642  16.724  -3.869  1.00  0.00    -0.508 OA
ATOM     25  H   UNL     1      -8.153  16.397  -4.695  1.00  0.00     0.293 HD
ENDBRANCH   8  24
TORSDOF 5
ENDMDL
MODEL 8
REMARK VINA RESULT:    -5.714      1.948      7.025
REMARK INTER + INTRA:          -7.012
REMARK INTER:                  -6.720
REMARK INTRA:                  -0.292
REMARK UNBOUND:                -0.296
REMARK SMILES O=c1cc(-c2ccc(O)c(O)c2)oc2cc(O)cc(O)c12
REMARK SMILES IDX 4 1 3 2 2 3 1 4 21 5 19 6 18 7 16 8 15 9 14 10 13 11 5 12
REMARK SMILES IDX 6 13 7 14 8 15 12 16 10 17 9 18 11 20 20 22 17 24
REMARK H PARENT 9 19 11 21 20 23 17 25
REMARK Flexibility Score: inf
ROOT
ATOM      1  C   UNL     1      -8.265  15.451  -1.153  1.00  0.00     0.138 A 
ATOM      2  C   UNL     1      -9.579  15.049  -1.427  1.00  0.00     0.100 A 
ATOM      3  C   UNL     1      -9.892  14.514  -2.677  1.00  0.00     0.197 A 
ATOM      4  O   UNL     1     -11.066  14.105  -2.872  1.00  0.00    -0.289 OA
ATOM      5  C   UNL     1      -8.886  14.411  -3.668  1.00  0.00     0.107 A 
ATOM      6  C   UNL     1      -9.099  13.919  -4.991  1.00  0.00     0.134 A 
ATOM      7  C   UNL     1      -8.004  13.754  -5.849  1.00  0.00     0.093 A 
ATOM      8  C   UNL     1      -6.717  14.118  -5.455  1.00  0.00     0.123 A 
ATOM      9  C   UNL     1      -6.506  14.649  -4.182  1.00  0.00     0.094 A 
ATOM     10  C   UNL     1      -7.572  14.794  -3.291  1.00  0.00     0.146 A 
ATOM     11  O   UNL     1      -7.328  15.291  -2.083  1.00  0.00    -0.456 OA
ENDROOT
BRANCH   1  12
ATOM     12  C   UNL     1      -7.877  16.027   0.160  1.00  0.00     0.021 A 
ATOM     13  C   UNL     1      -6.532  15.989   0.562  1.00  0.00     0.016 A 
ATOM     14  C   UNL     1      -6.140  16.532   1.789  1.00  0.00     0.051 A 
ATOM     15  C   UNL     1      -7.086  17.129   2.631  1.00  0.00     0.157 A 
ATOM     16  C   UNL     1      -8.822  16.641   1.006  1.00  0.00     0.062 A 
ATOM     17  C   UNL     1      -8.432  17.186   2.235  1.00  0.00     0.158 A 
BRANCH  15  18
ATOM     18  O   UNL     1      -6.693  17.667   3.855  1.00  0.00    -0.504 OA
ATOM     19  H   UNL     1      -6.591  17.090   4.681  1.00  0.00     0.293 HD
ENDBRANCH  15  18
BRANCH  17  20
ATOM     20  O   UNL     1      -9.397  17.785   3.046  1.00  0.00    -0.504 OA
ATOM     21  H   UNL     1      -9.180  18.134   3.972  1.00  0.00     0.293 HD
ENDBRANCH  17  20
ENDBRANCH   1  12
BRANCH   6  22
ATOM     22  O   UNL     1     -10.355  13.605  -5.517  1.00  0.00    -0.507 OA
ATOM     23  H   UNL     1     -10.653  12.680  -5.785  1.00  0.00     0.293 HD
ENDBRANCH   6  22
BRANCH   8  24
ATOM     24  O   UNL     1      -5.654  13.953  -6.341  1.00  0.00    -0.508 OA
ATOM     25  H   UNL     1      -4.772  13.552  -6.042  1.00  0.00     0.293 HD
ENDBRANCH   8  24
TORSDOF 5
ENDMDL
MODEL 9
REMARK VINA RESULT:    -5.684      2.101      2.454
REMARK INTER + INTRA:          -6.978
REMARK INTER:                  -6.715
REMARK INTRA:                  -0.263
REMARK UNBOUND:                -0.296
REMARK SMILES O=c1cc(-c2ccc(O)c(O)c2)oc2cc(O)cc(O)c12
REMARK SMILES IDX 4 1 3 2 2 3 1 4 21 5 19 6 18 7 16 8 15 9 14 10 13 11 5 12
REMARK SMILES IDX 6 13 7 14 8 15 12 16 10 17 9 18 11 20 20 22 17 24
REMARK H PARENT 9 19 11 21 20 23 17 25
REMARK Flexibility Score: inf
ROOT
ATOM      1  C   UNL     1      -7.952  14.891  -1.981  1.00  0.00     0.138 A 
ATOM      2  C   UNL     1      -9.076  15.725  -2.046  1.00  0.00     0.100 A 
ATOM      3  C   UNL     1      -9.448  16.473  -0.928  1.00  0.00     0.197 A 
ATOM      4  O   UNL     1     -10.425  17.258  -1.037  1.00  0.00    -0.289 OA
ATOM      5  C   UNL     1      -8.706  16.359   0.272  1.00  0.00     0.107 A 
ATOM      6  C   UNL     1      -9.017  17.041   1.486  1.00  0.00     0.134 A 
ATOM      7  C   UNL     1      -8.143  16.942   2.576  1.00  0.00     0.093 A 
ATOM      8  C   UNL     1      -7.004  16.139   2.517  1.00  0.00     0.123 A 
ATOM      9  C   UNL     1      -6.720  15.425   1.352  1.00  0.00     0.094 A 
ATOM     10  C   UNL     1      -7.553  15.530   0.236  1.00  0.00     0.146 A 
ATOM     11  O   UNL     1      -7.240  14.846  -0.859  1.00  0.00    -0.456 OA
ENDROOT
BRANCH   1  12
ATOM     12  C   UNL     1      -7.512  14.074  -3.139  1.00  0.00     0.021 A 
ATOM     13  C   UNL     1      -7.832  12.706  -3.183  1.00  0.00     0.016 A 
ATOM     14  C   UNL     1      -7.436  11.917  -4.266  1.00  0.00     0.051 A 
ATOM     15  C   UNL     1      -6.721  12.483  -5.329  1.00  0.00     0.157 A 
ATOM     16  C   UNL     1      -6.803  14.640  -4.218  1.00  0.00     0.062 A 
ATOM     17  C   UNL     1      -6.407  13.851  -5.305  1.00  0.00     0.158 A 
BRANCH  15  18
ATOM     18  O   UNL     1      -6.326  11.693  -6.407  1.00  0.00    -0.504 OA
ATOM     19  H   UNL     1      -6.690  10.757  -6.541  1.00  0.00     0.293 HD
ENDBRANCH  15  18
BRANCH  17  20
ATOM     20  O   UNL     1      -5.706  14.448  -6.353  1.00  0.00    -0.504 OA
ATOM     21  H   UNL     1      -5.763  14.102  -7.303  1.00  0.00     0.293 HD
ENDBRANCH  17  20
ENDBRANCH   1  12
BRANCH   6  22
ATOM     22  O   UNL     1     -10.173  17.803   1.682  1.00  0.00    -0.507 OA
ATOM     23  H   UNL     1     -11.111  17.484   1.494  1.00  0.00     0.293 HD
ENDBRANCH   6  22
BRANCH   8  24
ATOM     24  O   UNL     1      -6.166  16.052   3.626  1.00  0.00    -0.508 OA
ATOM     25  H   UNL     1      -6.345  16.586   4.469  1.00  0.00     0.293 HD
ENDBRANCH   8  24
TORSDOF 5
ENDMDL
