MODEL 1
REMARK VINA RESULT:    -4.799      0.000      0.000
REMARK INTER + INTRA:         -14.506
REMARK INTER:                 -10.970
REMARK INTRA:                  -3.536
REMARK UNBOUND:                -3.536
REMARK SMILES CCCCCCCCCCCCCCCCCCCCCCCC(=O)[O-]
REMARK SMILES IDX 13 1 14 2 15 3 16 4 17 5 18 6 19 7 20 8 21 9 22 10 23 11
REMARK SMILES IDX 24 12 25 13 26 14 12 15 11 16 10 17 9 18 8 19 7 20 6 21 5 22
REMARK SMILES IDX 4 23 3 24 2 25 1 26
REMARK H PARENT
REMARK Flexibility Score: inf
ROOT
ATOM      1  C   UNL     1     138.216 133.003 139.129  1.00  0.00     0.000 C 
ENDROOT
BRANCH   1   2
ATOM      2  C   UNL     1     139.353 133.725 138.388  1.00  0.00     0.000 C 
BRANCH   2   3
ATOM      3  C   UNL     1     140.631 133.871 139.237  1.00  0.00     0.000 C 
BRANCH   3   4
ATOM      4  C   UNL     1     140.829 135.247 139.900  1.00  0.00     0.000 C 
BRANCH   4   5
ATOM      5  C   UNL     1     140.617 135.279 141.426  1.00  0.00     0.000 C 
BRANCH   5   6
ATOM      6  C   UNL     1     139.671 136.402 141.907  1.00  0.00     0.000 C 
BRANCH   6   7
ATOM      7  C   UNL     1     138.892 137.058 140.755  1.00  0.00     0.000 C 
BRANCH   7   8
ATOM      8  C   UNL     1     137.704 137.904 141.244  1.00  0.00     0.000 C 
BRANCH   8   9
ATOM      9  C   UNL     1     136.644 138.168 140.154  1.00  0.00     0.000 C 
BRANCH   9  10
ATOM     10  C   UNL     1     135.515 139.082 140.658  1.00  0.00     0.006 C 
BRANCH  10  11
ATOM     11  C   UNL     1     135.885 139.798 141.964  1.00  0.00     0.053 C 
BRANCH  11  12
ATOM     12  C   UNL     1     136.133 141.261 141.749  1.00  0.00     0.041 C 
ATOM     13  O   UNL     1     137.258 141.662 141.349  1.00  0.00    -0.550 OA
ATOM     14  O   UNL     1     135.112 142.179 141.965  1.00  0.00    -0.550 OA
ENDBRANCH  11  12
ENDBRANCH  10  11
ENDBRANCH   9  10
ENDBRANCH   8   9
ENDBRANCH   7   8
ENDBRANCH   6   7
ENDBRANCH   5   6
ENDBRANCH   4   5
ENDBRANCH   3   4
ENDBRANCH   2   3
ENDBRANCH   1   2
BRANCH   1  15
ATOM     15  C   UNL     1     137.295 133.973 139.891  1.00  0.00     0.000 C 
BRANCH  15  16
ATOM     16  C   UNL     1     137.259 133.766 141.416  1.00  0.00     0.000 C 
BRANCH  16  17
ATOM     17  C   UNL     1     136.140 134.564 142.101  1.00  0.00     0.000 C 
BRANCH  17  18
ATOM     18  C   UNL     1     135.023 134.905 141.105  1.00  0.00    -0.000 C 
BRANCH  18  19
ATOM     19  C   UNL     1     133.934 135.812 141.707  1.00  0.00    -0.000 C 
BRANCH  19  20
ATOM     20  C   UNL     1     132.673 135.983 140.841  1.00  0.00    -0.000 C 
BRANCH  20  21
ATOM     21  C   UNL     1     132.963 135.880 139.333  1.00  0.00    -0.000 C 
BRANCH  21  22
ATOM     22  C   UNL     1     132.110 134.802 138.645  1.00  0.00    -0.000 C 
BRANCH  22  23
ATOM     23  C   UNL     1     132.759 133.409 138.703  1.00  0.00    -0.000 C 
BRANCH  23  24
ATOM     24  C   UNL     1     131.789 132.321 139.193  1.00  0.00    -0.000 C 
BRANCH  24  25
ATOM     25  C   UNL     1     130.540 132.886 139.902  1.00  0.00    -0.003 C 
ATOM     26  C   UNL     1     130.298 132.228 141.260  1.00  0.00     0.004 C 
ENDBRANCH  24  25
ENDBRANCH  23  24
ENDBRANCH  22  23
ENDBRANCH  21  22
ENDBRANCH  20  21
ENDBRANCH  19  20
ENDBRANCH  18  19
ENDBRANCH  17  18
ENDBRANCH  16  17
ENDBRANCH  15  16
ENDBRANCH   1  15
TORSDOF 22
ENDMDL
MODEL 2
REMARK VINA RESULT:    -4.648      5.659      8.175
REMARK INTER + INTRA:         -14.162
REMARK INTER:                 -11.201
REMARK INTRA:                  -2.960
REMARK UNBOUND:                -3.536
REMARK SMILES CCCCCCCCCCCCCCCCCCCCCCCC(=O)[O-]
REMARK SMILES IDX 13 1 14 2 15 3 16 4 17 5 18 6 19 7 20 8 21 9 22 10 23 11
REMARK SMILES IDX 24 12 25 13 26 14 12 15 11 16 10 17 9 18 8 19 7 20 6 21 5 22
REMARK SMILES IDX 4 23 3 24 2 25 1 26
REMARK H PARENT
REMARK Flexibility Score: inf
ROOT
ATOM      1  C   UNL     1     132.469 137.673 137.425  1.00  0.00     0.000 C 
ENDROOT
BRANCH   1   2
ATOM      2  C   UNL     1     131.298 138.629 137.712  1.00  0.00     0.000 C 
BRANCH   2   3
ATOM      3  C   UNL     1     131.616 139.658 138.814  1.00  0.00     0.000 C 
BRANCH   3   4
ATOM      4  C   UNL     1     131.438 139.153 140.258  1.00  0.00     0.000 C 
BRANCH   4   5
ATOM      5  C   UNL     1     131.212 140.251 141.316  1.00  0.00     0.000 C 
BRANCH   5   6
ATOM      6  C   UNL     1     130.697 141.587 140.738  1.00  0.00     0.000 C 
BRANCH   6   7
ATOM      7  C   UNL     1     129.633 142.250 141.629  1.00  0.00     0.000 C 
BRANCH   7   8
ATOM      8  C   UNL     1     128.353 142.613 140.858  1.00  0.00     0.000 C 
BRANCH   8   9
ATOM      9  C   UNL     1     128.339 142.094 139.405  1.00  0.00     0.000 C 
BRANCH   9  10
ATOM     10  C   UNL     1     127.265 142.790 138.553  1.00  0.00     0.006 C 
BRANCH  10  11
ATOM     11  C   UNL     1     126.146 143.398 139.411  1.00  0.00     0.053 C 
BRANCH  11  12
ATOM     12  C   UNL     1     126.106 144.892 139.300  1.00  0.00     0.041 C 
ATOM     13  O   UNL     1     126.373 145.610 140.300  1.00  0.00    -0.550 OA
ATOM     14  O   UNL     1     125.799 145.492 138.084  1.00  0.00    -0.550 OA
ENDBRANCH  11  12
ENDBRANCH  10  11
ENDBRANCH   9  10
ENDBRANCH   8   9
ENDBRANCH   7   8
ENDBRANCH   6   7
ENDBRANCH   5   6
ENDBRANCH   4   5
ENDBRANCH   3   4
ENDBRANCH   2   3
ENDBRANCH   1   2
BRANCH   1  15
ATOM     15  C   UNL     1     132.230 136.259 137.984  1.00  0.00     0.000 C 
BRANCH  15  16
ATOM     16  C   UNL     1     132.970 135.951 139.298  1.00  0.00     0.000 C 
BRANCH  16  17
ATOM     17  C   UNL     1     132.951 134.458 139.658  1.00  0.00     0.000 C 
BRANCH  17  18
ATOM     18  C   UNL     1     132.383 133.623 138.502  1.00  0.00    -0.000 C 
BRANCH  18  19
ATOM     19  C   UNL     1     131.797 132.276 138.962  1.00  0.00    -0.000 C 
BRANCH  19  20
ATOM     20  C   UNL     1     131.290 132.245 140.415  1.00  0.00    -0.000 C 
BRANCH  20  21
ATOM     21  C   UNL     1     129.757 132.332 140.518  1.00  0.00    -0.000 C 
BRANCH  21  22
ATOM     22  C   UNL     1     129.295 133.496 141.409  1.00  0.00    -0.000 C 
BRANCH  22  23
ATOM     23  C   UNL     1     128.467 134.537 140.638  1.00  0.00    -0.000 C 
BRANCH  23  24
ATOM     24  C   UNL     1     129.331 135.660 140.041  1.00  0.00    -0.000 C 
BRANCH  24  25
ATOM     25  C   UNL     1     128.640 136.421 138.890  1.00  0.00    -0.003 C 
ATOM     26  C   UNL     1     128.035 137.746 139.352  1.00  0.00     0.004 C 
ENDBRANCH  24  25
ENDBRANCH  23  24
ENDBRANCH  22  23
ENDBRANCH  21  22
ENDBRANCH  20  21
ENDBRANCH  19  20
ENDBRANCH  18  19
ENDBRANCH  17  18
ENDBRANCH  16  17
ENDBRANCH  15  16
ENDBRANCH   1  15
TORSDOF 22
ENDMDL
MODEL 3
REMARK VINA RESULT:    -4.529      4.247      7.012
REMARK INTER + INTRA:         -13.889
REMARK INTER:                 -10.813
REMARK INTRA:                  -3.075
REMARK UNBOUND:                -3.536
REMARK SMILES CCCCCCCCCCCCCCCCCCCCCCCC(=O)[O-]
REMARK SMILES IDX 13 1 14 2 15 3 16 4 17 5 18 6 19 7 20 8 21 9 22 10 23 11
REMARK SMILES IDX 24 12 25 13 26 14 12 15 11 16 10 17 9 18 8 19 7 20 6 21 5 22
REMARK SMILES IDX 4 23 3 24 2 25 1 26
REMARK H PARENT
REMARK Flexibility Score: inf
ROOT
ATOM      1  C   UNL     1     134.733 138.320 138.940  1.00  0.00     0.000 C 
ENDROOT
BRANCH   1   2
ATOM      2  C   UNL     1     133.810 138.036 140.137  1.00  0.00     0.000 C 
BRANCH   2   3
ATOM      3  C   UNL     1     134.100 136.684 140.816  1.00  0.00     0.000 C 
BRANCH   3   4
ATOM      4  C   UNL     1     134.836 135.651 139.941  1.00  0.00     0.000 C 
BRANCH   4   5
ATOM      5  C   UNL     1     136.312 135.408 140.310  1.00  0.00     0.000 C 
BRANCH   5   6
ATOM      6  C   UNL     1     136.763 136.118 141.604  1.00  0.00     0.000 C 
BRANCH   6   7
ATOM      7  C   UNL     1     138.186 136.693 141.503  1.00  0.00     0.000 C 
BRANCH   7   8
ATOM      8  C   UNL     1     138.652 136.878 140.048  1.00  0.00     0.000 C 
BRANCH   8   9
ATOM      9  C   UNL     1     139.991 136.178 139.735  1.00  0.00     0.000 C 
BRANCH   9  10
ATOM     10  C   UNL     1     140.269 135.009 140.695  1.00  0.00     0.006 C 
BRANCH  10  11
ATOM     11  C   UNL     1     139.603 133.706 140.231  1.00  0.00     0.053 C 
BRANCH  11  12
ATOM     12  C   UNL     1     139.833 133.449 138.773  1.00  0.00     0.041 C 
ATOM     13  O   UNL     1     138.887 133.570 137.950  1.00  0.00    -0.550 OA
ATOM     14  O   UNL     1     141.101 133.103 138.318  1.00  0.00    -0.550 OA
ENDBRANCH  11  12
ENDBRANCH  10  11
ENDBRANCH   9  10
ENDBRANCH   8   9
ENDBRANCH   7   8
ENDBRANCH   6   7
ENDBRANCH   5   6
ENDBRANCH   4   5
ENDBRANCH   3   4
ENDBRANCH   2   3
ENDBRANCH   1   2
BRANCH   1  15
ATOM     15  C   UNL     1     135.878 139.287 139.291  1.00  0.00     0.000 C 
BRANCH  15  16
ATOM     16  C   UNL     1     136.019 139.604 140.791  1.00  0.00     0.000 C 
BRANCH  16  17
ATOM     17  C   UNL     1     136.553 141.019 141.055  1.00  0.00     0.000 C 
BRANCH  17  18
ATOM     18  C   UNL     1     135.533 141.850 141.847  1.00  0.00    -0.000 C 
BRANCH  18  19
ATOM     19  C   UNL     1     134.138 141.200 141.900  1.00  0.00    -0.000 C 
BRANCH  19  20
ATOM     20  C   UNL     1     133.059 141.900 141.055  1.00  0.00    -0.000 C 
BRANCH  20  21
ATOM     21  C   UNL     1     131.842 141.002 140.771  1.00  0.00    -0.000 C 
BRANCH  21  22
ATOM     22  C   UNL     1     131.145 141.361 139.449  1.00  0.00    -0.000 C 
BRANCH  22  23
ATOM     23  C   UNL     1     129.696 140.851 139.389  1.00  0.00    -0.000 C 
BRANCH  23  24
ATOM     24  C   UNL     1     128.671 141.990 139.258  1.00  0.00    -0.000 C 
BRANCH  24  25
ATOM     25  C   UNL     1     128.320 142.658 140.605  1.00  0.00    -0.003 C 
ATOM     26  C   UNL     1     128.098 141.635 141.718  1.00  0.00     0.004 C 
ENDBRANCH  24  25
ENDBRANCH  23  24
ENDBRANCH  22  23
ENDBRANCH  21  22
ENDBRANCH  20  21
ENDBRANCH  19  20
ENDBRANCH  18  19
ENDBRANCH  17  18
ENDBRANCH  16  17
ENDBRANCH  15  16
ENDBRANCH   1  15
TORSDOF 22
ENDMDL
MODEL 4
REMARK VINA RESULT:    -4.486      5.065      7.710
REMARK INTER + INTRA:         -13.790
REMARK INTER:                 -10.502
REMARK INTRA:                  -3.288
REMARK UNBOUND:                -3.536
REMARK SMILES CCCCCCCCCCCCCCCCCCCCCCCC(=O)[O-]
REMARK SMILES IDX 13 1 14 2 15 3 16 4 17 5 18 6 19 7 20 8 21 9 22 10 23 11
REMARK SMILES IDX 24 12 25 13 26 14 12 15 11 16 10 17 9 18 8 19 7 20 6 21 5 22
REMARK SMILES IDX 4 23 3 24 2 25 1 26
REMARK H PARENT
REMARK Flexibility Score: inf
ROOT
ATOM      1  C   UNL     1     132.059 136.367 137.922  1.00  0.00     0.000 C 
ENDROOT
BRANCH   1   2
ATOM      2  C   UNL     1     133.276 136.278 138.858  1.00  0.00     0.000 C 
BRANCH   2   3
ATOM      3  C   UNL     1     133.029 136.931 140.232  1.00  0.00     0.000 C 
BRANCH   3   4
ATOM      4  C   UNL     1     133.550 138.373 140.380  1.00  0.00     0.000 C 
BRANCH   4   5
ATOM      5  C   UNL     1     134.214 138.965 139.122  1.00  0.00     0.000 C 
BRANCH   5   6
ATOM      6  C   UNL     1     135.757 138.971 139.167  1.00  0.00     0.000 C 
BRANCH   6   7
ATOM      7  C   UNL     1     136.312 138.786 140.589  1.00  0.00     0.000 C 
BRANCH   7   8
ATOM      8  C   UNL     1     137.262 137.582 140.706  1.00  0.00     0.000 C 
BRANCH   8   9
ATOM      9  C   UNL     1     136.571 136.296 141.207  1.00  0.00     0.000 C 
BRANCH   9  10
ATOM     10  C   UNL     1     136.765 135.121 140.234  1.00  0.00     0.006 C 
BRANCH  10  11
ATOM     11  C   UNL     1     138.247 134.846 139.942  1.00  0.00     0.053 C 
BRANCH  11  12
ATOM     12  C   UNL     1     138.461 133.472 139.384  1.00  0.00     0.041 C 
ATOM     13  O   UNL     1     139.451 132.785 139.751  1.00  0.00    -0.550 OA
ATOM     14  O   UNL     1     137.552 132.939 138.477  1.00  0.00    -0.550 OA
ENDBRANCH  11  12
ENDBRANCH  10  11
ENDBRANCH   9  10
ENDBRANCH   8   9
ENDBRANCH   7   8
ENDBRANCH   6   7
ENDBRANCH   5   6
ENDBRANCH   4   5
ENDBRANCH   3   4
ENDBRANCH   2   3
ENDBRANCH   1   2
BRANCH   1  15
ATOM     15  C   UNL     1     130.739 136.011 138.630  1.00  0.00     0.000 C 
BRANCH  15  16
ATOM     16  C   UNL     1     129.785 137.199 138.850  1.00  0.00     0.000 C 
BRANCH  16  17
ATOM     17  C   UNL     1     130.254 138.481 138.147  1.00  0.00     0.000 C 
BRANCH  17  18
ATOM     18  C   UNL     1     129.972 139.716 139.015  1.00  0.00    -0.000 C 
BRANCH  18  19
ATOM     19  C   UNL     1     131.029 140.823 138.851  1.00  0.00    -0.000 C 
BRANCH  19  20
ATOM     20  C   UNL     1     131.517 141.461 140.163  1.00  0.00    -0.000 C 
BRANCH  20  21
ATOM     21  C   UNL     1     130.573 141.193 141.349  1.00  0.00    -0.000 C 
BRANCH  21  22
ATOM     22  C   UNL     1     129.653 142.387 141.647  1.00  0.00    -0.000 C 
BRANCH  22  23
ATOM     23  C   UNL     1     128.189 142.113 141.267  1.00  0.00    -0.000 C 
BRANCH  23  24
ATOM     24  C   UNL     1     127.650 143.105 140.223  1.00  0.00    -0.000 C 
BRANCH  24  25
ATOM     25  C   UNL     1     127.782 142.600 138.771  1.00  0.00    -0.003 C 
ATOM     26  C   UNL     1     126.482 142.755 137.982  1.00  0.00     0.004 C 
ENDBRANCH  24  25
ENDBRANCH  23  24
ENDBRANCH  22  23
ENDBRANCH  21  22
ENDBRANCH  20  21
ENDBRANCH  19  20
ENDBRANCH  18  19
ENDBRANCH  17  18
ENDBRANCH  16  17
ENDBRANCH  15  16
ENDBRANCH   1  15
TORSDOF 22
ENDMDL
MODEL 5
REMARK VINA RESULT:    -4.458      6.625     10.920
REMARK INTER + INTRA:         -13.728
REMARK INTER:                  -9.962
REMARK INTRA:                  -3.766
REMARK UNBOUND:                -3.536
REMARK SMILES CCCCCCCCCCCCCCCCCCCCCCCC(=O)[O-]
REMARK SMILES IDX 13 1 14 2 15 3 16 4 17 5 18 6 19 7 20 8 21 9 22 10 23 11
REMARK SMILES IDX 24 12 25 13 26 14 12 15 11 16 10 17 9 18 8 19 7 20 6 21 5 22
REMARK SMILES IDX 4 23 3 24 2 25 1 26
REMARK H PARENT
REMARK Flexibility Score: inf
ROOT
ATOM      1  C   UNL     1     127.411 138.622 136.494  1.00  0.00     0.000 C 
ENDROOT
BRANCH   1   2
ATOM      2  C   UNL     1     126.208 137.904 135.859  1.00  0.00     0.000 C 
BRANCH   2   3
ATOM      3  C   UNL     1     126.179 136.393 136.160  1.00  0.00     0.000 C 
BRANCH   3   4
ATOM      4  C   UNL     1     125.140 135.949 137.207  1.00  0.00     0.000 C 
BRANCH   4   5
ATOM      5  C   UNL     1     125.064 136.826 138.472  1.00  0.00     0.000 C 
BRANCH   5   6
ATOM      6  C   UNL     1     125.607 136.144 139.746  1.00  0.00     0.000 C 
BRANCH   6   7
ATOM      7  C   UNL     1     127.028 135.584 139.562  1.00  0.00     0.000 C 
BRANCH   7   8
ATOM      8  C   UNL     1     128.105 136.682 139.555  1.00  0.00     0.000 C 
BRANCH   8   9
ATOM      9  C   UNL     1     129.266 136.402 138.578  1.00  0.00     0.000 C 
BRANCH   9  10
ATOM     10  C   UNL     1     130.619 136.302 139.302  1.00  0.00     0.006 C 
BRANCH  10  11
ATOM     11  C   UNL     1     131.754 135.881 138.358  1.00  0.00     0.053 C 
BRANCH  11  12
ATOM     12  C   UNL     1     132.629 137.038 137.984  1.00  0.00     0.041 C 
ATOM     13  O   UNL     1     132.531 137.566 136.844  1.00  0.00    -0.550 OA
ATOM     14  O   UNL     1     133.534 137.553 138.904  1.00  0.00    -0.550 OA
ENDBRANCH  11  12
ENDBRANCH  10  11
ENDBRANCH   9  10
ENDBRANCH   8   9
ENDBRANCH   7   8
ENDBRANCH   6   7
ENDBRANCH   5   6
ENDBRANCH   4   5
ENDBRANCH   3   4
ENDBRANCH   2   3
ENDBRANCH   1   2
BRANCH   1  15
ATOM     15  C   UNL     1     126.996 139.852 137.323  1.00  0.00     0.000 C 
BRANCH  15  16
ATOM     16  C   UNL     1     125.763 140.604 136.789  1.00  0.00     0.000 C 
BRANCH  16  17
ATOM     17  C   UNL     1     125.913 142.130 136.871  1.00  0.00     0.000 C 
BRANCH  17  18
ATOM     18  C   UNL     1     126.914 142.523 137.966  1.00  0.00    -0.000 C 
BRANCH  18  19
ATOM     19  C   UNL     1     126.352 143.564 138.952  1.00  0.00    -0.000 C 
BRANCH  19  20
ATOM     20  C   UNL     1     126.750 143.353 140.423  1.00  0.00    -0.000 C 
BRANCH  20  21
ATOM     21  C   UNL     1     128.150 142.733 140.584  1.00  0.00    -0.000 C 
BRANCH  21  22
ATOM     22  C   UNL     1     128.142 141.499 141.499  1.00  0.00    -0.000 C 
BRANCH  22  23
ATOM     23  C   UNL     1     128.363 140.188 140.726  1.00  0.00    -0.000 C 
BRANCH  23  24
ATOM     24  C   UNL     1     129.851 139.887 140.481  1.00  0.00    -0.000 C 
BRANCH  24  25
ATOM     25  C   UNL     1     130.267 140.013 139.001  1.00  0.00    -0.003 C 
ATOM     26  C   UNL     1     131.160 141.228 138.751  1.00  0.00     0.004 C 
ENDBRANCH  24  25
ENDBRANCH  23  24
ENDBRANCH  22  23
ENDBRANCH  21  22
ENDBRANCH  20  21
ENDBRANCH  19  20
ENDBRANCH  18  19
ENDBRANCH  17  18
ENDBRANCH  16  17
ENDBRANCH  15  16
ENDBRANCH   1  15
TORSDOF 22
ENDMDL
MODEL 6
REMARK VINA RESULT:    -4.446      7.547     10.992
REMARK INTER + INTRA:         -13.700
REMARK INTER:                 -10.836
REMARK INTRA:                  -2.864
REMARK UNBOUND:                -3.536
REMARK SMILES CCCCCCCCCCCCCCCCCCCCCCCC(=O)[O-]
REMARK SMILES IDX 13 1 14 2 15 3 16 4 17 5 18 6 19 7 20 8 21 9 22 10 23 11
REMARK SMILES IDX 24 12 25 13 26 14 12 15 11 16 10 17 9 18 8 19 7 20 6 21 5 22
REMARK SMILES IDX 4 23 3 24 2 25 1 26
REMARK H PARENT
REMARK Flexibility Score: inf
ROOT
ATOM      1  C   UNL     1     126.512 142.850 137.710  1.00  0.00     0.000 C 
ENDROOT
BRANCH   1   2
ATOM      2  C   UNL     1     126.252 143.905 138.799  1.00  0.00     0.000 C 
BRANCH   2   3
ATOM      3  C   UNL     1     126.439 143.357 140.227  1.00  0.00     0.000 C 
BRANCH   3   4
ATOM      4  C   UNL     1     127.892 143.031 140.623  1.00  0.00     0.000 C 
BRANCH   4   5
ATOM      5  C   UNL     1     128.112 141.628 141.222  1.00  0.00     0.000 C 
BRANCH   5   6
ATOM      6  C   UNL     1     128.943 140.684 140.326  1.00  0.00     0.000 C 
BRANCH   6   7
ATOM      7  C   UNL     1     129.476 141.380 139.061  1.00  0.00     0.000 C 
BRANCH   7   8
ATOM      8  C   UNL     1     131.011 141.465 139.030  1.00  0.00     0.000 C 
BRANCH   8   9
ATOM      9  C   UNL     1     131.701 140.577 140.086  1.00  0.00     0.000 C 
BRANCH   9  10
ATOM     10  C   UNL     1     132.702 139.597 139.451  1.00  0.00     0.006 C 
BRANCH  10  11
ATOM     11  C   UNL     1     132.068 138.230 139.155  1.00  0.00     0.053 C 
BRANCH  11  12
ATOM     12  C   UNL     1     131.901 137.998 137.684  1.00  0.00     0.041 C 
ATOM     13  O   UNL     1     132.573 137.107 137.101  1.00  0.00    -0.550 OA
ATOM     14  O   UNL     1     130.981 138.750 136.961  1.00  0.00    -0.550 OA
ENDBRANCH  11  12
ENDBRANCH  10  11
ENDBRANCH   9  10
ENDBRANCH   8   9
ENDBRANCH   7   8
ENDBRANCH   6   7
ENDBRANCH   5   6
ENDBRANCH   4   5
ENDBRANCH   3   4
ENDBRANCH   2   3
ENDBRANCH   1   2
BRANCH   1  15
ATOM     15  C   UNL     1     125.787 143.171 136.390  1.00  0.00     0.000 C 
BRANCH  15  16
ATOM     16  C   UNL     1     125.108 141.964 135.718  1.00  0.00     0.000 C 
BRANCH  16  17
ATOM     17  C   UNL     1     125.398 140.638 136.436  1.00  0.00     0.000 C 
BRANCH  17  18
ATOM     18  C   UNL     1     124.347 139.580 136.075  1.00  0.00    -0.000 C 
BRANCH  18  19
ATOM     19  C   UNL     1     124.487 139.057 134.634  1.00  0.00    -0.000 C 
BRANCH  19  20
ATOM     20  C   UNL     1     124.439 137.526 134.486  1.00  0.00    -0.000 C 
BRANCH  20  21
ATOM     21  C   UNL     1     124.336 136.795 135.836  1.00  0.00    -0.000 C 
BRANCH  21  22
ATOM     22  C   UNL     1     125.532 135.865 136.092  1.00  0.00    -0.000 C 
BRANCH  22  23
ATOM     23  C   UNL     1     126.766 136.619 136.612  1.00  0.00    -0.000 C 
BRANCH  23  24
ATOM     24  C   UNL     1     126.549 137.220 138.011  1.00  0.00    -0.000 C 
BRANCH  24  25
ATOM     25  C   UNL     1     127.864 137.529 138.757  1.00  0.00    -0.003 C 
ATOM     26  C   UNL     1     128.787 136.313 138.832  1.00  0.00     0.004 C 
ENDBRANCH  24  25
ENDBRANCH  23  24
ENDBRANCH  22  23
ENDBRANCH  21  22
ENDBRANCH  20  21
ENDBRANCH  19  20
ENDBRANCH  18  19
ENDBRANCH  17  18
ENDBRANCH  16  17
ENDBRANCH  15  16
ENDBRANCH   1  15
TORSDOF 22
ENDMDL
MODEL 7
REMARK VINA RESULT:    -4.424      6.813     10.405
REMARK INTER + INTRA:         -13.650
REMARK INTER:                 -10.467
REMARK INTRA:                  -3.184
REMARK UNBOUND:                -3.536
REMARK SMILES CCCCCCCCCCCCCCCCCCCCCCCC(=O)[O-]
REMARK SMILES IDX 13 1 14 2 15 3 16 4 17 5 18 6 19 7 20 8 21 9 22 10 23 11
REMARK SMILES IDX 24 12 25 13 26 14 12 15 11 16 10 17 9 18 8 19 7 20 6 21 5 22
REMARK SMILES IDX 4 23 3 24 2 25 1 26
REMARK H PARENT
REMARK Flexibility Score: inf
ROOT
ATOM      1  C   UNL     1     126.122 143.138 136.844  1.00  0.00     0.000 C 
ENDROOT
BRANCH   1   2
ATOM      2  C   UNL     1     126.594 142.229 137.991  1.00  0.00     0.000 C 
BRANCH   2   3
ATOM      3  C   UNL     1     127.549 142.939 138.970  1.00  0.00     0.000 C 
BRANCH   3   4
ATOM      4  C   UNL     1     127.122 142.903 140.450  1.00  0.00     0.000 C 
BRANCH   4   5
ATOM      5  C   UNL     1     127.999 142.027 141.367  1.00  0.00     0.000 C 
BRANCH   5   6
ATOM      6  C   UNL     1     129.463 142.503 141.482  1.00  0.00     0.000 C 
BRANCH   6   7
ATOM      7  C   UNL     1     130.459 141.338 141.608  1.00  0.00     0.000 C 
BRANCH   7   8
ATOM      8  C   UNL     1     131.504 141.322 140.479  1.00  0.00     0.000 C 
BRANCH   8   9
ATOM      9  C   UNL     1     132.669 140.341 140.730  1.00  0.00     0.000 C 
BRANCH   9  10
ATOM     10  C   UNL     1     133.012 139.521 139.475  1.00  0.00     0.006 C 
BRANCH  10  11
ATOM     11  C   UNL     1     134.143 138.514 139.730  1.00  0.00     0.053 C 
BRANCH  11  12
ATOM     12  C   UNL     1     135.495 139.130 139.533  1.00  0.00     0.041 C 
ATOM     13  O   UNL     1     135.925 139.358 138.372  1.00  0.00    -0.550 OA
ATOM     14  O   UNL     1     136.269 139.478 140.634  1.00  0.00    -0.550 OA
ENDBRANCH  11  12
ENDBRANCH  10  11
ENDBRANCH   9  10
ENDBRANCH   8   9
ENDBRANCH   7   8
ENDBRANCH   6   7
ENDBRANCH   5   6
ENDBRANCH   4   5
ENDBRANCH   3   4
ENDBRANCH   2   3
ENDBRANCH   1   2
BRANCH   1  15
ATOM     15  C   UNL     1     125.366 142.364 135.748  1.00  0.00     0.000 C 
BRANCH  15  16
ATOM     16  C   UNL     1     125.012 140.911 136.112  1.00  0.00     0.000 C 
BRANCH  16  17
ATOM     17  C   UNL     1     124.147 140.222 135.045  1.00  0.00     0.000 C 
BRANCH  17  18
ATOM     18  C   UNL     1     124.332 138.699 135.092  1.00  0.00    -0.000 C 
BRANCH  18  19
ATOM     19  C   UNL     1     125.798 138.275 135.294  1.00  0.00    -0.000 C 
BRANCH  19  20
ATOM     20  C   UNL     1     126.029 137.224 136.394  1.00  0.00    -0.000 C 
BRANCH  20  21
ATOM     21  C   UNL     1     127.317 137.471 137.199  1.00  0.00    -0.000 C 
BRANCH  21  22
ATOM     22  C   UNL     1     127.862 138.896 137.011  1.00  0.00    -0.000 C 
BRANCH  22  23
ATOM     23  C   UNL     1     128.940 139.258 138.045  1.00  0.00    -0.000 C 
BRANCH  23  24
ATOM     24  C   UNL     1     128.520 138.921 139.485  1.00  0.00    -0.000 C 
BRANCH  24  25
ATOM     25  C   UNL     1     129.583 138.116 140.263  1.00  0.00    -0.003 C 
ATOM     26  C   UNL     1     130.246 137.044 139.398  1.00  0.00     0.004 C 
ENDBRANCH  24  25
ENDBRANCH  23  24
ENDBRANCH  22  23
ENDBRANCH  21  22
ENDBRANCH  20  21
ENDBRANCH  19  20
ENDBRANCH  18  19
ENDBRANCH  17  18
ENDBRANCH  16  17
ENDBRANCH  15  16
ENDBRANCH   1  15
TORSDOF 22
ENDMDL
MODEL 8
REMARK VINA RESULT:    -4.399      6.647     10.088
REMARK INTER + INTRA:         -13.593
REMARK INTER:                 -10.597
REMARK INTRA:                  -2.996
REMARK UNBOUND:                -3.536
REMARK SMILES CCCCCCCCCCCCCCCCCCCCCCCC(=O)[O-]
REMARK SMILES IDX 13 1 14 2 15 3 16 4 17 5 18 6 19 7 20 8 21 9 22 10 23 11
REMARK SMILES IDX 24 12 25 13 26 14 12 15 11 16 10 17 9 18 8 19 7 20 6 21 5 22
REMARK SMILES IDX 4 23 3 24 2 25 1 26
REMARK H PARENT
REMARK Flexibility Score: inf
ROOT
ATOM      1  C   UNL     1     126.537 142.864 137.767  1.00  0.00     0.000 C 
ENDROOT
BRANCH   1   2
ATOM      2  C   UNL     1     126.151 143.949 138.787  1.00  0.00     0.000 C 
BRANCH   2   3
ATOM      3  C   UNL     1     126.388 143.517 140.247  1.00  0.00     0.000 C 
BRANCH   3   4
ATOM      4  C   UNL     1     127.842 143.149 140.598  1.00  0.00     0.000 C 
BRANCH   4   5
ATOM      5  C   UNL     1     128.043 141.733 141.172  1.00  0.00     0.000 C 
BRANCH   5   6
ATOM      6  C   UNL     1     129.120 140.904 140.441  1.00  0.00     0.000 C 
BRANCH   6   7
ATOM      7  C   UNL     1     129.708 141.634 139.221  1.00  0.00     0.000 C 
BRANCH   7   8
ATOM      8  C   UNL     1     131.172 141.252 138.945  1.00  0.00     0.000 C 
BRANCH   8   9
ATOM      9  C   UNL     1     131.828 140.456 140.093  1.00  0.00     0.000 C 
BRANCH   9  10
ATOM     10  C   UNL     1     132.787 141.325 140.923  1.00  0.00     0.006 C 
BRANCH  10  11
ATOM     11  C   UNL     1     133.788 140.483 141.726  1.00  0.00     0.053 C 
BRANCH  11  12
ATOM     12  C   UNL     1     134.967 140.075 140.897  1.00  0.00     0.041 C 
ATOM     13  O   UNL     1     135.958 140.844 140.780  1.00  0.00    -0.550 OA
ATOM     14  O   UNL     1     134.984 138.832 140.274  1.00  0.00    -0.550 OA
ENDBRANCH  11  12
ENDBRANCH  10  11
ENDBRANCH   9  10
ENDBRANCH   8   9
ENDBRANCH   7   8
ENDBRANCH   6   7
ENDBRANCH   5   6
ENDBRANCH   4   5
ENDBRANCH   3   4
ENDBRANCH   2   3
ENDBRANCH   1   2
BRANCH   1  15
ATOM     15  C   UNL     1     125.797 143.021 136.426  1.00  0.00     0.000 C 
BRANCH  15  16
ATOM     16  C   UNL     1     125.357 141.699 135.773  1.00  0.00     0.000 C 
BRANCH  16  17
ATOM     17  C   UNL     1     125.170 140.563 136.790  1.00  0.00     0.000 C 
BRANCH  17  18
ATOM     18  C   UNL     1     126.162 139.422 136.525  1.00  0.00    -0.000 C 
BRANCH  18  19
ATOM     19  C   UNL     1     127.229 139.282 137.626  1.00  0.00    -0.000 C 
BRANCH  19  20
ATOM     20  C   UNL     1     128.547 138.624 137.180  1.00  0.00    -0.000 C 
BRANCH  20  21
ATOM     21  C   UNL     1     129.355 138.042 138.353  1.00  0.00    -0.000 C 
BRANCH  21  22
ATOM     22  C   UNL     1     129.286 136.508 138.408  1.00  0.00    -0.000 C 
BRANCH  22  23
ATOM     23  C   UNL     1     128.644 135.992 139.706  1.00  0.00    -0.000 C 
BRANCH  23  24
ATOM     24  C   UNL     1     127.154 135.652 139.538  1.00  0.00    -0.000 C 
BRANCH  24  25
ATOM     25  C   UNL     1     126.210 136.741 140.089  1.00  0.00    -0.003 C 
ATOM     26  C   UNL     1     126.491 137.064 141.556  1.00  0.00     0.004 C 
ENDBRANCH  24  25
ENDBRANCH  23  24
ENDBRANCH  22  23
ENDBRANCH  21  22
ENDBRANCH  20  21
ENDBRANCH  19  20
ENDBRANCH  18  19
ENDBRANCH  17  18
ENDBRANCH  16  17
ENDBRANCH  15  16
ENDBRANCH   1  15
TORSDOF 22
ENDMDL
MODEL 9
REMARK VINA RESULT:    -4.392      5.513      8.816
REMARK INTER + INTRA:         -13.577
REMARK INTER:                 -10.140
REMARK INTRA:                  -3.436
REMARK UNBOUND:                -3.536
REMARK SMILES CCCCCCCCCCCCCCCCCCCCCCCC(=O)[O-]
REMARK SMILES IDX 13 1 14 2 15 3 16 4 17 5 18 6 19 7 20 8 21 9 22 10 23 11
REMARK SMILES IDX 24 12 25 13 26 14 12 15 11 16 10 17 9 18 8 19 7 20 6 21 5 22
REMARK SMILES IDX 4 23 3 24 2 25 1 26
REMARK H PARENT
REMARK Flexibility Score: inf
ROOT
ATOM      1  C   UNL     1     131.918 135.365 138.114  1.00  0.00     0.000 C 
ENDROOT
BRANCH   1   2
ATOM      2  C   UNL     1     132.923 134.601 138.992  1.00  0.00     0.000 C 
BRANCH   2   3
ATOM      3  C   UNL     1     132.806 133.071 138.854  1.00  0.00     0.000 C 
BRANCH   3   4
ATOM      4  C   UNL     1     131.383 132.502 139.014  1.00  0.00     0.000 C 
BRANCH   4   5
ATOM      5  C   UNL     1     130.932 132.254 140.466  1.00  0.00     0.000 C 
BRANCH   5   6
ATOM      6  C   UNL     1     129.552 132.855 140.809  1.00  0.00     0.000 C 
BRANCH   6   7
ATOM      7  C   UNL     1     129.616 134.362 141.108  1.00  0.00     0.000 C 
BRANCH   7   8
ATOM      8  C   UNL     1     128.652 135.184 140.235  1.00  0.00     0.000 C 
BRANCH   8   9
ATOM      9  C   UNL     1     128.398 136.609 140.771  1.00  0.00     0.000 C 
BRANCH   9  10
ATOM     10  C   UNL     1     128.061 137.598 139.642  1.00  0.00     0.006 C 
BRANCH  10  11
ATOM     11  C   UNL     1     128.064 136.927 138.262  1.00  0.00     0.053 C 
BRANCH  11  12
ATOM     12  C   UNL     1     127.597 137.860 137.185  1.00  0.00     0.041 C 
ATOM     13  O   UNL     1     126.514 137.641 136.581  1.00  0.00    -0.550 OA
ATOM     14  O   UNL     1     128.346 138.988 136.869  1.00  0.00    -0.550 OA
ENDBRANCH  11  12
ENDBRANCH  10  11
ENDBRANCH   9  10
ENDBRANCH   8   9
ENDBRANCH   7   8
ENDBRANCH   6   7
ENDBRANCH   5   6
ENDBRANCH   4   5
ENDBRANCH   3   4
ENDBRANCH   2   3
ENDBRANCH   1   2
BRANCH   1  15
ATOM     15  C   UNL     1     131.696 136.812 138.590  1.00  0.00     0.000 C 
BRANCH  15  16
ATOM     16  C   UNL     1     132.189 137.105 140.019  1.00  0.00     0.000 C 
BRANCH  16  17
ATOM     17  C   UNL     1     131.578 138.383 140.611  1.00  0.00     0.000 C 
BRANCH  17  18
ATOM     18  C   UNL     1     132.600 139.529 140.610  1.00  0.00    -0.000 C 
BRANCH  18  19
ATOM     19  C   UNL     1     131.992 140.879 140.187  1.00  0.00    -0.000 C 
BRANCH  19  20
ATOM     20  C   UNL     1     131.277 140.876 138.824  1.00  0.00    -0.000 C 
BRANCH  20  21
ATOM     21  C   UNL     1     129.871 141.497 138.882  1.00  0.00    -0.000 C 
BRANCH  21  22
ATOM     22  C   UNL     1     129.191 141.281 140.243  1.00  0.00    -0.000 C 
BRANCH  22  23
ATOM     23  C   UNL     1     128.655 142.589 140.850  1.00  0.00    -0.000 C 
BRANCH  23  24
ATOM     24  C   UNL     1     127.136 142.750 140.668  1.00  0.00    -0.000 C 
BRANCH  24  25
ATOM     25  C   UNL     1     126.753 143.772 139.578  1.00  0.00    -0.003 C 
ATOM     26  C   UNL     1     126.455 143.104 138.236  1.00  0.00     0.004 C 
ENDBRANCH  24  25
ENDBRANCH  23  24
ENDBRANCH  22  23
ENDBRANCH  21  22
ENDBRANCH  20  21
ENDBRANCH  19  20
ENDBRANCH  18  19
ENDBRANCH  17  18
ENDBRANCH  16  17
ENDBRANCH  15  16
ENDBRANCH   1  15
TORSDOF 22
ENDMDL
