MODEL 1
REMARK VINA RESULT:    -4.137      0.000      0.000
REMARK INTER + INTRA:          -7.220
REMARK INTER:                  -6.314
REMARK INTRA:                  -0.906
REMARK UNBOUND:                -0.906
REMARK SMILES O=C([O-])CCCCCCCCC(=O)[O-]
REMARK SMILES IDX 7 1 6 2 5 3 4 4 2 5 1 6 3 7 8 8 9 9 10 10 11 11 12 12 13 13
REMARK SMILES IDX 14 14
REMARK H PARENT
REMARK Flexibility Score: inf
ROOT
ATOM      1  C   UNL     1      -3.418  60.522  47.543  1.00  0.00     0.000 C 
ENDROOT
BRANCH   1   2
ATOM      2  C   UNL     1      -3.480  59.645  48.803  1.00  0.00     0.000 C 
BRANCH   2   3
ATOM      3  C   UNL     1      -2.268  58.707  48.931  1.00  0.00     0.006 C 
BRANCH   3   4
ATOM      4  C   UNL     1      -2.670  57.227  48.970  1.00  0.00     0.053 C 
BRANCH   4   5
ATOM      5  C   UNL     1      -2.453  56.593  47.632  1.00  0.00     0.041 C 
ATOM      6  O   UNL     1      -3.415  56.456  46.831  1.00  0.00    -0.550 OA
ATOM      7  O   UNL     1      -1.176  56.198  47.249  1.00  0.00    -0.550 OA
ENDBRANCH   4   5
ENDBRANCH   3   4
ENDBRANCH   2   3
ENDBRANCH   1   2
BRANCH   1   8
ATOM      8  C   UNL     1      -4.125  59.840  46.365  1.00  0.00     0.000 C 
BRANCH   8   9
ATOM      9  C   UNL     1      -3.201  59.754  45.145  1.00  0.00     0.000 C 
BRANCH   9  10
ATOM     10  C   UNL     1      -1.726  59.830  45.564  1.00  0.00     0.006 C 
BRANCH  10  11
ATOM     11  C   UNL     1      -0.886  58.707  44.942  1.00  0.00     0.053 C 
BRANCH  11  12
ATOM     12  C   UNL     1       0.373  59.233  44.324  1.00  0.00     0.041 C 
ATOM     13  O   UNL     1       0.811  58.735  43.254  1.00  0.00    -0.550 OA
ATOM     14  O   UNL     1       1.079  60.254  44.947  1.00  0.00    -0.550 OA
ENDBRANCH  11  12
ENDBRANCH  10  11
ENDBRANCH   9  10
ENDBRANCH   8   9
ENDBRANCH   1   8
TORSDOF 9
ENDMDL
MODEL 2
REMARK VINA RESULT:    -4.127      1.035      4.083
REMARK INTER + INTRA:          -7.204
REMARK INTER:                  -6.279
REMARK INTRA:                  -0.926
REMARK UNBOUND:                -0.906
REMARK SMILES O=C([O-])CCCCCCCCC(=O)[O-]
REMARK SMILES IDX 7 1 6 2 5 3 4 4 2 5 1 6 3 7 8 8 9 9 10 10 11 11 12 12 13 13
REMARK SMILES IDX 14 14
REMARK H PARENT
REMARK Flexibility Score: inf
ROOT
ATOM      1  C   UNL     1      -3.885  61.248  46.943  1.00  0.00     0.000 C 
ENDROOT
BRANCH   1   2
ATOM      2  C   UNL     1      -2.754  61.402  45.914  1.00  0.00     0.000 C 
BRANCH   2   3
ATOM      3  C   UNL     1      -2.355  60.066  45.268  1.00  0.00     0.006 C 
BRANCH   3   4
ATOM      4  C   UNL     1      -0.857  59.766  45.410  1.00  0.00     0.053 C 
BRANCH   4   5
ATOM      5  C   UNL     1      -0.488  58.563  44.601  1.00  0.00     0.041 C 
ATOM      6  O   UNL     1      -1.372  57.735  44.256  1.00  0.00    -0.550 OA
ATOM      7  O   UNL     1       0.826  58.382  44.184  1.00  0.00    -0.550 OA
ENDBRANCH   4   5
ENDBRANCH   3   4
ENDBRANCH   2   3
ENDBRANCH   1   2
BRANCH   1   8
ATOM      8  C   UNL     1      -3.999  59.794  47.418  1.00  0.00     0.000 C 
BRANCH   8   9
ATOM      9  C   UNL     1      -3.436  59.631  48.835  1.00  0.00     0.000 C 
BRANCH   9  10
ATOM     10  C   UNL     1      -2.207  58.710  48.837  1.00  0.00     0.006 C 
BRANCH  10  11
ATOM     11  C   UNL     1      -2.593  57.225  48.842  1.00  0.00     0.053 C 
BRANCH  11  12
ATOM     12  C   UNL     1      -2.322  56.578  47.519  1.00  0.00     0.041 C 
ATOM     13  O   UNL     1      -1.148  56.247  47.203  1.00  0.00    -0.550 OA
ATOM     14  O   UNL     1      -3.360  56.366  46.622  1.00  0.00    -0.550 OA
ENDBRANCH  11  12
ENDBRANCH  10  11
ENDBRANCH   9  10
ENDBRANCH   8   9
ENDBRANCH   1   8
TORSDOF 9
ENDMDL
MODEL 3
REMARK VINA RESULT:    -4.117      1.902      2.808
REMARK INTER + INTRA:          -7.189
REMARK INTER:                  -6.351
REMARK INTRA:                  -0.838
REMARK UNBOUND:                -0.906
REMARK SMILES O=C([O-])CCCCCCCCC(=O)[O-]
REMARK SMILES IDX 7 1 6 2 5 3 4 4 2 5 1 6 3 7 8 8 9 9 10 10 11 11 12 12 13 13
REMARK SMILES IDX 14 14
REMARK H PARENT
REMARK Flexibility Score: inf
ROOT
ATOM      1  C   UNL     1      -2.163  58.918  48.822  1.00  0.00     0.000 C 
ENDROOT
BRANCH   1   2
ATOM      2  C   UNL     1      -2.558  57.456  49.080  1.00  0.00     0.000 C 
BRANCH   2   3
ATOM      3  C   UNL     1      -2.123  56.516  47.946  1.00  0.00     0.006 C 
BRANCH   3   4
ATOM      4  C   UNL     1      -3.046  56.599  46.723  1.00  0.00     0.053 C 
BRANCH   4   5
ATOM      5  C   UNL     1      -2.373  57.341  45.612  1.00  0.00     0.041 C 
ATOM      6  O   UNL     1      -3.059  57.903  44.717  1.00  0.00    -0.550 OA
ATOM      7  O   UNL     1      -0.987  57.455  45.590  1.00  0.00    -0.550 OA
ENDBRANCH   4   5
ENDBRANCH   3   4
ENDBRANCH   2   3
ENDBRANCH   1   2
BRANCH   1   8
ATOM      8  C   UNL     1      -3.383  59.842  48.922  1.00  0.00     0.000 C 
BRANCH   8   9
ATOM      9  C   UNL     1      -4.073  59.992  47.561  1.00  0.00     0.000 C 
BRANCH   9  10
ATOM     10  C   UNL     1      -3.766  61.362  46.936  1.00  0.00     0.006 C 
BRANCH  10  11
ATOM     11  C   UNL     1      -3.474  61.263  45.433  1.00  0.00     0.053 C 
BRANCH  11  12
ATOM     12  C   UNL     1      -2.016  61.444  45.139  1.00  0.00     0.041 C 
ATOM     13  O   UNL     1      -1.644  62.246  44.243  1.00  0.00    -0.550 OA
ATOM     14  O   UNL     1      -1.070  60.703  45.835  1.00  0.00    -0.550 OA
ENDBRANCH  11  12
ENDBRANCH  10  11
ENDBRANCH   9  10
ENDBRANCH   8   9
ENDBRANCH   1   8
TORSDOF 9
ENDMDL
MODEL 4
REMARK VINA RESULT:    -4.094      2.044      5.703
REMARK INTER + INTRA:          -7.153
REMARK INTER:                  -6.502
REMARK INTRA:                  -0.651
REMARK UNBOUND:                -0.906
REMARK SMILES O=C([O-])CCCCCCCCC(=O)[O-]
REMARK SMILES IDX 7 1 6 2 5 3 4 4 2 5 1 6 3 7 8 8 9 9 10 10 11 11 12 12 13 13
REMARK SMILES IDX 14 14
REMARK H PARENT
REMARK Flexibility Score: inf
ROOT
ATOM      1  C   UNL     1      -0.824  59.178  45.039  1.00  0.00     0.000 C 
ENDROOT
BRANCH   1   2
ATOM      2  C   UNL     1      -0.340  57.810  44.533  1.00  0.00     0.000 C 
BRANCH   2   3
ATOM      3  C   UNL     1       0.403  57.905  43.190  1.00  0.00     0.006 C 
BRANCH   3   4
ATOM      4  C   UNL     1       1.833  57.355  43.268  1.00  0.00     0.053 C 
BRANCH   4   5
ATOM      5  C   UNL     1       2.820  58.478  43.324  1.00  0.00     0.041 C 
ATOM      6  O   UNL     1       4.047  58.237  43.481  1.00  0.00    -0.550 OA
ATOM      7  O   UNL     1       2.392  59.789  43.152  1.00  0.00    -0.550 OA
ENDBRANCH   4   5
ENDBRANCH   3   4
ENDBRANCH   2   3
ENDBRANCH   1   2
BRANCH   1   8
ATOM      8  C   UNL     1      -2.335  59.163  45.301  1.00  0.00     0.000 C 
BRANCH   8   9
ATOM      9  C   UNL     1      -2.924  57.770  45.045  1.00  0.00     0.000 C 
BRANCH   9  10
ATOM     10  C   UNL     1      -3.613  57.224  46.304  1.00  0.00     0.006 C 
BRANCH  10  11
ATOM     11  C   UNL     1      -2.630  56.514  47.243  1.00  0.00     0.053 C 
BRANCH  11  12
ATOM     12  C   UNL     1      -2.609  57.144  48.602  1.00  0.00     0.041 C 
ATOM     13  O   UNL     1      -2.645  56.426  49.636  1.00  0.00    -0.550 OA
ATOM     14  O   UNL     1      -2.580  58.527  48.727  1.00  0.00    -0.550 OA
ENDBRANCH  11  12
ENDBRANCH  10  11
ENDBRANCH   9  10
ENDBRANCH   8   9
ENDBRANCH   1   8
TORSDOF 9
ENDMDL
MODEL 5
REMARK VINA RESULT:    -4.042      1.977      4.235
REMARK INTER + INTRA:          -7.075
REMARK INTER:                  -6.270
REMARK INTRA:                  -0.805
REMARK UNBOUND:                -0.906
REMARK SMILES O=C([O-])CCCCCCCCC(=O)[O-]
REMARK SMILES IDX 7 1 6 2 5 3 4 4 2 5 1 6 3 7 8 8 9 9 10 10 11 11 12 12 13 13
REMARK SMILES IDX 14 14
REMARK H PARENT
REMARK Flexibility Score: inf
ROOT
ATOM      1  C   UNL     1      -3.138  59.830  49.041  1.00  0.00     0.000 C 
ENDROOT
BRANCH   1   2
ATOM      2  C   UNL     1      -3.930  59.955  47.730  1.00  0.00     0.000 C 
BRANCH   2   3
ATOM      3  C   UNL     1      -3.766  61.333  47.069  1.00  0.00     0.006 C 
BRANCH   3   4
ATOM      4  C   UNL     1      -3.734  61.252  45.537  1.00  0.00     0.053 C 
BRANCH   4   5
ATOM      5  C   UNL     1      -2.349  61.508  45.031  1.00  0.00     0.041 C 
ATOM      6  O   UNL     1      -2.154  62.348  44.114  1.00  0.00    -0.550 OA
ATOM      7  O   UNL     1      -1.266  60.854  45.608  1.00  0.00    -0.550 OA
ENDBRANCH   4   5
ENDBRANCH   3   4
ENDBRANCH   2   3
ENDBRANCH   1   2
BRANCH   1   8
ATOM      8  C   UNL     1      -2.026  58.782  48.911  1.00  0.00     0.000 C 
BRANCH   8   9
ATOM      9  C   UNL     1      -2.585  57.364  49.072  1.00  0.00     0.000 C 
BRANCH   9  10
ATOM     10  C   UNL     1      -2.166  56.470  47.895  1.00  0.00     0.006 C 
BRANCH  10  11
ATOM     11  C   UNL     1      -3.097  56.625  46.687  1.00  0.00     0.053 C 
BRANCH  11  12
ATOM     12  C   UNL     1      -2.446  57.400  45.582  1.00  0.00     0.041 C 
ATOM     13  O   UNL     1      -3.142  57.882  44.649  1.00  0.00    -0.550 OA
ATOM     14  O   UNL     1      -1.067  57.563  45.566  1.00  0.00    -0.550 OA
ENDBRANCH  11  12
ENDBRANCH  10  11
ENDBRANCH   9  10
ENDBRANCH   8   9
ENDBRANCH   1   8
TORSDOF 9
ENDMDL
MODEL 6
REMARK VINA RESULT:    -4.023      1.742      2.393
REMARK INTER + INTRA:          -7.045
REMARK INTER:                  -6.209
REMARK INTRA:                  -0.836
REMARK UNBOUND:                -0.906
REMARK SMILES O=C([O-])CCCCCCCCC(=O)[O-]
REMARK SMILES IDX 7 1 6 2 5 3 4 4 2 5 1 6 3 7 8 8 9 9 10 10 11 11 12 12 13 13
REMARK SMILES IDX 14 14
REMARK H PARENT
REMARK Flexibility Score: inf
ROOT
ATOM      1  C   UNL     1      -2.981  58.175  45.144  1.00  0.00     0.000 C 
ENDROOT
BRANCH   1   2
ATOM      2  C   UNL     1      -4.125  57.273  45.632  1.00  0.00     0.000 C 
BRANCH   2   3
ATOM      3  C   UNL     1      -3.665  56.254  46.688  1.00  0.00     0.006 C 
BRANCH   3   4
ATOM      4  C   UNL     1      -2.326  56.635  47.331  1.00  0.00     0.053 C 
BRANCH   4   5
ATOM      5  C   UNL     1      -2.553  57.306  48.649  1.00  0.00     0.041 C 
ATOM      6  O   UNL     1      -2.587  56.627  49.709  1.00  0.00    -0.550 OA
ATOM      7  O   UNL     1      -2.679  58.689  48.713  1.00  0.00    -0.550 OA
ENDBRANCH   4   5
ENDBRANCH   3   4
ENDBRANCH   2   3
ENDBRANCH   1   2
BRANCH   1   8
ATOM      8  C   UNL     1      -3.406  59.649  45.148  1.00  0.00     0.000 C 
BRANCH   8   9
ATOM      9  C   UNL     1      -2.226  60.561  45.505  1.00  0.00     0.000 C 
BRANCH   9  10
ATOM     10  C   UNL     1      -0.948  59.742  45.739  1.00  0.00     0.006 C 
BRANCH  10  11
ATOM     11  C   UNL     1       0.196  60.171  44.812  1.00  0.00     0.053 C 
BRANCH  11  12
ATOM     12  C   UNL     1       0.696  59.028  43.983  1.00  0.00     0.041 C 
ATOM     13  O   UNL     1       0.363  57.846  44.264  1.00  0.00    -0.550 OA
ATOM     14  O   UNL     1       1.555  59.265  42.918  1.00  0.00    -0.550 OA
ENDBRANCH  11  12
ENDBRANCH  10  11
ENDBRANCH   9  10
ENDBRANCH   8   9
ENDBRANCH   1   8
TORSDOF 9
ENDMDL
MODEL 7
REMARK VINA RESULT:    -3.976      2.826      4.988
REMARK INTER + INTRA:          -6.973
REMARK INTER:                  -6.145
REMARK INTRA:                  -0.828
REMARK UNBOUND:                -0.906
REMARK SMILES O=C([O-])CCCCCCCCC(=O)[O-]
REMARK SMILES IDX 7 1 6 2 5 3 4 4 2 5 1 6 3 7 8 8 9 9 10 10 11 11 12 12 13 13
REMARK SMILES IDX 14 14
REMARK H PARENT
REMARK Flexibility Score: inf
ROOT
ATOM      1  C   UNL     1      -0.601  59.105  44.759  1.00  0.00     0.000 C 
ENDROOT
BRANCH   1   2
ATOM      2  C   UNL     1      -0.927  60.228  45.756  1.00  0.00     0.000 C 
BRANCH   2   3
ATOM      3  C   UNL     1      -1.657  61.410  45.099  1.00  0.00     0.006 C 
BRANCH   3   4
ATOM      4  C   UNL     1      -3.182  61.244  45.116  1.00  0.00     0.053 C 
BRANCH   4   5
ATOM      5  C   UNL     1      -3.711  61.427  46.504  1.00  0.00     0.041 C 
ATOM      6  O   UNL     1      -3.824  62.582  46.993  1.00  0.00    -0.550 OA
ATOM      7  O   UNL     1      -4.125  60.323  47.241  1.00  0.00    -0.550 OA
ENDBRANCH   4   5
ENDBRANCH   3   4
ENDBRANCH   2   3
ENDBRANCH   1   2
BRANCH   1   8
ATOM      8  C   UNL     1      -1.132  57.756  45.259  1.00  0.00     0.000 C 
BRANCH   8   9
ATOM      9  C   UNL     1      -2.664  57.753  45.313  1.00  0.00     0.000 C 
BRANCH   9  10
ATOM     10  C   UNL     1      -3.171  56.937  46.512  1.00  0.00     0.006 C 
BRANCH  10  11
ATOM     11  C   UNL     1      -2.043  56.565  47.481  1.00  0.00     0.053 C 
BRANCH  11  12
ATOM     12  C   UNL     1      -2.280  57.125  48.850  1.00  0.00     0.041 C 
ATOM     13  O   UNL     1      -2.100  58.352  49.073  1.00  0.00    -0.550 OA
ATOM     14  O   UNL     1      -2.671  56.288  49.886  1.00  0.00    -0.550 OA
ENDBRANCH  11  12
ENDBRANCH  10  11
ENDBRANCH   9  10
ENDBRANCH   8   9
ENDBRANCH   1   8
TORSDOF 9
ENDMDL
MODEL 8
REMARK VINA RESULT:    -3.951      1.158      1.976
REMARK INTER + INTRA:          -6.936
REMARK INTER:                  -6.184
REMARK INTRA:                  -0.752
REMARK UNBOUND:                -0.906
REMARK SMILES O=C([O-])CCCCCCCCC(=O)[O-]
REMARK SMILES IDX 7 1 6 2 5 3 4 4 2 5 1 6 3 7 8 8 9 9 10 10 11 11 12 12 13 13
REMARK SMILES IDX 14 14
REMARK H PARENT
REMARK Flexibility Score: inf
ROOT
ATOM      1  C   UNL     1      -4.066  60.384  45.912  1.00  0.00     0.000 C 
ENDROOT
BRANCH   1   2
ATOM      2  C   UNL     1      -3.382  60.646  47.262  1.00  0.00     0.000 C 
BRANCH   2   3
ATOM      3  C   UNL     1      -3.755  59.602  48.327  1.00  0.00     0.006 C 
BRANCH   3   4
ATOM      4  C   UNL     1      -2.537  58.826  48.845  1.00  0.00     0.053 C 
BRANCH   4   5
ATOM      5  C   UNL     1      -2.753  57.354  48.689  1.00  0.00     0.041 C 
ATOM      6  O   UNL     1      -2.365  56.557  49.584  1.00  0.00    -0.550 OA
ATOM      7  O   UNL     1      -3.427  56.863  47.576  1.00  0.00    -0.550 OA
ENDBRANCH   4   5
ENDBRANCH   3   4
ENDBRANCH   2   3
ENDBRANCH   1   2
BRANCH   1   8
ATOM      8  C   UNL     1      -3.353  59.265  45.143  1.00  0.00     0.000 C 
BRANCH   8   9
ATOM      9  C   UNL     1      -1.833  59.466  45.164  1.00  0.00     0.000 C 
BRANCH   9  10
ATOM     10  C   UNL     1      -1.099  58.116  45.138  1.00  0.00     0.006 C 
BRANCH  10  11
ATOM     11  C   UNL     1      -0.511  57.801  43.757  1.00  0.00     0.053 C 
BRANCH  11  12
ATOM     12  C   UNL     1       0.947  58.135  43.685  1.00  0.00     0.041 C 
ATOM     13  O   UNL     1       1.343  59.306  43.931  1.00  0.00    -0.550 OA
ATOM     14  O   UNL     1       1.866  57.162  43.317  1.00  0.00    -0.550 OA
ENDBRANCH  11  12
ENDBRANCH  10  11
ENDBRANCH   9  10
ENDBRANCH   8   9
ENDBRANCH   1   8
TORSDOF 9
ENDMDL
MODEL 9
REMARK VINA RESULT:    -3.924      2.526      3.730
REMARK INTER + INTRA:          -6.895
REMARK INTER:                  -6.536
REMARK INTRA:                  -0.359
REMARK UNBOUND:                -0.906
REMARK SMILES O=C([O-])CCCCCCCCC(=O)[O-]
REMARK SMILES IDX 7 1 6 2 5 3 4 4 2 5 1 6 3 7 8 8 9 9 10 10 11 11 12 12 13 13
REMARK SMILES IDX 14 14
REMARK H PARENT
REMARK Flexibility Score: inf
ROOT
ATOM      1  C   UNL     1      -1.548  58.601  45.131  1.00  0.00     0.000 C 
ENDROOT
BRANCH   1   2
ATOM      2  C   UNL     1      -2.794  57.791  44.741  1.00  0.00     0.000 C 
BRANCH   2   3
ATOM      3  C   UNL     1      -3.713  57.506  45.940  1.00  0.00     0.006 C 
BRANCH   3   4
ATOM      4  C   UNL     1      -3.030  56.653  47.017  1.00  0.00     0.053 C 
BRANCH   4   5
ATOM      5  C   UNL     1      -2.862  57.441  48.277  1.00  0.00     0.041 C 
ATOM      6  O   UNL     1      -2.228  56.955  49.251  1.00  0.00    -0.550 OA
ATOM      7  O   UNL     1      -3.363  58.736  48.360  1.00  0.00    -0.550 OA
ENDBRANCH   4   5
ENDBRANCH   3   4
ENDBRANCH   2   3
ENDBRANCH   1   2
BRANCH   1   8
ATOM      8  C   UNL     1      -0.267  57.811  44.839  1.00  0.00     0.000 C 
BRANCH   8   9
ATOM      9  C   UNL     1       0.041  57.796  43.338  1.00  0.00     0.000 C 
BRANCH   9  10
ATOM     10  C   UNL     1       1.449  58.343  43.059  1.00  0.00     0.006 C 
BRANCH  10  11
ATOM     11  C   UNL     1       2.490  57.225  42.921  1.00  0.00     0.053 C 
BRANCH  11  12
ATOM     12  C   UNL     1       3.881  57.730  43.156  1.00  0.00     0.041 C 
ATOM     13  O   UNL     1       4.864  56.948  43.066  1.00  0.00    -0.550 OA
ATOM     14  O   UNL     1       4.088  59.058  43.504  1.00  0.00    -0.550 OA
ENDBRANCH  11  12
ENDBRANCH  10  11
ENDBRANCH   9  10
ENDBRANCH   8   9
ENDBRANCH   1   8
TORSDOF 9
ENDMDL
