MODEL 1
REMARK VINA RESULT:    -5.648      0.000      0.000
REMARK INTER + INTRA:          -9.874
REMARK INTER:                  -8.785
REMARK INTRA:                  -1.089
REMARK UNBOUND:                -1.089
REMARK SMILES COc1cc(CNC(=O)CCCCC=CC(C)C)ccc1O
REMARK SMILES IDX 11 1 12 2 13 3 14 4 15 5 16 6 17 7 18 8 10 9 8 10 9 11 7 12
REMARK SMILES IDX 6 14 5 15 4 16 19 17 3 18 20 19 21 20 2 21 1 22 22 23
REMARK H PARENT 7 13 22 24
REMARK Flexibility Score: inf
ROOT
ATOM      1  C   UNL     1     -10.976  -5.961  -0.194  1.00  0.00     0.010 C 
ENDROOT
BRANCH   1   2
ATOM      2  C   UNL     1     -12.070  -5.942  -1.279  1.00  0.00     0.005 C 
BRANCH   2   3
ATOM      3  C   UNL     1     -11.793  -4.984  -2.451  1.00  0.00     0.027 C 
BRANCH   3   4
ATOM      4  C   UNL     1     -10.355  -5.026  -2.911  1.00  0.00    -0.031 C 
ATOM      5  C   UNL     1      -9.884  -5.921  -3.801  1.00  0.00    -0.028 C 
BRANCH   5   6
ATOM      6  C   UNL     1     -10.731  -6.958  -4.508  1.00  0.00     0.005 C 
ATOM      7  C   UNL     1     -10.567  -8.319  -3.825  1.00  0.00     0.012 C 
ATOM      8  C   UNL     1     -10.321  -7.037  -5.981  1.00  0.00     0.012 C 
ENDBRANCH   5   6
ENDBRANCH   3   4
ENDBRANCH   2   3
ENDBRANCH   1   2
BRANCH   1   9
ATOM      9  C   UNL     1     -10.345  -7.345   0.001  1.00  0.00     0.100 C 
BRANCH   9  10
ATOM     10  C   UNL     1      -9.314  -7.297   1.089  1.00  0.00     0.220 C 
ATOM     11  O   UNL     1      -8.124  -7.000   0.800  1.00  0.00    -0.275 OA
ATOM     12  N   UNL     1      -9.693  -7.534   2.454  1.00  0.00    -0.352 N 
ATOM     13  H   UNL     1     -10.694  -7.738   2.677  1.00  0.00     0.163 HD
BRANCH  12  14
ATOM     14  C   UNL     1      -8.738  -7.455   3.558  1.00  0.00     0.151 C 
BRANCH  14  15
ATOM     15  C   UNL     1      -8.889  -6.149   4.291  1.00  0.00    -0.025 A 
ATOM     16  C   UNL     1      -8.141  -5.890   5.450  1.00  0.00     0.056 A 
ATOM     17  C   UNL     1      -9.804  -5.189   3.832  1.00  0.00     0.009 A 
ATOM     18  C   UNL     1      -8.300  -4.675   6.149  1.00  0.00     0.160 A 
ATOM     19  C   UNL     1      -9.968  -3.987   4.522  1.00  0.00     0.050 A 
ATOM     20  C   UNL     1      -9.221  -3.729   5.679  1.00  0.00     0.157 A 
BRANCH  18  21
ATOM     21  O   UNL     1      -7.564  -4.378   7.308  1.00  0.00    -0.493 OA
ATOM     22  C   UNL     1      -6.930  -5.352   8.133  1.00  0.00     0.278 C 
ENDBRANCH  18  21
BRANCH  20  23
ATOM     23  O   UNL     1      -9.389  -2.531   6.372  1.00  0.00    -0.504 OA
ATOM     24  H   UNL     1      -8.871  -2.332   7.220  1.00  0.00     0.293 HD
ENDBRANCH  20  23
ENDBRANCH  14  15
ENDBRANCH  12  14
ENDBRANCH   9  10
ENDBRANCH   1   9
TORSDOF 10
ENDMDL
MODEL 2
REMARK VINA RESULT:    -5.621      2.482      9.272
REMARK INTER + INTRA:          -9.832
REMARK INTER:                  -9.092
REMARK INTRA:                  -0.739
REMARK UNBOUND:                -1.089
REMARK SMILES COc1cc(CNC(=O)CCCCC=CC(C)C)ccc1O
REMARK SMILES IDX 11 1 12 2 13 3 14 4 15 5 16 6 17 7 18 8 10 9 8 10 9 11 7 12
REMARK SMILES IDX 6 14 5 15 4 16 19 17 3 18 20 19 21 20 2 21 1 22 22 23
REMARK H PARENT 7 13 22 24
REMARK Flexibility Score: inf
ROOT
ATOM      1  C   UNL     1      -8.462  -7.538   4.043  1.00  0.00     0.010 C 
ENDROOT
BRANCH   1   2
ATOM      2  C   UNL     1      -7.692  -7.116   5.308  1.00  0.00     0.005 C 
BRANCH   2   3
ATOM      3  C   UNL     1      -7.775  -5.615   5.637  1.00  0.00     0.027 C 
BRANCH   3   4
ATOM      4  C   UNL     1      -6.645  -5.147   6.523  1.00  0.00    -0.031 C 
ATOM      5  C   UNL     1      -6.684  -5.197   7.868  1.00  0.00    -0.028 C 
BRANCH   5   6
ATOM      6  C   UNL     1      -7.824  -5.781   8.674  1.00  0.00     0.005 C 
ATOM      7  C   UNL     1      -8.359  -4.734   9.657  1.00  0.00     0.012 C 
ATOM      8  C   UNL     1      -7.339  -7.027   9.420  1.00  0.00     0.012 C 
ENDBRANCH   5   6
ENDBRANCH   3   4
ENDBRANCH   2   3
ENDBRANCH   1   2
BRANCH   1   9
ATOM      9  C   UNL     1      -8.761  -6.366   3.100  1.00  0.00     0.100 C 
BRANCH   9  10
ATOM     10  C   UNL     1      -8.981  -6.866   1.704  1.00  0.00     0.220 C 
ATOM     11  O   UNL     1      -7.986  -7.135   0.980  1.00  0.00    -0.275 OA
ATOM     12  N   UNL     1     -10.314  -7.087   1.218  1.00  0.00    -0.352 N 
ATOM     13  H   UNL     1     -11.125  -6.897   1.849  1.00  0.00     0.163 HD
BRANCH  12  14
ATOM     14  C   UNL     1     -10.584  -7.616  -0.118  1.00  0.00     0.151 C 
BRANCH  14  15
ATOM     15  C   UNL     1     -10.770  -6.491  -1.101  1.00  0.00    -0.025 A 
ATOM     16  C   UNL     1     -10.504  -6.684  -2.466  1.00  0.00     0.056 A 
ATOM     17  C   UNL     1     -11.186  -5.229  -0.652  1.00  0.00     0.009 A 
ATOM     18  C   UNL     1     -10.657  -5.623  -3.382  1.00  0.00     0.160 A 
ATOM     19  C   UNL     1     -11.336  -4.175  -1.554  1.00  0.00     0.050 A 
ATOM     20  C   UNL     1     -11.070  -4.367  -2.916  1.00  0.00     0.157 A 
BRANCH  18  21
ATOM     21  O   UNL     1     -10.407  -5.780  -4.756  1.00  0.00    -0.493 OA
ATOM     22  C   UNL     1     -10.965  -6.813  -5.564  1.00  0.00     0.278 C 
ENDBRANCH  18  21
BRANCH  20  23
ATOM     23  O   UNL     1     -11.214  -3.313  -3.817  1.00  0.00    -0.504 OA
ATOM     24  H   UNL     1     -10.861  -2.386  -3.609  1.00  0.00     0.293 HD
ENDBRANCH  20  23
ENDBRANCH  14  15
ENDBRANCH  12  14
ENDBRANCH   9  10
ENDBRANCH   1   9
TORSDOF 10
ENDMDL
MODEL 3
REMARK VINA RESULT:    -5.432      3.079      8.882
REMARK INTER + INTRA:          -9.538
REMARK INTER:                  -8.856
REMARK INTRA:                  -0.682
REMARK UNBOUND:                -1.089
REMARK SMILES COc1cc(CNC(=O)CCCCC=CC(C)C)ccc1O
REMARK SMILES IDX 11 1 12 2 13 3 14 4 15 5 16 6 17 7 18 8 10 9 8 10 9 11 7 12
REMARK SMILES IDX 6 14 5 15 4 16 19 17 3 18 20 19 21 20 2 21 1 22 22 23
REMARK H PARENT 7 13 22 24
REMARK Flexibility Score: inf
ROOT
ATOM      1  C   UNL     1      -8.794  -6.518   1.886  1.00  0.00     0.010 C 
ENDROOT
BRANCH   1   2
ATOM      2  C   UNL     1      -9.624  -5.791   2.961  1.00  0.00     0.005 C 
BRANCH   2   3
ATOM      3  C   UNL     1      -9.111  -5.976   4.399  1.00  0.00     0.027 C 
BRANCH   3   4
ATOM      4  C   UNL     1      -9.266  -4.731   5.240  1.00  0.00    -0.031 C 
ATOM      5  C   UNL     1      -8.555  -4.496   6.359  1.00  0.00    -0.028 C 
BRANCH   5   6
ATOM      6  C   UNL     1      -7.467  -5.402   6.893  1.00  0.00     0.005 C 
ATOM      7  C   UNL     1      -7.291  -5.176   8.399  1.00  0.00     0.012 C 
ATOM      8  C   UNL     1      -6.158  -5.127   6.147  1.00  0.00     0.012 C 
ENDBRANCH   5   6
ENDBRANCH   3   4
ENDBRANCH   2   3
ENDBRANCH   1   2
BRANCH   1   9
ATOM      9  C   UNL     1      -8.712  -8.033   2.110  1.00  0.00     0.100 C 
BRANCH   9  10
ATOM     10  C   UNL     1      -9.381  -8.762   0.984  1.00  0.00     0.220 C 
ATOM     11  O   UNL     1      -9.048  -9.950   0.732  1.00  0.00    -0.275 OA
ATOM     12  N   UNL     1     -10.429  -8.127   0.235  1.00  0.00    -0.352 N 
ATOM     13  H   UNL     1     -10.719  -7.154   0.487  1.00  0.00     0.163 HD
BRANCH  12  14
ATOM     14  C   UNL     1     -11.146  -8.807  -0.843  1.00  0.00     0.151 C 
BRANCH  14  15
ATOM     15  C   UNL     1     -10.804  -8.189  -2.172  1.00  0.00    -0.025 A 
ATOM     16  C   UNL     1     -10.740  -6.794  -2.317  1.00  0.00     0.056 A 
ATOM     17  C   UNL     1     -10.573  -9.009  -3.287  1.00  0.00     0.009 A 
ATOM     18  C   UNL     1     -10.443  -6.217  -3.569  1.00  0.00     0.160 A 
ATOM     19  C   UNL     1     -10.281  -8.443  -4.529  1.00  0.00     0.050 A 
ATOM     20  C   UNL     1     -10.218  -7.050  -4.673  1.00  0.00     0.157 A 
BRANCH  18  21
ATOM     21  O   UNL     1     -10.363  -4.826  -3.751  1.00  0.00    -0.493 OA
ATOM     22  C   UNL     1     -10.771  -3.862  -2.783  1.00  0.00     0.278 C 
ENDBRANCH  18  21
BRANCH  20  23
ATOM     23  O   UNL     1      -9.932  -6.484  -5.914  1.00  0.00    -0.504 OA
ATOM     24  H   UNL     1     -10.510  -5.750  -6.309  1.00  0.00     0.293 HD
ENDBRANCH  20  23
ENDBRANCH  14  15
ENDBRANCH  12  14
ENDBRANCH   9  10
ENDBRANCH   1   9
TORSDOF 10
ENDMDL
MODEL 4
REMARK VINA RESULT:    -5.414      2.936      8.792
REMARK INTER + INTRA:          -9.511
REMARK INTER:                  -8.762
REMARK INTRA:                  -0.749
REMARK UNBOUND:                -1.089
REMARK SMILES COc1cc(CNC(=O)CCCCC=CC(C)C)ccc1O
REMARK SMILES IDX 11 1 12 2 13 3 14 4 15 5 16 6 17 7 18 8 10 9 8 10 9 11 7 12
REMARK SMILES IDX 6 14 5 15 4 16 19 17 3 18 20 19 21 20 2 21 1 22 22 23
REMARK H PARENT 7 13 22 24
REMARK Flexibility Score: inf
ROOT
ATOM      1  C   UNL     1      -8.375  -6.475   2.391  1.00  0.00     0.010 C 
ENDROOT
BRANCH   1   2
ATOM      2  C   UNL     1      -9.452  -5.624   3.088  1.00  0.00     0.005 C 
BRANCH   2   3
ATOM      3  C   UNL     1      -9.507  -5.788   4.618  1.00  0.00     0.027 C 
BRANCH   3   4
ATOM      4  C   UNL     1      -9.329  -4.480   5.352  1.00  0.00    -0.031 C 
ATOM      5  C   UNL     1      -8.429  -4.296   6.336  1.00  0.00    -0.028 C 
BRANCH   5   6
ATOM      6  C   UNL     1      -7.433  -5.339   6.797  1.00  0.00     0.005 C 
ATOM      7  C   UNL     1      -7.188  -5.197   8.303  1.00  0.00     0.012 C 
ATOM      8  C   UNL     1      -6.125  -5.181   6.017  1.00  0.00     0.012 C 
ENDBRANCH   5   6
ENDBRANCH   3   4
ENDBRANCH   2   3
ENDBRANCH   1   2
BRANCH   1   9
ATOM      9  C   UNL     1      -8.672  -7.980   2.436  1.00  0.00     0.100 C 
BRANCH   9  10
ATOM     10  C   UNL     1      -9.253  -8.433   1.130  1.00  0.00     0.220 C 
ATOM     11  O   UNL     1      -9.056  -9.616   0.743  1.00  0.00    -0.275 OA
ATOM     12  N   UNL     1     -10.071  -7.542   0.355  1.00  0.00    -0.352 N 
ATOM     13  H   UNL     1     -10.255  -6.578   0.715  1.00  0.00     0.163 HD
BRANCH  12  14
ATOM     14  C   UNL     1     -10.698  -7.946  -0.901  1.00  0.00     0.151 C 
BRANCH  14  15
ATOM     15  C   UNL     1     -11.008  -6.740  -1.746  1.00  0.00    -0.025 A 
ATOM     16  C   UNL     1     -11.064  -6.843  -3.146  1.00  0.00     0.056 A 
ATOM     17  C   UNL     1     -11.216  -5.493  -1.139  1.00  0.00     0.009 A 
ATOM     18  C   UNL     1     -11.331  -5.707  -3.937  1.00  0.00     0.160 A 
ATOM     19  C   UNL     1     -11.478  -4.365  -1.918  1.00  0.00     0.050 A 
ATOM     20  C   UNL     1     -11.533  -4.468  -3.314  1.00  0.00     0.157 A 
BRANCH  18  21
ATOM     21  O   UNL     1     -11.402  -5.773  -5.338  1.00  0.00    -0.493 OA
ATOM     22  C   UNL     1     -10.745  -6.757  -6.134  1.00  0.00     0.278 C 
ENDBRANCH  18  21
BRANCH  20  23
ATOM     23  O   UNL     1     -11.789  -3.341  -4.093  1.00  0.00    -0.504 OA
ATOM     24  H   UNL     1     -12.134  -2.481  -3.685  1.00  0.00     0.293 HD
ENDBRANCH  20  23
ENDBRANCH  14  15
ENDBRANCH  12  14
ENDBRANCH   9  10
ENDBRANCH   1   9
TORSDOF 10
ENDMDL
MODEL 5
REMARK VINA RESULT:    -5.297      1.403      2.137
REMARK INTER + INTRA:          -9.328
REMARK INTER:                  -8.348
REMARK INTRA:                  -0.980
REMARK UNBOUND:                -1.089
REMARK SMILES COc1cc(CNC(=O)CCCCC=CC(C)C)ccc1O
REMARK SMILES IDX 11 1 12 2 13 3 14 4 15 5 16 6 17 7 18 8 10 9 8 10 9 11 7 12
REMARK SMILES IDX 6 14 5 15 4 16 19 17 3 18 20 19 21 20 2 21 1 22 22 23
REMARK H PARENT 7 13 22 24
REMARK Flexibility Score: inf
ROOT
ATOM      1  C   UNL     1      -9.506  -7.574   0.318  1.00  0.00     0.010 C 
ENDROOT
BRANCH   1   2
ATOM      2  C   UNL     1     -10.513  -6.655   1.036  1.00  0.00     0.005 C 
BRANCH   2   3
ATOM      3  C   UNL     1     -11.253  -5.672   0.111  1.00  0.00     0.027 C 
BRANCH   3   4
ATOM      4  C   UNL     1     -11.987  -6.366  -1.011  1.00  0.00    -0.031 C 
ATOM      5  C   UNL     1     -11.612  -6.294  -2.302  1.00  0.00    -0.028 C 
BRANCH   5   6
ATOM      6  C   UNL     1     -10.379  -5.570  -2.801  1.00  0.00     0.005 C 
ATOM      7  C   UNL     1     -10.692  -4.083  -3.001  1.00  0.00     0.012 C 
ATOM      8  C   UNL     1      -9.905  -6.205  -4.111  1.00  0.00     0.012 C 
ENDBRANCH   5   6
ENDBRANCH   3   4
ENDBRANCH   2   3
ENDBRANCH   1   2
BRANCH   1   9
ATOM      9  C   UNL     1      -9.465  -8.994   0.899  1.00  0.00     0.100 C 
BRANCH   9  10
ATOM     10  C   UNL     1      -9.266  -8.942   2.384  1.00  0.00     0.220 C 
ATOM     11  O   UNL     1     -10.072  -9.552   3.137  1.00  0.00    -0.275 OA
ATOM     12  N   UNL     1      -8.138  -8.247   2.938  1.00  0.00    -0.352 N 
ATOM     13  H   UNL     1      -7.459  -7.783   2.293  1.00  0.00     0.163 HD
BRANCH  12  14
ATOM     14  C   UNL     1      -7.872  -8.203   4.374  1.00  0.00     0.151 C 
BRANCH  14  15
ATOM     15  C   UNL     1      -8.209  -6.846   4.930  1.00  0.00    -0.025 A 
ATOM     16  C   UNL     1      -7.625  -6.398   6.126  1.00  0.00     0.056 A 
ATOM     17  C   UNL     1      -9.136  -6.027   4.267  1.00  0.00     0.009 A 
ATOM     18  C   UNL     1      -7.960  -5.135   6.657  1.00  0.00     0.160 A 
ATOM     19  C   UNL     1      -9.473  -4.778   4.791  1.00  0.00     0.050 A 
ATOM     20  C   UNL     1      -8.890  -4.331   5.984  1.00  0.00     0.157 A 
BRANCH  18  21
ATOM     21  O   UNL     1      -7.391  -4.651   7.847  1.00  0.00    -0.493 OA
ATOM     22  C   UNL     1      -7.944  -4.851   9.145  1.00  0.00     0.278 C 
ENDBRANCH  18  21
BRANCH  20  23
ATOM     23  O   UNL     1      -9.230  -3.087   6.511  1.00  0.00    -0.504 OA
ATOM     24  H   UNL     1      -9.906  -2.484   6.055  1.00  0.00     0.293 HD
ENDBRANCH  20  23
ENDBRANCH  14  15
ENDBRANCH  12  14
ENDBRANCH   9  10
ENDBRANCH   1   9
TORSDOF 10
ENDMDL
MODEL 6
REMARK VINA RESULT:    -5.259      2.890      9.942
REMARK INTER + INTRA:          -9.270
REMARK INTER:                  -8.679
REMARK INTRA:                  -0.591
REMARK UNBOUND:                -1.089
REMARK SMILES COc1cc(CNC(=O)CCCCC=CC(C)C)ccc1O
REMARK SMILES IDX 11 1 12 2 13 3 14 4 15 5 16 6 17 7 18 8 10 9 8 10 9 11 7 12
REMARK SMILES IDX 6 14 5 15 4 16 19 17 3 18 20 19 21 20 2 21 1 22 22 23
REMARK H PARENT 7 13 22 24
REMARK Flexibility Score: inf
ROOT
ATOM      1  C   UNL     1      -8.762  -7.366   3.529  1.00  0.00     0.010 C 
ENDROOT
BRANCH   1   2
ATOM      2  C   UNL     1      -8.474  -6.314   4.616  1.00  0.00     0.005 C 
BRANCH   2   3
ATOM      3  C   UNL     1      -7.428  -6.743   5.661  1.00  0.00     0.027 C 
BRANCH   3   4
ATOM      4  C   UNL     1      -6.672  -5.573   6.245  1.00  0.00    -0.031 C 
ATOM      5  C   UNL     1      -6.862  -5.115   7.497  1.00  0.00    -0.028 C 
BRANCH   5   6
ATOM      6  C   UNL     1      -7.799  -5.739   8.508  1.00  0.00     0.005 C 
ATOM      7  C   UNL     1      -8.457  -4.645   9.355  1.00  0.00     0.012 C 
ATOM      8  C   UNL     1      -7.022  -6.717   9.394  1.00  0.00     0.012 C 
ENDBRANCH   5   6
ENDBRANCH   3   4
ENDBRANCH   2   3
ENDBRANCH   1   2
BRANCH   1   9
ATOM      9  C   UNL     1      -8.655  -6.807   2.104  1.00  0.00     0.100 C 
BRANCH   9  10
ATOM     10  C   UNL     1      -9.283  -7.754   1.126  1.00  0.00     0.220 C 
ATOM     11  O   UNL     1      -8.988  -8.978   1.177  1.00  0.00    -0.275 OA
ATOM     12  N   UNL     1     -10.249  -7.278   0.177  1.00  0.00    -0.352 N 
ATOM     13  H   UNL     1     -10.509  -6.265   0.179  1.00  0.00     0.163 HD
BRANCH  12  14
ATOM     14  C   UNL     1     -10.923  -8.165  -0.768  1.00  0.00     0.151 C 
BRANCH  14  15
ATOM     15  C   UNL     1     -10.682  -7.709  -2.182  1.00  0.00    -0.025 A 
ATOM     16  C   UNL     1     -10.696  -8.630  -3.242  1.00  0.00     0.056 A 
ATOM     17  C   UNL     1     -10.413  -6.358  -2.446  1.00  0.00     0.009 A 
ATOM     18  C   UNL     1     -10.447  -8.205  -4.563  1.00  0.00     0.160 A 
ATOM     19  C   UNL     1     -10.162  -5.933  -3.752  1.00  0.00     0.050 A 
ATOM     20  C   UNL     1     -10.176  -6.852  -4.810  1.00  0.00     0.157 A 
BRANCH  18  21
ATOM     21  O   UNL     1     -10.459  -9.095  -5.650  1.00  0.00    -0.493 OA
ATOM     22  C   UNL     1     -11.628  -9.462  -6.378  1.00  0.00     0.278 C 
ENDBRANCH  18  21
BRANCH  20  23
ATOM     23  O   UNL     1      -9.920  -6.428  -6.113  1.00  0.00    -0.504 OA
ATOM     24  H   UNL     1      -9.965  -7.069  -6.897  1.00  0.00     0.293 HD
ENDBRANCH  20  23
ENDBRANCH  14  15
ENDBRANCH  12  14
ENDBRANCH   9  10
ENDBRANCH   1   9
TORSDOF 10
ENDMDL
MODEL 7
REMARK VINA RESULT:    -5.230      1.468      2.198
REMARK INTER + INTRA:          -9.223
REMARK INTER:                  -8.315
REMARK INTRA:                  -0.908
REMARK UNBOUND:                -1.089
REMARK SMILES COc1cc(CNC(=O)CCCCC=CC(C)C)ccc1O
REMARK SMILES IDX 11 1 12 2 13 3 14 4 15 5 16 6 17 7 18 8 10 9 8 10 9 11 7 12
REMARK SMILES IDX 6 14 5 15 4 16 19 17 3 18 20 19 21 20 2 21 1 22 22 23
REMARK H PARENT 7 13 22 24
REMARK Flexibility Score: inf
ROOT
ATOM      1  C   UNL     1     -10.256  -6.576  -0.426  1.00  0.00     0.010 C 
ENDROOT
BRANCH   1   2
ATOM      2  C   UNL     1     -11.453  -5.669  -0.765  1.00  0.00     0.005 C 
BRANCH   2   3
ATOM      3  C   UNL     1     -11.549  -5.263  -2.247  1.00  0.00     0.027 C 
BRANCH   3   4
ATOM      4  C   UNL     1     -10.199  -5.190  -2.921  1.00  0.00    -0.031 C 
ATOM      5  C   UNL     1      -9.830  -5.995  -3.935  1.00  0.00    -0.028 C 
BRANCH   5   6
ATOM      6  C   UNL     1     -10.725  -7.030  -4.582  1.00  0.00     0.005 C 
ATOM      7  C   UNL     1     -10.515  -8.393  -3.912  1.00  0.00     0.012 C 
ATOM      8  C   UNL     1     -10.419  -7.110  -6.080  1.00  0.00     0.012 C 
ENDBRANCH   5   6
ENDBRANCH   3   4
ENDBRANCH   2   3
ENDBRANCH   1   2
BRANCH   1   9
ATOM      9  C   UNL     1     -10.499  -7.462   0.803  1.00  0.00     0.100 C 
BRANCH   9  10
ATOM     10  C   UNL     1     -10.745  -6.612   2.014  1.00  0.00     0.220 C 
ATOM     11  O   UNL     1     -11.806  -6.770   2.674  1.00  0.00    -0.275 OA
ATOM     12  N   UNL     1      -9.754  -5.666   2.446  1.00  0.00    -0.352 N 
ATOM     13  H   UNL     1      -8.862  -5.581   1.907  1.00  0.00     0.163 HD
BRANCH  12  14
ATOM     14  C   UNL     1      -9.923  -4.846   3.643  1.00  0.00     0.151 C 
BRANCH  14  15
ATOM     15  C   UNL     1      -9.056  -5.362   4.760  1.00  0.00    -0.025 A 
ATOM     16  C   UNL     1      -8.927  -4.638   5.957  1.00  0.00     0.056 A 
ATOM     17  C   UNL     1      -8.346  -6.561   4.600  1.00  0.00     0.009 A 
ATOM     18  C   UNL     1      -8.096  -5.111   6.993  1.00  0.00     0.160 A 
ATOM     19  C   UNL     1      -7.520  -7.032   5.622  1.00  0.00     0.050 A 
ATOM     20  C   UNL     1      -7.391  -6.310   6.816  1.00  0.00     0.157 A 
BRANCH  18  21
ATOM     21  O   UNL     1      -7.947  -4.419   8.207  1.00  0.00    -0.493 OA
ATOM     22  C   UNL     1      -8.839  -4.530   9.313  1.00  0.00     0.278 C 
ENDBRANCH  18  21
BRANCH  20  23
ATOM     23  O   UNL     1      -6.561  -6.776   7.834  1.00  0.00    -0.504 OA
ATOM     24  H   UNL     1      -6.938  -7.211   8.668  1.00  0.00     0.293 HD
ENDBRANCH  20  23
ENDBRANCH  14  15
ENDBRANCH  12  14
ENDBRANCH   9  10
ENDBRANCH   1   9
TORSDOF 10
ENDMDL
MODEL 8
REMARK VINA RESULT:    -5.183      1.169      2.147
REMARK INTER + INTRA:          -9.150
REMARK INTER:                  -8.069
REMARK INTRA:                  -1.081
REMARK UNBOUND:                -1.089
REMARK SMILES COc1cc(CNC(=O)CCCCC=CC(C)C)ccc1O
REMARK SMILES IDX 11 1 12 2 13 3 14 4 15 5 16 6 17 7 18 8 10 9 8 10 9 11 7 12
REMARK SMILES IDX 6 14 5 15 4 16 19 17 3 18 20 19 21 20 2 21 1 22 22 23
REMARK H PARENT 7 13 22 24
REMARK Flexibility Score: inf
ROOT
ATOM      1  C   UNL     1     -10.068  -6.516  -0.367  1.00  0.00     0.010 C 
ENDROOT
BRANCH   1   2
ATOM      2  C   UNL     1     -11.305  -5.662  -0.705  1.00  0.00     0.005 C 
BRANCH   2   3
ATOM      3  C   UNL     1     -11.517  -5.411  -2.208  1.00  0.00     0.027 C 
BRANCH   3   4
ATOM      4  C   UNL     1     -10.218  -5.273  -2.966  1.00  0.00    -0.031 C 
ATOM      5  C   UNL     1      -9.883  -6.049  -4.014  1.00  0.00    -0.028 C 
BRANCH   5   6
ATOM      6  C   UNL     1     -10.775  -7.113  -4.617  1.00  0.00     0.005 C 
ATOM      7  C   UNL     1     -10.445  -8.479  -4.006  1.00  0.00     0.012 C 
ATOM      8  C   UNL     1     -10.588  -7.139  -6.137  1.00  0.00     0.012 C 
ENDBRANCH   5   6
ENDBRANCH   3   4
ENDBRANCH   2   3
ENDBRANCH   1   2
BRANCH   1   9
ATOM      9  C   UNL     1     -10.364  -8.021  -0.335  1.00  0.00     0.100 C 
BRANCH   9  10
ATOM     10  C   UNL     1      -9.751  -8.645   0.883  1.00  0.00     0.220 C 
ATOM     11  O   UNL     1      -9.329  -9.831   0.823  1.00  0.00    -0.275 OA
ATOM     12  N   UNL     1      -9.599  -7.879   2.088  1.00  0.00    -0.352 N 
ATOM     13  H   UNL     1      -9.918  -6.884   2.103  1.00  0.00     0.163 HD
BRANCH  12  14
ATOM     14  C   UNL     1      -8.968  -8.424   3.289  1.00  0.00     0.151 C 
BRANCH  14  15
ATOM     15  C   UNL     1      -8.659  -7.322   4.266  1.00  0.00    -0.025 A 
ATOM     16  C   UNL     1      -9.442  -6.157   4.301  1.00  0.00     0.056 A 
ATOM     17  C   UNL     1      -7.563  -7.441   5.133  1.00  0.00     0.009 A 
ATOM     18  C   UNL     1      -9.137  -5.116   5.201  1.00  0.00     0.160 A 
ATOM     19  C   UNL     1      -7.255  -6.412   6.024  1.00  0.00     0.050 A 
ATOM     20  C   UNL     1      -8.037  -5.250   6.059  1.00  0.00     0.157 A 
BRANCH  18  21
ATOM     21  O   UNL     1      -9.902  -3.939   5.270  1.00  0.00    -0.493 OA
ATOM     22  C   UNL     1     -10.282  -3.158   4.140  1.00  0.00     0.278 C 
ENDBRANCH  18  21
BRANCH  20  23
ATOM     23  O   UNL     1      -7.726  -4.219   6.944  1.00  0.00    -0.504 OA
ATOM     24  H   UNL     1      -7.664  -3.256   6.636  1.00  0.00     0.293 HD
ENDBRANCH  20  23
ENDBRANCH  14  15
ENDBRANCH  12  14
ENDBRANCH   9  10
ENDBRANCH   1   9
TORSDOF 10
ENDMDL
MODEL 9
REMARK VINA RESULT:    -5.038      0.893      1.900
REMARK INTER + INTRA:          -8.926
REMARK INTER:                  -8.003
REMARK INTRA:                  -0.923
REMARK UNBOUND:                -1.089
REMARK SMILES COc1cc(CNC(=O)CCCCC=CC(C)C)ccc1O
REMARK SMILES IDX 11 1 12 2 13 3 14 4 15 5 16 6 17 7 18 8 10 9 8 10 9 11 7 12
REMARK SMILES IDX 6 14 5 15 4 16 19 17 3 18 20 19 21 20 2 21 1 22 22 23
REMARK H PARENT 7 13 22 24
REMARK Flexibility Score: inf
ROOT
ATOM      1  C   UNL     1     -10.491  -8.869  -0.610  1.00  0.00     0.010 C 
ENDROOT
BRANCH   1   2
ATOM      2  C   UNL     1     -11.852  -9.346  -1.150  1.00  0.00     0.005 C 
BRANCH   2   3
ATOM      3  C   UNL     1     -12.010  -9.231  -2.677  1.00  0.00     0.027 C 
BRANCH   3   4
ATOM      4  C   UNL     1     -10.703  -9.403  -3.414  1.00  0.00    -0.031 C 
ATOM      5  C   UNL     1     -10.203  -8.488  -4.266  1.00  0.00    -0.028 C 
BRANCH   5   6
ATOM      6  C   UNL     1     -10.839  -7.144  -4.554  1.00  0.00     0.005 C 
ATOM      7  C   UNL     1     -10.627  -6.772  -6.025  1.00  0.00     0.012 C 
ATOM      8  C   UNL     1     -10.233  -6.082  -3.633  1.00  0.00     0.012 C 
ENDBRANCH   5   6
ENDBRANCH   3   4
ENDBRANCH   2   3
ENDBRANCH   1   2
BRANCH   1   9
ATOM      9  C   UNL     1     -10.573  -7.529   0.134  1.00  0.00     0.100 C 
BRANCH   9  10
ATOM     10  C   UNL     1      -9.468  -7.426   1.141  1.00  0.00     0.220 C 
ATOM     11  O   UNL     1      -8.309  -7.116   0.756  1.00  0.00    -0.275 OA
ATOM     12  N   UNL     1      -9.740  -7.627   2.537  1.00  0.00    -0.352 N 
ATOM     13  H   UNL     1     -10.717  -7.843   2.839  1.00  0.00     0.163 HD
BRANCH  12  14
ATOM     14  C   UNL     1      -8.710  -7.494   3.564  1.00  0.00     0.151 C 
BRANCH  14  15
ATOM     15  C   UNL     1      -8.866  -6.191   4.300  1.00  0.00    -0.025 A 
ATOM     16  C   UNL     1      -8.124  -5.934   5.465  1.00  0.00     0.056 A 
ATOM     17  C   UNL     1      -9.780  -5.231   3.840  1.00  0.00     0.009 A 
ATOM     18  C   UNL     1      -8.289  -4.722   6.166  1.00  0.00     0.160 A 
ATOM     19  C   UNL     1      -9.949  -4.031   4.533  1.00  0.00     0.050 A 
ATOM     20  C   UNL     1      -9.208  -3.775   5.694  1.00  0.00     0.157 A 
BRANCH  18  21
ATOM     21  O   UNL     1      -7.559  -4.427   7.330  1.00  0.00    -0.493 OA
ATOM     22  C   UNL     1      -7.463  -5.289   8.461  1.00  0.00     0.278 C 
ENDBRANCH  18  21
BRANCH  20  23
ATOM     23  O   UNL     1      -9.381  -2.580   6.390  1.00  0.00    -0.504 OA
ATOM     24  H   UNL     1      -9.898  -1.804   5.992  1.00  0.00     0.293 HD
ENDBRANCH  20  23
ENDBRANCH  14  15
ENDBRANCH  12  14
ENDBRANCH   9  10
ENDBRANCH   1   9
TORSDOF 10
ENDMDL
