MODEL 1
REMARK VINA RESULT:    -3.236      0.000      0.000
REMARK INTER + INTRA:          -3.905
REMARK INTER:                  -3.804
REMARK INTRA:                  -0.101
REMARK UNBOUND:                -0.101
REMARK SMILES O=C([O-])CCC(=O)[O-]
REMARK SMILES IDX 4 1 2 2 1 3 3 4 5 5 6 6 7 7 8 8
REMARK H PARENT
REMARK Flexibility Score: inf
ROOT
ATOM      1  C   UNL     1      23.510   1.427  38.958  1.00  0.00     0.059 C 
ENDROOT
BRANCH   1   2
ATOM      2  C   UNL     1      23.575   0.142  39.724  1.00  0.00     0.042 C 
ATOM      3  O   UNL     1      23.927  -0.923  39.151  1.00  0.00    -0.550 OA
ATOM      4  O   UNL     1      23.207   0.112  41.064  1.00  0.00    -0.550 OA
ENDBRANCH   1   2
BRANCH   1   5
ATOM      5  C   UNL     1      23.344   2.632  39.889  1.00  0.00     0.059 C 
BRANCH   5   6
ATOM      6  C   UNL     1      24.670   3.185  40.315  1.00  0.00     0.042 C 
ATOM      7  O   UNL     1      24.867   3.511  41.515  1.00  0.00    -0.550 OA
ATOM      8  O   UNL     1      25.676   3.377  39.376  1.00  0.00    -0.550 OA
ENDBRANCH   5   6
ENDBRANCH   1   5
TORSDOF 3
ENDMDL
MODEL 2
REMARK VINA RESULT:    -3.224      0.564      3.715
REMARK INTER + INTRA:          -3.891
REMARK INTER:                  -3.816
REMARK INTRA:                  -0.074
REMARK UNBOUND:                -0.101
REMARK SMILES O=C([O-])CCC(=O)[O-]
REMARK SMILES IDX 4 1 2 2 1 3 3 4 5 5 6 6 7 7 8 8
REMARK H PARENT
REMARK Flexibility Score: inf
ROOT
ATOM      1  C   UNL     1      23.582   2.651  40.020  1.00  0.00     0.059 C 
ENDROOT
BRANCH   1   2
ATOM      2  C   UNL     1      24.771   3.562  39.987  1.00  0.00     0.042 C 
ATOM      3  O   UNL     1      25.785   3.259  39.304  1.00  0.00    -0.550 OA
ATOM      4  O   UNL     1      24.775   4.727  40.744  1.00  0.00    -0.550 OA
ENDBRANCH   1   2
BRANCH   1   5
ATOM      5  C   UNL     1      23.748   1.471  39.057  1.00  0.00     0.059 C 
BRANCH   5   6
ATOM      6  C   UNL     1      23.605   0.158  39.765  1.00  0.00     0.042 C 
ATOM      7  O   UNL     1      23.250   0.123  40.972  1.00  0.00    -0.550 OA
ATOM      8  O   UNL     1      23.904  -1.025  39.100  1.00  0.00    -0.550 OA
ENDBRANCH   5   6
ENDBRANCH   1   5
TORSDOF 3
ENDMDL
MODEL 3
REMARK VINA RESULT:    -3.195      1.566      1.879
REMARK INTER + INTRA:          -3.856
REMARK INTER:                  -3.828
REMARK INTRA:                  -0.028
REMARK UNBOUND:                -0.101
REMARK SMILES O=C([O-])CCC(=O)[O-]
REMARK SMILES IDX 4 1 2 2 1 3 3 4 5 5 6 6 7 7 8 8
REMARK H PARENT
REMARK Flexibility Score: inf
ROOT
ATOM      1  C   UNL     1      23.869   2.330  40.044  1.00  0.00     0.059 C 
ENDROOT
BRANCH   1   2
ATOM      2  C   UNL     1      23.382   1.265  39.109  1.00  0.00     0.042 C 
ATOM      3  O   UNL     1      22.547   1.544  38.209  1.00  0.00    -0.550 OA
ATOM      4  O   UNL     1      23.820  -0.045  39.259  1.00  0.00    -0.550 OA
ENDBRANCH   1   2
BRANCH   1   5
ATOM      5  C   UNL     1      25.048   3.107  39.450  1.00  0.00     0.059 C 
BRANCH   5   6
ATOM      6  C   UNL     1      25.559   4.144  40.403  1.00  0.00     0.042 C 
ATOM      7  O   UNL     1      24.792   5.045  40.832  1.00  0.00    -0.550 OA
ATOM      8  O   UNL     1      26.895   4.137  40.785  1.00  0.00    -0.550 OA
ENDBRANCH   5   6
ENDBRANCH   1   5
TORSDOF 3
ENDMDL
MODEL 4
REMARK VINA RESULT:    -3.185      1.629      4.110
REMARK INTER + INTRA:          -3.844
REMARK INTER:                  -3.818
REMARK INTRA:                  -0.027
REMARK UNBOUND:                -0.101
REMARK SMILES O=C([O-])CCC(=O)[O-]
REMARK SMILES IDX 4 1 2 2 1 3 3 4 5 5 6 6 7 7 8 8
REMARK H PARENT
REMARK Flexibility Score: inf
ROOT
ATOM      1  C   UNL     1      25.022   3.149  39.509  1.00  0.00     0.059 C 
ENDROOT
BRANCH   1   2
ATOM      2  C   UNL     1      25.530   4.177  40.473  1.00  0.00     0.042 C 
ATOM      3  O   UNL     1      24.800   5.145  40.812  1.00  0.00    -0.550 OA
ATOM      4  O   UNL     1      26.826   4.088  40.965  1.00  0.00    -0.550 OA
ENDBRANCH   1   2
BRANCH   1   5
ATOM      5  C   UNL     1      23.914   2.293  40.129  1.00  0.00     0.059 C 
BRANCH   5   6
ATOM      6  C   UNL     1      23.401   1.271  39.160  1.00  0.00     0.042 C 
ATOM      7  O   UNL     1      23.786   0.075  39.235  1.00  0.00    -0.550 OA
ATOM      8  O   UNL     1      22.526   1.650  38.150  1.00  0.00    -0.550 OA
ENDBRANCH   5   6
ENDBRANCH   1   5
TORSDOF 3
ENDMDL
MODEL 5
REMARK VINA RESULT:    -3.056      9.409     10.892
REMARK INTER + INTRA:          -3.693
REMARK INTER:                  -3.653
REMARK INTRA:                  -0.040
REMARK UNBOUND:                -0.101
REMARK SMILES O=C([O-])CCC(=O)[O-]
REMARK SMILES IDX 4 1 2 2 1 3 3 4 5 5 6 6 7 7 8 8
REMARK H PARENT
REMARK Flexibility Score: inf
ROOT
ATOM      1  C   UNL     1      28.827   5.495  48.617  1.00  0.00     0.059 C 
ENDROOT
BRANCH   1   2
ATOM      2  C   UNL     1      27.690   4.713  48.036  1.00  0.00     0.042 C 
ATOM      3  O   UNL     1      26.829   4.187  48.790  1.00  0.00    -0.550 OA
ATOM      4  O   UNL     1      27.604   4.529  46.661  1.00  0.00    -0.550 OA
ENDBRANCH   1   2
BRANCH   1   5
ATOM      5  C   UNL     1      29.700   4.629  49.531  1.00  0.00     0.059 C 
BRANCH   5   6
ATOM      6  C   UNL     1      31.156   4.793  49.218  1.00  0.00     0.042 C 
ATOM      7  O   UNL     1      31.564   5.818  48.613  1.00  0.00    -0.550 OA
ATOM      8  O   UNL     1      32.057   3.791  49.561  1.00  0.00    -0.550 OA
ENDBRANCH   5   6
ENDBRANCH   1   5
TORSDOF 3
ENDMDL
MODEL 6
REMARK VINA RESULT:    -3.026     16.585     17.482
REMARK INTER + INTRA:          -3.658
REMARK INTER:                  -3.471
REMARK INTRA:                  -0.188
REMARK UNBOUND:                -0.101
REMARK SMILES O=C([O-])CCC(=O)[O-]
REMARK SMILES IDX 4 1 2 2 1 3 3 4 5 5 6 6 7 7 8 8
REMARK H PARENT
REMARK Flexibility Score: inf
ROOT
ATOM      1  C   UNL     1      24.078  -2.890  56.834  1.00  0.00     0.059 C 
ENDROOT
BRANCH   1   2
ATOM      2  C   UNL     1      23.646  -2.907  55.400  1.00  0.00     0.042 C 
ATOM      3  O   UNL     1      23.622  -3.989  54.756  1.00  0.00    -0.550 OA
ATOM      4  O   UNL     1      23.309  -1.719  54.762  1.00  0.00    -0.550 OA
ENDBRANCH   1   2
BRANCH   1   5
ATOM      5  C   UNL     1      23.056  -3.583  57.740  1.00  0.00     0.059 C 
BRANCH   5   6
ATOM      6  C   UNL     1      21.714  -2.919  57.664  1.00  0.00     0.042 C 
ATOM      7  O   UNL     1      20.703  -3.572  57.298  1.00  0.00    -0.550 OA
ATOM      8  O   UNL     1      21.591  -1.567  57.961  1.00  0.00    -0.550 OA
ENDBRANCH   5   6
ENDBRANCH   1   5
TORSDOF 3
ENDMDL
MODEL 7
REMARK VINA RESULT:    -3.017      9.415     11.176
REMARK INTER + INTRA:          -3.647
REMARK INTER:                  -3.606
REMARK INTRA:                  -0.041
REMARK UNBOUND:                -0.101
REMARK SMILES O=C([O-])CCC(=O)[O-]
REMARK SMILES IDX 4 1 2 2 1 3 3 4 5 5 6 6 7 7 8 8
REMARK H PARENT
REMARK Flexibility Score: inf
ROOT
ATOM      1  C   UNL     1      29.629   4.616  49.521  1.00  0.00     0.059 C 
ENDROOT
BRANCH   1   2
ATOM      2  C   UNL     1      31.102   4.802  49.322  1.00  0.00     0.042 C 
ATOM      3  O   UNL     1      31.535   5.780  48.658  1.00  0.00    -0.550 OA
ATOM      4  O   UNL     1      31.995   3.870  49.836  1.00  0.00    -0.550 OA
ENDBRANCH   1   2
BRANCH   1   5
ATOM      5  C   UNL     1      28.815   5.496  48.567  1.00  0.00     0.059 C 
BRANCH   5   6
ATOM      6  C   UNL     1      27.687   4.732  47.941  1.00  0.00     0.042 C 
ATOM      7  O   UNL     1      27.629   4.596  46.691  1.00  0.00    -0.550 OA
ATOM      8  O   UNL     1      26.679   4.204  48.739  1.00  0.00    -0.550 OA
ENDBRANCH   5   6
ENDBRANCH   1   5
TORSDOF 3
ENDMDL
MODEL 8
REMARK VINA RESULT:    -3.008     16.606     17.470
REMARK INTER + INTRA:          -3.637
REMARK INTER:                  -3.460
REMARK INTRA:                  -0.177
REMARK UNBOUND:                -0.101
REMARK SMILES O=C([O-])CCC(=O)[O-]
REMARK SMILES IDX 4 1 2 2 1 3 3 4 5 5 6 6 7 7 8 8
REMARK H PARENT
REMARK Flexibility Score: inf
ROOT
ATOM      1  C   UNL     1      22.984  -3.628  57.723  1.00  0.00     0.059 C 
ENDROOT
BRANCH   1   2
ATOM      2  C   UNL     1      21.663  -2.923  57.680  1.00  0.00     0.042 C 
ATOM      3  O   UNL     1      20.616  -3.553  57.378  1.00  0.00    -0.550 OA
ATOM      4  O   UNL     1      21.595  -1.558  57.935  1.00  0.00    -0.550 OA
ENDBRANCH   1   2
BRANCH   1   5
ATOM      5  C   UNL     1      24.036  -2.909  56.873  1.00  0.00     0.059 C 
BRANCH   5   6
ATOM      6  C   UNL     1      23.660  -2.899  55.423  1.00  0.00     0.042 C 
ATOM      7  O   UNL     1      23.696  -3.963  54.751  1.00  0.00    -0.550 OA
ATOM      8  O   UNL     1      23.307  -1.706  54.805  1.00  0.00    -0.550 OA
ENDBRANCH   5   6
ENDBRANCH   1   5
TORSDOF 3
ENDMDL
MODEL 9
REMARK VINA RESULT:    -2.992      2.054      2.637
REMARK INTER + INTRA:          -3.618
REMARK INTER:                  -3.451
REMARK INTRA:                  -0.167
REMARK UNBOUND:                -0.101
REMARK SMILES O=C([O-])CCC(=O)[O-]
REMARK SMILES IDX 4 1 2 2 1 3 3 4 5 5 6 6 7 7 8 8
REMARK H PARENT
REMARK Flexibility Score: inf
ROOT
ATOM      1  C   UNL     1      24.057   2.617  39.558  1.00  0.00     0.059 C 
ENDROOT
BRANCH   1   2
ATOM      2  C   UNL     1      23.396   1.386  39.019  1.00  0.00     0.042 C 
ATOM      3  O   UNL     1      22.452   1.483  38.190  1.00  0.00    -0.550 OA
ATOM      4  O   UNL     1      23.795   0.132  39.463  1.00  0.00    -0.550 OA
ENDBRANCH   1   2
BRANCH   1   5
ATOM      5  C   UNL     1      23.865   2.744  41.073  1.00  0.00     0.059 C 
BRANCH   5   6
ATOM      6  C   UNL     1      22.416   2.686  41.451  1.00  0.00     0.042 C 
ATOM      7  O   UNL     1      21.998   1.788  42.226  1.00  0.00    -0.550 OA
ATOM      8  O   UNL     1      21.522   3.604  40.913  1.00  0.00    -0.550 OA
ENDBRANCH   5   6
ENDBRANCH   1   5
TORSDOF 3
ENDMDL
