MODEL 1
REMARK VINA RESULT:    -7.116      0.000      0.000
REMARK INTER + INTRA:         -11.454
REMARK INTER:                 -10.236
REMARK INTRA:                  -1.218
REMARK UNBOUND:                -1.218
REMARK SMILES CC(C)=CCCC(C)=CCCC(C)=CCO
REMARK SMILES IDX 10 1 9 2 7 3 8 4 6 5 5 6 4 7 1 8 2 9 3 10 11 11 12 12 14 13
REMARK SMILES IDX 13 14 15 15 16 16
REMARK H PARENT 16 17
REMARK Flexibility Score: inf
ROOT
ATOM      1  C   UNL     1      -7.268  -8.744  -6.797  1.00  0.00     0.032 C 
ENDROOT
BRANCH   1   2
ATOM      2  C   UNL     1      -8.462  -8.497  -5.909  1.00  0.00    -0.028 C 
ATOM      3  C   UNL     1      -9.501  -7.692  -6.231  1.00  0.00    -0.077 C 
ATOM      4  C   UNL     1      -9.530  -6.907  -7.522  1.00  0.00     0.039 C 
BRANCH   3   5
ATOM      5  C   UNL     1     -10.661  -7.568  -5.267  1.00  0.00     0.034 C 
BRANCH   5   6
ATOM      6  C   UNL     1     -11.428  -8.889  -5.162  1.00  0.00     0.032 C 
BRANCH   6   7
ATOM      7  C   UNL     1     -11.675  -9.475  -6.530  1.00  0.00    -0.028 C 
ATOM      8  C   UNL     1     -14.032  -8.636  -6.639  1.00  0.00     0.039 C 
ATOM      9  C   UNL     1     -12.831  -9.347  -7.218  1.00  0.00    -0.080 C 
ATOM     10  C   UNL     1     -12.919  -9.952  -8.596  1.00  0.00     0.039 C 
ENDBRANCH   6   7
ENDBRANCH   5   6
ENDBRANCH   3   5
ENDBRANCH   1   2
BRANCH   1  11
ATOM     11  C   UNL     1      -7.274 -10.183  -7.326  1.00  0.00     0.034 C 
BRANCH  11  12
ATOM     12  C   UNL     1      -8.483 -10.431  -8.201  1.00  0.00    -0.075 C 
ATOM     13  C   UNL     1      -8.626  -9.721  -9.343  1.00  0.00    -0.000 C 
ATOM     14  C   UNL     1      -9.502 -11.460  -7.776  1.00  0.00     0.039 C 
BRANCH  13  15
ATOM     15  C   UNL     1      -9.788  -9.878 -10.290  1.00  0.00     0.183 C 
BRANCH  15  16
ATOM     16  O   UNL     1      -9.339  -9.968 -11.614  1.00  0.00    -0.392 OA
ATOM     17  H   UNL     1      -8.573 -10.599 -11.611  1.00  0.00     0.210 HD
ENDBRANCH  15  16
ENDBRANCH  13  15
ENDBRANCH  11  12
ENDBRANCH   1  11
TORSDOF 8
ENDMDL
MODEL 2
REMARK VINA RESULT:    -6.639      1.576      4.146
REMARK INTER + INTRA:         -10.767
REMARK INTER:                 -10.579
REMARK INTRA:                  -0.188
REMARK UNBOUND:                -1.218
REMARK SMILES CC(C)=CCCC(C)=CCCC(C)=CCO
REMARK SMILES IDX 10 1 9 2 7 3 8 4 6 5 5 6 4 7 1 8 2 9 3 10 11 11 12 12 14 13
REMARK SMILES IDX 13 14 15 15 16 16
REMARK H PARENT 16 17
REMARK Flexibility Score: inf
ROOT
ATOM      1  C   UNL     1      -9.658  -7.350  -6.138  1.00  0.00     0.032 C 
ENDROOT
BRANCH   1   2
ATOM      2  C   UNL     1      -8.972  -8.401  -6.974  1.00  0.00    -0.028 C 
ATOM      3  C   UNL     1      -7.712  -8.845  -6.762  1.00  0.00    -0.077 C 
ATOM      4  C   UNL     1      -6.838  -8.270  -5.671  1.00  0.00     0.039 C 
BRANCH   3   5
ATOM      5  C   UNL     1      -7.159  -9.940  -7.648  1.00  0.00     0.034 C 
BRANCH   5   6
ATOM      6  C   UNL     1      -8.237 -10.981  -7.967  1.00  0.00     0.032 C 
BRANCH   6   7
ATOM      7  C   UNL     1      -8.512 -11.030  -9.448  1.00  0.00    -0.028 C 
ATOM      8  C   UNL     1     -10.295  -9.275  -9.337  1.00  0.00     0.039 C 
ATOM      9  C   UNL     1      -9.416 -10.251 -10.084  1.00  0.00    -0.080 C 
ATOM     10  C   UNL     1      -9.553 -10.381 -11.579  1.00  0.00     0.039 C 
ENDBRANCH   6   7
ENDBRANCH   5   6
ENDBRANCH   3   5
ENDBRANCH   1   2
BRANCH   1  11
ATOM     11  C   UNL     1     -10.610  -7.997  -5.126  1.00  0.00     0.034 C 
BRANCH  11  12
ATOM     12  C   UNL     1     -11.409  -9.107  -5.770  1.00  0.00    -0.075 C 
ATOM     13  C   UNL     1     -12.593  -8.814  -6.355  1.00  0.00    -0.000 C 
ATOM     14  C   UNL     1     -10.870 -10.517  -5.742  1.00  0.00     0.039 C 
BRANCH  13  15
ATOM     15  C   UNL     1     -13.477  -9.836  -7.023  1.00  0.00     0.183 C 
BRANCH  15  16
ATOM     16  O   UNL     1     -13.125  -9.989  -8.371  1.00  0.00    -0.392 OA
ATOM     17  H   UNL     1     -13.591 -10.803  -8.695  1.00  0.00     0.210 HD
ENDBRANCH  15  16
ENDBRANCH  13  15
ENDBRANCH  11  12
ENDBRANCH   1  11
TORSDOF 8
ENDMDL
MODEL 3
REMARK VINA RESULT:    -5.920      1.136      3.201
REMARK INTER + INTRA:          -9.733
REMARK INTER:                  -8.413
REMARK INTRA:                  -1.320
REMARK UNBOUND:                -1.218
REMARK SMILES CC(C)=CCCC(C)=CCCC(C)=CCO
REMARK SMILES IDX 10 1 9 2 7 3 8 4 6 5 5 6 4 7 1 8 2 9 3 10 11 11 12 12 14 13
REMARK SMILES IDX 13 14 15 15 16 16
REMARK H PARENT 16 17
REMARK Flexibility Score: inf
ROOT
ATOM      1  C   UNL     1     -10.202 -11.775  -6.693  1.00  0.00     0.032 C 
ENDROOT
BRANCH   1   2
ATOM      2  C   UNL     1     -10.539 -10.469  -6.016  1.00  0.00    -0.028 C 
ATOM      3  C   UNL     1     -11.582  -9.678  -6.356  1.00  0.00    -0.077 C 
ATOM      4  C   UNL     1     -12.494 -10.016  -7.512  1.00  0.00     0.039 C 
BRANCH   3   5
ATOM      5  C   UNL     1     -11.834  -8.414  -5.563  1.00  0.00     0.034 C 
BRANCH   5   6
ATOM      6  C   UNL     1     -10.515  -7.730  -5.189  1.00  0.00     0.032 C 
BRANCH   6   7
ATOM      7  C   UNL     1     -10.492  -6.305  -5.682  1.00  0.00    -0.028 C 
ATOM      8  C   UNL     1      -9.766  -6.947  -7.991  1.00  0.00     0.039 C 
ATOM      9  C   UNL     1     -10.183  -5.939  -6.946  1.00  0.00    -0.080 C 
ATOM     10  C   UNL     1     -10.244  -4.477  -7.306  1.00  0.00     0.039 C 
ENDBRANCH   6   7
ENDBRANCH   5   6
ENDBRANCH   3   5
ENDBRANCH   1   2
BRANCH   1  11
ATOM     11  C   UNL     1      -8.748 -11.776  -7.175  1.00  0.00     0.034 C 
BRANCH  11  12
ATOM     12  C   UNL     1      -8.494 -10.630  -8.128  1.00  0.00    -0.075 C 
ATOM     13  C   UNL     1      -9.225 -10.543  -9.264  1.00  0.00    -0.000 C 
ATOM     14  C   UNL     1      -7.430  -9.613  -7.793  1.00  0.00     0.039 C 
BRANCH  13  15
ATOM     15  C   UNL     1      -9.058  -9.451 -10.289  1.00  0.00     0.183 C 
BRANCH  15  16
ATOM     16  O   UNL     1      -9.464  -9.894 -11.554  1.00  0.00    -0.392 OA
ATOM     17  H   UNL     1      -9.053 -10.788 -11.687  1.00  0.00     0.210 HD
ENDBRANCH  15  16
ENDBRANCH  13  15
ENDBRANCH  11  12
ENDBRANCH   1  11
TORSDOF 8
ENDMDL
MODEL 4
REMARK VINA RESULT:    -5.813      1.527      4.419
REMARK INTER + INTRA:          -9.579
REMARK INTER:                  -8.920
REMARK INTRA:                  -0.659
REMARK UNBOUND:                -1.218
REMARK SMILES CC(C)=CCCC(C)=CCCC(C)=CCO
REMARK SMILES IDX 10 1 9 2 7 3 8 4 6 5 5 6 4 7 1 8 2 9 3 10 11 11 12 12 14 13
REMARK SMILES IDX 13 14 15 15 16 16
REMARK H PARENT 16 17
REMARK Flexibility Score: inf
ROOT
ATOM      1  C   UNL     1     -11.466  -9.114  -5.099  1.00  0.00     0.032 C 
ENDROOT
BRANCH   1   2
ATOM      2  C   UNL     1     -11.682  -9.573  -6.520  1.00  0.00    -0.028 C 
ATOM      3  C   UNL     1     -12.770  -9.270  -7.265  1.00  0.00    -0.077 C 
ATOM      4  C   UNL     1     -13.921  -8.469  -6.703  1.00  0.00     0.039 C 
BRANCH   3   5
ATOM      5  C   UNL     1     -12.840  -9.758  -8.695  1.00  0.00     0.034 C 
BRANCH   5   6
ATOM      6  C   UNL     1     -11.521 -10.415  -9.114  1.00  0.00     0.032 C 
BRANCH   6   7
ATOM      7  C   UNL     1     -10.437  -9.380  -9.282  1.00  0.00    -0.028 C 
ATOM      8  C   UNL     1      -9.423 -10.531 -11.261  1.00  0.00     0.039 C 
ATOM      9  C   UNL     1      -9.502  -9.404 -10.258  1.00  0.00    -0.080 C 
ATOM     10  C   UNL     1      -8.505  -8.276 -10.326  1.00  0.00     0.039 C 
ENDBRANCH   6   7
ENDBRANCH   5   6
ENDBRANCH   3   5
ENDBRANCH   1   2
BRANCH   1  11
ATOM     11  C   UNL     1     -10.545  -7.889  -5.059  1.00  0.00     0.034 C 
BRANCH  11  12
ATOM     12  C   UNL     1      -9.460  -7.996  -6.107  1.00  0.00    -0.075 C 
ATOM     13  C   UNL     1      -8.580  -9.021  -6.043  1.00  0.00    -0.000 C 
ATOM     14  C   UNL     1      -9.381  -6.953  -7.196  1.00  0.00     0.039 C 
BRANCH  13  15
ATOM     15  C   UNL     1      -7.456  -9.227  -7.026  1.00  0.00     0.183 C 
BRANCH  15  16
ATOM     16  O   UNL     1      -7.354 -10.578  -7.384  1.00  0.00    -0.392 OA
ATOM     17  H   UNL     1      -7.983 -10.719  -8.140  1.00  0.00     0.210 HD
ENDBRANCH  15  16
ENDBRANCH  13  15
ENDBRANCH  11  12
ENDBRANCH   1  11
TORSDOF 8
ENDMDL
MODEL 5
REMARK VINA RESULT:    -5.593      3.285      5.591
REMARK INTER + INTRA:          -9.262
REMARK INTER:                  -8.133
REMARK INTRA:                  -1.130
REMARK UNBOUND:                -1.218
REMARK SMILES CC(C)=CCCC(C)=CCCC(C)=CCO
REMARK SMILES IDX 10 1 9 2 7 3 8 4 6 5 5 6 4 7 1 8 2 9 3 10 11 11 12 12 14 13
REMARK SMILES IDX 13 14 15 15 16 16
REMARK H PARENT 16 17
REMARK Flexibility Score: inf
ROOT
ATOM      1  C   UNL     1     -10.637  -6.416  -6.230  1.00  0.00     0.032 C 
ENDROOT
BRANCH   1   2
ATOM      2  C   UNL     1     -10.042  -7.802  -6.218  1.00  0.00    -0.028 C 
ATOM      3  C   UNL     1     -10.727  -8.932  -6.508  1.00  0.00    -0.077 C 
ATOM      4  C   UNL     1     -12.204  -8.907  -6.826  1.00  0.00     0.039 C 
BRANCH   3   5
ATOM      5  C   UNL     1      -9.997 -10.257  -6.504  1.00  0.00     0.034 C 
BRANCH   5   6
ATOM      6  C   UNL     1      -8.770 -10.208  -7.421  1.00  0.00     0.032 C 
BRANCH   6   7
ATOM      7  C   UNL     1      -9.127 -10.659  -8.815  1.00  0.00    -0.028 C 
ATOM      8  C   UNL     1      -9.100  -8.334  -9.747  1.00  0.00     0.039 C 
ATOM      9  C   UNL     1      -9.253  -9.832  -9.877  1.00  0.00    -0.080 C 
ATOM     10  C   UNL     1      -9.573 -10.432 -11.222  1.00  0.00     0.039 C 
ENDBRANCH   6   7
ENDBRANCH   5   6
ENDBRANCH   3   5
ENDBRANCH   1   2
BRANCH   1  11
ATOM     11  C   UNL     1      -9.955  -5.543  -7.289  1.00  0.00     0.034 C 
BRANCH  11  12
ATOM     12  C   UNL     1     -10.467  -4.121  -7.227  1.00  0.00    -0.075 C 
ATOM     13  C   UNL     1      -9.584  -3.109  -7.062  1.00  0.00    -0.000 C 
ATOM     14  C   UNL     1     -11.950  -3.865  -7.346  1.00  0.00     0.039 C 
BRANCH  13  15
ATOM     15  C   UNL     1      -9.976  -1.656  -6.981  1.00  0.00     0.183 C 
BRANCH  15  16
ATOM     16  O   UNL     1     -10.006  -1.080  -8.258  1.00  0.00    -0.392 OA
ATOM     17  H   UNL     1     -10.240  -0.124  -8.132  1.00  0.00     0.210 HD
ENDBRANCH  15  16
ENDBRANCH  13  15
ENDBRANCH  11  12
ENDBRANCH   1  11
TORSDOF 8
ENDMDL
MODEL 6
REMARK VINA RESULT:    -5.364      1.368      2.792
REMARK INTER + INTRA:          -8.933
REMARK INTER:                  -8.332
REMARK INTRA:                  -0.601
REMARK UNBOUND:                -1.218
REMARK SMILES CC(C)=CCCC(C)=CCCC(C)=CCO
REMARK SMILES IDX 10 1 9 2 7 3 8 4 6 5 5 6 4 7 1 8 2 9 3 10 11 11 12 12 14 13
REMARK SMILES IDX 13 14 15 15 16 16
REMARK H PARENT 16 17
REMARK Flexibility Score: inf
ROOT
ATOM      1  C   UNL     1      -8.983  -8.152  -6.986  1.00  0.00     0.032 C 
ENDROOT
BRANCH   1   2
ATOM      2  C   UNL     1      -9.716  -9.350  -6.437  1.00  0.00    -0.028 C 
ATOM      3  C   UNL     1      -9.313 -10.632  -6.595  1.00  0.00    -0.077 C 
ATOM      4  C   UNL     1      -8.087 -10.987  -7.404  1.00  0.00     0.039 C 
BRANCH   3   5
ATOM      5  C   UNL     1     -10.118 -11.740  -5.952  1.00  0.00     0.034 C 
BRANCH   5   6
ATOM      6  C   UNL     1     -11.484 -11.888  -6.630  1.00  0.00     0.032 C 
BRANCH   6   7
ATOM      7  C   UNL     1     -12.435 -10.817  -6.157  1.00  0.00    -0.028 C 
ATOM      8  C   UNL     1     -12.801  -9.901  -8.459  1.00  0.00     0.039 C 
ATOM      9  C   UNL     1     -13.055  -9.933  -6.970  1.00  0.00    -0.080 C 
ATOM     10  C   UNL     1     -14.014  -8.944  -6.357  1.00  0.00     0.039 C 
ENDBRANCH   6   7
ENDBRANCH   5   6
ENDBRANCH   3   5
ENDBRANCH   1   2
BRANCH   1  11
ATOM     11  C   UNL     1      -9.680  -7.619  -8.243  1.00  0.00     0.034 C 
BRANCH  11  12
ATOM     12  C   UNL     1      -9.202  -8.353  -9.476  1.00  0.00    -0.075 C 
ATOM     13  C   UNL     1      -9.801  -9.515  -9.825  1.00  0.00    -0.000 C 
ATOM     14  C   UNL     1      -8.067  -7.774 -10.286  1.00  0.00     0.039 C 
BRANCH  13  15
ATOM     15  C   UNL     1      -9.408 -10.334 -11.028  1.00  0.00     0.183 C 
BRANCH  15  16
ATOM     16  O   UNL     1     -10.306 -10.126 -12.083  1.00  0.00    -0.392 OA
ATOM     17  H   UNL     1     -11.110 -10.674 -11.883  1.00  0.00     0.210 HD
ENDBRANCH  15  16
ENDBRANCH  13  15
ENDBRANCH  11  12
ENDBRANCH   1  11
TORSDOF 8
ENDMDL
MODEL 7
REMARK VINA RESULT:    -5.354      4.230      6.097
REMARK INTER + INTRA:          -8.919
REMARK INTER:                  -8.075
REMARK INTRA:                  -0.844
REMARK UNBOUND:                -1.218
REMARK SMILES CC(C)=CCCC(C)=CCCC(C)=CCO
REMARK SMILES IDX 10 1 9 2 7 3 8 4 6 5 5 6 4 7 1 8 2 9 3 10 11 11 12 12 14 13
REMARK SMILES IDX 13 14 15 15 16 16
REMARK H PARENT 16 17
REMARK Flexibility Score: inf
ROOT
ATOM      1  C   UNL     1     -10.273  -4.383  -7.724  1.00  0.00     0.032 C 
ENDROOT
BRANCH   1   2
ATOM      2  C   UNL     1     -10.203  -5.439  -6.650  1.00  0.00    -0.028 C 
ATOM      3  C   UNL     1      -9.920  -6.743  -6.875  1.00  0.00    -0.077 C 
ATOM      4  C   UNL     1      -9.696  -7.279  -8.270  1.00  0.00     0.039 C 
BRANCH   3   5
ATOM      5  C   UNL     1      -9.837  -7.691  -5.699  1.00  0.00     0.034 C 
BRANCH   5   6
ATOM      6  C   UNL     1     -10.555  -9.009  -6.007  1.00  0.00     0.032 C 
BRANCH   6   7
ATOM      7  C   UNL     1     -12.030  -8.895  -5.717  1.00  0.00    -0.028 C 
ATOM      8  C   UNL     1     -12.701  -9.628  -8.016  1.00  0.00     0.039 C 
ATOM      9  C   UNL     1     -13.008  -9.195  -6.601  1.00  0.00    -0.080 C 
ATOM     10  C   UNL     1     -14.442  -9.073  -6.156  1.00  0.00     0.039 C 
ENDBRANCH   6   7
ENDBRANCH   5   6
ENDBRANCH   3   5
ENDBRANCH   1   2
BRANCH   1  11
ATOM     11  C   UNL     1     -10.873  -3.086  -7.171  1.00  0.00     0.034 C 
BRANCH  11  12
ATOM     12  C   UNL     1      -9.835  -1.987  -7.126  1.00  0.00    -0.075 C 
ATOM     13  C   UNL     1      -9.899  -0.981  -8.028  1.00  0.00    -0.000 C 
ATOM     14  C   UNL     1      -8.750  -2.041  -6.078  1.00  0.00     0.039 C 
BRANCH  13  15
ATOM     15  C   UNL     1      -8.920   0.163  -8.082  1.00  0.00     0.183 C 
BRANCH  15  16
ATOM     16  O   UNL     1      -8.749   0.606  -9.400  1.00  0.00    -0.392 OA
ATOM     17  H   UNL     1      -7.772   0.717  -9.538  1.00  0.00     0.210 HD
ENDBRANCH  15  16
ENDBRANCH  13  15
ENDBRANCH  11  12
ENDBRANCH   1  11
TORSDOF 8
ENDMDL
MODEL 8
REMARK VINA RESULT:    -5.346      3.632      5.407
REMARK INTER + INTRA:          -8.908
REMARK INTER:                  -8.143
REMARK INTRA:                  -0.765
REMARK UNBOUND:                -1.218
REMARK SMILES CC(C)=CCCC(C)=CCCC(C)=CCO
REMARK SMILES IDX 10 1 9 2 7 3 8 4 6 5 5 6 4 7 1 8 2 9 3 10 11 11 12 12 14 13
REMARK SMILES IDX 13 14 15 15 16 16
REMARK H PARENT 16 17
REMARK Flexibility Score: inf
ROOT
ATOM      1  C   UNL     1      -9.890  -6.051  -7.551  1.00  0.00     0.032 C 
ENDROOT
BRANCH   1   2
ATOM      2  C   UNL     1      -9.759  -7.378  -6.847  1.00  0.00    -0.028 C 
ATOM      3  C   UNL     1      -9.488  -8.550  -7.466  1.00  0.00    -0.077 C 
ATOM      4  C   UNL     1      -9.344  -8.642  -8.967  1.00  0.00     0.039 C 
BRANCH   3   5
ATOM      5  C   UNL     1      -9.337  -9.804  -6.634  1.00  0.00     0.034 C 
BRANCH   5   6
ATOM      6  C   UNL     1     -10.586 -10.685  -6.741  1.00  0.00     0.032 C 
BRANCH   6   7
ATOM      7  C   UNL     1     -11.811  -9.935  -6.281  1.00  0.00    -0.028 C 
ATOM      8  C   UNL     1     -12.807  -9.835  -8.577  1.00  0.00     0.039 C 
ATOM      9  C   UNL     1     -12.830  -9.568  -7.090  1.00  0.00    -0.080 C 
ATOM     10  C   UNL     1     -14.012  -8.858  -6.481  1.00  0.00     0.039 C 
ENDBRANCH   6   7
ENDBRANCH   5   6
ENDBRANCH   3   5
ENDBRANCH   1   2
BRANCH   1  11
ATOM     11  C   UNL     1     -10.374  -4.968  -6.580  1.00  0.00     0.034 C 
BRANCH  11  12
ATOM     12  C   UNL     1     -10.462  -3.625  -7.270  1.00  0.00    -0.075 C 
ATOM     13  C   UNL     1      -9.727  -2.592  -6.799  1.00  0.00    -0.000 C 
ATOM     14  C   UNL     1     -11.371  -3.468  -8.466  1.00  0.00     0.039 C 
BRANCH  13  15
ATOM     15  C   UNL     1      -9.737  -1.210  -7.401  1.00  0.00     0.183 C 
BRANCH  15  16
ATOM     16  O   UNL     1     -10.820  -0.466  -6.913  1.00  0.00    -0.392 OA
ATOM     17  H   UNL     1     -11.384  -0.238  -7.698  1.00  0.00     0.210 HD
ENDBRANCH  15  16
ENDBRANCH  13  15
ENDBRANCH  11  12
ENDBRANCH   1  11
TORSDOF 8
ENDMDL
MODEL 9
REMARK VINA RESULT:    -5.179      2.429      4.943
REMARK INTER + INTRA:          -8.668
REMARK INTER:                  -7.193
REMARK INTRA:                  -1.475
REMARK UNBOUND:                -1.218
REMARK SMILES CC(C)=CCCC(C)=CCCC(C)=CCO
REMARK SMILES IDX 10 1 9 2 7 3 8 4 6 5 5 6 4 7 1 8 2 9 3 10 11 11 12 12 14 13
REMARK SMILES IDX 13 14 15 15 16 16
REMARK H PARENT 16 17
REMARK Flexibility Score: inf
ROOT
ATOM      1  C   UNL     1     -11.062  -7.975  -5.433  1.00  0.00     0.032 C 
ENDROOT
BRANCH   1   2
ATOM      2  C   UNL     1     -10.999  -9.479  -5.524  1.00  0.00    -0.028 C 
ATOM      3  C   UNL     1     -11.458 -10.202  -6.572  1.00  0.00    -0.077 C 
ATOM      4  C   UNL     1     -12.142  -9.550  -7.750  1.00  0.00     0.039 C 
BRANCH   3   5
ATOM      5  C   UNL     1     -11.291 -11.706  -6.556  1.00  0.00     0.034 C 
BRANCH   5   6
ATOM      6  C   UNL     1     -10.040 -12.125  -7.334  1.00  0.00     0.032 C 
BRANCH   6   7
ATOM      7  C   UNL     1      -8.873 -11.234  -6.991  1.00  0.00    -0.028 C 
ATOM      8  C   UNL     1      -8.758 -10.231  -9.283  1.00  0.00     0.039 C 
ATOM      9  C   UNL     1      -8.302 -10.358  -7.848  1.00  0.00    -0.080 C 
ATOM     10  C   UNL     1      -7.167  -9.501  -7.350  1.00  0.00     0.039 C 
ENDBRANCH   6   7
ENDBRANCH   5   6
ENDBRANCH   3   5
ENDBRANCH   1   2
BRANCH   1  11
ATOM     11  C   UNL     1      -9.720  -7.351  -5.831  1.00  0.00     0.034 C 
BRANCH  11  12
ATOM     12  C   UNL     1      -9.902  -6.342  -6.942  1.00  0.00    -0.075 C 
ATOM     13  C   UNL     1     -10.411  -5.123  -6.649  1.00  0.00    -0.000 C 
ATOM     14  C   UNL     1      -9.515  -6.719  -8.352  1.00  0.00     0.039 C 
BRANCH  13  15
ATOM     15  C   UNL     1     -10.642  -4.040  -7.672  1.00  0.00     0.183 C 
BRANCH  15  16
ATOM     16  O   UNL     1      -9.886  -2.901  -7.365  1.00  0.00    -0.392 OA
ATOM     17  H   UNL     1      -8.982  -3.222  -7.109  1.00  0.00     0.210 HD
ENDBRANCH  15  16
ENDBRANCH  13  15
ENDBRANCH  11  12
ENDBRANCH   1  11
TORSDOF 8
ENDMDL
