MODEL 1
REMARK VINA RESULT:    -4.793      0.000      0.000
REMARK INTER + INTRA:          -5.805
REMARK INTER:                  -5.634
REMARK INTRA:                  -0.171
REMARK UNBOUND:                -0.171
REMARK SMILES O=c1c(O)c(-c2ccc(O)cc2)oc2cc(O)cc(O)c12
REMARK SMILES IDX 5 1 3 2 2 3 1 4 21 5 19 6 18 7 16 8 15 9 14 10 13 11 6 12
REMARK SMILES IDX 7 13 8 14 9 15 12 16 11 17 10 18 4 20 20 22 17 24
REMARK H PARENT 10 19 4 21 20 23 17 25
REMARK Flexibility Score: inf
ROOT
ATOM      1  C   UNL     1      19.183  25.308  53.241  1.00  0.00     0.180 A 
ATOM      2  C   UNL     1      17.809  25.267  53.538  1.00  0.00     0.208 A 
ATOM      3  C   UNL     1      17.194  26.410  54.071  1.00  0.00     0.238 A 
ATOM      4  O   UNL     1      15.976  26.350  54.386  1.00  0.00    -0.285 OA
ATOM      5  C   UNL     1      17.954  27.585  54.285  1.00  0.00     0.111 A 
ATOM      6  C   UNL     1      17.424  28.815  54.783  1.00  0.00     0.134 A 
ATOM      7  C   UNL     1      18.294  29.872  55.078  1.00  0.00     0.093 A 
ATOM      8  C   UNL     1      19.663  29.768  54.833  1.00  0.00     0.123 A 
ATOM      9  C   UNL     1      20.183  28.592  54.291  1.00  0.00     0.094 A 
ATOM     10  C   UNL     1      19.346  27.507  54.020  1.00  0.00     0.146 A 
ATOM     11  O   UNL     1      19.882  26.403  53.515  1.00  0.00    -0.452 OA
ENDROOT
BRANCH   1  12
ATOM     12  C   UNL     1      19.896  24.151  52.654  1.00  0.00     0.021 A 
ATOM     13  C   UNL     1      20.118  22.974  53.393  1.00  0.00     0.016 A 
ATOM     14  C   UNL     1      20.773  21.886  52.809  1.00  0.00     0.047 A 
ATOM     15  C   UNL     1      21.201  21.954  51.477  1.00  0.00     0.115 A 
ATOM     16  C   UNL     1      20.311  24.202  51.312  1.00  0.00     0.016 A 
ATOM     17  C   UNL     1      20.966  23.112  50.731  1.00  0.00     0.047 A 
BRANCH  15  18
ATOM     18  O   UNL     1      21.855  20.875  50.886  1.00  0.00    -0.508 OA
ATOM     19  H   UNL     1      22.503  21.005  50.118  1.00  0.00     0.293 HD
ENDBRANCH  15  18
ENDBRANCH   1  12
BRANCH   2  20
ATOM     20  O   UNL     1      17.082  24.091  53.340  1.00  0.00    -0.502 OA
ATOM     21  H   UNL     1      17.361  23.204  53.742  1.00  0.00     0.293 HD
ENDBRANCH   2  20
BRANCH   6  22
ATOM     22  O   UNL     1      16.061  29.056  54.977  1.00  0.00    -0.507 OA
ATOM     23  H   UNL     1      15.465  28.523  55.593  1.00  0.00     0.293 HD
ENDBRANCH   6  22
BRANCH   8  24
ATOM     24  O   UNL     1      20.496  30.845  55.125  1.00  0.00    -0.508 OA
ATOM     25  H   UNL     1      21.460  30.871  54.811  1.00  0.00     0.293 HD
ENDBRANCH   8  24
TORSDOF 5
ENDMDL
MODEL 2
REMARK VINA RESULT:    -4.423      1.397      6.435
REMARK INTER + INTRA:          -5.370
REMARK INTER:                  -5.818
REMARK INTRA:                   0.448
REMARK UNBOUND:                -0.171
REMARK SMILES O=c1c(O)c(-c2ccc(O)cc2)oc2cc(O)cc(O)c12
REMARK SMILES IDX 5 1 3 2 2 3 1 4 21 5 19 6 18 7 16 8 15 9 14 10 13 11 6 12
REMARK SMILES IDX 7 13 8 14 9 15 12 16 11 17 10 18 4 20 20 22 17 24
REMARK H PARENT 10 19 4 21 20 23 17 25
REMARK Flexibility Score: inf
ROOT
ATOM      1  C   UNL     1      18.787  25.654  53.440  1.00  0.00     0.180 A 
ATOM      2  C   UNL     1      17.466  25.181  53.533  1.00  0.00     0.208 A 
ATOM      3  C   UNL     1      17.185  23.866  53.128  1.00  0.00     0.238 A 
ATOM      4  O   UNL     1      15.991  23.466  53.162  1.00  0.00    -0.285 OA
ATOM      5  C   UNL     1      18.228  23.036  52.653  1.00  0.00     0.111 A 
ATOM      6  C   UNL     1      18.063  21.674  52.255  1.00  0.00     0.134 A 
ATOM      7  C   UNL     1      19.140  20.989  51.678  1.00  0.00     0.093 A 
ATOM      8  C   UNL     1      20.390  21.592  51.544  1.00  0.00     0.123 A 
ATOM      9  C   UNL     1      20.577  22.903  51.985  1.00  0.00     0.094 A 
ATOM     10  C   UNL     1      19.513  23.625  52.531  1.00  0.00     0.146 A 
ATOM     11  O   UNL     1      19.731  24.873  52.928  1.00  0.00    -0.452 OA
ENDROOT
BRANCH   1  12
ATOM     12  C   UNL     1      19.166  27.019  53.870  1.00  0.00     0.021 A 
ATOM     13  C   UNL     1      18.298  27.811  54.645  1.00  0.00     0.016 A 
ATOM     14  C   UNL     1      18.689  29.088  55.059  1.00  0.00     0.047 A 
ATOM     15  C   UNL     1      19.954  29.583  54.718  1.00  0.00     0.115 A 
ATOM     16  C   UNL     1      20.441  27.516  53.550  1.00  0.00     0.016 A 
ATOM     17  C   UNL     1      20.828  28.793  53.966  1.00  0.00     0.047 A 
BRANCH  15  18
ATOM     18  O   UNL     1      20.352  30.855  55.125  1.00  0.00    -0.508 OA
ATOM     19  H   UNL     1      20.615  31.568  54.455  1.00  0.00     0.293 HD
ENDBRANCH  15  18
ENDBRANCH   1  12
BRANCH   2  20
ATOM     20  O   UNL     1      16.447  26.023  53.984  1.00  0.00    -0.502 OA
ATOM     21  H   UNL     1      16.166  26.855  53.479  1.00  0.00     0.293 HD
ENDBRANCH   2  20
BRANCH   6  22
ATOM     22  O   UNL     1      16.882  20.947  52.428  1.00  0.00    -0.507 OA
ATOM     23  H   UNL     1      16.682  20.062  51.986  1.00  0.00     0.293 HD
ENDBRANCH   6  22
BRANCH   8  24
ATOM     24  O   UNL     1      21.442  20.875  50.979  1.00  0.00    -0.508 OA
ATOM     25  H   UNL     1      21.460  20.650  49.991  1.00  0.00     0.293 HD
ENDBRANCH   8  24
TORSDOF 5
ENDMDL
MODEL 3
REMARK VINA RESULT:    -4.343      1.799      6.933
REMARK INTER + INTRA:          -5.275
REMARK INTER:                  -5.024
REMARK INTRA:                  -0.251
REMARK UNBOUND:                -0.171
REMARK SMILES O=c1c(O)c(-c2ccc(O)cc2)oc2cc(O)cc(O)c12
REMARK SMILES IDX 5 1 3 2 2 3 1 4 21 5 19 6 18 7 16 8 15 9 14 10 13 11 6 12
REMARK SMILES IDX 7 13 8 14 9 15 12 16 11 17 10 18 4 20 20 22 17 24
REMARK H PARENT 10 19 4 21 20 23 17 25
REMARK Flexibility Score: inf
ROOT
ATOM      1  C   UNL     1      18.743  26.595  53.443  1.00  0.00     0.180 A 
ATOM      2  C   UNL     1      19.595  26.628  52.324  1.00  0.00     0.208 A 
ATOM      3  C   UNL     1      20.238  25.445  51.925  1.00  0.00     0.238 A 
ATOM      4  O   UNL     1      21.041  25.492  50.956  1.00  0.00    -0.285 OA
ATOM      5  C   UNL     1      20.009  24.243  52.636  1.00  0.00     0.111 A 
ATOM      6  C   UNL     1      20.576  22.978  52.295  1.00  0.00     0.134 A 
ATOM      7  C   UNL     1      20.385  21.883  53.147  1.00  0.00     0.093 A 
ATOM      8  C   UNL     1      19.595  21.989  54.291  1.00  0.00     0.123 A 
ATOM      9  C   UNL     1      18.987  23.206  54.602  1.00  0.00     0.094 A 
ATOM     10  C   UNL     1      19.189  24.326  53.792  1.00  0.00     0.146 A 
ATOM     11  O   UNL     1      18.601  25.468  54.129  1.00  0.00    -0.452 OA
ENDROOT
BRANCH   1  12
ATOM     12  C   UNL     1      18.011  27.795  53.910  1.00  0.00     0.021 A 
ATOM     13  C   UNL     1      18.653  28.801  54.656  1.00  0.00     0.016 A 
ATOM     14  C   UNL     1      17.947  29.937  55.064  1.00  0.00     0.047 A 
ATOM     15  C   UNL     1      16.597  30.088  54.722  1.00  0.00     0.115 A 
ATOM     16  C   UNL     1      16.663  27.965  53.553  1.00  0.00     0.016 A 
ATOM     17  C   UNL     1      15.960  29.101  53.964  1.00  0.00     0.047 A 
BRANCH  15  18
ATOM     18  O   UNL     1      15.884  31.215  55.125  1.00  0.00    -0.508 OA
ATOM     19  H   UNL     1      15.030  31.136  55.664  1.00  0.00     0.293 HD
ENDBRANCH  15  18
ENDBRANCH   1  12
BRANCH   2  20
ATOM     20  O   UNL     1      19.824  27.829  51.649  1.00  0.00    -0.502 OA
ATOM     21  H   UNL     1      19.817  27.895  50.639  1.00  0.00     0.293 HD
ENDBRANCH   2  20
BRANCH   6  22
ATOM     22  O   UNL     1      21.306  22.739  51.127  1.00  0.00    -0.507 OA
ATOM     23  H   UNL     1      22.199  22.270  51.093  1.00  0.00     0.293 HD
ENDBRANCH   6  22
BRANCH   8  24
ATOM     24  O   UNL     1      19.414  20.876  55.107  1.00  0.00    -0.508 OA
ATOM     25  H   UNL     1      19.497  19.932  54.744  1.00  0.00     0.293 HD
ENDBRANCH   8  24
TORSDOF 5
ENDMDL
MODEL 4
REMARK VINA RESULT:    -4.028      2.066      6.780
REMARK INTER + INTRA:          -4.906
REMARK INTER:                  -5.272
REMARK INTRA:                   0.366
REMARK UNBOUND:                -0.171
REMARK SMILES O=c1c(O)c(-c2ccc(O)cc2)oc2cc(O)cc(O)c12
REMARK SMILES IDX 5 1 3 2 2 3 1 4 21 5 19 6 18 7 16 8 15 9 14 10 13 11 6 12
REMARK SMILES IDX 7 13 8 14 9 15 12 16 11 17 10 18 4 20 20 22 17 24
REMARK H PARENT 10 19 4 21 20 23 17 25
REMARK Flexibility Score: inf
ROOT
ATOM      1  C   UNL     1      19.505  25.493  53.141  1.00  0.00     0.180 A 
ATOM      2  C   UNL     1      20.245  24.953  52.074  1.00  0.00     0.208 A 
ATOM      3  C   UNL     1      19.928  23.667  51.609  1.00  0.00     0.238 A 
ATOM      4  O   UNL     1      20.629  23.167  50.690  1.00  0.00    -0.285 OA
ATOM      5  C   UNL     1      18.866  22.944  52.203  1.00  0.00     0.111 A 
ATOM      6  C   UNL     1      18.432  21.650  51.784  1.00  0.00     0.134 A 
ATOM      7  C   UNL     1      17.457  20.974  52.529  1.00  0.00     0.093 A 
ATOM      8  C   UNL     1      16.854  21.571  53.636  1.00  0.00     0.123 A 
ATOM      9  C   UNL     1      17.229  22.860  54.018  1.00  0.00     0.094 A 
ATOM     10  C   UNL     1      18.225  23.544  53.318  1.00  0.00     0.146 A 
ATOM     11  O   UNL     1      18.559  24.765  53.720  1.00  0.00    -0.452 OA
ENDROOT
BRANCH   1  12
ATOM     12  C   UNL     1      19.764  26.851  53.670  1.00  0.00     0.021 A 
ATOM     13  C   UNL     1      21.024  27.465  53.532  1.00  0.00     0.016 A 
ATOM     14  C   UNL     1      21.237  28.758  54.018  1.00  0.00     0.047 A 
ATOM     15  C   UNL     1      20.193  29.459  54.635  1.00  0.00     0.115 A 
ATOM     16  C   UNL     1      18.717  27.571  54.271  1.00  0.00     0.016 A 
ATOM     17  C   UNL     1      18.934  28.864  54.757  1.00  0.00     0.047 A 
BRANCH  15  18
ATOM     18  O   UNL     1      20.395  30.748  55.124  1.00  0.00    -0.508 OA
ATOM     19  H   UNL     1      20.146  31.566  54.580  1.00  0.00     0.293 HD
ENDBRANCH  15  18
ENDBRANCH   1  12
BRANCH   2  20
ATOM     20  O   UNL     1      21.304  25.674  51.516  1.00  0.00    -0.502 OA
ATOM     21  H   UNL     1      22.172  25.836  52.011  1.00  0.00     0.293 HD
ENDBRANCH   2  20
BRANCH   6  22
ATOM     22  O   UNL     1      18.902  21.001  50.639  1.00  0.00    -0.507 OA
ATOM     23  H   UNL     1      18.421  20.251  50.165  1.00  0.00     0.293 HD
ENDBRANCH   6  22
BRANCH   8  24
ATOM     24  O   UNL     1      15.877  20.875  54.345  1.00  0.00    -0.508 OA
ATOM     25  H   UNL     1      15.013  20.579  53.905  1.00  0.00     0.293 HD
ENDBRANCH   8  24
TORSDOF 5
ENDMDL
MODEL 5
REMARK VINA RESULT:    -3.817      1.657      6.638
REMARK INTER + INTRA:          -4.657
REMARK INTER:                  -4.486
REMARK INTRA:                  -0.171
REMARK UNBOUND:                -0.171
REMARK SMILES O=c1c(O)c(-c2ccc(O)cc2)oc2cc(O)cc(O)c12
REMARK SMILES IDX 5 1 3 2 2 3 1 4 21 5 19 6 18 7 16 8 15 9 14 10 13 11 6 12
REMARK SMILES IDX 7 13 8 14 9 15 12 16 11 17 10 18 4 20 20 22 17 24
REMARK H PARENT 10 19 4 21 20 23 17 25
REMARK Flexibility Score: inf
ROOT
ATOM      1  C   UNL     1      17.802  25.910  53.651  1.00  0.00     0.180 A 
ATOM      2  C   UNL     1      17.165  24.785  54.205  1.00  0.00     0.208 A 
ATOM      3  C   UNL     1      17.564  23.505  53.790  1.00  0.00     0.238 A 
ATOM      4  O   UNL     1      16.954  22.504  54.248  1.00  0.00    -0.285 OA
ATOM      5  C   UNL     1      18.605  23.364  52.841  1.00  0.00     0.111 A 
ATOM      6  C   UNL     1      19.117  22.113  52.379  1.00  0.00     0.134 A 
ATOM      7  C   UNL     1      20.058  22.093  51.342  1.00  0.00     0.093 A 
ATOM      8  C   UNL     1      20.553  23.276  50.795  1.00  0.00     0.123 A 
ATOM      9  C   UNL     1      20.103  24.505  51.280  1.00  0.00     0.094 A 
ATOM     10  C   UNL     1      19.138  24.557  52.288  1.00  0.00     0.146 A 
ATOM     11  O   UNL     1      18.729  25.747  52.714  1.00  0.00    -0.452 OA
ENDROOT
BRANCH   1  12
ATOM     12  C   UNL     1      17.454  27.291  54.056  1.00  0.00     0.021 A 
ATOM     13  C   UNL     1      18.358  28.095  54.775  1.00  0.00     0.016 A 
ATOM     14  C   UNL     1      18.015  29.404  55.125  1.00  0.00     0.047 A 
ATOM     15  C   UNL     1      16.773  29.931  54.750  1.00  0.00     0.115 A 
ATOM     16  C   UNL     1      16.218  27.835  53.666  1.00  0.00     0.016 A 
ATOM     17  C   UNL     1      15.879  29.145  54.018  1.00  0.00     0.047 A 
BRANCH  15  18
ATOM     18  O   UNL     1      16.421  31.235  55.094  1.00  0.00    -0.508 OA
ATOM     19  H   UNL     1      17.094  31.991  55.061  1.00  0.00     0.293 HD
ENDBRANCH  15  18
ENDBRANCH   1  12
BRANCH   2  20
ATOM     20  O   UNL     1      16.126  24.947  55.124  1.00  0.00    -0.502 OA
ATOM     21  H   UNL     1      15.903  24.248  55.822  1.00  0.00     0.293 HD
ENDBRANCH   2  20
BRANCH   6  22
ATOM     22  O   UNL     1      18.759  20.875  52.920  1.00  0.00    -0.507 OA
ATOM     23  H   UNL     1      18.637  20.692  53.905  1.00  0.00     0.293 HD
ENDBRANCH   6  22
BRANCH   8  24
ATOM     24  O   UNL     1      21.499  23.219  49.774  1.00  0.00    -0.508 OA
ATOM     25  H   UNL     1      21.572  23.951  49.077  1.00  0.00     0.293 HD
ENDBRANCH   8  24
TORSDOF 5
ENDMDL
MODEL 6
REMARK VINA RESULT:    -2.939     18.420     21.799
REMARK INTER + INTRA:          -3.625
REMARK INTER:                  -4.130
REMARK INTRA:                   0.504
REMARK UNBOUND:                -0.171
REMARK SMILES O=c1c(O)c(-c2ccc(O)cc2)oc2cc(O)cc(O)c12
REMARK SMILES IDX 5 1 3 2 2 3 1 4 21 5 19 6 18 7 16 8 15 9 14 10 13 11 6 12
REMARK SMILES IDX 7 13 8 14 9 15 12 16 11 17 10 18 4 20 20 22 17 24
REMARK H PARENT 10 19 4 21 20 23 17 25
REMARK Flexibility Score: inf
ROOT
ATOM      1  C   UNL     1      33.387  25.261  37.749  1.00  0.00     0.180 A 
ATOM      2  C   UNL     1      34.655  24.679  37.571  1.00  0.00     0.208 A 
ATOM      3  C   UNL     1      34.969  23.506  38.277  1.00  0.00     0.238 A 
ATOM      4  O   UNL     1      36.125  23.020  38.156  1.00  0.00    -0.285 OA
ATOM      5  C   UNL     1      34.009  22.921  39.136  1.00  0.00     0.111 A 
ATOM      6  C   UNL     1      34.207  21.711  39.869  1.00  0.00     0.134 A 
ATOM      7  C   UNL     1      33.237  21.296  40.789  1.00  0.00     0.093 A 
ATOM      8  C   UNL     1      32.050  22.008  40.957  1.00  0.00     0.123 A 
ATOM      9  C   UNL     1      31.820  23.160  40.202  1.00  0.00     0.094 A 
ATOM     10  C   UNL     1      32.785  23.620  39.303  1.00  0.00     0.146 A 
ATOM     11  O   UNL     1      32.532  24.726  38.612  1.00  0.00    -0.452 OA
ENDROOT
BRANCH   1  12
ATOM     12  C   UNL     1      32.973  26.482  37.022  1.00  0.00     0.021 A 
ATOM     13  C   UNL     1      33.865  27.172  36.178  1.00  0.00     0.016 A 
ATOM     14  C   UNL     1      33.443  28.309  35.483  1.00  0.00     0.047 A 
ATOM     15  C   UNL     1      32.124  28.764  35.610  1.00  0.00     0.115 A 
ATOM     16  C   UNL     1      31.646  26.934  37.126  1.00  0.00     0.016 A 
ATOM     17  C   UNL     1      31.228  28.072  36.430  1.00  0.00     0.047 A 
BRANCH  15  18
ATOM     18  O   UNL     1      31.694  29.896  34.923  1.00  0.00    -0.508 OA
ATOM     19  H   UNL     1      32.236  30.294  34.164  1.00  0.00     0.293 HD
ENDBRANCH  15  18
ENDBRANCH   1  12
BRANCH   2  20
ATOM     20  O   UNL     1      35.596  25.284  36.735  1.00  0.00    -0.502 OA
ATOM     21  H   UNL     1      36.064  24.783  35.990  1.00  0.00     0.293 HD
ENDBRANCH   2  20
BRANCH   6  22
ATOM     22  O   UNL     1      35.315  20.875  39.710  1.00  0.00    -0.507 OA
ATOM     23  H   UNL     1      35.474  20.277  38.913  1.00  0.00     0.293 HD
ENDBRANCH   6  22
BRANCH   8  24
ATOM     24  O   UNL     1      31.100  21.557  41.871  1.00  0.00    -0.508 OA
ATOM     25  H   UNL     1      30.376  20.900  41.603  1.00  0.00     0.293 HD
ENDBRANCH   8  24
TORSDOF 5
ENDMDL
MODEL 7
REMARK VINA RESULT:    -2.886     19.805     22.450
REMARK INTER + INTRA:          -3.563
REMARK INTER:                  -3.461
REMARK INTRA:                  -0.102
REMARK UNBOUND:                -0.171
REMARK SMILES O=c1c(O)c(-c2ccc(O)cc2)oc2cc(O)cc(O)c12
REMARK SMILES IDX 5 1 3 2 2 3 1 4 21 5 19 6 18 7 16 8 15 9 14 10 13 11 6 12
REMARK SMILES IDX 7 13 8 14 9 15 12 16 11 17 10 18 4 20 20 22 17 24
REMARK H PARENT 10 19 4 21 20 23 17 25
REMARK Flexibility Score: inf
ROOT
ATOM      1  C   UNL     1      33.454  25.840  37.061  1.00  0.00     0.180 A 
ATOM      2  C   UNL     1      33.217  25.670  38.437  1.00  0.00     0.208 A 
ATOM      3  C   UNL     1      32.563  24.508  38.875  1.00  0.00     0.238 A 
ATOM      4  O   UNL     1      32.304  24.386  40.102  1.00  0.00    -0.285 OA
ATOM      5  C   UNL     1      32.171  23.523  37.938  1.00  0.00     0.111 A 
ATOM      6  C   UNL     1      31.538  22.288  38.275  1.00  0.00     0.134 A 
ATOM      7  C   UNL     1      31.076  21.447  37.255  1.00  0.00     0.093 A 
ATOM      8  C   UNL     1      31.281  21.763  35.913  1.00  0.00     0.123 A 
ATOM      9  C   UNL     1      31.951  22.939  35.572  1.00  0.00     0.094 A 
ATOM     10  C   UNL     1      32.391  23.816  36.567  1.00  0.00     0.146 A 
ATOM     11  O   UNL     1      33.015  24.929  36.200  1.00  0.00    -0.452 OA
ENDROOT
BRANCH   1  12
ATOM     12  C   UNL     1      34.159  27.026  36.525  1.00  0.00     0.021 A 
ATOM     13  C   UNL     1      35.471  27.342  36.924  1.00  0.00     0.016 A 
ATOM     14  C   UNL     1      36.125  28.455  36.384  1.00  0.00     0.047 A 
ATOM     15  C   UNL     1      35.483  29.255  35.431  1.00  0.00     0.115 A 
ATOM     16  C   UNL     1      33.531  27.823  35.552  1.00  0.00     0.016 A 
ATOM     17  C   UNL     1      34.187  28.934  35.016  1.00  0.00     0.047 A 
BRANCH  15  18
ATOM     18  O   UNL     1      36.125  30.366  34.888  1.00  0.00    -0.508 OA
ATOM     19  H   UNL     1      36.981  30.274  34.354  1.00  0.00     0.293 HD
ENDBRANCH  15  18
ENDBRANCH   1  12
BRANCH   2  20
ATOM     20  O   UNL     1      33.592  26.664  39.343  1.00  0.00    -0.502 OA
ATOM     21  H   UNL     1      34.204  26.481  40.129  1.00  0.00     0.293 HD
ENDBRANCH   2  20
BRANCH   6  22
ATOM     22  O   UNL     1      31.365  21.832  39.585  1.00  0.00    -0.507 OA
ATOM     23  H   UNL     1      31.663  22.330  40.411  1.00  0.00     0.293 HD
ENDBRANCH   6  22
BRANCH   8  24
ATOM     24  O   UNL     1      30.821  20.896  34.924  1.00  0.00    -0.508 OA
ATOM     25  H   UNL     1      29.922  21.033  34.475  1.00  0.00     0.293 HD
ENDBRANCH   8  24
TORSDOF 5
ENDMDL
MODEL 8
REMARK VINA RESULT:    -2.569     19.146     22.004
REMARK INTER + INTRA:          -3.190
REMARK INTER:                  -3.330
REMARK INTRA:                   0.140
REMARK UNBOUND:                -0.171
REMARK SMILES O=c1c(O)c(-c2ccc(O)cc2)oc2cc(O)cc(O)c12
REMARK SMILES IDX 5 1 3 2 2 3 1 4 21 5 19 6 18 7 16 8 15 9 14 10 13 11 6 12
REMARK SMILES IDX 7 13 8 14 9 15 12 16 11 17 10 18 4 20 20 22 17 24
REMARK H PARENT 10 19 4 21 20 23 17 25
REMARK Flexibility Score: inf
ROOT
ATOM      1  C   UNL     1      33.750  26.068  37.679  1.00  0.00     0.180 A 
ATOM      2  C   UNL     1      32.377  26.027  37.983  1.00  0.00     0.208 A 
ATOM      3  C   UNL     1      31.878  24.945  38.726  1.00  0.00     0.238 A 
ATOM      4  O   UNL     1      30.640  24.885  38.949  1.00  0.00    -0.285 OA
ATOM      5  C   UNL     1      32.757  23.929  39.169  1.00  0.00     0.111 A 
ATOM      6  C   UNL     1      32.366  22.807  39.963  1.00  0.00     0.134 A 
ATOM      7  C   UNL     1      33.296  21.795  40.233  1.00  0.00     0.093 A 
ATOM      8  C   UNL     1      34.616  21.894  39.796  1.00  0.00     0.123 A 
ATOM      9  C   UNL     1      35.024  23.014  39.070  1.00  0.00     0.094 A 
ATOM     10  C   UNL     1      34.111  24.022  38.753  1.00  0.00     0.146 A 
ATOM     11  O   UNL     1      34.537  25.066  38.051  1.00  0.00    -0.452 OA
ENDROOT
BRANCH   1  12
ATOM     12  C   UNL     1      34.354  27.188  36.921  1.00  0.00     0.021 A 
ATOM     13  C   UNL     1      33.728  27.724  35.780  1.00  0.00     0.016 A 
ATOM     14  C   UNL     1      34.307  28.797  35.096  1.00  0.00     0.047 A 
ATOM     15  C   UNL     1      35.508  29.357  35.550  1.00  0.00     0.115 A 
ATOM     16  C   UNL     1      35.548  27.769  37.381  1.00  0.00     0.016 A 
ATOM     17  C   UNL     1      36.124  28.842  36.694  1.00  0.00     0.047 A 
BRANCH  15  18
ATOM     18  O   UNL     1      36.093  30.426  34.875  1.00  0.00    -0.508 OA
ATOM     19  H   UNL     1      36.978  30.327  34.393  1.00  0.00     0.293 HD
ENDBRANCH  15  18
ENDBRANCH   1  12
BRANCH   2  20
ATOM     20  O   UNL     1      31.523  27.029  37.517  1.00  0.00    -0.502 OA
ATOM     21  H   UNL     1      30.656  27.265  37.984  1.00  0.00     0.293 HD
ENDBRANCH   2  20
BRANCH   6  22
ATOM     22  O   UNL     1      31.097  22.655  40.528  1.00  0.00    -0.507 OA
ATOM     23  H   UNL     1      30.273  23.160  40.234  1.00  0.00     0.293 HD
ENDBRANCH   6  22
BRANCH   8  24
ATOM     24  O   UNL     1      35.517  20.875  40.096  1.00  0.00    -0.508 OA
ATOM     25  H   UNL     1      35.211  19.997  40.500  1.00  0.00     0.293 HD
ENDBRANCH   8  24
TORSDOF 5
ENDMDL
