MODEL 1
REMARK VINA RESULT:    -7.428      0.000      0.000
REMARK INTER + INTRA:         -12.423
REMARK INTER:                 -11.336
REMARK INTRA:                  -1.087
REMARK UNBOUND:                -1.087
REMARK SMILES COc1cc(C=CC(=O)CC(=O)C=Cc2ccc(O)c(OC)c2)ccc1O
REMARK SMILES IDX 10 1 8 2 9 3 7 4 6 5 5 6 3 7 26 8 4 9 25 10 24 11 2 12 1 13
REMARK SMILES IDX 27 14 11 16 12 17 13 18 14 19 15 20 23 21 16 22 20 23 17 24
REMARK SMILES IDX 18 25 21 26 22 27 19 28
REMARK H PARENT 27 15 19 29
REMARK Flexibility Score: inf
ROOT
ATOM      1  C   UNL     1      -2.477   3.836  15.581  1.00  0.00     0.160 C 
ENDROOT
BRANCH   1   2
ATOM      2  C   UNL     1      -1.470   3.426  16.612  1.00  0.00     0.163 C 
ATOM      3  O   UNL     1      -1.133   2.214  16.699  1.00  0.00    -0.294 OA
BRANCH   2   4
ATOM      4  C   UNL     1      -0.857   4.444  17.489  1.00  0.00     0.048 C 
ATOM      5  C   UNL     1      -0.331   5.579  17.007  1.00  0.00     0.012 C 
BRANCH   5   6
ATOM      6  C   UNL     1       0.279   6.632  17.857  1.00  0.00    -0.022 A 
ATOM      7  C   UNL     1       0.674   7.523  20.103  1.00  0.00     0.161 A 
ATOM      8  C   UNL     1       1.382   8.601  19.544  1.00  0.00     0.157 A 
ATOM      9  C   UNL     1       0.122   6.546  19.250  1.00  0.00     0.058 A 
ATOM     10  C   UNL     1       1.526   8.699  18.157  1.00  0.00     0.051 A 
ATOM     11  C   UNL     1       0.977   7.728  17.316  1.00  0.00     0.012 A 
BRANCH   7  12
ATOM     12  O   UNL     1       0.540   7.452  21.499  1.00  0.00    -0.493 OA
ATOM     13  C   UNL     1      -0.481   6.728  22.178  1.00  0.00     0.278 C 
ENDBRANCH   7  12
BRANCH   8  14
ATOM     14  O   UNL     1       1.946   9.589  20.350  1.00  0.00    -0.504 OA
ATOM     15  H   UNL     1       1.754  10.575  20.212  1.00  0.00     0.293 HD
ENDBRANCH   8  14
ENDBRANCH   5   6
ENDBRANCH   2   4
ENDBRANCH   1   2
BRANCH   1  16
ATOM     16  C   UNL     1      -3.801   4.121  16.238  1.00  0.00     0.163 C 
ATOM     17  O   UNL     1      -4.613   3.173  16.412  1.00  0.00    -0.294 OA
BRANCH  16  18
ATOM     18  C   UNL     1      -4.231   5.491  16.583  1.00  0.00     0.048 C 
ATOM     19  C   UNL     1      -5.176   6.195  15.941  1.00  0.00     0.012 C 
BRANCH  19  20
ATOM     20  C   UNL     1      -5.831   5.797  14.675  1.00  0.00    -0.022 A 
ATOM     21  C   UNL     1      -5.241   6.164  13.457  1.00  0.00     0.058 A 
ATOM     22  C   UNL     1      -6.990   5.005  14.667  1.00  0.00     0.012 A 
ATOM     23  C   UNL     1      -5.827   5.787  12.232  1.00  0.00     0.161 A 
ATOM     24  C   UNL     1      -7.577   4.628  13.458  1.00  0.00     0.051 A 
ATOM     25  C   UNL     1      -7.006   5.017  12.242  1.00  0.00     0.157 A 
BRANCH  23  26
ATOM     26  O   UNL     1      -5.271   6.156  10.997  1.00  0.00    -0.493 OA
ATOM     27  C   UNL     1      -4.312   7.193  10.821  1.00  0.00     0.278 C 
ENDBRANCH  23  26
BRANCH  25  28
ATOM     28  O   UNL     1      -7.622   4.627  11.054  1.00  0.00    -0.504 OA
ATOM     29  H   UNL     1      -8.544   4.209  11.035  1.00  0.00     0.293 HD
ENDBRANCH  25  28
ENDBRANCH  19  20
ENDBRANCH  16  18
ENDBRANCH   1  16
TORSDOF 10
ENDMDL
MODEL 2
REMARK VINA RESULT:    -7.281      0.851      1.931
REMARK INTER + INTRA:         -12.198
REMARK INTER:                 -11.082
REMARK INTRA:                  -1.116
REMARK UNBOUND:                -1.087
REMARK SMILES COc1cc(C=CC(=O)CC(=O)C=Cc2ccc(O)c(OC)c2)ccc1O
REMARK SMILES IDX 10 1 8 2 9 3 7 4 6 5 5 6 3 7 26 8 4 9 25 10 24 11 2 12 1 13
REMARK SMILES IDX 27 14 11 16 12 17 13 18 14 19 15 20 23 21 16 22 20 23 17 24
REMARK SMILES IDX 18 25 21 26 22 27 19 28
REMARK H PARENT 27 15 19 29
REMARK Flexibility Score: inf
ROOT
ATOM      1  C   UNL     1      -2.571   4.142  15.457  1.00  0.00     0.160 C 
ENDROOT
BRANCH   1   2
ATOM      2  C   UNL     1      -1.407   3.932  16.377  1.00  0.00     0.163 C 
ATOM      3  O   UNL     1      -1.057   2.758  16.675  1.00  0.00    -0.294 OA
BRANCH   2   4
ATOM      4  C   UNL     1      -0.660   5.096  16.897  1.00  0.00     0.048 C 
ATOM      5  C   UNL     1      -0.651   5.416  18.199  1.00  0.00     0.012 C 
BRANCH   5   6
ATOM      6  C   UNL     1       0.100   6.567  18.760  1.00  0.00    -0.022 A 
ATOM      7  C   UNL     1       1.464   8.558  18.353  1.00  0.00     0.161 A 
ATOM      8  C   UNL     1       1.569   8.763  19.740  1.00  0.00     0.157 A 
ATOM      9  C   UNL     1       0.732   7.454  17.873  1.00  0.00     0.058 A 
ATOM     10  C   UNL     1       0.955   7.873  20.625  1.00  0.00     0.051 A 
ATOM     11  C   UNL     1       0.230   6.780  20.145  1.00  0.00     0.012 A 
BRANCH   7  12
ATOM     12  O   UNL     1       2.096   9.465  17.486  1.00  0.00    -0.493 OA
ATOM     13  C   UNL     1       1.496  10.022  16.320  1.00  0.00     0.278 C 
ENDBRANCH   7  12
BRANCH   8  14
ATOM     14  O   UNL     1       2.282   9.843  20.259  1.00  0.00    -0.504 OA
ATOM     15  H   UNL     1       2.295  10.057  21.249  1.00  0.00     0.293 HD
ENDBRANCH   8  14
ENDBRANCH   5   6
ENDBRANCH   2   4
ENDBRANCH   1   2
BRANCH   1  16
ATOM     16  C   UNL     1      -3.839   4.287  16.254  1.00  0.00     0.163 C 
ATOM     17  O   UNL     1      -4.518   3.258  16.515  1.00  0.00    -0.294 OA
BRANCH  16  18
ATOM     18  C   UNL     1      -4.378   5.605  16.644  1.00  0.00     0.048 C 
ATOM     19  C   UNL     1      -5.380   6.251  16.027  1.00  0.00     0.012 C 
BRANCH  19  20
ATOM     20  C   UNL     1      -6.004   5.843  14.749  1.00  0.00    -0.022 A 
ATOM     21  C   UNL     1      -5.392   6.212  13.542  1.00  0.00     0.058 A 
ATOM     22  C   UNL     1      -7.155   5.039  14.719  1.00  0.00     0.012 A 
ATOM     23  C   UNL     1      -5.949   5.825  12.306  1.00  0.00     0.161 A 
ATOM     24  C   UNL     1      -7.712   4.653  13.498  1.00  0.00     0.051 A 
ATOM     25  C   UNL     1      -7.120   5.045  12.294  1.00  0.00     0.157 A 
BRANCH  23  26
ATOM     26  O   UNL     1      -5.370   6.196  11.082  1.00  0.00    -0.493 OA
ATOM     27  C   UNL     1      -4.361   7.190  10.933  1.00  0.00     0.278 C 
ENDBRANCH  23  26
BRANCH  25  28
ATOM     28  O   UNL     1      -7.707   4.645  11.094  1.00  0.00    -0.504 OA
ATOM     29  H   UNL     1      -8.615   4.983  10.799  1.00  0.00     0.293 HD
ENDBRANCH  25  28
ENDBRANCH  19  20
ENDBRANCH  16  18
ENDBRANCH   1  16
TORSDOF 10
ENDMDL
MODEL 3
REMARK VINA RESULT:    -7.274      2.155      3.353
REMARK INTER + INTRA:         -12.188
REMARK INTER:                 -11.272
REMARK INTRA:                  -0.916
REMARK UNBOUND:                -1.087
REMARK SMILES COc1cc(C=CC(=O)CC(=O)C=Cc2ccc(O)c(OC)c2)ccc1O
REMARK SMILES IDX 10 1 8 2 9 3 7 4 6 5 5 6 3 7 26 8 4 9 25 10 24 11 2 12 1 13
REMARK SMILES IDX 27 14 11 16 12 17 13 18 14 19 15 20 23 21 16 22 20 23 17 24
REMARK SMILES IDX 18 25 21 26 22 27 19 28
REMARK H PARENT 27 15 19 29
REMARK Flexibility Score: inf
ROOT
ATOM      1  C   UNL     1      -2.306   4.215  15.176  1.00  0.00     0.160 C 
ENDROOT
BRANCH   1   2
ATOM      2  C   UNL     1      -1.552   3.722  16.374  1.00  0.00     0.163 C 
ATOM      3  O   UNL     1      -1.370   2.483  16.523  1.00  0.00    -0.294 OA
BRANCH   2   4
ATOM      4  C   UNL     1      -1.000   4.688  17.345  1.00  0.00     0.048 C 
ATOM      5  C   UNL     1      -0.192   5.692  16.975  1.00  0.00     0.012 C 
BRANCH   5   6
ATOM      6  C   UNL     1       0.368   6.690  17.919  1.00  0.00    -0.022 A 
ATOM      7  C   UNL     1       0.788   7.355  20.238  1.00  0.00     0.161 A 
ATOM      8  C   UNL     1       1.382   8.545  19.782  1.00  0.00     0.157 A 
ATOM      9  C   UNL     1       0.279   6.437  19.298  1.00  0.00     0.058 A 
ATOM     10  C   UNL     1       1.458   8.808  18.412  1.00  0.00     0.051 A 
ATOM     11  C   UNL     1       0.953   7.895  17.485  1.00  0.00     0.012 A 
BRANCH   7  12
ATOM     12  O   UNL     1       0.719   7.118  21.620  1.00  0.00    -0.493 OA
ATOM     13  C   UNL     1      -0.485   6.886  22.343  1.00  0.00     0.278 C 
ENDBRANCH   7  12
BRANCH   8  14
ATOM     14  O   UNL     1       1.900   9.481  20.677  1.00  0.00    -0.504 OA
ATOM     15  H   UNL     1       1.543  10.427  20.737  1.00  0.00     0.293 HD
ENDBRANCH   8  14
ENDBRANCH   5   6
ENDBRANCH   2   4
ENDBRANCH   1   2
BRANCH   1  16
ATOM     16  C   UNL     1      -3.784   4.212  15.459  1.00  0.00     0.163 C 
ATOM     17  O   UNL     1      -4.176   4.100  16.652  1.00  0.00    -0.294 OA
BRANCH  16  18
ATOM     18  C   UNL     1      -4.793   4.220  14.382  1.00  0.00     0.048 C 
ATOM     19  C   UNL     1      -5.427   5.307  13.916  1.00  0.00     0.012 C 
BRANCH  19  20
ATOM     20  C   UNL     1      -5.358   6.661  14.511  1.00  0.00    -0.022 A 
ATOM     21  C   UNL     1      -5.904   6.876  15.784  1.00  0.00     0.058 A 
ATOM     22  C   UNL     1      -4.698   7.715  13.858  1.00  0.00     0.012 A 
ATOM     23  C   UNL     1      -5.840   8.148  16.388  1.00  0.00     0.161 A 
ATOM     24  C   UNL     1      -4.632   8.977  14.450  1.00  0.00     0.051 A 
ATOM     25  C   UNL     1      -5.202   9.201  15.707  1.00  0.00     0.157 A 
BRANCH  23  26
ATOM     26  O   UNL     1      -6.396   8.398  17.653  1.00  0.00    -0.493 OA
ATOM     27  C   UNL     1      -7.103   7.437  18.430  1.00  0.00     0.278 C 
ENDBRANCH  23  26
BRANCH  25  28
ATOM     28  O   UNL     1      -5.121  10.476  16.265  1.00  0.00    -0.504 OA
ATOM     29  H   UNL     1      -4.252  10.995  16.304  1.00  0.00     0.293 HD
ENDBRANCH  25  28
ENDBRANCH  19  20
ENDBRANCH  16  18
ENDBRANCH   1  16
TORSDOF 10
ENDMDL
MODEL 4
REMARK VINA RESULT:    -7.107      0.924      1.913
REMARK INTER + INTRA:         -11.933
REMARK INTER:                 -10.932
REMARK INTRA:                  -1.001
REMARK UNBOUND:                -1.087
REMARK SMILES COc1cc(C=CC(=O)CC(=O)C=Cc2ccc(O)c(OC)c2)ccc1O
REMARK SMILES IDX 10 1 8 2 9 3 7 4 6 5 5 6 3 7 26 8 4 9 25 10 24 11 2 12 1 13
REMARK SMILES IDX 27 14 11 16 12 17 13 18 14 19 15 20 23 21 16 22 20 23 17 24
REMARK SMILES IDX 18 25 21 26 22 27 19 28
REMARK H PARENT 27 15 19 29
REMARK Flexibility Score: inf
ROOT
ATOM      1  C   UNL     1      -2.402   3.796  15.518  1.00  0.00     0.160 C 
ENDROOT
BRANCH   1   2
ATOM      2  C   UNL     1      -1.451   3.373  16.596  1.00  0.00     0.163 C 
ATOM      3  O   UNL     1      -1.173   2.151  16.731  1.00  0.00    -0.294 OA
BRANCH   2   4
ATOM      4  C   UNL     1      -0.823   4.389  17.465  1.00  0.00     0.048 C 
ATOM      5  C   UNL     1      -0.405   5.573  16.993  1.00  0.00     0.012 C 
BRANCH   5   6
ATOM      6  C   UNL     1       0.215   6.624  17.838  1.00  0.00    -0.022 A 
ATOM      7  C   UNL     1       0.551   7.571  20.070  1.00  0.00     0.161 A 
ATOM      8  C   UNL     1       1.334   8.597  19.511  1.00  0.00     0.157 A 
ATOM      9  C   UNL     1      -0.008   6.593  19.224  1.00  0.00     0.058 A 
ATOM     10  C   UNL     1       1.544   8.640  18.130  1.00  0.00     0.051 A 
ATOM     11  C   UNL     1       0.989   7.668  17.296  1.00  0.00     0.012 A 
BRANCH   7  12
ATOM     12  O   UNL     1       0.350   7.555  21.460  1.00  0.00    -0.493 OA
ATOM     13  C   UNL     1       1.075   6.736  22.373  1.00  0.00     0.278 C 
ENDBRANCH   7  12
BRANCH   8  14
ATOM     14  O   UNL     1       1.908   9.584  20.311  1.00  0.00    -0.504 OA
ATOM     15  H   UNL     1       1.413  10.005  21.088  1.00  0.00     0.293 HD
ENDBRANCH   8  14
ENDBRANCH   5   6
ENDBRANCH   2   4
ENDBRANCH   1   2
BRANCH   1  16
ATOM     16  C   UNL     1      -3.742   4.134  16.115  1.00  0.00     0.163 C 
ATOM     17  O   UNL     1      -4.647   3.257  16.117  1.00  0.00    -0.294 OA
BRANCH  16  18
ATOM     18  C   UNL     1      -4.072   5.490  16.596  1.00  0.00     0.048 C 
ATOM     19  C   UNL     1      -4.980   6.311  16.047  1.00  0.00     0.012 C 
BRANCH  19  20
ATOM     20  C   UNL     1      -5.685   6.077  14.767  1.00  0.00    -0.022 A 
ATOM     21  C   UNL     1      -7.043   5.727  14.790  1.00  0.00     0.058 A 
ATOM     22  C   UNL     1      -5.044   6.265  13.532  1.00  0.00     0.012 A 
ATOM     23  C   UNL     1      -7.751   5.514  13.590  1.00  0.00     0.161 A 
ATOM     24  C   UNL     1      -5.739   6.055  12.340  1.00  0.00     0.051 A 
ATOM     25  C   UNL     1      -7.085   5.677  12.361  1.00  0.00     0.157 A 
BRANCH  23  26
ATOM     26  O   UNL     1      -9.105   5.143  13.582  1.00  0.00    -0.493 OA
ATOM     27  C   UNL     1     -10.122   5.781  14.346  1.00  0.00     0.278 C 
ENDBRANCH  23  26
BRANCH  25  28
ATOM     28  O   UNL     1      -7.745   5.471  11.150  1.00  0.00    -0.504 OA
ATOM     29  H   UNL     1      -7.295   5.029  10.358  1.00  0.00     0.293 HD
ENDBRANCH  25  28
ENDBRANCH  19  20
ENDBRANCH  16  18
ENDBRANCH   1  16
TORSDOF 10
ENDMDL
MODEL 5
REMARK VINA RESULT:    -7.095      1.954      2.230
REMARK INTER + INTRA:         -11.915
REMARK INTER:                 -11.457
REMARK INTRA:                  -0.458
REMARK UNBOUND:                -1.087
REMARK SMILES COc1cc(C=CC(=O)CC(=O)C=Cc2ccc(O)c(OC)c2)ccc1O
REMARK SMILES IDX 10 1 8 2 9 3 7 4 6 5 5 6 3 7 26 8 4 9 25 10 24 11 2 12 1 13
REMARK SMILES IDX 27 14 11 16 12 17 13 18 14 19 15 20 23 21 16 22 20 23 17 24
REMARK SMILES IDX 18 25 21 26 22 27 19 28
REMARK H PARENT 27 15 19 29
REMARK Flexibility Score: inf
ROOT
ATOM      1  C   UNL     1      -3.379   4.288  15.189  1.00  0.00     0.160 C 
ENDROOT
BRANCH   1   2
ATOM      2  C   UNL     1      -2.225   4.062  16.117  1.00  0.00     0.163 C 
ATOM      3  O   UNL     1      -1.706   2.915  16.191  1.00  0.00    -0.294 OA
BRANCH   2   4
ATOM      4  C   UNL     1      -1.683   5.187  16.907  1.00  0.00     0.048 C 
ATOM      5  C   UNL     1      -0.388   5.266  17.244  1.00  0.00     0.012 C 
BRANCH   5   6
ATOM      6  C   UNL     1       0.195   6.387  18.022  1.00  0.00    -0.022 A 
ATOM      7  C   UNL     1       0.627   7.398  20.209  1.00  0.00     0.161 A 
ATOM      8  C   UNL     1       1.250   8.488  19.576  1.00  0.00     0.157 A 
ATOM      9  C   UNL     1       0.098   6.356  19.423  1.00  0.00     0.058 A 
ATOM     10  C   UNL     1       1.333   8.531  18.182  1.00  0.00     0.051 A 
ATOM     11  C   UNL     1       0.807   7.495  17.406  1.00  0.00     0.012 A 
BRANCH   7  12
ATOM     12  O   UNL     1       0.553   7.383  21.612  1.00  0.00    -0.493 OA
ATOM     13  C   UNL     1      -0.483   6.755  22.360  1.00  0.00     0.278 C 
ENDBRANCH   7  12
BRANCH   8  14
ATOM     14  O   UNL     1       1.789   9.541  20.314  1.00  0.00    -0.504 OA
ATOM     15  H   UNL     1       2.579   9.416  20.937  1.00  0.00     0.293 HD
ENDBRANCH   8  14
ENDBRANCH   5   6
ENDBRANCH   2   4
ENDBRANCH   1   2
BRANCH   1  16
ATOM     16  C   UNL     1      -4.040   5.604  15.499  1.00  0.00     0.163 C 
ATOM     17  O   UNL     1      -3.849   6.580  14.724  1.00  0.00    -0.294 OA
BRANCH  16  18
ATOM     18  C   UNL     1      -4.809   5.828  16.738  1.00  0.00     0.048 C 
ATOM     19  C   UNL     1      -6.146   5.908  16.822  1.00  0.00     0.012 C 
BRANCH  19  20
ATOM     20  C   UNL     1      -7.076   5.961  15.671  1.00  0.00    -0.022 A 
ATOM     21  C   UNL     1      -7.799   7.139  15.430  1.00  0.00     0.058 A 
ATOM     22  C   UNL     1      -7.197   4.885  14.777  1.00  0.00     0.012 A 
ATOM     23  C   UNL     1      -8.679   7.230  14.334  1.00  0.00     0.161 A 
ATOM     24  C   UNL     1      -8.068   4.969  13.689  1.00  0.00     0.051 A 
ATOM     25  C   UNL     1      -8.811   6.132  13.465  1.00  0.00     0.157 A 
BRANCH  23  26
ATOM     26  O   UNL     1      -9.430   8.389  14.080  1.00  0.00    -0.493 OA
ATOM     27  C   UNL     1      -8.967   9.503  13.324  1.00  0.00     0.278 C 
ENDBRANCH  23  26
BRANCH  25  28
ATOM     28  O   UNL     1      -9.675   6.178  12.371  1.00  0.00    -0.504 OA
ATOM     29  H   UNL     1     -10.479   5.568  12.292  1.00  0.00     0.293 HD
ENDBRANCH  25  28
ENDBRANCH  19  20
ENDBRANCH  16  18
ENDBRANCH   1  16
TORSDOF 10
ENDMDL
MODEL 6
REMARK VINA RESULT:    -6.966      2.041      2.894
REMARK INTER + INTRA:         -11.718
REMARK INTER:                 -11.247
REMARK INTRA:                  -0.470
REMARK UNBOUND:                -1.087
REMARK SMILES COc1cc(C=CC(=O)CC(=O)C=Cc2ccc(O)c(OC)c2)ccc1O
REMARK SMILES IDX 10 1 8 2 9 3 7 4 6 5 5 6 3 7 26 8 4 9 25 10 24 11 2 12 1 13
REMARK SMILES IDX 27 14 11 16 12 17 13 18 14 19 15 20 23 21 16 22 20 23 17 24
REMARK SMILES IDX 18 25 21 26 22 27 19 28
REMARK H PARENT 27 15 19 29
REMARK Flexibility Score: inf
ROOT
ATOM      1  C   UNL     1      -3.219   4.270  15.131  1.00  0.00     0.160 C 
ENDROOT
BRANCH   1   2
ATOM      2  C   UNL     1      -2.074   4.095  16.082  1.00  0.00     0.163 C 
ATOM      3  O   UNL     1      -1.532   2.962  16.195  1.00  0.00    -0.294 OA
BRANCH   2   4
ATOM      4  C   UNL     1      -1.570   5.252  16.848  1.00  0.00     0.048 C 
ATOM      5  C   UNL     1      -0.376   5.240  17.458  1.00  0.00     0.012 C 
BRANCH   5   6
ATOM      6  C   UNL     1       0.171   6.389  18.223  1.00  0.00    -0.022 A 
ATOM      7  C   UNL     1       1.426   8.491  18.207  1.00  0.00     0.161 A 
ATOM      8  C   UNL     1       1.266   8.589  19.600  1.00  0.00     0.157 A 
ATOM      9  C   UNL     1       0.879   7.384  17.529  1.00  0.00     0.058 A 
ATOM     10  C   UNL     1       0.578   7.593  20.297  1.00  0.00     0.051 A 
ATOM     11  C   UNL     1       0.037   6.498  19.620  1.00  0.00     0.012 A 
BRANCH   7  12
ATOM     12  O   UNL     1       2.128   9.503  17.533  1.00  0.00    -0.493 OA
ATOM     13  C   UNL     1       1.753  10.044  16.270  1.00  0.00     0.278 C 
ENDBRANCH   7  12
BRANCH   8  14
ATOM     14  O   UNL     1       1.789   9.668  20.312  1.00  0.00    -0.504 OA
ATOM     15  H   UNL     1       1.224  10.228  20.939  1.00  0.00     0.293 HD
ENDBRANCH   8  14
ENDBRANCH   5   6
ENDBRANCH   2   4
ENDBRANCH   1   2
BRANCH   1  16
ATOM     16  C   UNL     1      -3.978   5.526  15.463  1.00  0.00     0.163 C 
ATOM     17  O   UNL     1      -3.847   6.534  14.716  1.00  0.00    -0.294 OA
BRANCH  16  18
ATOM     18  C   UNL     1      -4.780   5.661  16.695  1.00  0.00     0.048 C 
ATOM     19  C   UNL     1      -6.120   5.717  16.750  1.00  0.00     0.012 C 
BRANCH  19  20
ATOM     20  C   UNL     1      -7.022   5.828  15.582  1.00  0.00    -0.022 A 
ATOM     21  C   UNL     1      -7.760   7.007  15.399  1.00  0.00     0.058 A 
ATOM     22  C   UNL     1      -7.104   4.810  14.619  1.00  0.00     0.012 A 
ATOM     23  C   UNL     1      -8.615   7.154  14.289  1.00  0.00     0.161 A 
ATOM     24  C   UNL     1      -7.949   4.949  13.517  1.00  0.00     0.051 A 
ATOM     25  C   UNL     1      -8.708   6.111  13.349  1.00  0.00     0.157 A 
BRANCH  23  26
ATOM     26  O   UNL     1      -9.381   8.314  14.090  1.00  0.00    -0.493 OA
ATOM     27  C   UNL     1      -8.934   9.467  13.385  1.00  0.00     0.278 C 
ENDBRANCH  23  26
BRANCH  25  28
ATOM     28  O   UNL     1      -9.546   6.213  12.239  1.00  0.00    -0.504 OA
ATOM     29  H   UNL     1      -9.935   5.400  11.779  1.00  0.00     0.293 HD
ENDBRANCH  25  28
ENDBRANCH  19  20
ENDBRANCH  16  18
ENDBRANCH   1  16
TORSDOF 10
ENDMDL
MODEL 7
REMARK VINA RESULT:    -6.951      4.537      6.305
REMARK INTER + INTRA:         -11.694
REMARK INTER:                  -9.587
REMARK INTRA:                  -2.108
REMARK UNBOUND:                -1.087
REMARK SMILES COc1cc(C=CC(=O)CC(=O)C=Cc2ccc(O)c(OC)c2)ccc1O
REMARK SMILES IDX 10 1 8 2 9 3 7 4 6 5 5 6 3 7 26 8 4 9 25 10 24 11 2 12 1 13
REMARK SMILES IDX 27 14 11 16 12 17 13 18 14 19 15 20 23 21 16 22 20 23 17 24
REMARK SMILES IDX 18 25 21 26 22 27 19 28
REMARK H PARENT 27 15 19 29
REMARK Flexibility Score: inf
ROOT
ATOM      1  C   UNL     1      -2.957   8.826  11.653  1.00  0.00     0.160 C 
ENDROOT
BRANCH   1   2
ATOM      2  C   UNL     1      -3.623   9.364  12.883  1.00  0.00     0.163 C 
ATOM      3  O   UNL     1      -3.746  10.611  13.025  1.00  0.00    -0.294 OA
BRANCH   2   4
ATOM      4  C   UNL     1      -4.160   8.433  13.896  1.00  0.00     0.048 C 
ATOM      5  C   UNL     1      -3.864   7.125  13.894  1.00  0.00     0.012 C 
BRANCH   5   6
ATOM      6  C   UNL     1      -4.371   6.163  14.904  1.00  0.00    -0.022 A 
ATOM      7  C   UNL     1      -5.452   5.796  17.070  1.00  0.00     0.161 A 
ATOM      8  C   UNL     1      -5.336   4.407  16.885  1.00  0.00     0.157 A 
ATOM      9  C   UNL     1      -4.961   6.666  16.076  1.00  0.00     0.058 A 
ATOM     10  C   UNL     1      -4.735   3.904  15.729  1.00  0.00     0.051 A 
ATOM     11  C   UNL     1      -4.250   4.769  14.746  1.00  0.00     0.012 A 
BRANCH   7  12
ATOM     12  O   UNL     1      -6.055   6.275  18.244  1.00  0.00    -0.493 OA
ATOM     13  C   UNL     1      -6.788   7.493  18.339  1.00  0.00     0.278 C 
ENDBRANCH   7  12
BRANCH   8  14
ATOM     14  O   UNL     1      -5.810   3.510  17.843  1.00  0.00    -0.504 OA
ATOM     15  H   UNL     1      -6.792   3.443  18.082  1.00  0.00     0.293 HD
ENDBRANCH   8  14
ENDBRANCH   5   6
ENDBRANCH   2   4
ENDBRANCH   1   2
BRANCH   1  16
ATOM     16  C   UNL     1      -3.989   8.274  10.707  1.00  0.00     0.163 C 
ATOM     17  O   UNL     1      -3.756   7.184  10.119  1.00  0.00    -0.294 OA
BRANCH  16  18
ATOM     18  C   UNL     1      -5.214   9.018  10.354  1.00  0.00     0.048 C 
ATOM     19  C   UNL     1      -6.457   8.706  10.752  1.00  0.00     0.012 C 
BRANCH  19  20
ATOM     20  C   UNL     1      -6.844   7.468  11.466  1.00  0.00    -0.022 A 
ATOM     21  C   UNL     1      -7.290   7.557  12.792  1.00  0.00     0.058 A 
ATOM     22  C   UNL     1      -6.838   6.220  10.824  1.00  0.00     0.012 A 
ATOM     23  C   UNL     1      -7.683   6.401  13.497  1.00  0.00     0.161 A 
ATOM     24  C   UNL     1      -7.225   5.071  11.516  1.00  0.00     0.051 A 
ATOM     25  C   UNL     1      -7.643   5.153  12.848  1.00  0.00     0.157 A 
BRANCH  23  26
ATOM     26  O   UNL     1      -8.116   6.456  14.832  1.00  0.00    -0.493 OA
ATOM     27  C   UNL     1      -9.319   7.081  15.266  1.00  0.00     0.278 C 
ENDBRANCH  23  26
BRANCH  25  28
ATOM     28  O   UNL     1      -8.017   3.984  13.509  1.00  0.00    -0.504 OA
ATOM     29  H   UNL     1      -8.652   3.990  14.298  1.00  0.00     0.293 HD
ENDBRANCH  25  28
ENDBRANCH  19  20
ENDBRANCH  16  18
ENDBRANCH   1  16
TORSDOF 10
ENDMDL
MODEL 8
REMARK VINA RESULT:    -6.797      3.835      6.311
REMARK INTER + INTRA:         -11.460
REMARK INTER:                  -9.320
REMARK INTRA:                  -2.139
REMARK UNBOUND:                -1.087
REMARK SMILES COc1cc(C=CC(=O)CC(=O)C=Cc2ccc(O)c(OC)c2)ccc1O
REMARK SMILES IDX 10 1 8 2 9 3 7 4 6 5 5 6 3 7 26 8 4 9 25 10 24 11 2 12 1 13
REMARK SMILES IDX 27 14 11 16 12 17 13 18 14 19 15 20 23 21 16 22 20 23 17 24
REMARK SMILES IDX 18 25 21 26 22 27 19 28
REMARK H PARENT 27 15 19 29
REMARK Flexibility Score: inf
ROOT
ATOM      1  C   UNL     1      -3.773   9.756  13.521  1.00  0.00     0.160 C 
ENDROOT
BRANCH   1   2
ATOM      2  C   UNL     1      -4.975   9.559  14.394  1.00  0.00     0.163 C 
ATOM      3  O   UNL     1      -5.807  10.499  14.523  1.00  0.00    -0.294 OA
BRANCH   2   4
ATOM      4  C   UNL     1      -5.194   8.261  15.064  1.00  0.00     0.048 C 
ATOM      5  C   UNL     1      -4.438   7.185  14.803  1.00  0.00     0.012 C 
BRANCH   5   6
ATOM      6  C   UNL     1      -4.617   5.870  15.466  1.00  0.00    -0.022 A 
ATOM      7  C   UNL     1      -3.621   3.761  16.210  1.00  0.00     0.161 A 
ATOM      8  C   UNL     1      -4.876   3.344  16.689  1.00  0.00     0.157 A 
ATOM      9  C   UNL     1      -3.504   5.023  15.595  1.00  0.00     0.058 A 
ATOM     10  C   UNL     1      -5.989   4.177  16.548  1.00  0.00     0.051 A 
ATOM     11  C   UNL     1      -5.868   5.427  15.939  1.00  0.00     0.012 A 
BRANCH   7  12
ATOM     12  O   UNL     1      -2.520   2.902  16.359  1.00  0.00    -0.493 OA
ATOM     13  C   UNL     1      -1.199   3.327  16.678  1.00  0.00     0.278 C 
ENDBRANCH   7  12
BRANCH   8  14
ATOM     14  O   UNL     1      -5.037   2.104  17.305  1.00  0.00    -0.504 OA
ATOM     15  H   UNL     1      -5.876   1.860  17.819  1.00  0.00     0.293 HD
ENDBRANCH   8  14
ENDBRANCH   5   6
ENDBRANCH   2   4
ENDBRANCH   1   2
BRANCH   1  16
ATOM     16  C   UNL     1      -3.991   9.093  12.188  1.00  0.00     0.163 C 
ATOM     17  O   UNL     1      -3.195   8.188  11.819  1.00  0.00    -0.294 OA
BRANCH  16  18
ATOM     18  C   UNL     1      -5.033   9.544  11.244  1.00  0.00     0.048 C 
ATOM     19  C   UNL     1      -6.236   8.973  11.082  1.00  0.00     0.012 C 
BRANCH  19  20
ATOM     20  C   UNL     1      -6.668   7.694  11.689  1.00  0.00    -0.022 A 
ATOM     21  C   UNL     1      -7.760   7.690  12.569  1.00  0.00     0.058 A 
ATOM     22  C   UNL     1      -6.052   6.478  11.352  1.00  0.00     0.012 A 
ATOM     23  C   UNL     1      -8.209   6.488  13.152  1.00  0.00     0.161 A 
ATOM     24  C   UNL     1      -6.491   5.284  11.926  1.00  0.00     0.051 A 
ATOM     25  C   UNL     1      -7.561   5.282  12.826  1.00  0.00     0.157 A 
BRANCH  23  26
ATOM     26  O   UNL     1      -9.287   6.456  14.051  1.00  0.00    -0.493 OA
ATOM     27  C   UNL     1      -9.227   6.906  15.400  1.00  0.00     0.278 C 
ENDBRANCH  23  26
BRANCH  25  28
ATOM     28  O   UNL     1      -7.970   4.071  13.384  1.00  0.00    -0.504 OA
ATOM     29  H   UNL     1      -7.986   3.210  12.852  1.00  0.00     0.293 HD
ENDBRANCH  25  28
ENDBRANCH  19  20
ENDBRANCH  16  18
ENDBRANCH   1  16
TORSDOF 10
ENDMDL
MODEL 9
REMARK VINA RESULT:    -6.636      2.928      5.863
REMARK INTER + INTRA:         -11.213
REMARK INTER:                  -9.362
REMARK INTRA:                  -1.851
REMARK UNBOUND:                -1.087
REMARK SMILES COc1cc(C=CC(=O)CC(=O)C=Cc2ccc(O)c(OC)c2)ccc1O
REMARK SMILES IDX 10 1 8 2 9 3 7 4 6 5 5 6 3 7 26 8 4 9 25 10 24 11 2 12 1 13
REMARK SMILES IDX 27 14 11 16 12 17 13 18 14 19 15 20 23 21 16 22 20 23 17 24
REMARK SMILES IDX 18 25 21 26 22 27 19 28
REMARK H PARENT 27 15 19 29
REMARK Flexibility Score: inf
ROOT
ATOM      1  C   UNL     1      -9.058   5.827  14.252  1.00  0.00     0.160 C 
ENDROOT
BRANCH   1   2
ATOM      2  C   UNL     1      -8.075   6.035  15.364  1.00  0.00     0.163 C 
ATOM      3  O   UNL     1      -8.313   6.905  16.245  1.00  0.00    -0.294 OA
BRANCH   2   4
ATOM      4  C   UNL     1      -6.860   5.199  15.439  1.00  0.00     0.048 C 
ATOM      5  C   UNL     1      -5.881   5.438  16.324  1.00  0.00     0.012 C 
BRANCH   5   6
ATOM      6  C   UNL     1      -4.654   4.611  16.439  1.00  0.00    -0.022 A 
ATOM      7  C   UNL     1      -2.217   4.468  16.257  1.00  0.00     0.161 A 
ATOM      8  C   UNL     1      -2.277   3.108  16.607  1.00  0.00     0.157 A 
ATOM      9  C   UNL     1      -3.411   5.210  16.170  1.00  0.00     0.058 A 
ATOM     10  C   UNL     1      -3.512   2.505  16.859  1.00  0.00     0.051 A 
ATOM     11  C   UNL     1      -4.693   3.244  16.772  1.00  0.00     0.012 A 
BRANCH   7  12
ATOM     12  O   UNL     1      -0.963   5.047  16.004  1.00  0.00    -0.493 OA
ATOM     13  C   UNL     1      -0.076   5.529  17.009  1.00  0.00     0.278 C 
ENDBRANCH   7  12
BRANCH   8  14
ATOM     14  O   UNL     1      -1.119   2.337  16.707  1.00  0.00    -0.504 OA
ATOM     15  H   UNL     1      -0.786   1.973  17.592  1.00  0.00     0.293 HD
ENDBRANCH   8  14
ENDBRANCH   5   6
ENDBRANCH   2   4
ENDBRANCH   1   2
BRANCH   1  16
ATOM     16  C   UNL     1      -8.661   6.647  13.054  1.00  0.00     0.163 C 
ATOM     17  O   UNL     1      -8.111   6.072  12.076  1.00  0.00    -0.294 OA
BRANCH  16  18
ATOM     18  C   UNL     1      -8.788   8.117  13.027  1.00  0.00     0.048 C 
ATOM     19  C   UNL     1      -7.767   8.987  13.004  1.00  0.00     0.012 C 
BRANCH  19  20
ATOM     20  C   UNL     1      -6.339   8.638  13.176  1.00  0.00    -0.022 A 
ATOM     21  C   UNL     1      -5.554   8.393  12.040  1.00  0.00     0.058 A 
ATOM     22  C   UNL     1      -5.738   8.615  14.445  1.00  0.00     0.012 A 
ATOM     23  C   UNL     1      -4.187   8.075  12.166  1.00  0.00     0.161 A 
ATOM     24  C   UNL     1      -4.385   8.300  14.577  1.00  0.00     0.051 A 
ATOM     25  C   UNL     1      -3.608   8.026  13.447  1.00  0.00     0.157 A 
BRANCH  23  26
ATOM     26  O   UNL     1      -3.382   7.805  11.048  1.00  0.00    -0.493 OA
ATOM     27  C   UNL     1      -3.826   7.131   9.875  1.00  0.00     0.278 C 
ENDBRANCH  23  26
BRANCH  25  28
ATOM     28  O   UNL     1      -2.260   7.711  13.617  1.00  0.00    -0.504 OA
ATOM     29  H   UNL     1      -1.948   6.771  13.828  1.00  0.00     0.293 HD
ENDBRANCH  25  28
ENDBRANCH  19  20
ENDBRANCH  16  18
ENDBRANCH   1  16
TORSDOF 10
ENDMDL
