MODEL 1
REMARK VINA RESULT:    -6.742      0.000      0.000
REMARK INTER + INTRA:          -7.788
REMARK INTER:                  -7.333
REMARK INTRA:                  -0.455
REMARK UNBOUND:                -0.455
REMARK SMILES C=C(C)[C@H]1CC[C@@]2(C)CC[C@]3(C)[C@@H](CC[C@H]4[C@@]5(C)CC[C@@H](O)C(C)(C)[C@H]5CC[C@]43C)[C@@H]12
REMARK SMILES IDX 4 1 5 2 6 3 7 4 31 5 13 6 14 7 15 8 16 9 17 10 19 11 20 12
REMARK SMILES IDX 21 13 23 14 26 15 27 16 28 17 29 18 11 19 10 20 9 21 12 22
REMARK SMILES IDX 30 23 24 24 25 25 18 26 8 27 2 28 3 29 1 30 22 31
REMARK H PARENT 22 32
REMARK Flexibility Score: inf
ROOT
ATOM      1  C   UNL     1      12.577 -20.830 -40.426  1.00  0.00     0.018 C 
ATOM      2  C   UNL     1      13.111 -19.406 -40.443  1.00  0.00     0.009 C 
ATOM      3  C   UNL     1      13.739 -19.205 -39.072  1.00  0.00     0.008 C 
ATOM      4  C   UNL     1      13.051 -20.198 -38.085  1.00  0.00    -0.029 C 
ATOM      5  C   UNL     1      12.094 -21.056 -38.974  1.00  0.00     0.006 C 
ATOM      6  C   UNL     1      10.562 -20.838 -38.692  1.00  0.00    -0.000 C 
ATOM      7  C   UNL     1      10.019 -19.498 -39.203  1.00  0.00     0.005 C 
ATOM      8  C   UNL     1       8.521 -19.400 -39.034  1.00  0.00     0.005 C 
ATOM      9  C   UNL     1       8.045 -19.540 -37.559  1.00  0.00     0.002 C 
ATOM     10  C   UNL     1       6.453 -19.308 -37.405  1.00  0.00    -0.026 C 
ATOM     11  C   UNL     1       5.905 -18.385 -38.557  1.00  0.00     0.010 C 
ATOM     12  C   UNL     1       4.399 -18.143 -38.558  1.00  0.00     0.033 C 
ATOM     13  C   UNL     1       3.545 -19.400 -38.302  1.00  0.00     0.120 C 
ATOM     14  C   UNL     1       4.325 -20.758 -38.290  1.00  0.00    -0.006 C 
ATOM     15  C   UNL     1       5.572 -20.652 -37.312  1.00  0.00     0.003 C 
ATOM     16  C   UNL     1       6.326 -22.014 -37.181  1.00  0.00     0.005 C 
ATOM     17  C   UNL     1       7.815 -22.038 -37.499  1.00  0.00     0.008 C 
ATOM     18  C   UNL     1       8.622 -20.858 -36.896  1.00  0.00    -0.024 C 
ATOM     19  C   UNL     1      10.215 -21.050 -37.178  1.00  0.00    -0.024 C 
ATOM     20  C   UNL     1      11.078 -20.062 -36.302  1.00  0.00     0.008 C 
ATOM     21  C   UNL     1      12.332 -19.417 -36.940  1.00  0.00     0.007 C 
ATOM     22  C   UNL     1      10.652 -22.511 -36.798  1.00  0.00     0.012 C 
ATOM     23  C   UNL     1       8.382 -20.837 -35.345  1.00  0.00     0.012 C 
ATOM     24  C   UNL     1       4.736 -21.210 -39.724  1.00  0.00     0.014 C 
ATOM     25  C   UNL     1       3.322 -21.828 -37.747  1.00  0.00     0.014 C 
ATOM     26  C   UNL     1       6.228 -18.452 -36.109  1.00  0.00     0.012 C 
ATOM     27  C   UNL     1      14.153 -21.093 -37.461  1.00  0.00     0.011 C 
ENDROOT
BRANCH   1  28
ATOM     28  C   UNL     1      11.603 -21.232 -41.539  1.00  0.00    -0.077 C 
ATOM     29  C   UNL     1      11.016 -20.245 -42.523  1.00  0.00     0.039 C 
ATOM     30  C   UNL     1      11.323 -22.534 -41.719  1.00  0.00     0.008 C 
ENDBRANCH   1  28
BRANCH  13  31
ATOM     31  O   UNL     1       2.498 -19.444 -39.248  1.00  0.00    -0.393 OA
ATOM     32  H   UNL     1       2.809 -18.939 -40.046  1.00  0.00     0.210 HD
ENDBRANCH  13  31
TORSDOF 2
ENDMDL
MODEL 2
REMARK VINA RESULT:    -6.699      2.975      8.018
REMARK INTER + INTRA:          -7.742
REMARK INTER:                  -7.455
REMARK INTRA:                  -0.287
REMARK UNBOUND:                -0.455
REMARK SMILES C=C(C)[C@H]1CC[C@@]2(C)CC[C@]3(C)[C@@H](CC[C@H]4[C@@]5(C)CC[C@@H](O)C(C)(C)[C@H]5CC[C@]43C)[C@@H]12
REMARK SMILES IDX 4 1 5 2 6 3 7 4 31 5 13 6 14 7 15 8 16 9 17 10 19 11 20 12
REMARK SMILES IDX 21 13 23 14 26 15 27 16 28 17 29 18 11 19 10 20 9 21 12 22
REMARK SMILES IDX 30 23 24 24 25 25 18 26 8 27 2 28 3 29 1 30 22 31
REMARK H PARENT 22 32
REMARK Flexibility Score: inf
ROOT
ATOM      1  C   UNL     1       3.881 -15.432 -35.274  1.00  0.00     0.018 C 
ATOM      2  C   UNL     1       4.188 -14.104 -35.950  1.00  0.00     0.009 C 
ATOM      3  C   UNL     1       3.400 -14.133 -37.251  1.00  0.00     0.008 C 
ATOM      4  C   UNL     1       3.170 -15.629 -37.632  1.00  0.00    -0.029 C 
ATOM      5  C   UNL     1       3.751 -16.447 -36.434  1.00  0.00     0.006 C 
ATOM      6  C   UNL     1       5.026 -17.301 -36.779  1.00  0.00    -0.000 C 
ATOM      7  C   UNL     1       6.299 -16.469 -36.975  1.00  0.00     0.005 C 
ATOM      8  C   UNL     1       7.516 -17.346 -37.163  1.00  0.00     0.005 C 
ATOM      9  C   UNL     1       7.418 -18.305 -38.384  1.00  0.00     0.002 C 
ATOM     10  C   UNL     1       8.784 -19.134 -38.623  1.00  0.00    -0.026 C 
ATOM     11  C   UNL     1      10.025 -18.347 -38.056  1.00  0.00     0.010 C 
ATOM     12  C   UNL     1      11.371 -19.059 -38.165  1.00  0.00     0.033 C 
ATOM     13  C   UNL     1      11.343 -20.550 -37.777  1.00  0.00     0.120 C 
ATOM     14  C   UNL     1      10.008 -21.059 -37.136  1.00  0.00    -0.006 C 
ATOM     15  C   UNL     1       8.779 -20.638 -38.050  1.00  0.00     0.003 C 
ATOM     16  C   UNL     1       7.430 -21.212 -37.512  1.00  0.00     0.005 C 
ATOM     17  C   UNL     1       6.300 -20.231 -37.229  1.00  0.00     0.008 C 
ATOM     18  C   UNL     1       6.086 -19.160 -38.331  1.00  0.00    -0.024 C 
ATOM     19  C   UNL     1       4.775 -18.251 -38.000  1.00  0.00    -0.024 C 
ATOM     20  C   UNL     1       4.340 -17.391 -39.248  1.00  0.00     0.008 C 
ATOM     21  C   UNL     1       3.834 -15.948 -39.008  1.00  0.00     0.007 C 
ATOM     22  C   UNL     1       3.562 -19.179 -37.629  1.00  0.00     0.012 C 
ATOM     23  C   UNL     1       5.858 -19.898 -39.698  1.00  0.00     0.012 C 
ATOM     24  C   UNL     1       9.842 -20.573 -35.664  1.00  0.00     0.014 C 
ATOM     25  C   UNL     1      10.118 -22.618 -37.089  1.00  0.00     0.014 C 
ATOM     26  C   UNL     1       9.045 -19.170 -40.169  1.00  0.00     0.012 C 
ATOM     27  C   UNL     1       1.641 -15.863 -37.752  1.00  0.00     0.011 C 
ENDROOT
BRANCH   1  28
ATOM     28  C   UNL     1       4.775 -15.849 -34.101  1.00  0.00    -0.077 C 
ATOM     29  C   UNL     1       4.864 -17.271 -33.592  1.00  0.00     0.039 C 
ATOM     30  C   UNL     1       5.595 -14.938 -33.551  1.00  0.00     0.008 C 
ENDBRANCH   1  28
BRANCH  13  31
ATOM     31  O   UNL     1      12.433 -20.822 -36.922  1.00  0.00    -0.393 OA
ATOM     32  H   UNL     1      13.238 -20.912 -37.499  1.00  0.00     0.210 HD
ENDBRANCH  13  31
TORSDOF 2
ENDMDL
MODEL 3
REMARK VINA RESULT:    -6.670      2.891      7.382
REMARK INTER + INTRA:          -7.710
REMARK INTER:                  -7.264
REMARK INTRA:                  -0.446
REMARK UNBOUND:                -0.455
REMARK SMILES C=C(C)[C@H]1CC[C@@]2(C)CC[C@]3(C)[C@@H](CC[C@H]4[C@@]5(C)CC[C@@H](O)C(C)(C)[C@H]5CC[C@]43C)[C@@H]12
REMARK SMILES IDX 4 1 5 2 6 3 7 4 31 5 13 6 14 7 15 8 16 9 17 10 19 11 20 12
REMARK SMILES IDX 21 13 23 14 26 15 27 16 28 17 29 18 11 19 10 20 9 21 12 22
REMARK SMILES IDX 30 23 24 24 25 25 18 26 8 27 2 28 3 29 1 30 22 31
REMARK H PARENT 22 32
REMARK Flexibility Score: inf
ROOT
ATOM      1  C   UNL     1       2.656 -20.268 -39.353  1.00  0.00     0.018 C 
ATOM      2  C   UNL     1       1.889 -20.250 -38.040  1.00  0.00     0.009 C 
ATOM      3  C   UNL     1       2.047 -18.832 -37.511  1.00  0.00     0.008 C 
ATOM      4  C   UNL     1       3.354 -18.240 -38.126  1.00  0.00    -0.029 C 
ATOM      5  C   UNL     1       3.866 -19.332 -39.119  1.00  0.00     0.006 C 
ATOM      6  C   UNL     1       5.223 -20.012 -38.706  1.00  0.00    -0.000 C 
ATOM      7  C   UNL     1       5.098 -20.984 -37.525  1.00  0.00     0.005 C 
ATOM      8  C   UNL     1       6.396 -21.712 -37.262  1.00  0.00     0.005 C 
ATOM      9  C   UNL     1       7.592 -20.770 -36.941  1.00  0.00     0.002 C 
ATOM     10  C   UNL     1       8.927 -21.590 -36.546  1.00  0.00    -0.026 C 
ATOM     11  C   UNL     1       8.564 -23.000 -35.944  1.00  0.00     0.010 C 
ATOM     12  C   UNL     1       9.747 -23.897 -35.591  1.00  0.00     0.033 C 
ATOM     13  C   UNL     1      10.865 -23.936 -36.651  1.00  0.00     0.120 C 
ATOM     14  C   UNL     1      10.537 -23.228 -38.009  1.00  0.00    -0.006 C 
ATOM     15  C   UNL     1      10.002 -21.759 -37.732  1.00  0.00     0.003 C 
ATOM     16  C   UNL     1       9.758 -20.969 -39.058  1.00  0.00     0.005 C 
ATOM     17  C   UNL     1       8.374 -20.379 -39.292  1.00  0.00     0.008 C 
ATOM     18  C   UNL     1       7.762 -19.662 -38.059  1.00  0.00    -0.024 C 
ATOM     19  C   UNL     1       6.350 -18.952 -38.452  1.00  0.00    -0.024 C 
ATOM     20  C   UNL     1       5.878 -17.948 -37.331  1.00  0.00     0.008 C 
ATOM     21  C   UNL     1       4.368 -17.874 -36.996  1.00  0.00     0.007 C 
ATOM     22  C   UNL     1       6.519 -18.123 -39.777  1.00  0.00     0.012 C 
ATOM     23  C   UNL     1       8.768 -18.556 -37.582  1.00  0.00     0.012 C 
ATOM     24  C   UNL     1       9.548 -24.062 -38.880  1.00  0.00     0.014 C 
ATOM     25  C   UNL     1      11.885 -23.157 -38.796  1.00  0.00     0.014 C 
ATOM     26  C   UNL     1       9.599 -20.839 -35.343  1.00  0.00     0.012 C 
ATOM     27  C   UNL     1       2.977 -16.946 -38.894  1.00  0.00     0.011 C 
ENDROOT
BRANCH   1  28
ATOM     28  C   UNL     1       2.964 -21.636 -39.973  1.00  0.00    -0.077 C 
ATOM     29  C   UNL     1       2.606 -22.946 -39.307  1.00  0.00     0.039 C 
ATOM     30  C   UNL     1       3.489 -21.687 -41.208  1.00  0.00     0.008 C 
ENDBRANCH   1  28
BRANCH  13  31
ATOM     31  O   UNL     1      11.238 -25.279 -36.875  1.00  0.00    -0.393 OA
ATOM     32  H   UNL     1      10.434 -25.747 -37.225  1.00  0.00     0.210 HD
ENDBRANCH  13  31
TORSDOF 2
ENDMDL
MODEL 4
REMARK VINA RESULT:    -6.626      3.221      7.038
REMARK INTER + INTRA:          -7.662
REMARK INTER:                  -7.230
REMARK INTRA:                  -0.432
REMARK UNBOUND:                -0.455
REMARK SMILES C=C(C)[C@H]1CC[C@@]2(C)CC[C@]3(C)[C@@H](CC[C@H]4[C@@]5(C)CC[C@@H](O)C(C)(C)[C@H]5CC[C@]43C)[C@@H]12
REMARK SMILES IDX 4 1 5 2 6 3 7 4 31 5 13 6 14 7 15 8 16 9 17 10 19 11 20 12
REMARK SMILES IDX 21 13 23 14 26 15 27 16 28 17 29 18 11 19 10 20 9 21 12 22
REMARK SMILES IDX 30 23 24 24 25 25 18 26 8 27 2 28 3 29 1 30 22 31
REMARK H PARENT 22 32
REMARK Flexibility Score: inf
ROOT
ATOM      1  C   UNL     1       7.527 -18.317 -38.775  1.00  0.00     0.018 C 
ATOM      2  C   UNL     1       6.173 -18.816 -39.255  1.00  0.00     0.009 C 
ATOM      3  C   UNL     1       5.496 -19.374 -38.013  1.00  0.00     0.008 C 
ATOM      4  C   UNL     1       6.615 -19.779 -37.004  1.00  0.00    -0.029 C 
ATOM      5  C   UNL     1       7.950 -19.315 -37.672  1.00  0.00     0.006 C 
ATOM      6  C   UNL     1       8.910 -20.485 -38.101  1.00  0.00    -0.000 C 
ATOM      7  C   UNL     1       8.432 -21.263 -39.333  1.00  0.00     0.005 C 
ATOM      8  C   UNL     1       9.457 -22.279 -39.786  1.00  0.00     0.005 C 
ATOM      9  C   UNL     1       9.815 -23.335 -38.701  1.00  0.00     0.002 C 
ATOM     10  C   UNL     1      10.818 -24.472 -39.262  1.00  0.00    -0.026 C 
ATOM     11  C   UNL     1      10.662 -24.639 -40.821  1.00  0.00     0.010 C 
ATOM     12  C   UNL     1      11.605 -25.641 -41.480  1.00  0.00     0.033 C 
ATOM     13  C   UNL     1      13.068 -25.562 -41.001  1.00  0.00     0.120 C 
ATOM     14  C   UNL     1      13.413 -24.344 -40.078  1.00  0.00    -0.006 C 
ATOM     15  C   UNL     1      12.368 -24.262 -38.885  1.00  0.00     0.003 C 
ATOM     16  C   UNL     1      12.728 -23.128 -37.873  1.00  0.00     0.005 C 
ATOM     17  C   UNL     1      11.670 -22.073 -37.578  1.00  0.00     0.008 C 
ATOM     18  C   UNL     1      10.244 -22.639 -37.345  1.00  0.00    -0.024 C 
ATOM     19  C   UNL     1       9.220 -21.450 -36.906  1.00  0.00    -0.024 C 
ATOM     20  C   UNL     1       7.868 -22.033 -36.342  1.00  0.00     0.008 C 
ATOM     21  C   UNL     1       6.548 -21.309 -36.701  1.00  0.00     0.007 C 
ATOM     22  C   UNL     1       9.866 -20.586 -35.762  1.00  0.00     0.012 C 
ATOM     23  C   UNL     1      10.316 -23.697 -36.188  1.00  0.00     0.012 C 
ATOM     24  C   UNL     1      13.500 -23.008 -40.879  1.00  0.00     0.014 C 
ATOM     25  C   UNL     1      14.841 -24.625 -39.508  1.00  0.00     0.014 C 
ATOM     26  C   UNL     1      10.329 -25.850 -38.694  1.00  0.00     0.012 C 
ATOM     27  C   UNL     1       6.375 -19.000 -35.684  1.00  0.00     0.011 C 
ENDROOT
BRANCH   1  28
ATOM     28  C   UNL     1       8.579 -17.994 -39.841  1.00  0.00    -0.077 C 
ATOM     29  C   UNL     1       8.333 -18.159 -41.325  1.00  0.00     0.039 C 
ATOM     30  C   UNL     1       9.745 -17.447 -39.460  1.00  0.00     0.008 C 
ENDBRANCH   1  28
BRANCH  13  31
ATOM     31  O   UNL     1      13.921 -25.582 -42.125  1.00  0.00    -0.393 OA
ATOM     32  H   UNL     1      14.212 -26.525 -42.250  1.00  0.00     0.210 HD
ENDBRANCH  13  31
TORSDOF 2
ENDMDL
MODEL 5
REMARK VINA RESULT:    -6.565      2.975      7.453
REMARK INTER + INTRA:          -7.596
REMARK INTER:                  -7.285
REMARK INTRA:                  -0.310
REMARK UNBOUND:                -0.455
REMARK SMILES C=C(C)[C@H]1CC[C@@]2(C)CC[C@]3(C)[C@@H](CC[C@H]4[C@@]5(C)CC[C@@H](O)C(C)(C)[C@H]5CC[C@]43C)[C@@H]12
REMARK SMILES IDX 4 1 5 2 6 3 7 4 31 5 13 6 14 7 15 8 16 9 17 10 19 11 20 12
REMARK SMILES IDX 21 13 23 14 26 15 27 16 28 17 29 18 11 19 10 20 9 21 12 22
REMARK SMILES IDX 30 23 24 24 25 25 18 26 8 27 2 28 3 29 1 30 22 31
REMARK H PARENT 22 32
REMARK Flexibility Score: inf
ROOT
ATOM      1  C   UNL     1       6.317 -18.536 -37.539  1.00  0.00     0.018 C 
ATOM      2  C   UNL     1       6.672 -17.261 -36.790  1.00  0.00     0.009 C 
ATOM      3  C   UNL     1       6.830 -16.201 -37.870  1.00  0.00     0.008 C 
ATOM      4  C   UNL     1       7.192 -16.931 -39.201  1.00  0.00    -0.029 C 
ATOM      5  C   UNL     1       7.113 -18.455 -38.863  1.00  0.00     0.006 C 
ATOM      6  C   UNL     1       8.492 -19.210 -38.911  1.00  0.00    -0.000 C 
ATOM      7  C   UNL     1       9.424 -18.883 -37.738  1.00  0.00     0.005 C 
ATOM      8  C   UNL     1      10.670 -19.739 -37.758  1.00  0.00     0.005 C 
ATOM      9  C   UNL     1      11.515 -19.588 -39.055  1.00  0.00     0.002 C 
ATOM     10  C   UNL     1      12.897 -20.422 -38.986  1.00  0.00    -0.026 C 
ATOM     11  C   UNL     1      13.365 -20.611 -37.493  1.00  0.00     0.010 C 
ATOM     12  C   UNL     1      14.629 -21.442 -37.292  1.00  0.00     0.033 C 
ATOM     13  C   UNL     1      14.696 -22.728 -38.139  1.00  0.00     0.120 C 
ATOM     14  C   UNL     1      13.385 -23.100 -38.911  1.00  0.00    -0.006 C 
ATOM     15  C   UNL     1      12.875 -21.845 -39.739  1.00  0.00     0.003 C 
ATOM     16  C   UNL     1      11.628 -22.191 -40.613  1.00  0.00     0.005 C 
ATOM     17  C   UNL     1      10.372 -21.350 -40.428  1.00  0.00     0.008 C 
ATOM     18  C   UNL     1      10.627 -19.821 -40.346  1.00  0.00    -0.024 C 
ATOM     19  C   UNL     1       9.217 -19.007 -40.286  1.00  0.00    -0.024 C 
ATOM     20  C   UNL     1       9.430 -17.466 -40.540  1.00  0.00     0.008 C 
ATOM     21  C   UNL     1       8.589 -16.461 -39.717  1.00  0.00     0.007 C 
ATOM     22  C   UNL     1       8.249 -19.534 -41.407  1.00  0.00     0.012 C 
ATOM     23  C   UNL     1      11.410 -19.382 -41.633  1.00  0.00     0.012 C 
ATOM     24  C   UNL     1      12.286 -23.666 -37.960  1.00  0.00     0.014 C 
ATOM     25  C   UNL     1      13.773 -24.254 -39.891  1.00  0.00     0.014 C 
ATOM     26  C   UNL     1      14.020 -19.523 -39.613  1.00  0.00     0.012 C 
ATOM     27  C   UNL     1       6.120 -16.559 -40.259  1.00  0.00     0.011 C 
ENDROOT
BRANCH   1  28
ATOM     28  C   UNL     1       6.411 -19.857 -36.768  1.00  0.00    -0.077 C 
ATOM     29  C   UNL     1       5.848 -21.161 -37.287  1.00  0.00     0.039 C 
ATOM     30  C   UNL     1       7.108 -19.892 -35.620  1.00  0.00     0.008 C 
ENDBRANCH   1  28
BRANCH  13  31
ATOM     31  O   UNL     1      15.099 -23.800 -37.313  1.00  0.00    -0.393 OA
ATOM     32  H   UNL     1      15.492 -24.492 -37.910  1.00  0.00     0.210 HD
ENDBRANCH  13  31
TORSDOF 2
ENDMDL
MODEL 6
REMARK VINA RESULT:    -6.272      2.863      7.124
REMARK INTER + INTRA:          -7.277
REMARK INTER:                  -6.822
REMARK INTRA:                  -0.455
REMARK UNBOUND:                -0.455
REMARK SMILES C=C(C)[C@H]1CC[C@@]2(C)CC[C@]3(C)[C@@H](CC[C@H]4[C@@]5(C)CC[C@@H](O)C(C)(C)[C@H]5CC[C@]43C)[C@@H]12
REMARK SMILES IDX 4 1 5 2 6 3 7 4 31 5 13 6 14 7 15 8 16 9 17 10 19 11 20 12
REMARK SMILES IDX 21 13 23 14 26 15 27 16 28 17 29 18 11 19 10 20 9 21 12 22
REMARK SMILES IDX 30 23 24 24 25 25 18 26 8 27 2 28 3 29 1 30 22 31
REMARK H PARENT 22 32
REMARK Flexibility Score: inf
ROOT
ATOM      1  C   UNL     1       5.215 -19.474 -40.735  1.00  0.00     0.018 C 
ATOM      2  C   UNL     1       4.476 -20.742 -41.133  1.00  0.00     0.009 C 
ATOM      3  C   UNL     1       3.656 -21.120 -39.909  1.00  0.00     0.008 C 
ATOM      4  C   UNL     1       4.357 -20.503 -38.659  1.00  0.00    -0.029 C 
ATOM      5  C   UNL     1       5.539 -19.657 -39.233  1.00  0.00     0.006 C 
ATOM      6  C   UNL     1       6.971 -20.202 -38.875  1.00  0.00    -0.000 C 
ATOM      7  C   UNL     1       7.362 -21.475 -39.637  1.00  0.00     0.005 C 
ATOM      8  C   UNL     1       8.794 -21.873 -39.362  1.00  0.00     0.005 C 
ATOM      9  C   UNL     1       9.094 -22.142 -37.859  1.00  0.00     0.002 C 
ATOM     10  C   UNL     1      10.598 -22.683 -37.623  1.00  0.00    -0.026 C 
ATOM     11  C   UNL     1      11.140 -23.417 -38.907  1.00  0.00     0.010 C 
ATOM     12  C   UNL     1      12.579 -23.918 -38.831  1.00  0.00     0.033 C 
ATOM     13  C   UNL     1      13.577 -22.919 -38.212  1.00  0.00     0.120 C 
ATOM     14  C   UNL     1      13.019 -21.479 -37.950  1.00  0.00    -0.006 C 
ATOM     15  C   UNL     1      11.657 -21.570 -37.140  1.00  0.00     0.003 C 
ATOM     16  C   UNL     1      11.110 -20.157 -36.760  1.00  0.00     0.005 C 
ATOM     17  C   UNL     1       9.696 -19.799 -37.195  1.00  0.00     0.008 C 
ATOM     18  C   UNL     1       8.647 -20.918 -36.960  1.00  0.00    -0.024 C 
ATOM     19  C   UNL     1       7.151 -20.389 -37.329  1.00  0.00    -0.024 C 
ATOM     20  C   UNL     1       6.042 -21.371 -36.790  1.00  0.00     0.008 C 
ATOM     21  C   UNL     1       4.795 -21.629 -37.670  1.00  0.00     0.007 C 
ATOM     22  C   UNL     1       6.899 -18.990 -36.657  1.00  0.00     0.012 C 
ATOM     23  C   UNL     1       8.682 -21.316 -35.442  1.00  0.00     0.012 C 
ATOM     24  C   UNL     1      12.868 -20.661 -39.270  1.00  0.00     0.014 C 
ATOM     25  C   UNL     1      14.097 -20.749 -37.085  1.00  0.00     0.014 C 
ATOM     26  C   UNL     1      10.523 -23.825 -36.550  1.00  0.00     0.012 C 
ATOM     27  C   UNL     1       3.335 -19.582 -37.943  1.00  0.00     0.011 C 
ENDROOT
BRANCH   1  28
ATOM     28  C   UNL     1       6.374 -19.021 -41.631  1.00  0.00    -0.077 C 
ATOM     29  C   UNL     1       6.921 -19.860 -42.764  1.00  0.00     0.039 C 
ATOM     30  C   UNL     1       6.872 -17.783 -41.474  1.00  0.00     0.008 C 
ENDBRANCH   1  28
BRANCH  13  31
ATOM     31  O   UNL     1      14.729 -22.859 -39.024  1.00  0.00    -0.393 OA
ATOM     32  H   UNL     1      14.570 -22.146 -39.699  1.00  0.00     0.210 HD
ENDBRANCH  13  31
TORSDOF 2
ENDMDL
MODEL 7
REMARK VINA RESULT:    -6.172      2.065      4.797
REMARK INTER + INTRA:          -7.168
REMARK INTER:                  -6.737
REMARK INTRA:                  -0.431
REMARK UNBOUND:                -0.455
REMARK SMILES C=C(C)[C@H]1CC[C@@]2(C)CC[C@]3(C)[C@@H](CC[C@H]4[C@@]5(C)CC[C@@H](O)C(C)(C)[C@H]5CC[C@]43C)[C@@H]12
REMARK SMILES IDX 4 1 5 2 6 3 7 4 31 5 13 6 14 7 15 8 16 9 17 10 19 11 20 12
REMARK SMILES IDX 21 13 23 14 26 15 27 16 28 17 29 18 11 19 10 20 9 21 12 22
REMARK SMILES IDX 30 23 24 24 25 25 18 26 8 27 2 28 3 29 1 30 22 31
REMARK H PARENT 22 32
REMARK Flexibility Score: inf
ROOT
ATOM      1  C   UNL     1       9.934 -22.012 -37.212  1.00  0.00     0.018 C 
ATOM      2  C   UNL     1       9.442 -23.181 -38.050  1.00  0.00     0.009 C 
ATOM      3  C   UNL     1       9.955 -22.902 -39.455  1.00  0.00     0.008 C 
ATOM      4  C   UNL     1      10.168 -21.361 -39.584  1.00  0.00    -0.029 C 
ATOM      5  C   UNL     1       9.874 -20.790 -38.160  1.00  0.00     0.006 C 
ATOM      6  C   UNL     1       8.593 -19.881 -38.068  1.00  0.00    -0.000 C 
ATOM      7  C   UNL     1       7.272 -20.655 -38.154  1.00  0.00     0.005 C 
ATOM      8  C   UNL     1       6.080 -19.756 -37.920  1.00  0.00     0.005 C 
ATOM      9  C   UNL     1       5.974 -18.578 -38.931  1.00  0.00     0.002 C 
ATOM     10  C   UNL     1       4.624 -17.714 -38.723  1.00  0.00    -0.026 C 
ATOM     11  C   UNL     1       3.488 -18.592 -38.075  1.00  0.00     0.010 C 
ATOM     12  C   UNL     1       2.180 -17.869 -37.769  1.00  0.00     0.033 C 
ATOM     13  C   UNL     1       2.348 -16.481 -37.120  1.00  0.00     0.120 C 
ATOM     14  C   UNL     1       3.805 -16.111 -36.680  1.00  0.00    -0.006 C 
ATOM     15  C   UNL     1       4.807 -16.350 -37.888  1.00  0.00     0.003 C 
ATOM     16  C   UNL     1       6.260 -15.895 -37.538  1.00  0.00     0.005 C 
ATOM     17  C   UNL     1       7.381 -16.916 -37.684  1.00  0.00     0.008 C 
ATOM     18  C   UNL     1       7.324 -17.753 -38.989  1.00  0.00    -0.024 C 
ATOM     19  C   UNL     1       8.635 -18.712 -39.112  1.00  0.00    -0.024 C 
ATOM     20  C   UNL     1       8.775 -19.314 -40.563  1.00  0.00     0.008 C 
ATOM     21  C   UNL     1       9.256 -20.778 -40.710  1.00  0.00     0.007 C 
ATOM     22  C   UNL     1       9.936 -17.878 -38.828  1.00  0.00     0.012 C 
ATOM     23  C   UNL     1       7.306 -16.764 -40.209  1.00  0.00     0.012 C 
ATOM     24  C   UNL     1       4.240 -16.875 -35.392  1.00  0.00     0.014 C 
ATOM     25  C   UNL     1       3.773 -14.591 -36.317  1.00  0.00     0.014 C 
ATOM     26  C   UNL     1       4.060 -17.376 -40.148  1.00  0.00     0.012 C 
ATOM     27  C   UNL     1      11.651 -21.113 -39.968  1.00  0.00     0.011 C 
ENDROOT
BRANCH   1  28
ATOM     28  C   UNL     1       9.312 -21.827 -35.824  1.00  0.00    -0.077 C 
ATOM     29  C   UNL     1       8.248 -22.745 -35.264  1.00  0.00     0.039 C 
ATOM     30  C   UNL     1       9.794 -20.867 -35.017  1.00  0.00     0.008 C 
ENDBRANCH   1  28
BRANCH  13  31
ATOM     31  O   UNL     1       1.464 -16.378 -36.024  1.00  0.00    -0.393 OA
ATOM     32  H   UNL     1       0.601 -16.782 -36.309  1.00  0.00     0.210 HD
ENDBRANCH  13  31
TORSDOF 2
ENDMDL
MODEL 8
REMARK VINA RESULT:    -6.159      2.306      3.723
REMARK INTER + INTRA:          -7.154
REMARK INTER:                  -6.699
REMARK INTRA:                  -0.455
REMARK UNBOUND:                -0.455
REMARK SMILES C=C(C)[C@H]1CC[C@@]2(C)CC[C@]3(C)[C@@H](CC[C@H]4[C@@]5(C)CC[C@@H](O)C(C)(C)[C@H]5CC[C@]43C)[C@@H]12
REMARK SMILES IDX 4 1 5 2 6 3 7 4 31 5 13 6 14 7 15 8 16 9 17 10 19 11 20 12
REMARK SMILES IDX 21 13 23 14 26 15 27 16 28 17 29 18 11 19 10 20 9 21 12 22
REMARK SMILES IDX 30 23 24 24 25 25 18 26 8 27 2 28 3 29 1 30 22 31
REMARK H PARENT 22 32
REMARK Flexibility Score: inf
ROOT
ATOM      1  C   UNL     1       9.798 -23.381 -38.856  1.00  0.00     0.018 C 
ATOM      2  C   UNL     1      11.204 -22.842 -38.646  1.00  0.00     0.009 C 
ATOM      3  C   UNL     1      11.347 -22.691 -37.140  1.00  0.00     0.008 C 
ATOM      4  C   UNL     1       9.915 -22.524 -36.542  1.00  0.00    -0.029 C 
ATOM      5  C   UNL     1       8.946 -22.710 -37.753  1.00  0.00     0.006 C 
ATOM      6  C   UNL     1       8.148 -21.416 -38.159  1.00  0.00    -0.000 C 
ATOM      7  C   UNL     1       9.001 -20.351 -38.859  1.00  0.00     0.005 C 
ATOM      8  C   UNL     1       8.160 -19.196 -39.352  1.00  0.00     0.005 C 
ATOM      9  C   UNL     1       7.372 -18.467 -38.226  1.00  0.00     0.002 C 
ATOM     10  C   UNL     1       6.584 -17.167 -38.773  1.00  0.00    -0.026 C 
ATOM     11  C   UNL     1       7.291 -16.579 -40.053  1.00  0.00     0.010 C 
ATOM     12  C   UNL     1       6.602 -15.382 -40.703  1.00  0.00     0.033 C 
ATOM     13  C   UNL     1       5.072 -15.514 -40.835  1.00  0.00     0.120 C 
ATOM     14  C   UNL     1       4.480 -16.920 -40.484  1.00  0.00    -0.006 C 
ATOM     15  C   UNL     1       5.017 -17.389 -39.065  1.00  0.00     0.003 C 
ATOM     16  C   UNL     1       4.374 -18.740 -38.616  1.00  0.00     0.005 C 
ATOM     17  C   UNL     1       5.306 -19.891 -38.262  1.00  0.00     0.008 C 
ATOM     18  C   UNL     1       6.514 -19.491 -37.375  1.00  0.00    -0.024 C 
ATOM     19  C   UNL     1       7.369 -20.809 -36.942  1.00  0.00    -0.024 C 
ATOM     20  C   UNL     1       8.387 -20.481 -35.783  1.00  0.00     0.008 C 
ATOM     21  C   UNL     1       9.784 -21.146 -35.820  1.00  0.00     0.007 C 
ATOM     22  C   UNL     1       6.398 -21.923 -36.406  1.00  0.00     0.012 C 
ATOM     23  C   UNL     1       5.966 -18.796 -36.078  1.00  0.00     0.012 C 
ATOM     24  C   UNL     1       4.765 -17.972 -41.600  1.00  0.00     0.014 C 
ATOM     25  C   UNL     1       2.929 -16.733 -40.423  1.00  0.00     0.014 C 
ATOM     26  C   UNL     1       6.755 -16.031 -37.704  1.00  0.00     0.012 C 
ATOM     27  C   UNL     1       9.698 -23.653 -35.500  1.00  0.00     0.011 C 
ENDROOT
BRANCH   1  28
ATOM     28  C   UNL     1       9.229 -23.335 -40.279  1.00  0.00    -0.077 C 
ATOM     29  C   UNL     1       9.916 -22.624 -41.423  1.00  0.00     0.039 C 
ATOM     30  C   UNL     1       8.117 -24.036 -40.557  1.00  0.00     0.008 C 
ENDBRANCH   1  28
BRANCH  13  31
ATOM     31  O   UNL     1       4.690 -15.133 -42.140  1.00  0.00    -0.393 OA
ATOM     32  H   UNL     1       5.527 -15.040 -42.670  1.00  0.00     0.210 HD
ENDBRANCH  13  31
TORSDOF 2
ENDMDL
MODEL 9
REMARK VINA RESULT:    -6.055      1.776      2.624
REMARK INTER + INTRA:          -7.041
REMARK INTER:                  -6.586
REMARK INTRA:                  -0.455
REMARK UNBOUND:                -0.455
REMARK SMILES C=C(C)[C@H]1CC[C@@]2(C)CC[C@]3(C)[C@@H](CC[C@H]4[C@@]5(C)CC[C@@H](O)C(C)(C)[C@H]5CC[C@]43C)[C@@H]12
REMARK SMILES IDX 4 1 5 2 6 3 7 4 31 5 13 6 14 7 15 8 16 9 17 10 19 11 20 12
REMARK SMILES IDX 21 13 23 14 26 15 27 16 28 17 29 18 11 19 10 20 9 21 12 22
REMARK SMILES IDX 30 23 24 24 25 25 18 26 8 27 2 28 3 29 1 30 22 31
REMARK H PARENT 22 32
REMARK Flexibility Score: inf
ROOT
ATOM      1  C   UNL     1      13.806 -21.639 -41.529  1.00  0.00     0.018 C 
ATOM      2  C   UNL     1      14.764 -20.675 -40.849  1.00  0.00     0.009 C 
ATOM      3  C   UNL     1      15.451 -21.499 -39.769  1.00  0.00     0.008 C 
ATOM      4  C   UNL     1      14.501 -22.681 -39.400  1.00  0.00    -0.029 C 
ATOM      5  C   UNL     1      13.304 -22.566 -40.397  1.00  0.00     0.006 C 
ATOM      6  C   UNL     1      11.928 -22.196 -39.731  1.00  0.00    -0.000 C 
ATOM      7  C   UNL     1      11.830 -20.736 -39.271  1.00  0.00     0.005 C 
ATOM      8  C   UNL     1      10.444 -20.399 -38.771  1.00  0.00     0.005 C 
ATOM      9  C   UNL     1       9.978 -21.276 -37.574  1.00  0.00     0.002 C 
ATOM     10  C   UNL     1       8.547 -20.805 -36.991  1.00  0.00    -0.026 C 
ATOM     11  C   UNL     1       8.299 -19.275 -37.277  1.00  0.00     0.010 C 
ATOM     12  C   UNL     1       6.949 -18.724 -36.829  1.00  0.00     0.033 C 
ATOM     13  C   UNL     1       5.744 -19.627 -37.159  1.00  0.00     0.120 C 
ATOM     14  C   UNL     1       6.050 -20.858 -38.077  1.00  0.00    -0.006 C 
ATOM     15  C   UNL     1       7.285 -21.668 -37.494  1.00  0.00     0.003 C 
ATOM     16  C   UNL     1       7.568 -22.967 -38.313  1.00  0.00     0.005 C 
ATOM     17  C   UNL     1       8.965 -23.157 -38.890  1.00  0.00     0.008 C 
ATOM     18  C   UNL     1      10.118 -22.818 -37.908  1.00  0.00    -0.024 C 
ATOM     19  C   UNL     1      11.560 -23.183 -38.570  1.00  0.00    -0.024 C 
ATOM     20  C   UNL     1      12.710 -23.168 -37.491  1.00  0.00     0.008 C 
ATOM     21  C   UNL     1      14.092 -22.599 -37.895  1.00  0.00     0.007 C 
ATOM     22  C   UNL     1      11.516 -24.630 -39.183  1.00  0.00     0.012 C 
ATOM     23  C   UNL     1       9.927 -23.677 -36.607  1.00  0.00     0.012 C 
ATOM     24  C   UNL     1       6.268 -20.439 -39.564  1.00  0.00     0.014 C 
ATOM     25  C   UNL     1       4.770 -21.753 -38.041  1.00  0.00     0.014 C 
ATOM     26  C   UNL     1       8.631 -20.877 -35.425  1.00  0.00     0.012 C 
ATOM     27  C   UNL     1      15.273 -24.006 -39.635  1.00  0.00     0.011 C 
ENDROOT
BRANCH   1  28
ATOM     28  C   UNL     1      12.732 -21.039 -42.444  1.00  0.00    -0.077 C 
ATOM     29  C   UNL     1      12.473 -19.553 -42.553  1.00  0.00     0.039 C 
ATOM     30  C   UNL     1      12.047 -21.853 -43.264  1.00  0.00     0.008 C 
ENDBRANCH   1  28
BRANCH  13  31
ATOM     31  O   UNL     1       4.719 -18.837 -37.723  1.00  0.00    -0.393 OA
ATOM     32  H   UNL     1       4.466 -18.160 -37.040  1.00  0.00     0.210 HD
ENDBRANCH  13  31
TORSDOF 2
ENDMDL
