MODEL 1
REMARK VINA RESULT:    -4.259      0.000      0.000
REMARK INTER + INTRA:          -4.681
REMARK INTER:                  -4.508
REMARK INTRA:                  -0.174
REMARK UNBOUND:                -0.174
REMARK SMILES CC1=CCC(C(C)C)=CC1
REMARK SMILES IDX 1 1 2 2 3 3 4 4 5 5 9 6 10 7 6 8 7 9 8 10
REMARK H PARENT
REMARK Flexibility Score: inf
ROOT
ATOM      1  C   UNL     1     147.249 148.369 130.870  1.00  0.00     0.039 C 
ATOM      2  C   UNL     1     146.177 147.461 131.403  1.00  0.00    -0.073 C 
ATOM      3  C   UNL     1     145.654 146.502 130.614  1.00  0.00    -0.023 C 
ATOM      4  C   UNL     1     144.550 145.609 131.121  1.00  0.00     0.058 C 
ATOM      5  C   UNL     1     144.688 145.351 132.613  1.00  0.00    -0.068 C 
ATOM      6  C   UNL     1     145.216 146.315 133.397  1.00  0.00    -0.023 C 
ATOM      7  C   UNL     1     145.652 147.637 132.813  1.00  0.00     0.057 C 
ENDROOT
BRANCH   5   8
ATOM      8  C   UNL     1     144.268 144.021 133.217  1.00  0.00     0.009 C 
ATOM      9  C   UNL     1     145.370 143.465 134.125  1.00  0.00     0.012 C 
ATOM     10  C   UNL     1     143.889 143.010 132.128  1.00  0.00     0.012 C 
ENDBRANCH   5   8
TORSDOF 1
ENDMDL
MODEL 2
REMARK VINA RESULT:    -4.226      1.306      4.038
REMARK INTER + INTRA:          -4.646
REMARK INTER:                  -4.473
REMARK INTRA:                  -0.173
REMARK UNBOUND:                -0.174
REMARK SMILES CC1=CCC(C(C)C)=CC1
REMARK SMILES IDX 1 1 2 2 3 3 4 4 5 5 9 6 10 7 6 8 7 9 8 10
REMARK H PARENT
REMARK Flexibility Score: inf
ROOT
ATOM      1  C   UNL     1     143.499 142.379 130.984  1.00  0.00     0.039 C 
ATOM      2  C   UNL     1     144.573 143.303 131.488  1.00  0.00    -0.073 C 
ATOM      3  C   UNL     1     145.068 144.261 130.681  1.00  0.00    -0.023 C 
ATOM      4  C   UNL     1     146.173 145.169 131.158  1.00  0.00     0.058 C 
ATOM      5  C   UNL     1     146.064 145.437 132.651  1.00  0.00    -0.068 C 
ATOM      6  C   UNL     1     145.563 144.474 133.452  1.00  0.00    -0.023 C 
ATOM      7  C   UNL     1     145.129 143.143 132.887  1.00  0.00     0.057 C 
ENDROOT
BRANCH   5   8
ATOM      8  C   UNL     1     146.482 146.776 133.237  1.00  0.00     0.009 C 
ATOM      9  C   UNL     1     145.373 147.350 134.125  1.00  0.00     0.012 C 
ATOM     10  C   UNL     1     146.874 147.768 132.134  1.00  0.00     0.012 C 
ENDBRANCH   5   8
TORSDOF 1
ENDMDL
MODEL 3
REMARK VINA RESULT:    -3.754      2.106      2.857
REMARK INTER + INTRA:          -4.148
REMARK INTER:                  -3.973
REMARK INTRA:                  -0.175
REMARK UNBOUND:                -0.174
REMARK SMILES CC1=CCC(C(C)C)=CC1
REMARK SMILES IDX 1 1 2 2 3 3 4 4 5 5 9 6 10 7 6 8 7 9 8 10
REMARK H PARENT
REMARK Flexibility Score: inf
ROOT
ATOM      1  C   UNL     1     142.463 147.610 131.830  1.00  0.00     0.039 C 
ATOM      2  C   UNL     1     143.368 146.411 131.888  1.00  0.00    -0.073 C 
ATOM      3  C   UNL     1     144.124 146.086 130.823  1.00  0.00    -0.023 C 
ATOM      4  C   UNL     1     145.006 144.864 130.851  1.00  0.00     0.058 C 
ATOM      5  C   UNL     1     145.540 144.599 132.250  1.00  0.00    -0.068 C 
ATOM      6  C   UNL     1     144.777 144.930 133.314  1.00  0.00    -0.023 C 
ATOM      7  C   UNL     1     143.410 145.541 133.127  1.00  0.00     0.057 C 
ENDROOT
BRANCH   5   8
ATOM      8  C   UNL     1     146.921 143.999 132.459  1.00  0.00     0.009 C 
ATOM      9  C   UNL     1     147.673 144.741 133.569  1.00  0.00     0.012 C 
ATOM     10  C   UNL     1     147.728 143.993 131.155  1.00  0.00     0.012 C 
ENDBRANCH   5   8
TORSDOF 1
ENDMDL
MODEL 4
REMARK VINA RESULT:    -3.738      2.123      3.048
REMARK INTER + INTRA:          -4.131
REMARK INTER:                  -3.955
REMARK INTRA:                  -0.176
REMARK UNBOUND:                -0.174
REMARK SMILES CC1=CCC(C(C)C)=CC1
REMARK SMILES IDX 1 1 2 2 3 3 4 4 5 5 9 6 10 7 6 8 7 9 8 10
REMARK H PARENT
REMARK Flexibility Score: inf
ROOT
ATOM      1  C   UNL     1     148.256 143.148 131.814  1.00  0.00     0.039 C 
ATOM      2  C   UNL     1     147.356 144.348 131.913  1.00  0.00    -0.073 C 
ATOM      3  C   UNL     1     146.619 144.726 130.852  1.00  0.00    -0.023 C 
ATOM      4  C   UNL     1     145.742 145.951 130.923  1.00  0.00     0.058 C 
ATOM      5  C   UNL     1     145.188 146.154 132.324  1.00  0.00    -0.068 C 
ATOM      6  C   UNL     1     145.932 145.769 133.384  1.00  0.00    -0.023 C 
ATOM      7  C   UNL     1     147.299 145.160 133.191  1.00  0.00     0.057 C 
ENDROOT
BRANCH   5   8
ATOM      8  C   UNL     1     143.807 146.752 132.539  1.00  0.00     0.009 C 
ATOM      9  C   UNL     1     143.051 145.993 133.635  1.00  0.00     0.012 C 
ATOM     10  C   UNL     1     143.003 146.778 131.233  1.00  0.00     0.012 C 
ENDBRANCH   5   8
TORSDOF 1
ENDMDL
MODEL 5
REMARK VINA RESULT:    -3.605      1.453      4.135
REMARK INTER + INTRA:          -3.989
REMARK INTER:                  -3.830
REMARK INTRA:                  -0.159
REMARK UNBOUND:                -0.174
REMARK SMILES CC1=CCC(C(C)C)=CC1
REMARK SMILES IDX 1 1 2 2 3 3 4 4 5 5 9 6 10 7 6 8 7 9 8 10
REMARK H PARENT
REMARK Flexibility Score: inf
ROOT
ATOM      1  C   UNL     1     143.514 142.129 130.362  1.00  0.00     0.039 C 
ATOM      2  C   UNL     1     143.984 143.363 131.079  1.00  0.00    -0.073 C 
ATOM      3  C   UNL     1     143.846 143.459 132.415  1.00  0.00    -0.023 C 
ATOM      4  C   UNL     1     144.276 144.707 133.145  1.00  0.00     0.058 C 
ATOM      5  C   UNL     1     145.478 145.353 132.474  1.00  0.00    -0.068 C 
ATOM      6  C   UNL     1     145.612 145.250 131.134  1.00  0.00    -0.023 C 
ATOM      7  C   UNL     1     144.583 144.519 130.306  1.00  0.00     0.057 C 
ENDROOT
BRANCH   5   8
ATOM      8  C   UNL     1     146.532 146.080 133.292  1.00  0.00     0.009 C 
ATOM      9  C   UNL     1     146.957 147.379 132.598  1.00  0.00     0.012 C 
ATOM     10  C   UNL     1     147.743 145.180 133.565  1.00  0.00     0.012 C 
ENDBRANCH   5   8
TORSDOF 1
ENDMDL
MODEL 6
REMARK VINA RESULT:    -3.589      0.995      2.088
REMARK INTER + INTRA:          -3.973
REMARK INTER:                  -3.814
REMARK INTRA:                  -0.158
REMARK UNBOUND:                -0.174
REMARK SMILES CC1=CCC(C(C)C)=CC1
REMARK SMILES IDX 1 1 2 2 3 3 4 4 5 5 9 6 10 7 6 8 7 9 8 10
REMARK H PARENT
REMARK Flexibility Score: inf
ROOT
ATOM      1  C   UNL     1     147.219 148.719 130.392  1.00  0.00     0.039 C 
ATOM      2  C   UNL     1     146.744 147.482 131.101  1.00  0.00    -0.073 C 
ATOM      3  C   UNL     1     146.884 147.377 132.436  1.00  0.00    -0.023 C 
ATOM      4  C   UNL     1     146.449 146.126 133.158  1.00  0.00     0.058 C 
ATOM      5  C   UNL     1     145.244 145.489 132.484  1.00  0.00    -0.068 C 
ATOM      6  C   UNL     1     145.108 145.602 131.145  1.00  0.00    -0.023 C 
ATOM      7  C   UNL     1     146.139 146.334 130.320  1.00  0.00     0.057 C 
ENDROOT
BRANCH   5   8
ATOM      8  C   UNL     1     144.187 144.761 133.299  1.00  0.00     0.009 C 
ATOM      9  C   UNL     1     143.789 143.446 132.619  1.00  0.00     0.012 C 
ATOM     10  C   UNL     1     142.961 145.650 133.541  1.00  0.00     0.012 C 
ENDBRANCH   5   8
TORSDOF 1
ENDMDL
MODEL 7
REMARK VINA RESULT:    -3.429      2.103      3.639
REMARK INTER + INTRA:          -3.804
REMARK INTER:                  -3.643
REMARK INTRA:                  -0.161
REMARK UNBOUND:                -0.174
REMARK SMILES CC1=CCC(C(C)C)=CC1
REMARK SMILES IDX 1 1 2 2 3 3 4 4 5 5 9 6 10 7 6 8 7 9 8 10
REMARK H PARENT
REMARK Flexibility Score: inf
ROOT
ATOM      1  C   UNL     1     148.454 143.578 130.383  1.00  0.00     0.039 C 
ATOM      2  C   UNL     1     147.243 144.043 131.143  1.00  0.00    -0.073 C 
ATOM      3  C   UNL     1     147.205 143.925 132.484  1.00  0.00    -0.023 C 
ATOM      4  C   UNL     1     145.982 144.349 133.258  1.00  0.00     0.058 C 
ATOM      5  C   UNL     1     145.291 145.530 132.595  1.00  0.00    -0.068 C 
ATOM      6  C   UNL     1     145.336 145.643 131.250  1.00  0.00    -0.023 C 
ATOM      7  C   UNL     1     146.047 144.612 130.409  1.00  0.00     0.057 C 
ENDROOT
BRANCH   5   8
ATOM      8  C   UNL     1     144.582 146.587 133.426  1.00  0.00     0.009 C 
ATOM      9  C   UNL     1     143.282 147.031 132.746  1.00  0.00     0.012 C 
ATOM     10  C   UNL     1     145.498 147.787 133.699  1.00  0.00     0.012 C 
ENDBRANCH   5   8
TORSDOF 1
ENDMDL
MODEL 8
REMARK VINA RESULT:    -3.371      1.715      2.748
REMARK INTER + INTRA:          -3.742
REMARK INTER:                  -3.598
REMARK INTRA:                  -0.144
REMARK UNBOUND:                -0.174
REMARK SMILES CC1=CCC(C(C)C)=CC1
REMARK SMILES IDX 1 1 2 2 3 3 4 4 5 5 9 6 10 7 6 8 7 9 8 10
REMARK H PARENT
REMARK Flexibility Score: inf
ROOT
ATOM      1  C   UNL     1     142.313 147.208 130.349  1.00  0.00     0.039 C 
ATOM      2  C   UNL     1     143.466 146.777 131.213  1.00  0.00    -0.073 C 
ATOM      3  C   UNL     1     143.450 147.037 132.534  1.00  0.00    -0.023 C 
ATOM      4  C   UNL     1     144.617 146.647 133.407  1.00  0.00     0.058 C 
ATOM      5  C   UNL     1     145.281 145.374 132.907  1.00  0.00    -0.068 C 
ATOM      6  C   UNL     1     145.289 145.119 131.581  1.00  0.00    -0.023 C 
ATOM      7  C   UNL     1     144.665 146.083 130.602  1.00  0.00     0.057 C 
ENDROOT
BRANCH   5   8
ATOM      8  C   UNL     1     145.902 144.384 133.879  1.00  0.00     0.009 C 
ATOM      9  C   UNL     1     147.431 144.463 133.831  1.00  0.00     0.012 C 
ATOM     10  C   UNL     1     145.415 142.956 133.604  1.00  0.00     0.012 C 
ENDBRANCH   5   8
TORSDOF 1
ENDMDL
MODEL 9
REMARK VINA RESULT:    -1.594     12.217     13.675
REMARK INTER + INTRA:          -1.861
REMARK INTER:                  -1.719
REMARK INTRA:                  -0.142
REMARK UNBOUND:                -0.174
REMARK SMILES CC1=CCC(C(C)C)=CC1
REMARK SMILES IDX 1 1 2 2 3 3 4 4 5 5 9 6 10 7 6 8 7 9 8 10
REMARK H PARENT
REMARK Flexibility Score: inf
ROOT
ATOM      1  C   UNL     1     136.269 134.877 130.747  1.00  0.00     0.039 C 
ATOM      2  C   UNL     1     135.859 135.989 129.821  1.00  0.00    -0.073 C 
ATOM      3  C   UNL     1     135.328 137.120 130.322  1.00  0.00    -0.023 C 
ATOM      4  C   UNL     1     134.875 138.227 129.405  1.00  0.00     0.058 C 
ATOM      5  C   UNL     1     135.742 138.303 128.158  1.00  0.00    -0.068 C 
ATOM      6  C   UNL     1     136.275 137.165 127.664  1.00  0.00    -0.023 C 
ATOM      7  C   UNL     1     136.008 135.833 128.322  1.00  0.00     0.057 C 
ENDROOT
BRANCH   5   8
ATOM      8  C   UNL     1     136.035 139.636 127.489  1.00  0.00     0.009 C 
ATOM      9  C   UNL     1     135.164 140.746 128.086  1.00  0.00     0.012 C 
ATOM     10  C   UNL     1     135.851 139.548 125.969  1.00  0.00     0.012 C 
ENDBRANCH   5   8
TORSDOF 1
ENDMDL
