MODEL 1
REMARK VINA RESULT:    -3.658      0.000      0.000
REMARK INTER + INTRA:          -7.876
REMARK INTER:                  -6.224
REMARK INTRA:                  -1.652
REMARK UNBOUND:                -1.652
REMARK SMILES CCCCCCCCCCCCCC(=O)[O-]
REMARK SMILES IDX 8 1 9 2 10 3 11 4 12 5 13 6 14 7 15 8 16 9 7 10 6 11 5 12
REMARK SMILES IDX 4 13 3 14 2 15 1 16
REMARK H PARENT
REMARK Flexibility Score: inf
ROOT
ATOM      1  C   UNL     1     130.126 143.585 119.643  1.00  0.00     0.000 C 
ENDROOT
BRANCH   1   2
ATOM      2  C   UNL     1     128.616 143.435 119.387  1.00  0.00     0.000 C 
BRANCH   2   3
ATOM      3  C   UNL     1     128.037 144.585 118.543  1.00  0.00     0.000 C 
BRANCH   3   4
ATOM      4  C   UNL     1     127.236 145.634 119.336  1.00  0.00     0.000 C 
BRANCH   4   5
ATOM      5  C   UNL     1     126.994 145.222 120.796  1.00  0.00     0.006 C 
BRANCH   5   6
ATOM      6  C   UNL     1     127.556 146.268 121.762  1.00  0.00     0.053 C 
BRANCH   6   7
ATOM      7  C   UNL     1     127.596 145.727 123.156  1.00  0.00     0.041 C 
ATOM      8  O   UNL     1     127.617 146.512 124.140  1.00  0.00    -0.550 OA
ATOM      9  O   UNL     1     127.660 144.355 123.367  1.00  0.00    -0.550 OA
ENDBRANCH   6   7
ENDBRANCH   5   6
ENDBRANCH   4   5
ENDBRANCH   3   4
ENDBRANCH   2   3
ENDBRANCH   1   2
BRANCH   1  10
ATOM     10  C   UNL     1     130.443 143.927 121.107  1.00  0.00     0.000 C 
BRANCH  10  11
ATOM     11  C   UNL     1     131.258 145.226 121.244  1.00  0.00    -0.000 C 
BRANCH  11  12
ATOM     12  C   UNL     1     130.877 146.274 120.186  1.00  0.00    -0.000 C 
BRANCH  12  13
ATOM     13  C   UNL     1     132.100 147.031 119.639  1.00  0.00    -0.000 C 
BRANCH  13  14
ATOM     14  C   UNL     1     133.430 146.437 120.131  1.00  0.00    -0.000 C 
BRANCH  14  15
ATOM     15  C   UNL     1     134.401 146.132 118.982  1.00  0.00    -0.003 C 
ATOM     16  C   UNL     1     134.516 144.630 118.743  1.00  0.00     0.004 C 
ENDBRANCH  14  15
ENDBRANCH  13  14
ENDBRANCH  12  13
ENDBRANCH  11  12
ENDBRANCH  10  11
ENDBRANCH   1  10
TORSDOF 12
ENDMDL
MODEL 2
REMARK VINA RESULT:    -3.612      3.207      5.800
REMARK INTER + INTRA:          -7.797
REMARK INTER:                  -5.958
REMARK INTRA:                  -1.839
REMARK UNBOUND:                -1.652
REMARK SMILES CCCCCCCCCCCCCC(=O)[O-]
REMARK SMILES IDX 8 1 9 2 10 3 11 4 12 5 13 6 14 7 15 8 16 9 7 10 6 11 5 12
REMARK SMILES IDX 4 13 3 14 2 15 1 16
REMARK H PARENT
REMARK Flexibility Score: inf
ROOT
ATOM      1  C   UNL     1     129.726 145.418 122.657  1.00  0.00     0.000 C 
ENDROOT
BRANCH   1   2
ATOM      2  C   UNL     1     131.054 146.077 122.243  1.00  0.00     0.000 C 
BRANCH   2   3
ATOM      3  C   UNL     1     131.007 146.675 120.825  1.00  0.00     0.000 C 
BRANCH   3   4
ATOM      4  C   UNL     1     131.819 145.904 119.768  1.00  0.00     0.000 C 
BRANCH   4   5
ATOM      5  C   UNL     1     132.816 144.912 120.386  1.00  0.00     0.006 C 
BRANCH   5   6
ATOM      6  C   UNL     1     134.179 145.001 119.694  1.00  0.00     0.053 C 
BRANCH   6   7
ATOM      7  C   UNL     1     134.842 146.304 120.008  1.00  0.00     0.041 C 
ATOM      8  O   UNL     1     135.531 146.892 119.133  1.00  0.00    -0.550 OA
ATOM      9  O   UNL     1     134.741 146.846 121.283  1.00  0.00    -0.550 OA
ENDBRANCH   6   7
ENDBRANCH   5   6
ENDBRANCH   4   5
ENDBRANCH   3   4
ENDBRANCH   2   3
ENDBRANCH   1   2
BRANCH   1  10
ATOM     10  C   UNL     1     128.528 146.371 122.518  1.00  0.00     0.000 C 
BRANCH  10  11
ATOM     11  C   UNL     1     127.421 145.796 121.616  1.00  0.00    -0.000 C 
BRANCH  11  12
ATOM     12  C   UNL     1     127.458 146.381 120.195  1.00  0.00    -0.000 C 
BRANCH  12  13
ATOM     13  C   UNL     1     127.169 145.324 119.115  1.00  0.00    -0.000 C 
BRANCH  13  14
ATOM     14  C   UNL     1     127.621 143.915 119.532  1.00  0.00    -0.000 C 
BRANCH  14  15
ATOM     15  C   UNL     1     129.082 143.629 119.161  1.00  0.00    -0.003 C 
ATOM     16  C   UNL     1     129.731 142.683 120.166  1.00  0.00     0.004 C 
ENDBRANCH  14  15
ENDBRANCH  13  14
ENDBRANCH  12  13
ENDBRANCH  11  12
ENDBRANCH  10  11
ENDBRANCH   1  10
TORSDOF 12
ENDMDL
MODEL 3
REMARK VINA RESULT:    -3.519      2.798      5.179
REMARK INTER + INTRA:          -7.639
REMARK INTER:                  -5.981
REMARK INTRA:                  -1.658
REMARK UNBOUND:                -1.652
REMARK SMILES CCCCCCCCCCCCCC(=O)[O-]
REMARK SMILES IDX 8 1 9 2 10 3 11 4 12 5 13 6 14 7 15 8 16 9 7 10 6 11 5 12
REMARK SMILES IDX 4 13 3 14 2 15 1 16
REMARK H PARENT
REMARK Flexibility Score: inf
ROOT
ATOM      1  C   UNL     1     128.201 145.073 118.709  1.00  0.00     0.000 C 
ENDROOT
BRANCH   1   2
ATOM      2  C   UNL     1     129.129 144.181 119.553  1.00  0.00     0.000 C 
BRANCH   2   3
ATOM      3  C   UNL     1     130.486 144.845 119.850  1.00  0.00     0.000 C 
BRANCH   3   4
ATOM      4  C   UNL     1     130.518 146.372 119.654  1.00  0.00     0.000 C 
BRANCH   4   5
ATOM      5  C   UNL     1     131.836 147.008 120.122  1.00  0.00     0.006 C 
BRANCH   5   6
ATOM      6  C   UNL     1     132.028 146.823 121.630  1.00  0.00     0.053 C 
BRANCH   6   7
ATOM      7  C   UNL     1     133.436 146.422 121.934  1.00  0.00     0.041 C 
ATOM      8  O   UNL     1     133.698 145.769 122.978  1.00  0.00    -0.550 OA
ATOM      9  O   UNL     1     134.468 146.811 121.088  1.00  0.00    -0.550 OA
ENDBRANCH   6   7
ENDBRANCH   5   6
ENDBRANCH   4   5
ENDBRANCH   3   4
ENDBRANCH   2   3
ENDBRANCH   1   2
BRANCH   1  10
ATOM     10  C   UNL     1     126.992 145.585 119.508  1.00  0.00     0.000 C 
BRANCH  10  11
ATOM     11  C   UNL     1     127.157 145.375 121.024  1.00  0.00    -0.000 C 
BRANCH  11  12
ATOM     12  C   UNL     1     127.247 146.702 121.794  1.00  0.00    -0.000 C 
BRANCH  12  13
ATOM     13  C   UNL     1     128.000 146.559 123.129  1.00  0.00    -0.000 C 
BRANCH  13  14
ATOM     14  C   UNL     1     128.896 145.311 123.170  1.00  0.00    -0.000 C 
BRANCH  14  15
ATOM     15  C   UNL     1     129.877 145.327 124.349  1.00  0.00    -0.003 C 
ATOM     16  C   UNL     1     130.065 146.742 124.889  1.00  0.00     0.004 C 
ENDBRANCH  14  15
ENDBRANCH  13  14
ENDBRANCH  12  13
ENDBRANCH  11  12
ENDBRANCH  10  11
ENDBRANCH   1  10
TORSDOF 12
ENDMDL
MODEL 4
REMARK VINA RESULT:    -3.516      2.950      5.209
REMARK INTER + INTRA:          -7.635
REMARK INTER:                  -5.699
REMARK INTRA:                  -1.936
REMARK UNBOUND:                -1.652
REMARK SMILES CCCCCCCCCCCCCC(=O)[O-]
REMARK SMILES IDX 8 1 9 2 10 3 11 4 12 5 13 6 14 7 15 8 16 9 7 10 6 11 5 12
REMARK SMILES IDX 4 13 3 14 2 15 1 16
REMARK H PARENT
REMARK Flexibility Score: inf
ROOT
ATOM      1  C   UNL     1     131.143 145.194 120.120  1.00  0.00     0.000 C 
ENDROOT
BRANCH   1   2
ATOM      2  C   UNL     1     130.727 143.740 119.836  1.00  0.00     0.000 C 
BRANCH   2   3
ATOM      3  C   UNL     1     130.667 142.877 121.109  1.00  0.00     0.000 C 
BRANCH   3   4
ATOM      4  C   UNL     1     129.271 142.324 121.453  1.00  0.00     0.000 C 
BRANCH   4   5
ATOM      5  C   UNL     1     128.423 142.022 120.208  1.00  0.00     0.006 C 
BRANCH   5   6
ATOM      6  C   UNL     1     127.078 141.402 120.597  1.00  0.00     0.053 C 
BRANCH   6   7
ATOM      7  C   UNL     1     127.152 139.910 120.534  1.00  0.00     0.041 C 
ATOM      8  O   UNL     1     127.357 139.332 119.434  1.00  0.00    -0.550 OA
ATOM      9  O   UNL     1     126.945 139.154 121.681  1.00  0.00    -0.550 OA
ENDBRANCH   6   7
ENDBRANCH   5   6
ENDBRANCH   4   5
ENDBRANCH   3   4
ENDBRANCH   2   3
ENDBRANCH   1   2
BRANCH   1  10
ATOM     10  C   UNL     1     130.054 146.205 119.724  1.00  0.00     0.000 C 
BRANCH  10  11
ATOM     11  C   UNL     1     128.754 145.520 119.267  1.00  0.00    -0.000 C 
BRANCH  11  12
ATOM     12  C   UNL     1     127.509 146.099 119.958  1.00  0.00    -0.000 C 
BRANCH  12  13
ATOM     13  C   UNL     1     127.168 145.366 121.268  1.00  0.00    -0.000 C 
BRANCH  13  14
ATOM     14  C   UNL     1     127.572 146.169 122.515  1.00  0.00    -0.000 C 
BRANCH  14  15
ATOM     15  C   UNL     1     128.701 145.499 123.309  1.00  0.00    -0.003 C 
ATOM     16  C   UNL     1     129.558 146.536 124.030  1.00  0.00     0.004 C 
ENDBRANCH  14  15
ENDBRANCH  13  14
ENDBRANCH  12  13
ENDBRANCH  11  12
ENDBRANCH  10  11
ENDBRANCH   1  10
TORSDOF 12
ENDMDL
MODEL 5
REMARK VINA RESULT:    -3.495      1.634      2.795
REMARK INTER + INTRA:          -7.599
REMARK INTER:                  -5.923
REMARK INTRA:                  -1.676
REMARK UNBOUND:                -1.652
REMARK SMILES CCCCCCCCCCCCCC(=O)[O-]
REMARK SMILES IDX 8 1 9 2 10 3 11 4 12 5 13 6 14 7 15 8 16 9 7 10 6 11 5 12
REMARK SMILES IDX 4 13 3 14 2 15 1 16
REMARK H PARENT
REMARK Flexibility Score: inf
ROOT
ATOM      1  C   UNL     1     127.875 144.463 118.771  1.00  0.00     0.000 C 
ENDROOT
BRANCH   1   2
ATOM      2  C   UNL     1     127.256 145.775 119.284  1.00  0.00     0.000 C 
BRANCH   2   3
ATOM      3  C   UNL     1     126.940 145.738 120.790  1.00  0.00     0.000 C 
BRANCH   3   4
ATOM      4  C   UNL     1     128.013 146.370 121.695  1.00  0.00     0.000 C 
BRANCH   4   5
ATOM      5  C   UNL     1     128.323 145.522 122.937  1.00  0.00     0.006 C 
BRANCH   5   6
ATOM      6  C   UNL     1     127.475 145.969 124.132  1.00  0.00     0.053 C 
BRANCH   6   7
ATOM      7  C   UNL     1     127.723 145.083 125.311  1.00  0.00     0.041 C 
ATOM      8  O   UNL     1     128.526 145.440 126.213  1.00  0.00    -0.550 OA
ATOM      9  O   UNL     1     127.104 143.842 125.391  1.00  0.00    -0.550 OA
ENDBRANCH   6   7
ENDBRANCH   5   6
ENDBRANCH   4   5
ENDBRANCH   3   4
ENDBRANCH   2   3
ENDBRANCH   1   2
BRANCH   1  10
ATOM     10  C   UNL     1     127.743 143.315 119.785  1.00  0.00     0.000 C 
BRANCH  10  11
ATOM     11  C   UNL     1     129.101 142.888 120.369  1.00  0.00    -0.000 C 
BRANCH  11  12
ATOM     12  C   UNL     1     130.288 143.492 119.601  1.00  0.00    -0.000 C 
BRANCH  12  13
ATOM     13  C   UNL     1     131.058 144.534 120.432  1.00  0.00    -0.000 C 
BRANCH  13  14
ATOM     14  C   UNL     1     131.170 145.892 119.719  1.00  0.00    -0.000 C 
BRANCH  14  15
ATOM     15  C   UNL     1     131.568 147.028 120.671  1.00  0.00    -0.003 C 
ATOM     16  C   UNL     1     132.780 146.640 121.513  1.00  0.00     0.004 C 
ENDBRANCH  14  15
ENDBRANCH  13  14
ENDBRANCH  12  13
ENDBRANCH  11  12
ENDBRANCH  10  11
ENDBRANCH   1  10
TORSDOF 12
ENDMDL
MODEL 6
REMARK VINA RESULT:    -3.485      3.437      6.052
REMARK INTER + INTRA:          -7.582
REMARK INTER:                  -5.916
REMARK INTRA:                  -1.667
REMARK UNBOUND:                -1.652
REMARK SMILES CCCCCCCCCCCCCC(=O)[O-]
REMARK SMILES IDX 8 1 9 2 10 3 11 4 12 5 13 6 14 7 15 8 16 9 7 10 6 11 5 12
REMARK SMILES IDX 4 13 3 14 2 15 1 16
REMARK H PARENT
REMARK Flexibility Score: inf
ROOT
ATOM      1  C   UNL     1     129.546 143.815 119.817  1.00  0.00     0.000 C 
ENDROOT
BRANCH   1   2
ATOM      2  C   UNL     1     130.818 144.675 119.924  1.00  0.00     0.000 C 
BRANCH   2   3
ATOM      3  C   UNL     1     130.548 146.172 119.688  1.00  0.00     0.000 C 
BRANCH   3   4
ATOM      4  C   UNL     1     131.741 147.100 119.981  1.00  0.00     0.000 C 
BRANCH   4   5
ATOM      5  C   UNL     1     133.072 146.343 120.103  1.00  0.00     0.006 C 
BRANCH   5   6
ATOM      6  C   UNL     1     134.014 146.700 118.950  1.00  0.00     0.053 C 
BRANCH   6   7
ATOM      7  C   UNL     1     135.192 145.779 118.932  1.00  0.00     0.041 C 
ATOM      8  O   UNL     1     135.149 144.707 118.273  1.00  0.00    -0.550 OA
ATOM      9  O   UNL     1     136.323 146.081 119.681  1.00  0.00    -0.550 OA
ENDBRANCH   6   7
ENDBRANCH   5   6
ENDBRANCH   4   5
ENDBRANCH   3   4
ENDBRANCH   2   3
ENDBRANCH   1   2
BRANCH   1  10
ATOM     10  C   UNL     1     128.503 144.424 118.867  1.00  0.00     0.000 C 
BRANCH  10  11
ATOM     11  C   UNL     1     127.168 144.723 119.572  1.00  0.00    -0.000 C 
BRANCH  11  12
ATOM     12  C   UNL     1     127.316 144.804 121.100  1.00  0.00    -0.000 C 
BRANCH  12  13
ATOM     13  C   UNL     1     127.076 146.225 121.641  1.00  0.00    -0.000 C 
BRANCH  13  14
ATOM     14  C   UNL     1     128.119 146.640 122.690  1.00  0.00    -0.000 C 
BRANCH  14  15
ATOM     15  C   UNL     1     129.014 145.473 123.128  1.00  0.00    -0.003 C 
ATOM     16  C   UNL     1     130.441 145.943 123.396  1.00  0.00     0.004 C 
ENDBRANCH  14  15
ENDBRANCH  13  14
ENDBRANCH  12  13
ENDBRANCH  11  12
ENDBRANCH  10  11
ENDBRANCH   1  10
TORSDOF 12
ENDMDL
MODEL 7
REMARK VINA RESULT:    -3.476      2.615      4.041
REMARK INTER + INTRA:          -7.566
REMARK INTER:                  -5.806
REMARK INTRA:                  -1.760
REMARK UNBOUND:                -1.652
REMARK SMILES CCCCCCCCCCCCCC(=O)[O-]
REMARK SMILES IDX 8 1 9 2 10 3 11 4 12 5 13 6 14 7 15 8 16 9 7 10 6 11 5 12
REMARK SMILES IDX 4 13 3 14 2 15 1 16
REMARK H PARENT
REMARK Flexibility Score: inf
ROOT
ATOM      1  C   UNL     1     127.220 145.641 121.808  1.00  0.00     0.000 C 
ENDROOT
BRANCH   1   2
ATOM      2  C   UNL     1     126.876 146.238 120.431  1.00  0.00     0.000 C 
BRANCH   2   3
ATOM      3  C   UNL     1     127.463 145.424 119.264  1.00  0.00     0.000 C 
BRANCH   3   4
ATOM      4  C   UNL     1     127.622 143.917 119.539  1.00  0.00     0.000 C 
BRANCH   4   5
ATOM      5  C   UNL     1     129.077 143.437 119.420  1.00  0.00     0.006 C 
BRANCH   5   6
ATOM      6  C   UNL     1     129.383 142.350 120.454  1.00  0.00     0.053 C 
BRANCH   6   7
ATOM      7  C   UNL     1     130.624 141.606 120.080  1.00  0.00     0.041 C 
ATOM      8  O   UNL     1     130.822 140.442 120.519  1.00  0.00    -0.550 OA
ATOM      9  O   UNL     1     131.588 142.214 119.285  1.00  0.00    -0.550 OA
ENDBRANCH   6   7
ENDBRANCH   5   6
ENDBRANCH   4   5
ENDBRANCH   3   4
ENDBRANCH   2   3
ENDBRANCH   1   2
BRANCH   1  10
ATOM     10  C   UNL     1     127.679 146.710 122.813  1.00  0.00     0.000 C 
BRANCH  10  11
ATOM     11  C   UNL     1     129.125 146.486 123.289  1.00  0.00    -0.000 C 
BRANCH  11  12
ATOM     12  C   UNL     1     129.751 145.216 122.691  1.00  0.00    -0.000 C 
BRANCH  12  13
ATOM     13  C   UNL     1     131.025 145.512 121.880  1.00  0.00    -0.000 C 
BRANCH  13  14
ATOM     14  C   UNL     1     130.754 146.410 120.662  1.00  0.00    -0.000 C 
BRANCH  14  15
ATOM     15  C   UNL     1     132.044 146.896 119.987  1.00  0.00    -0.003 C 
ATOM     16  C   UNL     1     133.019 145.742 119.771  1.00  0.00     0.004 C 
ENDBRANCH  14  15
ENDBRANCH  13  14
ENDBRANCH  12  13
ENDBRANCH  11  12
ENDBRANCH  10  11
ENDBRANCH   1  10
TORSDOF 12
ENDMDL
MODEL 8
REMARK VINA RESULT:    -3.469      3.727      5.218
REMARK INTER + INTRA:          -7.555
REMARK INTER:                  -6.015
REMARK INTRA:                  -1.540
REMARK UNBOUND:                -1.652
REMARK SMILES CCCCCCCCCCCCCC(=O)[O-]
REMARK SMILES IDX 8 1 9 2 10 3 11 4 12 5 13 6 14 7 15 8 16 9 7 10 6 11 5 12
REMARK SMILES IDX 4 13 3 14 2 15 1 16
REMARK H PARENT
REMARK Flexibility Score: inf
ROOT
ATOM      1  C   UNL     1     127.607 143.757 119.444  1.00  0.00     0.000 C 
ENDROOT
BRANCH   1   2
ATOM      2  C   UNL     1     127.625 143.667 120.980  1.00  0.00     0.000 C 
BRANCH   2   3
ATOM      3  C   UNL     1     127.567 142.217 121.494  1.00  0.00     0.000 C 
BRANCH   3   4
ATOM      4  C   UNL     1     127.066 141.184 120.469  1.00  0.00     0.000 C 
BRANCH   4   5
ATOM      5  C   UNL     1     128.053 140.027 120.253  1.00  0.00     0.006 C 
BRANCH   5   6
ATOM      6  C   UNL     1     127.385 138.869 119.506  1.00  0.00     0.053 C 
BRANCH   6   7
ATOM      7  C   UNL     1     127.239 137.681 120.404  1.00  0.00     0.041 C 
ATOM      8  O   UNL     1     126.893 137.834 121.605  1.00  0.00    -0.550 OA
ATOM      9  O   UNL     1     127.532 136.409 119.928  1.00  0.00    -0.550 OA
ENDBRANCH   6   7
ENDBRANCH   5   6
ENDBRANCH   4   5
ENDBRANCH   3   4
ENDBRANCH   2   3
ENDBRANCH   1   2
BRANCH   1  10
ATOM     10  C   UNL     1     127.955 145.164 118.933  1.00  0.00     0.000 C 
BRANCH  10  11
ATOM     11  C   UNL     1     128.696 146.005 119.988  1.00  0.00    -0.000 C 
BRANCH  11  12
ATOM     12  C   UNL     1     130.139 146.334 119.570  1.00  0.00    -0.000 C 
BRANCH  12  13
ATOM     13  C   UNL     1     131.169 145.931 120.641  1.00  0.00    -0.000 C 
BRANCH  13  14
ATOM     14  C   UNL     1     131.098 144.437 120.995  1.00  0.00    -0.000 C 
BRANCH  14  15
ATOM     15  C   UNL     1     131.402 143.530 119.794  1.00  0.00    -0.003 C 
ATOM     16  C   UNL     1     131.081 142.072 120.110  1.00  0.00     0.004 C 
ENDBRANCH  14  15
ENDBRANCH  13  14
ENDBRANCH  12  13
ENDBRANCH  11  12
ENDBRANCH  10  11
ENDBRANCH   1  10
TORSDOF 12
ENDMDL
MODEL 9
REMARK VINA RESULT:    -3.456      1.998      5.099
REMARK INTER + INTRA:          -7.532
REMARK INTER:                  -5.683
REMARK INTRA:                  -1.849
REMARK UNBOUND:                -1.652
REMARK SMILES CCCCCCCCCCCCCC(=O)[O-]
REMARK SMILES IDX 8 1 9 2 10 3 11 4 12 5 13 6 14 7 15 8 16 9 7 10 6 11 5 12
REMARK SMILES IDX 4 13 3 14 2 15 1 16
REMARK H PARENT
REMARK Flexibility Score: inf
ROOT
ATOM      1  C   UNL     1     130.428 143.553 120.578  1.00  0.00     0.000 C 
ENDROOT
BRANCH   1   2
ATOM      2  C   UNL     1     131.318 144.505 119.759  1.00  0.00     0.000 C 
BRANCH   2   3
ATOM      3  C   UNL     1     130.881 145.976 119.872  1.00  0.00     0.000 C 
BRANCH   3   4
ATOM      4  C   UNL     1     132.030 146.982 120.064  1.00  0.00     0.000 C 
BRANCH   4   5
ATOM      5  C   UNL     1     133.350 146.311 120.473  1.00  0.00     0.006 C 
BRANCH   5   6
ATOM      6  C   UNL     1     133.771 146.742 121.881  1.00  0.00     0.053 C 
BRANCH   6   7
ATOM      7  C   UNL     1     132.797 146.235 122.897  1.00  0.00     0.041 C 
ATOM      8  O   UNL     1     132.696 144.999 123.117  1.00  0.00    -0.550 OA
ATOM      9  O   UNL     1     131.964 147.124 123.566  1.00  0.00    -0.550 OA
ENDBRANCH   6   7
ENDBRANCH   5   6
ENDBRANCH   4   5
ENDBRANCH   3   4
ENDBRANCH   2   3
ENDBRANCH   1   2
BRANCH   1  10
ATOM     10  C   UNL     1     129.387 142.829 119.709  1.00  0.00     0.000 C 
BRANCH  10  11
ATOM     11  C   UNL     1     127.964 143.378 119.917  1.00  0.00    -0.000 C 
BRANCH  11  12
ATOM     12  C   UNL     1     127.640 144.545 118.971  1.00  0.00    -0.000 C 
BRANCH  12  13
ATOM     13  C   UNL     1     127.292 145.839 119.728  1.00  0.00    -0.000 C 
BRANCH  13  14
ATOM     14  C   UNL     1     127.073 145.602 121.231  1.00  0.00    -0.000 C 
BRANCH  14  15
ATOM     15  C   UNL     1     127.955 146.504 122.105  1.00  0.00    -0.003 C 
ATOM     16  C   UNL     1     128.798 145.678 123.072  1.00  0.00     0.004 C 
ENDBRANCH  14  15
ENDBRANCH  13  14
ENDBRANCH  12  13
ENDBRANCH  11  12
ENDBRANCH  10  11
ENDBRANCH   1  10
TORSDOF 12
ENDMDL
