MODEL 1
REMARK VINA RESULT:    -4.502      0.000      0.000
REMARK INTER + INTRA:          -6.865
REMARK INTER:                  -6.081
REMARK INTRA:                  -0.784
REMARK UNBOUND:                -0.784
REMARK SMILES CC(=O)CCC=C(C)CCC=C(C)C
REMARK SMILES IDX 7 1 6 2 8 3 9 4 10 5 11 6 13 7 12 8 14 9 5 10 4 11 2 12 3 13
REMARK SMILES IDX 1 14
REMARK H PARENT
REMARK Flexibility Score: inf
ROOT
ATOM      1  C   UNL     1      -5.211 -14.763  -8.200  1.00  0.00    -0.077 C 
ATOM      2  C   UNL     1      -4.998 -14.813  -6.866  1.00  0.00    -0.028 C 
ATOM      3  C   UNL     1      -4.658 -15.822  -9.125  1.00  0.00     0.039 C 
ENDROOT
BRANCH   1   4
ATOM      4  C   UNL     1      -6.020 -13.622  -8.780  1.00  0.00     0.034 C 
BRANCH   4   5
ATOM      5  C   UNL     1      -5.683 -12.281  -8.110  1.00  0.00     0.032 C 
BRANCH   5   6
ATOM      6  C   UNL     1      -4.571 -11.558  -8.834  1.00  0.00    -0.028 C 
ATOM      7  C   UNL     1      -2.993 -11.687  -6.893  1.00  0.00     0.039 C 
ATOM      8  C   UNL     1      -3.371 -11.258  -8.291  1.00  0.00    -0.080 C 
ATOM      9  C   UNL     1      -2.380 -10.487  -9.125  1.00  0.00     0.039 C 
ENDBRANCH   5   6
ENDBRANCH   4   5
ENDBRANCH   1   4
BRANCH   2  10
ATOM     10  C   UNL     1      -4.199 -15.908  -6.200  1.00  0.00     0.035 C 
BRANCH  10  11
ATOM     11  C   UNL     1      -3.178 -15.327  -5.217  1.00  0.00     0.079 C 
BRANCH  11  12
ATOM     12  C   UNL     1      -1.816 -15.239  -5.850  1.00  0.00     0.130 C 
ATOM     13  O   UNL     1      -0.864 -15.795  -5.322  1.00  0.00    -0.300 OA
ATOM     14  C   UNL     1      -1.614 -14.456  -7.113  1.00  0.00     0.087 C 
ENDBRANCH  11  12
ENDBRANCH  10  11
ENDBRANCH   2  10
TORSDOF 6
ENDMDL
MODEL 2
REMARK VINA RESULT:    -4.441      1.584      3.178
REMARK INTER + INTRA:          -6.783
REMARK INTER:                  -5.966
REMARK INTRA:                  -0.817
REMARK UNBOUND:                -0.784
REMARK SMILES CC(=O)CCC=C(C)CCC=C(C)C
REMARK SMILES IDX 7 1 6 2 8 3 9 4 10 5 11 6 13 7 12 8 14 9 5 10 4 11 2 12 3 13
REMARK SMILES IDX 1 14
REMARK H PARENT
REMARK Flexibility Score: inf
ROOT
ATOM      1  C   UNL     1      -2.606 -12.837  -7.915  1.00  0.00    -0.077 C 
ATOM      2  C   UNL     1      -2.440 -13.212  -6.628  1.00  0.00    -0.028 C 
ATOM      3  C   UNL     1      -2.407 -13.812  -9.052  1.00  0.00     0.039 C 
ENDROOT
BRANCH   1   4
ATOM      4  C   UNL     1      -3.000 -11.408  -8.227  1.00  0.00     0.034 C 
BRANCH   4   5
ATOM      5  C   UNL     1      -4.524 -11.239  -8.312  1.00  0.00     0.032 C 
BRANCH   5   6
ATOM      6  C   UNL     1      -5.182 -12.425  -8.979  1.00  0.00    -0.028 C 
ATOM      7  C   UNL     1      -6.081 -13.349  -6.832  1.00  0.00     0.039 C 
ATOM      8  C   UNL     1      -5.857 -13.394  -8.325  1.00  0.00    -0.080 C 
ATOM      9  C   UNL     1      -6.416 -14.543  -9.125  1.00  0.00     0.039 C 
ENDBRANCH   5   6
ENDBRANCH   4   5
ENDBRANCH   1   4
BRANCH   2  10
ATOM     10  C   UNL     1      -2.041 -14.611  -6.223  1.00  0.00     0.035 C 
BRANCH  10  11
ATOM     11  C   UNL     1      -2.847 -15.087  -5.010  1.00  0.00     0.079 C 
BRANCH  11  12
ATOM     12  C   UNL     1      -4.003 -15.948  -5.440  1.00  0.00     0.130 C 
ATOM     13  O   UNL     1      -4.851 -16.278  -4.625  1.00  0.00    -0.300 OA
ATOM     14  C   UNL     1      -4.109 -16.425  -6.858  1.00  0.00     0.087 C 
ENDBRANCH  11  12
ENDBRANCH  10  11
ENDBRANCH   2  10
TORSDOF 6
ENDMDL
MODEL 3
REMARK VINA RESULT:    -4.371      1.691      3.126
REMARK INTER + INTRA:          -6.688
REMARK INTER:                  -6.163
REMARK INTRA:                  -0.525
REMARK UNBOUND:                -0.784
REMARK SMILES CC(=O)CCC=C(C)CCC=C(C)C
REMARK SMILES IDX 7 1 6 2 8 3 9 4 10 5 11 6 13 7 12 8 14 9 5 10 4 11 2 12 3 13
REMARK SMILES IDX 1 14
REMARK H PARENT
REMARK Flexibility Score: inf
ROOT
ATOM      1  C   UNL     1      -2.644 -14.024  -8.239  1.00  0.00    -0.077 C 
ATOM      2  C   UNL     1      -1.921 -14.115  -7.101  1.00  0.00    -0.028 C 
ATOM      3  C   UNL     1      -3.609 -15.112  -8.648  1.00  0.00     0.039 C 
ENDROOT
BRANCH   1   4
ATOM      4  C   UNL     1      -2.484 -12.806  -9.125  1.00  0.00     0.034 C 
BRANCH   4   5
ATOM      5  C   UNL     1      -3.714 -11.889  -9.067  1.00  0.00     0.032 C 
BRANCH   5   6
ATOM      6  C   UNL     1      -4.402 -11.960  -7.724  1.00  0.00    -0.028 C 
ATOM      7  C   UNL     1      -6.380 -13.214  -8.612  1.00  0.00     0.039 C 
ATOM      8  C   UNL     1      -5.611 -12.524  -7.510  1.00  0.00    -0.080 C 
ATOM      9  C   UNL     1      -6.190 -12.473  -6.120  1.00  0.00     0.039 C 
ENDBRANCH   5   6
ENDBRANCH   4   5
ENDBRANCH   1   4
BRANCH   2  10
ATOM     10  C   UNL     1      -2.009 -15.294  -6.162  1.00  0.00     0.035 C 
BRANCH  10  11
ATOM     11  C   UNL     1      -3.138 -15.106  -5.143  1.00  0.00     0.079 C 
BRANCH  11  12
ATOM     12  C   UNL     1      -4.064 -16.291  -5.146  1.00  0.00     0.130 C 
ATOM     13  O   UNL     1      -5.164 -16.205  -4.620  1.00  0.00    -0.300 OA
ATOM     14  C   UNL     1      -3.638 -17.587  -5.769  1.00  0.00     0.087 C 
ENDBRANCH  11  12
ENDBRANCH  10  11
ENDBRANCH   2  10
TORSDOF 6
ENDMDL
MODEL 4
REMARK VINA RESULT:    -3.932      2.297      5.377
REMARK INTER + INTRA:          -6.095
REMARK INTER:                  -5.290
REMARK INTRA:                  -0.805
REMARK UNBOUND:                -0.784
REMARK SMILES CC(=O)CCC=C(C)CCC=C(C)C
REMARK SMILES IDX 7 1 6 2 8 3 9 4 10 5 11 6 13 7 12 8 14 9 5 10 4 11 2 12 3 13
REMARK SMILES IDX 1 14
REMARK H PARENT
REMARK Flexibility Score: inf
ROOT
ATOM      1  C   UNL     1      -2.628 -13.871  -8.010  1.00  0.00    -0.077 C 
ATOM      2  C   UNL     1      -2.788 -12.535  -8.138  1.00  0.00    -0.028 C 
ATOM      3  C   UNL     1      -3.407 -14.842  -8.866  1.00  0.00     0.039 C 
ENDROOT
BRANCH   1   4
ATOM      4  C   UNL     1      -1.649 -14.407  -6.986  1.00  0.00     0.034 C 
BRANCH   4   5
ATOM      5  C   UNL     1      -2.360 -14.911  -5.721  1.00  0.00     0.032 C 
BRANCH   5   6
ATOM      6  C   UNL     1      -2.575 -16.406  -5.758  1.00  0.00    -0.028 C 
ATOM      7  C   UNL     1      -5.037 -16.235  -5.331  1.00  0.00     0.039 C 
ATOM      8  C   UNL     1      -3.763 -17.015  -5.556  1.00  0.00    -0.080 C 
ATOM      9  C   UNL     1      -3.809 -18.521  -5.574  1.00  0.00     0.039 C 
ENDBRANCH   5   6
ENDBRANCH   4   5
ENDBRANCH   1   4
BRANCH   2  10
ATOM     10  C   UNL     1      -3.745 -11.911  -9.125  1.00  0.00     0.035 C 
BRANCH  10  11
ATOM     11  C   UNL     1      -5.029 -11.444  -8.431  1.00  0.00     0.079 C 
BRANCH  11  12
ATOM     12  C   UNL     1      -5.849 -12.621  -7.977  1.00  0.00     0.130 C 
ATOM     13  O   UNL     1      -6.452 -13.294  -8.800  1.00  0.00    -0.300 OA
ATOM     14  C   UNL     1      -5.951 -12.960  -6.521  1.00  0.00     0.087 C 
ENDBRANCH  11  12
ENDBRANCH  10  11
ENDBRANCH   2  10
TORSDOF 6
ENDMDL
MODEL 5
REMARK VINA RESULT:    -3.804      1.631      2.623
REMARK INTER + INTRA:          -5.923
REMARK INTER:                  -5.056
REMARK INTRA:                  -0.867
REMARK UNBOUND:                -0.784
REMARK SMILES CC(=O)CCC=C(C)CCC=C(C)C
REMARK SMILES IDX 7 1 6 2 8 3 9 4 10 5 11 6 13 7 12 8 14 9 5 10 4 11 2 12 3 13
REMARK SMILES IDX 1 14
REMARK H PARENT
REMARK Flexibility Score: inf
ROOT
ATOM      1  C   UNL     1      -3.914 -15.599  -6.937  1.00  0.00    -0.077 C 
ATOM      2  C   UNL     1      -2.578 -15.413  -6.849  1.00  0.00    -0.028 C 
ATOM      3  C   UNL     1      -4.794 -15.583  -5.709  1.00  0.00     0.039 C 
ENDROOT
BRANCH   1   4
ATOM      4  C   UNL     1      -4.543 -15.829  -8.296  1.00  0.00     0.034 C 
BRANCH   4   5
ATOM      5  C   UNL     1      -5.358 -14.614  -8.764  1.00  0.00     0.032 C 
BRANCH   5   6
ATOM      6  C   UNL     1      -4.466 -13.448  -9.125  1.00  0.00    -0.028 C 
ATOM      7  C   UNL     1      -5.249 -12.036  -7.210  1.00  0.00     0.039 C 
ATOM      8  C   UNL     1      -4.429 -12.276  -8.455  1.00  0.00    -0.080 C 
ATOM      9  C   UNL     1      -3.521 -11.187  -8.967  1.00  0.00     0.039 C 
ENDBRANCH   5   6
ENDBRANCH   4   5
ENDBRANCH   1   4
BRANCH   2  10
ATOM     10  C   UNL     1      -1.864 -15.184  -5.539  1.00  0.00     0.035 C 
BRANCH  10  11
ATOM     11  C   UNL     1      -0.850 -16.298  -5.260  1.00  0.00     0.079 C 
BRANCH  11  12
ATOM     12  C   UNL     1       0.361 -15.753  -4.553  1.00  0.00     0.130 C 
ATOM     13  O   UNL     1       1.043 -14.894  -5.090  1.00  0.00    -0.300 OA
ATOM     14  C   UNL     1       0.750 -16.274  -3.202  1.00  0.00     0.087 C 
ENDBRANCH  11  12
ENDBRANCH  10  11
ENDBRANCH   2  10
TORSDOF 6
ENDMDL
MODEL 6
REMARK VINA RESULT:    -3.788      2.590      5.551
REMARK INTER + INTRA:          -5.900
REMARK INTER:                  -5.421
REMARK INTRA:                  -0.479
REMARK UNBOUND:                -0.784
REMARK SMILES CC(=O)CCC=C(C)CCC=C(C)C
REMARK SMILES IDX 7 1 6 2 8 3 9 4 10 5 11 6 13 7 12 8 14 9 5 10 4 11 2 12 3 13
REMARK SMILES IDX 1 14
REMARK H PARENT
REMARK Flexibility Score: inf
ROOT
ATOM      1  C   UNL     1      -3.068 -15.119  -7.263  1.00  0.00    -0.077 C 
ATOM      2  C   UNL     1      -4.243 -15.574  -7.750  1.00  0.00    -0.028 C 
ATOM      3  C   UNL     1      -2.282 -14.045  -7.980  1.00  0.00     0.039 C 
ENDROOT
BRANCH   1   4
ATOM      4  C   UNL     1      -2.524 -15.697  -5.974  1.00  0.00     0.034 C 
BRANCH   4   5
ATOM      5  C   UNL     1      -1.014 -15.458  -5.829  1.00  0.00     0.032 C 
BRANCH   5   6
ATOM      6  C   UNL     1      -0.465 -16.095  -4.573  1.00  0.00    -0.028 C 
ATOM      7  C   UNL     1       1.659 -14.769  -4.625  1.00  0.00     0.039 C 
ATOM      8  C   UNL     1       0.744 -15.818  -4.039  1.00  0.00    -0.080 C 
ATOM      9  C   UNL     1       1.174 -16.574  -2.808  1.00  0.00     0.039 C 
ENDBRANCH   5   6
ENDBRANCH   4   5
ENDBRANCH   1   4
BRANCH   2  10
ATOM     10  C   UNL     1      -4.858 -15.062  -9.031  1.00  0.00     0.035 C 
BRANCH  10  11
ATOM     11  C   UNL     1      -6.088 -14.194  -8.746  1.00  0.00     0.079 C 
BRANCH  11  12
ATOM     12  C   UNL     1      -5.695 -12.927  -8.038  1.00  0.00     0.130 C 
ATOM     13  O   UNL     1      -5.929 -12.799  -6.845  1.00  0.00    -0.300 OA
ATOM     14  C   UNL     1      -5.039 -11.808  -8.791  1.00  0.00     0.087 C 
ENDBRANCH  11  12
ENDBRANCH  10  11
ENDBRANCH   2  10
TORSDOF 6
ENDMDL
MODEL 7
REMARK VINA RESULT:    -3.715      1.706      4.511
REMARK INTER + INTRA:          -5.802
REMARK INTER:                  -5.395
REMARK INTRA:                  -0.406
REMARK UNBOUND:                -0.784
REMARK SMILES CC(=O)CCC=C(C)CCC=C(C)C
REMARK SMILES IDX 7 1 6 2 8 3 9 4 10 5 11 6 13 7 12 8 14 9 5 10 4 11 2 12 3 13
REMARK SMILES IDX 1 14
REMARK H PARENT
REMARK Flexibility Score: inf
ROOT
ATOM      1  C   UNL     1      -4.916 -14.858  -7.195  1.00  0.00    -0.077 C 
ATOM      2  C   UNL     1      -5.430 -13.608  -7.188  1.00  0.00    -0.028 C 
ATOM      3  C   UNL     1      -4.789 -15.649  -8.476  1.00  0.00     0.039 C 
ENDROOT
BRANCH   1   4
ATOM      4  C   UNL     1      -4.458 -15.480  -5.893  1.00  0.00     0.034 C 
BRANCH   4   5
ATOM      5  C   UNL     1      -3.499 -16.657  -6.125  1.00  0.00     0.032 C 
BRANCH   5   6
ATOM      6  C   UNL     1      -2.204 -16.482  -5.366  1.00  0.00    -0.028 C 
ATOM      7  C   UNL     1      -1.431 -14.571  -6.788  1.00  0.00     0.039 C 
ATOM      8  C   UNL     1      -1.255 -15.571  -5.670  1.00  0.00    -0.080 C 
ATOM      9  C   UNL     1       0.009 -15.550  -4.848  1.00  0.00     0.039 C 
ENDBRANCH   5   6
ENDBRANCH   4   5
ENDBRANCH   1   4
BRANCH   2  10
ATOM     10  C   UNL     1      -5.919 -12.911  -8.435  1.00  0.00     0.035 C 
BRANCH  10  11
ATOM     11  C   UNL     1      -5.060 -11.683  -8.755  1.00  0.00     0.079 C 
BRANCH  11  12
ATOM     12  C   UNL     1      -3.615 -11.943  -8.430  1.00  0.00     0.130 C 
ATOM     13  O   UNL     1      -2.964 -12.709  -9.125  1.00  0.00    -0.300 OA
ATOM     14  C   UNL     1      -2.972 -11.285  -7.245  1.00  0.00     0.087 C 
ENDBRANCH  11  12
ENDBRANCH  10  11
ENDBRANCH   2  10
TORSDOF 6
ENDMDL
MODEL 8
REMARK VINA RESULT:    -3.601      1.867      3.150
REMARK INTER + INTRA:          -5.648
REMARK INTER:                  -4.904
REMARK INTRA:                  -0.744
REMARK UNBOUND:                -0.784
REMARK SMILES CC(=O)CCC=C(C)CCC=C(C)C
REMARK SMILES IDX 7 1 6 2 8 3 9 4 10 5 11 6 13 7 12 8 14 9 5 10 4 11 2 12 3 13
REMARK SMILES IDX 1 14
REMARK H PARENT
REMARK Flexibility Score: inf
ROOT
ATOM      1  C   UNL     1      -3.131 -15.150  -7.522  1.00  0.00    -0.077 C 
ATOM      2  C   UNL     1      -2.870 -15.673  -6.303  1.00  0.00    -0.028 C 
ATOM      3  C   UNL     1      -2.286 -14.039  -8.100  1.00  0.00     0.039 C 
ENDROOT
BRANCH   1   4
ATOM      4  C   UNL     1      -4.297 -15.689  -8.325  1.00  0.00     0.034 C 
BRANCH   4   5
ATOM      5  C   UNL     1      -5.325 -14.594  -8.648  1.00  0.00     0.032 C 
BRANCH   5   6
ATOM      6  C   UNL     1      -5.879 -13.960  -7.393  1.00  0.00    -0.028 C 
ATOM      7  C   UNL     1      -4.931 -11.701  -7.913  1.00  0.00     0.039 C 
ATOM      8  C   UNL     1      -5.685 -12.672  -7.036  1.00  0.00    -0.080 C 
ATOM      9  C   UNL     1      -6.261 -12.197  -5.726  1.00  0.00     0.039 C 
ENDBRANCH   5   6
ENDBRANCH   4   5
ENDBRANCH   1   4
BRANCH   2  10
ATOM     10  C   UNL     1      -1.735 -15.195  -5.429  1.00  0.00     0.035 C 
BRANCH  10  11
ATOM     11  C   UNL     1      -0.840 -16.361  -4.998  1.00  0.00     0.079 C 
BRANCH  11  12
ATOM     12  C   UNL     1       0.424 -15.855  -4.358  1.00  0.00     0.130 C 
ATOM     13  O   UNL     1       1.112 -15.029  -4.940  1.00  0.00    -0.300 OA
ATOM     14  C   UNL     1       0.859 -16.374  -3.020  1.00  0.00     0.087 C 
ENDBRANCH  11  12
ENDBRANCH  10  11
ENDBRANCH   2  10
TORSDOF 6
ENDMDL
