MODEL 1
REMARK VINA RESULT:    -4.540      0.000      0.000
REMARK INTER + INTRA:          -4.540
REMARK INTER:                  -4.540
REMARK INTRA:                   0.000
REMARK UNBOUND:                 0.000
REMARK SMILES CC1(C)[C@@H]2CC[C@@]1(C)C(=O)C2
REMARK SMILES IDX 1 1 2 2 4 3 5 4 6 5 7 6 9 7 10 8 11 9 8 10 3 11
REMARK H PARENT
REMARK Flexibility Score: inf
ROOT
ATOM      1  C   UNL     1      53.642  31.986  31.192  1.00  0.00     0.012 C 
ATOM      2  C   UNL     1      52.564  32.841  31.925  1.00  0.00    -0.020 C 
ATOM      3  C   UNL     1      51.303  32.042  32.333  1.00  0.00     0.003 C 
ATOM      4  C   UNL     1      50.704  31.625  30.962  1.00  0.00     0.005 C 
ATOM      5  C   UNL     1      51.011  32.848  30.062  1.00  0.00     0.015 C 
ATOM      6  C   UNL     1      51.755  33.802  31.028  1.00  0.00     0.032 C 
ATOM      7  C   UNL     1      50.698  34.266  31.999  1.00  0.00     0.139 C 
ATOM      8  O   UNL     1      50.147  35.356  31.993  1.00  0.00    -0.299 OA
ATOM      9  C   UNL     1      50.356  33.130  32.912  1.00  0.00     0.080 C 
ATOM     10  C   UNL     1      52.543  34.925  30.342  1.00  0.00     0.020 C 
ATOM     11  C   UNL     1      53.287  33.525  33.127  1.00  0.00     0.012 C 
ENDROOT
TORSDOF 0
ENDMDL
MODEL 2
REMARK VINA RESULT:    -4.522      1.736      3.156
REMARK INTER + INTRA:          -4.522
REMARK INTER:                  -4.522
REMARK INTRA:                   0.000
REMARK UNBOUND:                 0.000
REMARK SMILES CC1(C)[C@@H]2CC[C@@]1(C)C(=O)C2
REMARK SMILES IDX 1 1 2 2 4 3 5 4 6 5 7 6 9 7 10 8 11 9 8 10 3 11
REMARK H PARENT
REMARK Flexibility Score: inf
ROOT
ATOM      1  C   UNL     1      51.176  36.003  32.449  1.00  0.00     0.012 C 
ATOM      2  C   UNL     1      51.511  34.790  31.530  1.00  0.00    -0.020 C 
ATOM      3  C   UNL     1      50.268  34.121  30.897  1.00  0.00     0.003 C 
ATOM      4  C   UNL     1      49.511  33.566  32.135  1.00  0.00     0.005 C 
ATOM      5  C   UNL     1      50.660  33.125  33.076  1.00  0.00     0.015 C 
ATOM      6  C   UNL     1      51.925  33.495  32.263  1.00  0.00     0.032 C 
ATOM      7  C   UNL     1      51.942  32.518  31.114  1.00  0.00     0.139 C 
ATOM      8  O   UNL     1      52.661  31.535  31.018  1.00  0.00    -0.299 OA
ATOM      9  C   UNL     1      50.856  32.890  30.154  1.00  0.00     0.080 C 
ATOM     10  C   UNL     1      53.220  33.555  33.082  1.00  0.00     0.020 C 
ATOM     11  C   UNL     1      52.548  35.303  30.482  1.00  0.00     0.012 C 
ENDROOT
TORSDOF 0
ENDMDL
MODEL 3
REMARK VINA RESULT:    -4.398      1.683      3.331
REMARK INTER + INTRA:          -4.398
REMARK INTER:                  -4.398
REMARK INTRA:                   0.000
REMARK UNBOUND:                 0.000
REMARK SMILES CC1(C)[C@@H]2CC[C@@]1(C)C(=O)C2
REMARK SMILES IDX 1 1 2 2 4 3 5 4 6 5 7 6 9 7 10 8 11 9 8 10 3 11
REMARK H PARENT
REMARK Flexibility Score: inf
ROOT
ATOM      1  C   UNL     1      49.946  35.230  31.799  1.00  0.00     0.012 C 
ATOM      2  C   UNL     1      51.073  34.225  32.182  1.00  0.00    -0.020 C 
ATOM      3  C   UNL     1      52.342  34.896  32.761  1.00  0.00     0.003 C 
ATOM      4  C   UNL     1      52.861  35.736  31.561  1.00  0.00     0.005 C 
ATOM      5  C   UNL     1      52.527  34.842  30.341  1.00  0.00     0.015 C 
ATOM      6  C   UNL     1      51.850  33.613  30.995  1.00  0.00     0.032 C 
ATOM      7  C   UNL     1      52.964  32.905  31.726  1.00  0.00     0.139 C 
ATOM      8  O   UNL     1      53.531  31.888  31.357  1.00  0.00    -0.299 OA
ATOM      9  C   UNL     1      53.335  33.713  32.930  1.00  0.00     0.080 C 
ATOM     10  C   UNL     1      51.045  32.734  30.031  1.00  0.00     0.020 C 
ATOM     11  C   UNL     1      50.425  33.179  33.142  1.00  0.00     0.012 C 
ENDROOT
TORSDOF 0
ENDMDL
MODEL 4
REMARK VINA RESULT:    -4.244      1.122      2.916
REMARK INTER + INTRA:          -4.244
REMARK INTER:                  -4.244
REMARK INTRA:                   0.000
REMARK UNBOUND:                 0.000
REMARK SMILES CC1(C)[C@@H]2CC[C@@]1(C)C(=O)C2
REMARK SMILES IDX 1 1 2 2 4 3 5 4 6 5 7 6 9 7 10 8 11 9 8 10 3 11
REMARK H PARENT
REMARK Flexibility Score: inf
ROOT
ATOM      1  C   UNL     1      51.477  31.631  32.008  1.00  0.00     0.012 C 
ATOM      2  C   UNL     1      51.438  32.965  31.204  1.00  0.00    -0.020 C 
ATOM      3  C   UNL     1      52.752  33.780  31.278  1.00  0.00     0.003 C 
ATOM      4  C   UNL     1      52.838  34.152  32.784  1.00  0.00     0.005 C 
ATOM      5  C   UNL     1      51.356  34.383  33.171  1.00  0.00     0.015 C 
ATOM      6  C   UNL     1      50.611  34.102  31.843  1.00  0.00     0.032 C 
ATOM      7  C   UNL     1      50.982  35.256  30.944  1.00  0.00     0.139 C 
ATOM      8  O   UNL     1      50.270  36.210  30.671  1.00  0.00    -0.299 OA
ATOM      9  C   UNL     1      52.408  35.093  30.521  1.00  0.00     0.080 C 
ATOM     10  C   UNL     1      49.105  33.854  31.992  1.00  0.00     0.020 C 
ATOM     11  C   UNL     1      51.014  32.592  29.749  1.00  0.00     0.012 C 
ENDROOT
TORSDOF 0
ENDMDL
MODEL 5
REMARK VINA RESULT:    -4.228      1.636      2.987
REMARK INTER + INTRA:          -4.228
REMARK INTER:                  -4.228
REMARK INTRA:                   0.000
REMARK UNBOUND:                 0.000
REMARK SMILES CC1(C)[C@@H]2CC[C@@]1(C)C(=O)C2
REMARK SMILES IDX 1 1 2 2 4 3 5 4 6 5 7 6 9 7 10 8 11 9 8 10 3 11
REMARK H PARENT
REMARK Flexibility Score: inf
ROOT
ATOM      1  C   UNL     1      49.269  33.782  30.744  1.00  0.00     0.012 C 
ATOM      2  C   UNL     1      50.670  33.127  30.941  1.00  0.00    -0.020 C 
ATOM      3  C   UNL     1      50.795  32.295  32.240  1.00  0.00     0.003 C 
ATOM      4  C   UNL     1      50.629  33.370  33.350  1.00  0.00     0.005 C 
ATOM      5  C   UNL     1      51.333  34.609  32.743  1.00  0.00     0.015 C 
ATOM      6  C   UNL     1      51.801  34.090  31.361  1.00  0.00     0.032 C 
ATOM      7  C   UNL     1      52.902  33.107  31.673  1.00  0.00     0.139 C 
ATOM      8  O   UNL     1      54.101  33.309  31.550  1.00  0.00    -0.299 OA
ATOM      9  C   UNL     1      52.290  31.873  32.258  1.00  0.00     0.080 C 
ATOM     10  C   UNL     1      52.175  35.186  30.356  1.00  0.00     0.020 C 
ATOM     11  C   UNL     1      50.960  32.308  29.644  1.00  0.00     0.012 C 
ENDROOT
TORSDOF 0
ENDMDL
MODEL 6
REMARK VINA RESULT:    -4.161      1.741      3.473
REMARK INTER + INTRA:          -4.161
REMARK INTER:                  -4.161
REMARK INTRA:                   0.000
REMARK UNBOUND:                 0.000
REMARK SMILES CC1(C)[C@@H]2CC[C@@]1(C)C(=O)C2
REMARK SMILES IDX 1 1 2 2 4 3 5 4 6 5 7 6 9 7 10 8 11 9 8 10 3 11
REMARK H PARENT
REMARK Flexibility Score: inf
ROOT
ATOM      1  C   UNL     1      52.932  34.766  31.538  1.00  0.00     0.012 C 
ATOM      2  C   UNL     1      51.420  34.675  31.172  1.00  0.00    -0.020 C 
ATOM      3  C   UNL     1      50.782  36.037  30.806  1.00  0.00     0.003 C 
ATOM      4  C   UNL     1      50.887  36.832  32.136  1.00  0.00     0.005 C 
ATOM      5  C   UNL     1      50.656  35.742  33.212  1.00  0.00     0.015 C 
ATOM      6  C   UNL     1      50.460  34.462  32.362  1.00  0.00     0.032 C 
ATOM      7  C   UNL     1      49.127  34.654  31.683  1.00  0.00     0.139 C 
ATOM      8  O   UNL     1      48.077  34.116  31.999  1.00  0.00    -0.299 OA
ATOM      9  C   UNL     1      49.278  35.694  30.617  1.00  0.00     0.080 C 
ATOM     10  C   UNL     1      50.610  33.148  33.137  1.00  0.00     0.020 C 
ATOM     11  C   UNL     1      51.303  33.605  30.042  1.00  0.00     0.012 C 
ENDROOT
TORSDOF 0
ENDMDL
MODEL 7
REMARK VINA RESULT:    -4.024      1.740      3.411
REMARK INTER + INTRA:          -4.024
REMARK INTER:                  -4.024
REMARK INTRA:                   0.000
REMARK UNBOUND:                 0.000
REMARK SMILES CC1(C)[C@@H]2CC[C@@]1(C)C(=O)C2
REMARK SMILES IDX 1 1 2 2 4 3 5 4 6 5 7 6 9 7 10 8 11 9 8 10 3 11
REMARK H PARENT
REMARK Flexibility Score: inf
ROOT
ATOM      1  C   UNL     1      48.085  34.179  31.972  1.00  0.00     0.012 C 
ATOM      2  C   UNL     1      49.478  34.474  31.340  1.00  0.00    -0.020 C 
ATOM      3  C   UNL     1      50.089  33.271  30.581  1.00  0.00     0.003 C 
ATOM      4  C   UNL     1      50.309  32.230  31.713  1.00  0.00     0.005 C 
ATOM      5  C   UNL     1      50.711  33.111  32.923  1.00  0.00     0.015 C 
ATOM      6  C   UNL     1      50.659  34.542  32.333  1.00  0.00     0.032 C 
ATOM      7  C   UNL     1      51.824  34.605  31.377  1.00  0.00     0.139 C 
ATOM      8  O   UNL     1      52.890  35.165  31.582  1.00  0.00    -0.299 OA
ATOM      9  C   UNL     1      51.500  33.778  30.172  1.00  0.00     0.080 C 
ATOM     10  C   UNL     1      50.613  35.665  33.376  1.00  0.00     0.020 C 
ATOM     11  C   UNL     1      49.300  35.747  30.454  1.00  0.00     0.012 C 
ENDROOT
TORSDOF 0
ENDMDL
MODEL 8
REMARK VINA RESULT:    -3.921      6.802      8.373
REMARK INTER + INTRA:          -3.921
REMARK INTER:                  -3.921
REMARK INTRA:                   0.000
REMARK UNBOUND:                 0.000
REMARK SMILES CC1(C)[C@@H]2CC[C@@]1(C)C(=O)C2
REMARK SMILES IDX 1 1 2 2 4 3 5 4 6 5 7 6 9 7 10 8 11 9 8 10 3 11
REMARK H PARENT
REMARK Flexibility Score: inf
ROOT
ATOM      1  C   UNL     1      43.671  32.121  27.598  1.00  0.00     0.012 C 
ATOM      2  C   UNL     1      44.642  32.986  26.740  1.00  0.00    -0.020 C 
ATOM      3  C   UNL     1      46.113  32.505  26.782  1.00  0.00     0.003 C 
ATOM      4  C   UNL     1      46.499  32.720  28.272  1.00  0.00     0.005 C 
ATOM      5  C   UNL     1      45.734  34.014  28.647  1.00  0.00     0.015 C 
ATOM      6  C   UNL     1      45.000  34.368  27.330  1.00  0.00     0.032 C 
ATOM      7  C   UNL     1      46.093  34.800  26.386  1.00  0.00     0.139 C 
ATOM      8  O   UNL     1      46.358  35.950  26.073  1.00  0.00    -0.299 OA
ATOM      9  C   UNL     1      46.873  33.591  25.971  1.00  0.00     0.080 C 
ATOM     10  C   UNL     1      43.846  35.365  27.487  1.00  0.00     0.020 C 
ATOM     11  C   UNL     1      44.040  33.030  25.301  1.00  0.00     0.012 C 
ENDROOT
TORSDOF 0
ENDMDL
MODEL 9
REMARK VINA RESULT:    -3.899      5.866      7.316
REMARK INTER + INTRA:          -3.899
REMARK INTER:                  -3.899
REMARK INTRA:                   0.000
REMARK UNBOUND:                 0.000
REMARK SMILES CC1(C)[C@@H]2CC[C@@]1(C)C(=O)C2
REMARK SMILES IDX 1 1 2 2 4 3 5 4 6 5 7 6 9 7 10 8 11 9 8 10 3 11
REMARK H PARENT
REMARK Flexibility Score: inf
ROOT
ATOM      1  C   UNL     1      43.584  35.018  32.368  1.00  0.00     0.012 C 
ATOM      2  C   UNL     1      44.497  34.335  31.306  1.00  0.00    -0.020 C 
ATOM      3  C   UNL     1      45.953  34.112  31.783  1.00  0.00     0.003 C 
ATOM      4  C   UNL     1      46.475  35.562  31.975  1.00  0.00     0.005 C 
ATOM      5  C   UNL     1      45.781  36.337  30.828  1.00  0.00     0.015 C 
ATOM      6  C   UNL     1      44.942  35.236  30.134  1.00  0.00     0.032 C 
ATOM      7  C   UNL     1      45.959  34.343  29.466  1.00  0.00     0.139 C 
ATOM      8  O   UNL     1      46.225  34.325  28.274  1.00  0.00    -0.299 OA
ATOM      9  C   UNL     1      46.667  33.552  30.521  1.00  0.00     0.080 C 
ATOM     10  C   UNL     1      43.834  35.759  29.212  1.00  0.00     0.020 C 
ATOM     11  C   UNL     1      43.771  33.022  30.878  1.00  0.00     0.012 C 
ENDROOT
TORSDOF 0
ENDMDL
