MODEL 1
REMARK VINA RESULT:    -3.469      0.000      0.000
REMARK INTER + INTRA:          -4.111
REMARK INTER:                  -4.077
REMARK INTRA:                  -0.034
REMARK UNBOUND:                -0.034
REMARK SMILES CCCCC(=O)[O-]
REMARK SMILES IDX 4 1 5 2 6 3 7 4 3 5 2 6 1 7
REMARK H PARENT
REMARK Flexibility Score: inf
ROOT
ATOM      1  C   UNL     1       2.613  43.220  70.368  1.00  0.00     0.053 C 
ENDROOT
BRANCH   1   2
ATOM      2  C   UNL     1       3.752  43.589  71.268  1.00  0.00     0.041 C 
ATOM      3  O   UNL     1       3.569  44.379  72.231  1.00  0.00    -0.550 OA
ATOM      4  O   UNL     1       5.009  43.034  71.063  1.00  0.00    -0.550 OA
ENDBRANCH   1   2
BRANCH   1   5
ATOM      5  C   UNL     1       3.075  43.030  68.918  1.00  0.00     0.006 C 
BRANCH   5   6
ATOM      6  C   UNL     1       2.351  43.974  67.949  1.00  0.00    -0.003 C 
ATOM      7  C   UNL     1       3.341  44.867  67.205  1.00  0.00     0.004 C 
ENDBRANCH   5   6
ENDBRANCH   1   5
TORSDOF 3
ENDMDL
MODEL 2
REMARK VINA RESULT:    -3.396      2.555      3.749
REMARK INTER + INTRA:          -4.025
REMARK INTER:                  -3.975
REMARK INTRA:                  -0.050
REMARK UNBOUND:                -0.034
REMARK SMILES CCCCC(=O)[O-]
REMARK SMILES IDX 4 1 5 2 6 3 7 4 3 5 2 6 1 7
REMARK H PARENT
REMARK Flexibility Score: inf
ROOT
ATOM      1  C   UNL     1       2.957  43.102  69.136  1.00  0.00     0.053 C 
ENDROOT
BRANCH   1   2
ATOM      2  C   UNL     1       2.510  44.098  68.112  1.00  0.00     0.041 C 
ATOM      3  O   UNL     1       3.339  44.595  67.305  1.00  0.00    -0.550 OA
ATOM      4  O   UNL     1       1.170  44.456  68.027  1.00  0.00    -0.550 OA
ENDBRANCH   1   2
BRANCH   1   5
ATOM      5  C   UNL     1       2.225  43.294  70.471  1.00  0.00     0.006 C 
BRANCH   5   6
ATOM      6  C   UNL     1       3.155  43.820  71.573  1.00  0.00    -0.003 C 
ATOM      7  C   UNL     1       4.601  43.891  71.087  1.00  0.00     0.004 C 
ENDBRANCH   5   6
ENDBRANCH   1   5
TORSDOF 3
ENDMDL
MODEL 3
REMARK VINA RESULT:    -3.191     13.556     14.745
REMARK INTER + INTRA:          -3.785
REMARK INTER:                  -3.679
REMARK INTRA:                  -0.106
REMARK UNBOUND:                -0.034
REMARK SMILES CCCCC(=O)[O-]
REMARK SMILES IDX 4 1 5 2 6 3 7 4 3 5 2 6 1 7
REMARK H PARENT
REMARK Flexibility Score: inf
ROOT
ATOM      1  C   UNL     1      17.703  40.514  74.886  1.00  0.00     0.053 C 
ENDROOT
BRANCH   1   2
ATOM      2  C   UNL     1      17.093  39.315  74.228  1.00  0.00     0.041 C 
ATOM      3  O   UNL     1      15.842  39.200  74.154  1.00  0.00    -0.550 OA
ATOM      4  O   UNL     1      17.908  38.340  73.666  1.00  0.00    -0.550 OA
ENDBRANCH   1   2
BRANCH   1   5
ATOM      5  C   UNL     1      17.704  41.734  73.955  1.00  0.00     0.006 C 
BRANCH   5   6
ATOM      6  C   UNL     1      16.753  42.836  74.441  1.00  0.00    -0.003 C 
ATOM      7  C   UNL     1      15.369  42.687  73.814  1.00  0.00     0.004 C 
ENDBRANCH   5   6
ENDBRANCH   1   5
TORSDOF 3
ENDMDL
MODEL 4
REMARK VINA RESULT:    -3.174     11.165     12.006
REMARK INTER + INTRA:          -3.764
REMARK INTER:                  -3.640
REMARK INTRA:                  -0.124
REMARK UNBOUND:                -0.034
REMARK SMILES CCCCC(=O)[O-]
REMARK SMILES IDX 4 1 5 2 6 3 7 4 3 5 2 6 1 7
REMARK H PARENT
REMARK Flexibility Score: inf
ROOT
ATOM      1  C   UNL     1       6.750  32.882  67.926  1.00  0.00     0.053 C 
ENDROOT
BRANCH   1   2
ATOM      2  C   UNL     1       7.157  34.283  67.589  1.00  0.00     0.041 C 
ATOM      3  O   UNL     1       7.933  34.919  68.349  1.00  0.00    -0.550 OA
ATOM      4  O   UNL     1       6.704  34.876  66.416  1.00  0.00    -0.550 OA
ENDBRANCH   1   2
BRANCH   1   5
ATOM      5  C   UNL     1       7.969  31.979  68.161  1.00  0.00     0.006 C 
BRANCH   5   6
ATOM      6  C   UNL     1       8.817  31.808  66.894  1.00  0.00    -0.003 C 
ATOM      7  C   UNL     1      10.305  31.960  67.202  1.00  0.00     0.004 C 
ENDBRANCH   5   6
ENDBRANCH   1   5
TORSDOF 3
ENDMDL
MODEL 5
REMARK VINA RESULT:    -3.139     12.347     13.635
REMARK INTER + INTRA:          -3.723
REMARK INTER:                  -3.687
REMARK INTRA:                  -0.035
REMARK UNBOUND:                -0.034
REMARK SMILES CCCCC(=O)[O-]
REMARK SMILES IDX 4 1 5 2 6 3 7 4 3 5 2 6 1 7
REMARK H PARENT
REMARK Flexibility Score: inf
ROOT
ATOM      1  C   UNL     1      15.475  41.875  73.908  1.00  0.00     0.053 C 
ENDROOT
BRANCH   1   2
ATOM      2  C   UNL     1      14.915  43.257  74.050  1.00  0.00     0.041 C 
ATOM      3  O   UNL     1      15.553  44.249  73.608  1.00  0.00    -0.550 OA
ATOM      4  O   UNL     1      13.673  43.447  74.643  1.00  0.00    -0.550 OA
ENDBRANCH   1   2
BRANCH   1   5
ATOM      5  C   UNL     1      16.952  41.817  74.321  1.00  0.00     0.006 C 
BRANCH   5   6
ATOM      6  C   UNL     1      17.464  40.376  74.443  1.00  0.00    -0.003 C 
ATOM      7  C   UNL     1      16.328  39.370  74.273  1.00  0.00     0.004 C 
ENDBRANCH   5   6
ENDBRANCH   1   5
TORSDOF 3
ENDMDL
MODEL 6
REMARK VINA RESULT:    -3.085      9.799     10.757
REMARK INTER + INTRA:          -3.660
REMARK INTER:                  -3.605
REMARK INTRA:                  -0.055
REMARK UNBOUND:                -0.034
REMARK SMILES CCCCC(=O)[O-]
REMARK SMILES IDX 4 1 5 2 6 3 7 4 3 5 2 6 1 7
REMARK H PARENT
REMARK Flexibility Score: inf
ROOT
ATOM      1  C   UNL     1       7.442  34.789  68.726  1.00  0.00     0.053 C 
ENDROOT
BRANCH   1   2
ATOM      2  C   UNL     1       7.343  34.233  67.339  1.00  0.00     0.041 C 
ATOM      3  O   UNL     1       6.675  34.838  66.459  1.00  0.00    -0.550 OA
ATOM      4  O   UNL     1       8.016  33.064  67.008  1.00  0.00    -0.550 OA
ENDBRANCH   1   2
BRANCH   1   5
ATOM      5  C   UNL     1       7.342  33.685  69.787  1.00  0.00     0.006 C 
BRANCH   5   6
ATOM      6  C   UNL     1       6.337  34.031  70.894  1.00  0.00    -0.003 C 
ATOM      7  C   UNL     1       5.466  35.220  70.494  1.00  0.00     0.004 C 
ENDBRANCH   5   6
ENDBRANCH   1   5
TORSDOF 3
ENDMDL
MODEL 7
REMARK VINA RESULT:    -3.040     10.922     11.850
REMARK INTER + INTRA:          -3.607
REMARK INTER:                  -3.519
REMARK INTRA:                  -0.087
REMARK UNBOUND:                -0.034
REMARK SMILES CCCCC(=O)[O-]
REMARK SMILES IDX 4 1 5 2 6 3 7 4 3 5 2 6 1 7
REMARK H PARENT
REMARK Flexibility Score: inf
ROOT
ATOM      1  C   UNL     1       7.365  33.868  67.192  1.00  0.00     0.053 C 
ENDROOT
BRANCH   1   2
ATOM      2  C   UNL     1       8.062  32.543  67.190  1.00  0.00     0.041 C 
ATOM      3  O   UNL     1       9.291  32.471  67.454  1.00  0.00    -0.550 OA
ATOM      4  O   UNL     1       7.346  31.381  66.928  1.00  0.00    -0.550 OA
ENDBRANCH   1   2
BRANCH   1   5
ATOM      5  C   UNL     1       7.775  34.722  68.400  1.00  0.00     0.006 C 
BRANCH   5   6
ATOM      6  C   UNL     1       6.734  34.672  69.526  1.00  0.00    -0.003 C 
ATOM      7  C   UNL     1       7.186  33.748  70.654  1.00  0.00     0.004 C 
ENDBRANCH   5   6
ENDBRANCH   1   5
TORSDOF 3
ENDMDL
MODEL 8
REMARK VINA RESULT:    -3.020     10.300     11.075
REMARK INTER + INTRA:          -3.584
REMARK INTER:                  -3.472
REMARK INTRA:                  -0.112
REMARK UNBOUND:                -0.034
REMARK SMILES CCCCC(=O)[O-]
REMARK SMILES IDX 4 1 5 2 6 3 7 4 3 5 2 6 1 7
REMARK H PARENT
REMARK Flexibility Score: inf
ROOT
ATOM      1  C   UNL     1       7.738  34.731  68.390  1.00  0.00     0.053 C 
ENDROOT
BRANCH   1   2
ATOM      2  C   UNL     1       6.837  34.400  69.539  1.00  0.00     0.041 C 
ATOM      3  O   UNL     1       5.592  34.554  69.435  1.00  0.00    -0.550 OA
ATOM      4  O   UNL     1       7.371  33.891  70.717  1.00  0.00    -0.550 OA
ENDBRANCH   1   2
BRANCH   1   5
ATOM      5  C   UNL     1       7.371  33.930  67.133  1.00  0.00     0.006 C 
BRANCH   5   6
ATOM      6  C   UNL     1       7.668  32.433  67.291  1.00  0.00    -0.003 C 
ATOM      7  C   UNL     1       9.171  32.163  67.257  1.00  0.00     0.004 C 
ENDBRANCH   5   6
ENDBRANCH   1   5
TORSDOF 3
ENDMDL
MODEL 9
REMARK VINA RESULT:    -2.874     15.688     16.866
REMARK INTER + INTRA:          -3.412
REMARK INTER:                  -3.315
REMARK INTRA:                  -0.096
REMARK UNBOUND:                -0.034
REMARK SMILES CCCCC(=O)[O-]
REMARK SMILES IDX 4 1 5 2 6 3 7 4 3 5 2 6 1 7
REMARK H PARENT
REMARK Flexibility Score: inf
ROOT
ATOM      1  C   UNL     1      17.875  39.093  76.584  1.00  0.00     0.053 C 
ENDROOT
BRANCH   1   2
ATOM      2  C   UNL     1      19.007  38.124  76.737  1.00  0.00     0.041 C 
ATOM      3  O   UNL     1      19.611  38.023  77.837  1.00  0.00    -0.550 OA
ATOM      4  O   UNL     1      19.374  37.310  75.673  1.00  0.00    -0.550 OA
ENDBRANCH   1   2
BRANCH   1   5
ATOM      5  C   UNL     1      18.263  40.283  75.696  1.00  0.00     0.006 C 
BRANCH   5   6
ATOM      6  C   UNL     1      17.481  40.301  74.375  1.00  0.00    -0.003 C 
ATOM      7  C   UNL     1      16.374  39.250  74.375  1.00  0.00     0.004 C 
ENDBRANCH   5   6
ENDBRANCH   1   5
TORSDOF 3
ENDMDL
