MODEL 1
REMARK VINA RESULT:    -2.499      0.000      0.000
REMARK INTER + INTRA:          -2.499
REMARK INTER:                  -2.499
REMARK INTRA:                   0.000
REMARK UNBOUND:                 0.000
REMARK SMILES CC(=O)[O-]
REMARK SMILES IDX 1 1 2 2 3 3 4 4
REMARK H PARENT
REMARK Flexibility Score: inf
ROOT
ATOM      1  C   UNL     1      17.040  20.428  10.629  1.00  0.00     0.063 C 
ATOM      2  C   UNL     1      18.001  20.895   9.590  1.00  0.00     0.038 C 
ATOM      3  O   UNL     1      17.706  20.805   8.369  1.00  0.00    -0.550 OA
ATOM      4  O   UNL     1      19.202  21.483   9.966  1.00  0.00    -0.550 OA
ENDROOT
TORSDOF 0
ENDMDL
MODEL 2
REMARK VINA RESULT:    -2.484      1.490      1.791
REMARK INTER + INTRA:          -2.484
REMARK INTER:                  -2.484
REMARK INTRA:                   0.000
REMARK UNBOUND:                 0.000
REMARK SMILES CC(=O)[O-]
REMARK SMILES IDX 1 1 2 2 3 3 4 4
REMARK H PARENT
REMARK Flexibility Score: inf
ROOT
ATOM      1  C   UNL     1      19.100  21.323   9.850  1.00  0.00     0.063 C 
ATOM      2  C   UNL     1      17.815  20.668   9.472  1.00  0.00     0.038 C 
ATOM      3  O   UNL     1      17.469  20.606   8.262  1.00  0.00    -0.550 OA
ATOM      4  O   UNL     1      17.022  20.075  10.445  1.00  0.00    -0.550 OA
ENDROOT
TORSDOF 0
ENDMDL
MODEL 3
REMARK VINA RESULT:    -2.421      4.539      5.145
REMARK INTER + INTRA:          -2.421
REMARK INTER:                  -2.421
REMARK INTRA:                   0.000
REMARK UNBOUND:                 0.000
REMARK SMILES CC(=O)[O-]
REMARK SMILES IDX 1 1 2 2 3 3 4 4
REMARK H PARENT
REMARK Flexibility Score: inf
ROOT
ATOM      1  C   UNL     1      12.982  20.343  11.602  1.00  0.00     0.063 C 
ATOM      2  C   UNL     1      13.716  19.159  11.072  1.00  0.00     0.038 C 
ATOM      3  O   UNL     1      14.750  19.317  10.368  1.00  0.00    -0.550 OA
ATOM      4  O   UNL     1      13.296  17.876  11.397  1.00  0.00    -0.550 OA
ENDROOT
TORSDOF 0
ENDMDL
MODEL 4
REMARK VINA RESULT:    -2.390     15.044     15.278
REMARK INTER + INTRA:          -2.390
REMARK INTER:                  -2.390
REMARK INTRA:                   0.000
REMARK UNBOUND:                 0.000
REMARK SMILES CC(=O)[O-]
REMARK SMILES IDX 1 1 2 2 3 3 4 4
REMARK H PARENT
REMARK Flexibility Score: inf
ROOT
ATOM      1  C   UNL     1      19.955  35.849   8.887  1.00  0.00     0.063 C 
ATOM      2  C   UNL     1      18.521  35.976   8.500  1.00  0.00     0.038 C 
ATOM      3  O   UNL     1      17.615  35.718   9.337  1.00  0.00    -0.550 OA
ATOM      4  O   UNL     1      18.178  36.433   7.234  1.00  0.00    -0.550 OA
ENDROOT
TORSDOF 0
ENDMDL
MODEL 5
REMARK VINA RESULT:    -2.386     15.229     15.574
REMARK INTER + INTRA:          -2.386
REMARK INTER:                  -2.386
REMARK INTRA:                   0.000
REMARK UNBOUND:                 0.000
REMARK SMILES CC(=O)[O-]
REMARK SMILES IDX 1 1 2 2 3 3 4 4
REMARK H PARENT
REMARK Flexibility Score: inf
ROOT
ATOM      1  C   UNL     1      17.945  36.296   6.839  1.00  0.00     0.063 C 
ATOM      2  C   UNL     1      18.530  36.271   8.211  1.00  0.00     0.038 C 
ATOM      3  O   UNL     1      19.668  36.768   8.423  1.00  0.00    -0.550 OA
ATOM      4  O   UNL     1      17.799  35.749   9.270  1.00  0.00    -0.550 OA
ENDROOT
TORSDOF 0
ENDMDL
MODEL 6
REMARK VINA RESULT:    -2.375     15.362     15.658
REMARK INTER + INTRA:          -2.375
REMARK INTER:                  -2.375
REMARK INTRA:                   0.000
REMARK UNBOUND:                 0.000
REMARK SMILES CC(=O)[O-]
REMARK SMILES IDX 1 1 2 2 3 3 4 4
REMARK H PARENT
REMARK Flexibility Score: inf
ROOT
ATOM      1  C   UNL     1      17.905  36.597   5.960  1.00  0.00     0.063 C 
ATOM      2  C   UNL     1      18.127  36.285   7.401  1.00  0.00     0.038 C 
ATOM      3  O   UNL     1      17.370  35.473   7.996  1.00  0.00    -0.550 OA
ATOM      4  O   UNL     1      19.202  36.847   8.078  1.00  0.00    -0.550 OA
ENDROOT
TORSDOF 0
ENDMDL
MODEL 7
REMARK VINA RESULT:    -2.074     11.901     12.114
REMARK INTER + INTRA:          -2.074
REMARK INTER:                  -2.074
REMARK INTRA:                   0.000
REMARK UNBOUND:                 0.000
REMARK SMILES CC(=O)[O-]
REMARK SMILES IDX 1 1 2 2 3 3 4 4
REMARK H PARENT
REMARK Flexibility Score: inf
ROOT
ATOM      1  C   UNL     1      22.826  31.405   6.955  1.00  0.00     0.063 C 
ATOM      2  C   UNL     1      22.237  32.045   8.166  1.00  0.00     0.038 C 
ATOM      3  O   UNL     1      21.332  32.913   8.046  1.00  0.00    -0.550 OA
ATOM      4  O   UNL     1      22.643  31.646   9.433  1.00  0.00    -0.550 OA
ENDROOT
TORSDOF 0
ENDMDL
MODEL 8
REMARK VINA RESULT:    -2.028     11.861     12.079
REMARK INTER + INTRA:          -2.028
REMARK INTER:                  -2.028
REMARK INTRA:                   0.000
REMARK UNBOUND:                 0.000
REMARK SMILES CC(=O)[O-]
REMARK SMILES IDX 1 1 2 2 3 3 4 4
REMARK H PARENT
REMARK Flexibility Score: inf
ROOT
ATOM      1  C   UNL     1      22.661  32.540   8.628  1.00  0.00     0.063 C 
ATOM      2  C   UNL     1      22.850  31.656   7.442  1.00  0.00     0.038 C 
ATOM      3  O   UNL     1      22.140  31.818   6.414  1.00  0.00    -0.550 OA
ATOM      4  O   UNL     1      23.845  30.688   7.446  1.00  0.00    -0.550 OA
ENDROOT
TORSDOF 0
ENDMDL
MODEL 9
REMARK VINA RESULT:    -2.019     12.191     12.362
REMARK INTER + INTRA:          -2.019
REMARK INTER:                  -2.019
REMARK INTRA:                   0.000
REMARK UNBOUND:                 0.000
REMARK SMILES CC(=O)[O-]
REMARK SMILES IDX 1 1 2 2 3 3 4 4
REMARK H PARENT
REMARK Flexibility Score: inf
ROOT
ATOM      1  C   UNL     1      23.313  31.870   8.580  1.00  0.00     0.063 C 
ATOM      2  C   UNL     1      22.153  32.224   7.713  1.00  0.00     0.038 C 
ATOM      3  O   UNL     1      21.231  32.958   8.158  1.00  0.00    -0.550 OA
ATOM      4  O   UNL     1      22.112  31.792   6.394  1.00  0.00    -0.550 OA
ENDROOT
TORSDOF 0
ENDMDL
