MODEL 1
REMARK VINA RESULT:    -3.342      0.000      0.000
REMARK INTER + INTRA:          -4.826
REMARK INTER:                  -4.318
REMARK INTRA:                  -0.507
REMARK UNBOUND:                -0.507
REMARK SMILES C=CC(=O)CCCCC
REMARK SMILES IDX 6 1 7 2 8 3 9 4 5 5 3 6 4 7 2 8 1 9
REMARK H PARENT
REMARK Flexibility Score: inf
ROOT
ATOM      1  C   UNL     1      69.975 -19.713  -9.628  1.00  0.00     0.008 C 
ENDROOT
BRANCH   1   2
ATOM      2  C   UNL     1      68.638 -19.192 -10.166  1.00  0.00     0.000 C 
BRANCH   2   3
ATOM      3  C   UNL     1      68.344 -17.784  -9.638  1.00  0.00    -0.003 C 
ATOM      4  C   UNL     1      68.997 -16.718 -10.513  1.00  0.00     0.004 C 
ENDBRANCH   2   3
ENDBRANCH   1   2
BRANCH   1   5
ATOM      5  C   UNL     1      69.972 -19.760  -8.098  1.00  0.00     0.080 C 
BRANCH   5   6
ATOM      6  C   UNL     1      71.325 -19.408  -7.555  1.00  0.00     0.155 C 
ATOM      7  O   UNL     1      72.065 -20.323  -7.101  1.00  0.00    -0.295 OA
BRANCH   6   8
ATOM      8  C   UNL     1      71.760 -17.998  -7.512  1.00  0.00     0.039 C 
ATOM      9  C   UNL     1      70.929 -17.002  -7.212  1.00  0.00     0.012 C 
ENDBRANCH   6   8
ENDBRANCH   5   6
ENDBRANCH   1   5
TORSDOF 5
ENDMDL
MODEL 2
REMARK VINA RESULT:    -3.336      1.544      2.524
REMARK INTER + INTRA:          -4.819
REMARK INTER:                  -4.549
REMARK INTRA:                  -0.270
REMARK UNBOUND:                -0.507
REMARK SMILES C=CC(=O)CCCCC
REMARK SMILES IDX 6 1 7 2 8 3 9 4 5 5 3 6 4 7 2 8 1 9
REMARK H PARENT
REMARK Flexibility Score: inf
ROOT
ATOM      1  C   UNL     1      69.917 -18.162  -9.731  1.00  0.00     0.008 C 
ENDROOT
BRANCH   1   2
ATOM      2  C   UNL     1      68.479 -18.631  -9.979  1.00  0.00     0.000 C 
BRANCH   2   3
ATOM      3  C   UNL     1      68.450 -20.081 -10.472  1.00  0.00    -0.003 C 
ATOM      4  C   UNL     1      67.104 -20.424 -11.104  1.00  0.00     0.004 C 
ENDBRANCH   2   3
ENDBRANCH   1   2
BRANCH   1   5
ATOM      5  C   UNL     1      70.050 -17.501  -8.356  1.00  0.00     0.080 C 
BRANCH   5   6
ATOM      6  C   UNL     1      71.135 -18.159  -7.557  1.00  0.00     0.155 C 
ATOM      7  O   UNL     1      72.021 -17.445  -7.012  1.00  0.00    -0.295 OA
BRANCH   6   8
ATOM      8  C   UNL     1      71.186 -19.631  -7.451  1.00  0.00     0.039 C 
ATOM      9  C   UNL     1      72.330 -20.298  -7.314  1.00  0.00     0.012 C 
ENDBRANCH   6   8
ENDBRANCH   5   6
ENDBRANCH   1   5
TORSDOF 5
ENDMDL
MODEL 3
REMARK VINA RESULT:    -3.289      1.973      2.643
REMARK INTER + INTRA:          -4.757
REMARK INTER:                  -4.512
REMARK INTRA:                  -0.245
REMARK UNBOUND:                -0.507
REMARK SMILES C=CC(=O)CCCCC
REMARK SMILES IDX 6 1 7 2 8 3 9 4 5 5 3 6 4 7 2 8 1 9
REMARK H PARENT
REMARK Flexibility Score: inf
ROOT
ATOM      1  C   UNL     1      69.210 -18.572  -8.993  1.00  0.00     0.008 C 
ENDROOT
BRANCH   1   2
ATOM      2  C   UNL     1      68.367 -18.622 -10.272  1.00  0.00     0.000 C 
BRANCH   2   3
ATOM      3  C   UNL     1      68.347 -20.035 -10.863  1.00  0.00    -0.003 C 
ATOM      4  C   UNL     1      66.919 -20.511 -11.111  1.00  0.00     0.004 C 
ENDBRANCH   2   3
ENDBRANCH   1   2
BRANCH   1   5
ATOM      5  C   UNL     1      70.150 -19.779  -8.906  1.00  0.00     0.080 C 
BRANCH   5   6
ATOM      6  C   UNL     1      71.564 -19.369  -9.191  1.00  0.00     0.155 C 
ATOM      7  O   UNL     1      71.811 -18.669 -10.210  1.00  0.00    -0.295 OA
BRANCH   6   8
ATOM      8  C   UNL     1      72.657 -19.823  -8.309  1.00  0.00     0.039 C 
ATOM      9  C   UNL     1      72.432 -20.413  -7.136  1.00  0.00     0.012 C 
ENDBRANCH   6   8
ENDBRANCH   5   6
ENDBRANCH   1   5
TORSDOF 5
ENDMDL
MODEL 4
REMARK VINA RESULT:    -3.132      1.988      3.730
REMARK INTER + INTRA:          -4.554
REMARK INTER:                  -4.016
REMARK INTRA:                  -0.538
REMARK UNBOUND:                -0.507
REMARK SMILES C=CC(=O)CCCCC
REMARK SMILES IDX 6 1 7 2 8 3 9 4 5 5 3 6 4 7 2 8 1 9
REMARK H PARENT
REMARK Flexibility Score: inf
ROOT
ATOM      1  C   UNL     1      69.933 -19.696  -8.025  1.00  0.00     0.008 C 
ENDROOT
BRANCH   1   2
ATOM      2  C   UNL     1      71.411 -19.446  -7.704  1.00  0.00     0.000 C 
BRANCH   2   3
ATOM      3  C   UNL     1      71.668 -17.962  -7.419  1.00  0.00    -0.003 C 
ATOM      4  C   UNL     1      72.274 -17.264  -8.633  1.00  0.00     0.004 C 
ENDBRANCH   2   3
ENDBRANCH   1   2
BRANCH   1   5
ATOM      5  C   UNL     1      69.720 -19.868  -9.532  1.00  0.00     0.080 C 
BRANCH   5   6
ATOM      6  C   UNL     1      68.575 -19.021 -10.004  1.00  0.00     0.155 C 
ATOM      7  O   UNL     1      67.739 -19.508 -10.813  1.00  0.00    -0.295 OA
BRANCH   6   8
ATOM      8  C   UNL     1      68.460 -17.619  -9.558  1.00  0.00     0.039 C 
ATOM      9  C   UNL     1      68.861 -16.594 -10.309  1.00  0.00     0.012 C 
ENDBRANCH   6   8
ENDBRANCH   5   6
ENDBRANCH   1   5
TORSDOF 5
ENDMDL
MODEL 5
REMARK VINA RESULT:    -3.072     13.498     14.120
REMARK INTER + INTRA:          -4.477
REMARK INTER:                  -4.167
REMARK INTRA:                  -0.310
REMARK UNBOUND:                -0.507
REMARK SMILES C=CC(=O)CCCCC
REMARK SMILES IDX 6 1 7 2 8 3 9 4 5 5 3 6 4 7 2 8 1 9
REMARK H PARENT
REMARK Flexibility Score: inf
ROOT
ATOM      1  C   UNL     1      60.665 -18.413   0.326  1.00  0.00     0.008 C 
ENDROOT
BRANCH   1   2
ATOM      2  C   UNL     1      61.662 -18.912  -0.727  1.00  0.00     0.000 C 
BRANCH   2   3
ATOM      3  C   UNL     1      61.490 -18.157  -2.049  1.00  0.00    -0.003 C 
ATOM      4  C   UNL     1      60.020 -17.866  -2.332  1.00  0.00     0.004 C 
ENDBRANCH   2   3
ENDBRANCH   1   2
BRANCH   1   5
ATOM      5  C   UNL     1      60.608 -19.365   1.524  1.00  0.00     0.080 C 
BRANCH   5   6
ATOM      6  C   UNL     1      59.196 -19.794   1.790  1.00  0.00     0.155 C 
ATOM      7  O   UNL     1      58.787 -19.871   2.981  1.00  0.00    -0.295 OA
BRANCH   6   8
ATOM      8  C   UNL     1      58.313 -20.168   0.667  1.00  0.00     0.039 C 
ATOM      9  C   UNL     1      57.007 -20.381   0.825  1.00  0.00     0.012 C 
ENDBRANCH   6   8
ENDBRANCH   5   6
ENDBRANCH   1   5
TORSDOF 5
ENDMDL
MODEL 6
REMARK VINA RESULT:    -3.039      1.839      4.304
REMARK INTER + INTRA:          -4.434
REMARK INTER:                  -4.105
REMARK INTRA:                  -0.328
REMARK UNBOUND:                -0.507
REMARK SMILES C=CC(=O)CCCCC
REMARK SMILES IDX 6 1 7 2 8 3 9 4 5 5 3 6 4 7 2 8 1 9
REMARK H PARENT
REMARK Flexibility Score: inf
ROOT
ATOM      1  C   UNL     1      69.356 -18.413  -8.393  1.00  0.00     0.008 C 
ENDROOT
BRANCH   1   2
ATOM      2  C   UNL     1      70.524 -17.591  -7.839  1.00  0.00     0.000 C 
BRANCH   2   3
ATOM      3  C   UNL     1      71.761 -18.469  -7.623  1.00  0.00    -0.003 C 
ATOM      4  C   UNL     1      71.368 -19.907  -7.297  1.00  0.00     0.004 C 
ENDBRANCH   2   3
ENDBRANCH   1   2
BRANCH   1   5
ATOM      5  C   UNL     1      68.976 -17.949  -9.802  1.00  0.00     0.080 C 
BRANCH   5   6
ATOM      6  C   UNL     1      69.433 -18.943 -10.828  1.00  0.00     0.155 C 
ATOM      7  O   UNL     1      70.665 -19.055 -11.073  1.00  0.00    -0.295 OA
BRANCH   6   8
ATOM      8  C   UNL     1      68.442 -19.746 -11.572  1.00  0.00     0.039 C 
ATOM      9  C   UNL     1      67.354 -20.254 -10.996  1.00  0.00     0.012 C 
ENDBRANCH   6   8
ENDBRANCH   5   6
ENDBRANCH   1   5
TORSDOF 5
ENDMDL
MODEL 7
REMARK VINA RESULT:    -2.996     12.416     13.139
REMARK INTER + INTRA:          -4.379
REMARK INTER:                  -3.897
REMARK INTRA:                  -0.482
REMARK UNBOUND:                -0.507
REMARK SMILES C=CC(=O)CCCCC
REMARK SMILES IDX 6 1 7 2 8 3 9 4 5 5 3 6 4 7 2 8 1 9
REMARK H PARENT
REMARK Flexibility Score: inf
ROOT
ATOM      1  C   UNL     1      58.766 -17.435  -1.757  1.00  0.00     0.008 C 
ENDROOT
BRANCH   1   2
ATOM      2  C   UNL     1      57.841 -18.599  -1.385  1.00  0.00     0.000 C 
BRANCH   2   3
ATOM      3  C   UNL     1      57.722 -18.742   0.136  1.00  0.00    -0.003 C 
ATOM      4  C   UNL     1      58.028 -20.169   0.582  1.00  0.00     0.004 C 
ENDBRANCH   2   3
ENDBRANCH   1   2
BRANCH   1   5
ATOM      5  C   UNL     1      59.962 -17.925  -2.579  1.00  0.00     0.080 C 
BRANCH   5   6
ATOM      6  C   UNL     1      61.237 -17.762  -1.805  1.00  0.00     0.155 C 
ATOM      7  O   UNL     1      61.729 -16.610  -1.661  1.00  0.00    -0.295 OA
BRANCH   6   8
ATOM      8  C   UNL     1      61.928 -18.947  -1.260  1.00  0.00     0.039 C 
ATOM      9  C   UNL     1      61.604 -19.488  -0.087  1.00  0.00     0.012 C 
ENDBRANCH   6   8
ENDBRANCH   5   6
ENDBRANCH   1   5
TORSDOF 5
ENDMDL
MODEL 8
REMARK VINA RESULT:    -2.912      2.361      3.655
REMARK INTER + INTRA:          -4.270
REMARK INTER:                  -3.720
REMARK INTRA:                  -0.550
REMARK UNBOUND:                -0.507
REMARK SMILES C=CC(=O)CCCCC
REMARK SMILES IDX 6 1 7 2 8 3 9 4 5 5 3 6 4 7 2 8 1 9
REMARK H PARENT
REMARK Flexibility Score: inf
ROOT
ATOM      1  C   UNL     1      69.925 -19.367  -9.231  1.00  0.00     0.008 C 
ENDROOT
BRANCH   1   2
ATOM      2  C   UNL     1      70.098 -20.142  -7.920  1.00  0.00     0.000 C 
BRANCH   2   3
ATOM      3  C   UNL     1      71.447 -19.823  -7.267  1.00  0.00    -0.003 C 
ATOM      4  C   UNL     1      72.568 -19.794  -8.302  1.00  0.00     0.004 C 
ENDBRANCH   2   3
ENDBRANCH   1   2
BRANCH   1   5
ATOM      5  C   UNL     1      68.961 -18.190  -9.052  1.00  0.00     0.080 C 
BRANCH   5   6
ATOM      6  C   UNL     1      69.514 -16.953  -9.695  1.00  0.00     0.155 C 
ATOM      7  O   UNL     1      68.778 -16.276 -10.464  1.00  0.00    -0.295 OA
BRANCH   6   8
ATOM      8  C   UNL     1      70.919 -16.564  -9.465  1.00  0.00     0.039 C 
ATOM      9  C   UNL     1      71.368 -16.180  -8.271  1.00  0.00     0.012 C 
ENDBRANCH   6   8
ENDBRANCH   5   6
ENDBRANCH   1   5
TORSDOF 5
ENDMDL
MODEL 9
REMARK VINA RESULT:    -2.891     13.550     14.305
REMARK INTER + INTRA:          -4.243
REMARK INTER:                  -3.802
REMARK INTRA:                  -0.441
REMARK UNBOUND:                -0.507
REMARK SMILES C=CC(=O)CCCCC
REMARK SMILES IDX 6 1 7 2 8 3 9 4 5 5 3 6 4 7 2 8 1 9
REMARK H PARENT
REMARK Flexibility Score: inf
ROOT
ATOM      1  C   UNL     1      58.909 -17.674  -1.325  1.00  0.00     0.008 C 
ENDROOT
BRANCH   1   2
ATOM      2  C   UNL     1      59.899 -17.928  -2.467  1.00  0.00     0.000 C 
BRANCH   2   3
ATOM      3  C   UNL     1      61.343 -17.938  -1.952  1.00  0.00    -0.003 C 
ATOM      4  C   UNL     1      61.499 -18.886  -0.766  1.00  0.00     0.004 C 
ENDBRANCH   2   3
ENDBRANCH   1   2
BRANCH   1   5
ATOM      5  C   UNL     1      57.697 -18.603  -1.430  1.00  0.00     0.080 C 
BRANCH   5   6
ATOM      6  C   UNL     1      57.329 -19.147  -0.082  1.00  0.00     0.155 C 
ATOM      7  O   UNL     1      56.303 -18.705   0.504  1.00  0.00    -0.295 OA
BRANCH   6   8
ATOM      8  C   UNL     1      58.191 -20.154   0.569  1.00  0.00     0.039 C 
ATOM      9  C   UNL     1      58.853 -19.906   1.698  1.00  0.00     0.012 C 
ENDBRANCH   6   8
ENDBRANCH   5   6
ENDBRANCH   1   5
TORSDOF 5
ENDMDL
