MODEL 1
REMARK VINA RESULT:    -2.827      0.000      0.000
REMARK INTER + INTRA:          -4.128
REMARK INTER:                  -3.736
REMARK INTRA:                  -0.392
REMARK UNBOUND:                -0.392
REMARK SMILES C=C[C@@H](O)CCCCC
REMARK SMILES IDX 6 1 7 2 8 3 9 4 5 5 3 6 2 7 1 8 4 9
REMARK H PARENT 4 10
REMARK Flexibility Score: inf
ROOT
ATOM      1  C   UNL     1     -38.806  23.779   6.988  1.00  0.00     0.003 C 
ENDROOT
BRANCH   1   2
ATOM      2  C   UNL     1     -38.806  24.058   5.474  1.00  0.00    -0.000 C 
BRANCH   2   3
ATOM      3  C   UNL     1     -38.166  22.955   4.611  1.00  0.00    -0.003 C 
ATOM      4  C   UNL     1     -38.952  21.644   4.637  1.00  0.00     0.004 C 
ENDBRANCH   2   3
ENDBRANCH   1   2
BRANCH   1   5
ATOM      5  C   UNL     1     -37.391  23.803   7.597  1.00  0.00     0.036 C 
BRANCH   5   6
ATOM      6  C   UNL     1     -36.874  22.444   8.121  1.00  0.00     0.136 C 
BRANCH   6   7
ATOM      7  C   UNL     1     -37.824  21.287   7.882  1.00  0.00    -0.004 C 
ATOM      8  C   UNL     1     -37.515  20.008   8.124  1.00  0.00     0.007 C 
ENDBRANCH   6   7
BRANCH   6   9
ATOM      9  O   UNL     1     -35.565  22.160   7.688  1.00  0.00    -0.389 OA
ATOM     10  H   UNL     1     -35.374  22.703   6.883  1.00  0.00     0.211 HD
ENDBRANCH   6   9
ENDBRANCH   5   6
ENDBRANCH   1   5
TORSDOF 6
ENDMDL
MODEL 2
REMARK VINA RESULT:    -2.325     20.297     21.352
REMARK INTER + INTRA:          -3.465
REMARK INTER:                  -3.187
REMARK INTRA:                  -0.278
REMARK UNBOUND:                -0.392
REMARK SMILES C=C[C@@H](O)CCCCC
REMARK SMILES IDX 6 1 7 2 8 3 9 4 5 5 3 6 2 7 1 8 4 9
REMARK H PARENT 4 10
REMARK Flexibility Score: inf
ROOT
ATOM      1  C   UNL     1     -36.091  34.032  -9.951  1.00  0.00     0.003 C 
ENDROOT
BRANCH   1   2
ATOM      2  C   UNL     1     -35.378  34.518 -11.225  1.00  0.00    -0.000 C 
BRANCH   2   3
ATOM      3  C   UNL     1     -34.596  35.835 -11.069  1.00  0.00    -0.003 C 
ATOM      4  C   UNL     1     -33.099  35.676 -11.328  1.00  0.00     0.004 C 
ENDBRANCH   2   3
ENDBRANCH   1   2
BRANCH   1   5
ATOM      5  C   UNL     1     -37.371  34.834  -9.643  1.00  0.00     0.036 C 
BRANCH   5   6
ATOM      6  C   UNL     1     -38.698  34.072  -9.861  1.00  0.00     0.136 C 
BRANCH   6   7
ATOM      7  C   UNL     1     -39.119  33.967 -11.314  1.00  0.00    -0.004 C 
ATOM      8  C   UNL     1     -39.111  32.825 -12.010  1.00  0.00     0.007 C 
ENDBRANCH   6   7
BRANCH   6   9
ATOM      9  O   UNL     1     -38.720  32.827  -9.206  1.00  0.00    -0.389 OA
ATOM     10  H   UNL     1     -38.520  32.118  -9.867  1.00  0.00     0.211 HD
ENDBRANCH   6   9
ENDBRANCH   5   6
ENDBRANCH   1   5
TORSDOF 6
ENDMDL
MODEL 3
REMARK VINA RESULT:    -0.923      2.467      4.038
REMARK INTER + INTRA:          -1.611
REMARK INTER:                  -1.341
REMARK INTRA:                  -0.271
REMARK UNBOUND:                -0.392
REMARK SMILES C=C[C@@H](O)CCCCC
REMARK SMILES IDX 6 1 7 2 8 3 9 4 5 5 3 6 2 7 1 8 4 9
REMARK H PARENT 4 10
REMARK Flexibility Score: inf
ROOT
ATOM      1  C   UNL     1     -35.682  22.579   7.776  1.00  0.00     0.003 C 
ENDROOT
BRANCH   1   2
ATOM      2  C   UNL     1     -34.734  23.295   6.796  1.00  0.00    -0.000 C 
BRANCH   2   3
ATOM      3  C   UNL     1     -33.929  24.457   7.405  1.00  0.00    -0.003 C 
ATOM      4  C   UNL     1     -32.728  24.864   6.551  1.00  0.00     0.004 C 
ENDBRANCH   2   3
ENDBRANCH   1   2
BRANCH   1   5
ATOM      5  C   UNL     1     -37.158  22.968   7.565  1.00  0.00     0.036 C 
BRANCH   5   6
ATOM      6  C   UNL     1     -38.083  21.821   7.096  1.00  0.00     0.136 C 
BRANCH   6   7
ATOM      7  C   UNL     1     -38.514  21.928   5.646  1.00  0.00    -0.004 C 
ATOM      8  C   UNL     1     -37.930  22.737   4.755  1.00  0.00     0.007 C 
ENDBRANCH   6   7
BRANCH   6   9
ATOM      9  O   UNL     1     -37.568  20.549   7.409  1.00  0.00    -0.389 OA
ATOM     10  H   UNL     1     -38.284  20.014   7.835  1.00  0.00     0.211 HD
ENDBRANCH   6   9
ENDBRANCH   5   6
ENDBRANCH   1   5
TORSDOF 6
ENDMDL
MODEL 4
REMARK VINA RESULT:    -0.424     13.794     15.213
REMARK INTER + INTRA:          -0.953
REMARK INTER:                  -1.396
REMARK INTRA:                   0.444
REMARK UNBOUND:                -0.392
REMARK SMILES C=C[C@@H](O)CCCCC
REMARK SMILES IDX 6 1 7 2 8 3 9 4 5 5 3 6 2 7 1 8 4 9
REMARK H PARENT 4 10
REMARK Flexibility Score: inf
ROOT
ATOM      1  C   UNL     1     -39.031  23.769  -7.691  1.00  0.00     0.003 C 
ENDROOT
BRANCH   1   2
ATOM      2  C   UNL     1     -38.824  24.697  -6.480  1.00  0.00    -0.000 C 
BRANCH   2   3
ATOM      3  C   UNL     1     -38.251  26.086  -6.816  1.00  0.00    -0.003 C 
ATOM      4  C   UNL     1     -38.963  26.758  -7.990  1.00  0.00     0.004 C 
ENDBRANCH   2   3
ENDBRANCH   1   2
BRANCH   1   5
ATOM      5  C   UNL     1     -37.844  23.801  -8.673  1.00  0.00     0.036 C 
BRANCH   5   6
ATOM      6  C   UNL     1     -36.457  23.537  -8.042  1.00  0.00     0.136 C 
BRANCH   6   7
ATOM      7  C   UNL     1     -35.663  22.442  -8.729  1.00  0.00    -0.004 C 
ATOM      8  C   UNL     1     -35.282  22.492 -10.010  1.00  0.00     0.007 C 
ENDBRANCH   6   7
BRANCH   6   9
ATOM      9  O   UNL     1     -35.707  24.715  -7.872  1.00  0.00    -0.389 OA
ATOM     10  H   UNL     1     -34.765  24.468  -7.697  1.00  0.00     0.211 HD
ENDBRANCH   6   9
ENDBRANCH   5   6
ENDBRANCH   1   5
TORSDOF 6
ENDMDL
