MODEL 1
REMARK VINA RESULT:    -3.713      0.000      0.000
REMARK INTER + INTRA:          -5.954
REMARK INTER:                  -5.233
REMARK INTRA:                  -0.721
REMARK UNBOUND:                -0.721
REMARK SMILES CCCCCCCCC(=O)[O-]
REMARK SMILES IDX 6 1 7 2 8 3 9 4 10 5 11 6 5 7 4 8 3 9 2 10 1 11
REMARK H PARENT
REMARK Flexibility Score: inf
ROOT
ATOM      1  C   UNL     1       2.687   2.432  -4.281  1.00  0.00     0.000 C 
ENDROOT
BRANCH   1   2
ATOM      2  C   UNL     1       1.592   1.359  -4.308  1.00  0.00     0.006 C 
BRANCH   2   3
ATOM      3  C   UNL     1       1.880   0.308  -5.384  1.00  0.00     0.053 C 
BRANCH   3   4
ATOM      4  C   UNL     1       1.143  -0.960  -5.089  1.00  0.00     0.041 C 
ATOM      5  O   UNL     1       0.589  -1.125  -3.971  1.00  0.00    -0.550 OA
ATOM      6  O   UNL     1       1.110  -1.980  -6.031  1.00  0.00    -0.550 OA
ENDBRANCH   3   4
ENDBRANCH   2   3
ENDBRANCH   1   2
BRANCH   1   7
ATOM      7  C   UNL     1       4.026   1.865  -4.767  1.00  0.00     0.000 C 
BRANCH   7   8
ATOM      8  C   UNL     1       5.118   2.038  -3.700  1.00  0.00    -0.000 C 
BRANCH   8   9
ATOM      9  C   UNL     1       5.536   0.706  -3.058  1.00  0.00    -0.000 C 
BRANCH   9  10
ATOM     10  C   UNL     1       5.391  -0.484  -4.019  1.00  0.00    -0.003 C 
ATOM     11  C   UNL     1       4.449  -1.539  -3.446  1.00  0.00     0.004 C 
ENDBRANCH   9  10
ENDBRANCH   8   9
ENDBRANCH   7   8
ENDBRANCH   1   7
TORSDOF 7
ENDMDL
MODEL 2
REMARK VINA RESULT:    -3.671      1.448      2.418
REMARK INTER + INTRA:          -5.895
REMARK INTER:                  -5.409
REMARK INTRA:                  -0.486
REMARK UNBOUND:                -0.721
REMARK SMILES CCCCCCCCC(=O)[O-]
REMARK SMILES IDX 6 1 7 2 8 3 9 4 10 5 11 6 5 7 4 8 3 9 2 10 1 11
REMARK H PARENT
REMARK Flexibility Score: inf
ROOT
ATOM      1  C   UNL     1       0.286   1.407  -5.486  1.00  0.00     0.000 C 
ENDROOT
BRANCH   1   2
ATOM      2  C   UNL     1       0.140   0.651  -4.161  1.00  0.00     0.006 C 
BRANCH   2   3
ATOM      3  C   UNL     1      -0.145  -0.834  -4.404  1.00  0.00     0.053 C 
BRANCH   3   4
ATOM      4  C   UNL     1       1.047  -1.505  -5.009  1.00  0.00     0.041 C 
ATOM      5  O   UNL     1       1.006  -1.918  -6.197  1.00  0.00    -0.550 OA
ATOM      6  O   UNL     1       2.187  -1.718  -4.244  1.00  0.00    -0.550 OA
ENDBRANCH   3   4
ENDBRANCH   2   3
ENDBRANCH   1   2
BRANCH   1   7
ATOM      7  C   UNL     1       1.591   2.211  -5.520  1.00  0.00     0.000 C 
BRANCH   7   8
ATOM      8  C   UNL     1       2.434   1.946  -4.264  1.00  0.00    -0.000 C 
BRANCH   8   9
ATOM      9  C   UNL     1       3.807   1.337  -4.588  1.00  0.00    -0.000 C 
BRANCH   9  10
ATOM     10  C   UNL     1       4.966   2.125  -3.960  1.00  0.00    -0.003 C 
ATOM     11  C   UNL     1       5.778   1.245  -3.013  1.00  0.00     0.004 C 
ENDBRANCH   9  10
ENDBRANCH   8   9
ENDBRANCH   7   8
ENDBRANCH   1   7
TORSDOF 7
ENDMDL
MODEL 3
REMARK VINA RESULT:    -3.660      1.069      1.735
REMARK INTER + INTRA:          -5.879
REMARK INTER:                  -5.287
REMARK INTRA:                  -0.592
REMARK UNBOUND:                -0.721
REMARK SMILES CCCCCCCCC(=O)[O-]
REMARK SMILES IDX 6 1 7 2 8 3 9 4 10 5 11 6 5 7 4 8 3 9 2 10 1 11
REMARK H PARENT
REMARK Flexibility Score: inf
ROOT
ATOM      1  C   UNL     1       1.433   1.384  -4.202  1.00  0.00     0.000 C 
ENDROOT
BRANCH   1   2
ATOM      2  C   UNL     1       0.184   0.782  -4.855  1.00  0.00     0.006 C 
BRANCH   2   3
ATOM      3  C   UNL     1      -0.154  -0.580  -4.242  1.00  0.00     0.053 C 
BRANCH   3   4
ATOM      4  C   UNL     1       0.844  -1.610  -4.668  1.00  0.00     0.041 C 
ATOM      5  O   UNL     1       1.457  -2.293  -3.807  1.00  0.00    -0.550 OA
ATOM      6  O   UNL     1       1.134  -1.780  -6.015  1.00  0.00    -0.550 OA
ENDBRANCH   3   4
ENDBRANCH   2   3
ENDBRANCH   1   2
BRANCH   1   7
ATOM      7  C   UNL     1       2.492   1.732  -5.255  1.00  0.00     0.000 C 
BRANCH   7   8
ATOM      8  C   UNL     1       3.906   1.426  -4.737  1.00  0.00    -0.000 C 
BRANCH   8   9
ATOM      9  C   UNL     1       4.155  -0.079  -4.550  1.00  0.00    -0.000 C 
BRANCH   9  10
ATOM     10  C   UNL     1       4.978  -0.389  -3.290  1.00  0.00    -0.003 C 
ATOM     11  C   UNL     1       5.721   0.851  -2.802  1.00  0.00     0.004 C 
ENDBRANCH   9  10
ENDBRANCH   8   9
ENDBRANCH   7   8
ENDBRANCH   1   7
TORSDOF 7
ENDMDL
MODEL 4
REMARK VINA RESULT:    -3.584      1.934      3.986
REMARK INTER + INTRA:          -5.772
REMARK INTER:                  -5.349
REMARK INTRA:                  -0.424
REMARK UNBOUND:                -0.721
REMARK SMILES CCCCCCCCC(=O)[O-]
REMARK SMILES IDX 6 1 7 2 8 3 9 4 10 5 11 6 5 7 4 8 3 9 2 10 1 11
REMARK H PARENT
REMARK Flexibility Score: inf
ROOT
ATOM      1  C   UNL     1       4.828   2.368  -3.740  1.00  0.00     0.000 C 
ENDROOT
BRANCH   1   2
ATOM      2  C   UNL     1       5.737   1.138  -3.852  1.00  0.00     0.006 C 
BRANCH   2   3
ATOM      3  C   UNL     1       5.195  -0.023  -3.014  1.00  0.00     0.053 C 
BRANCH   3   4
ATOM      4  C   UNL     1       4.757  -1.148  -3.898  1.00  0.00     0.041 C 
ATOM      5  O   UNL     1       5.546  -1.625  -4.755  1.00  0.00    -0.550 OA
ATOM      6  O   UNL     1       3.460  -1.637  -3.810  1.00  0.00    -0.550 OA
ENDBRANCH   3   4
ENDBRANCH   2   3
ENDBRANCH   1   2
BRANCH   1   7
ATOM      7  C   UNL     1       3.783   2.384  -4.861  1.00  0.00     0.000 C 
BRANCH   7   8
ATOM      8  C   UNL     1       2.377   2.104  -4.308  1.00  0.00    -0.000 C 
BRANCH   8   9
ATOM      9  C   UNL     1       1.642   1.002  -5.088  1.00  0.00    -0.000 C 
BRANCH   9  10
ATOM     10  C   UNL     1       0.116   1.094  -4.943  1.00  0.00    -0.003 C 
ATOM     11  C   UNL     1      -0.386   0.172  -3.834  1.00  0.00     0.004 C 
ENDBRANCH   9  10
ENDBRANCH   8   9
ENDBRANCH   7   8
ENDBRANCH   1   7
TORSDOF 7
ENDMDL
MODEL 5
REMARK VINA RESULT:    -3.531      2.058      4.087
REMARK INTER + INTRA:          -5.696
REMARK INTER:                  -5.046
REMARK INTRA:                  -0.651
REMARK UNBOUND:                -0.721
REMARK SMILES CCCCCCCCC(=O)[O-]
REMARK SMILES IDX 6 1 7 2 8 3 9 4 10 5 11 6 5 7 4 8 3 9 2 10 1 11
REMARK H PARENT
REMARK Flexibility Score: inf
ROOT
ATOM      1  C   UNL     1       2.526   1.805  -4.220  1.00  0.00     0.000 C 
ENDROOT
BRANCH   1   2
ATOM      2  C   UNL     1       3.545   0.831  -4.824  1.00  0.00     0.006 C 
BRANCH   2   3
ATOM      3  C   UNL     1       4.608   0.441  -3.793  1.00  0.00     0.053 C 
BRANCH   3   4
ATOM      4  C   UNL     1       4.712  -1.048  -3.684  1.00  0.00     0.041 C 
ATOM      5  O   UNL     1       5.333  -1.706  -4.559  1.00  0.00    -0.550 OA
ATOM      6  O   UNL     1       4.079  -1.714  -2.642  1.00  0.00    -0.550 OA
ENDBRANCH   3   4
ENDBRANCH   2   3
ENDBRANCH   1   2
BRANCH   1   7
ATOM      7  C   UNL     1       1.240   1.842  -5.054  1.00  0.00     0.000 C 
BRANCH   7   8
ATOM      8  C   UNL     1       0.377   0.598  -4.792  1.00  0.00    -0.000 C 
BRANCH   8   9
ATOM      9  C   UNL     1       0.144  -0.239  -6.060  1.00  0.00    -0.000 C 
BRANCH   9  10
ATOM     10  C   UNL     1       0.871  -1.592  -6.016  1.00  0.00    -0.003 C 
ATOM     11  C   UNL     1       1.136  -2.025  -4.577  1.00  0.00     0.004 C 
ENDBRANCH   9  10
ENDBRANCH   8   9
ENDBRANCH   7   8
ENDBRANCH   1   7
TORSDOF 7
ENDMDL
MODEL 6
REMARK VINA RESULT:    -3.520      1.874      3.287
REMARK INTER + INTRA:          -5.682
REMARK INTER:                  -5.334
REMARK INTRA:                  -0.348
REMARK UNBOUND:                -0.721
REMARK SMILES CCCCCCCCC(=O)[O-]
REMARK SMILES IDX 6 1 7 2 8 3 9 4 10 5 11 6 5 7 4 8 3 9 2 10 1 11
REMARK H PARENT
REMARK Flexibility Score: inf
ROOT
ATOM      1  C   UNL     1       1.357   1.387  -4.116  1.00  0.00     0.000 C 
ENDROOT
BRANCH   1   2
ATOM      2  C   UNL     1       0.227   0.818  -4.982  1.00  0.00     0.006 C 
BRANCH   2   3
ATOM      3  C   UNL     1      -0.173  -0.583  -4.512  1.00  0.00     0.053 C 
BRANCH   3   4
ATOM      4  C   UNL     1       0.903  -1.571  -4.832  1.00  0.00     0.041 C 
ATOM      5  O   UNL     1       1.238  -1.778  -6.027  1.00  0.00    -0.550 OA
ATOM      6  O   UNL     1       1.502  -2.300  -3.813  1.00  0.00    -0.550 OA
ENDBRANCH   3   4
ENDBRANCH   2   3
ENDBRANCH   1   2
BRANCH   1   7
ATOM      7  C   UNL     1       2.370   2.158  -4.970  1.00  0.00     0.000 C 
BRANCH   7   8
ATOM      8  C   UNL     1       3.789   2.021  -4.397  1.00  0.00    -0.000 C 
BRANCH   8   9
ATOM      9  C   UNL     1       4.283   3.310  -3.720  1.00  0.00    -0.000 C 
BRANCH   9  10
ATOM     10  C   UNL     1       3.513   4.554  -4.187  1.00  0.00    -0.003 C 
ATOM     11  C   UNL     1       3.941   5.790  -3.401  1.00  0.00     0.004 C 
ENDBRANCH   9  10
ENDBRANCH   8   9
ENDBRANCH   7   8
ENDBRANCH   1   7
TORSDOF 7
ENDMDL
MODEL 7
REMARK VINA RESULT:    -3.509      3.042      4.880
REMARK INTER + INTRA:          -5.666
REMARK INTER:                  -5.300
REMARK INTRA:                  -0.366
REMARK UNBOUND:                -0.721
REMARK SMILES CCCCCCCCC(=O)[O-]
REMARK SMILES IDX 6 1 7 2 8 3 9 4 10 5 11 6 5 7 4 8 3 9 2 10 1 11
REMARK H PARENT
REMARK Flexibility Score: inf
ROOT
ATOM      1  C   UNL     1       4.861   1.894  -4.870  1.00  0.00     0.000 C 
ENDROOT
BRANCH   1   2
ATOM      2  C   UNL     1       5.806   1.670  -3.684  1.00  0.00     0.006 C 
BRANCH   2   3
ATOM      3  C   UNL     1       5.456   0.377  -2.941  1.00  0.00     0.053 C 
BRANCH   3   4
ATOM      4  C   UNL     1       5.431  -0.781  -3.887  1.00  0.00     0.041 C 
ATOM      5  O   UNL     1       4.387  -1.472  -4.016  1.00  0.00    -0.550 OA
ATOM      6  O   UNL     1       6.577  -1.130  -4.590  1.00  0.00    -0.550 OA
ENDBRANCH   3   4
ENDBRANCH   2   3
ENDBRANCH   1   2
BRANCH   1   7
ATOM      7  C   UNL     1       3.604   2.659  -4.436  1.00  0.00     0.000 C 
BRANCH   7   8
ATOM      8  C   UNL     1       3.953   3.765  -3.428  1.00  0.00    -0.000 C 
BRANCH   8   9
ATOM      9  C   UNL     1       4.304   5.097  -4.108  1.00  0.00    -0.000 C 
BRANCH   9  10
ATOM     10  C   UNL     1       3.855   6.315  -3.287  1.00  0.00    -0.003 C 
ATOM     11  C   UNL     1       2.633   6.979  -3.915  1.00  0.00     0.004 C 
ENDBRANCH   9  10
ENDBRANCH   8   9
ENDBRANCH   7   8
ENDBRANCH   1   7
TORSDOF 7
ENDMDL
MODEL 8
REMARK VINA RESULT:    -3.405      2.492      4.083
REMARK INTER + INTRA:          -5.520
REMARK INTER:                  -5.261
REMARK INTRA:                  -0.259
REMARK UNBOUND:                -0.721
REMARK SMILES CCCCCCCCC(=O)[O-]
REMARK SMILES IDX 6 1 7 2 8 3 9 4 10 5 11 6 5 7 4 8 3 9 2 10 1 11
REMARK H PARENT
REMARK Flexibility Score: inf
ROOT
ATOM      1  C   UNL     1       3.859   1.311  -4.182  1.00  0.00     0.000 C 
ENDROOT
BRANCH   1   2
ATOM      2  C   UNL     1       2.416   1.715  -4.508  1.00  0.00     0.006 C 
BRANCH   2   3
ATOM      3  C   UNL     1       1.581   0.494  -4.907  1.00  0.00     0.053 C 
BRANCH   3   4
ATOM      4  C   UNL     1       0.144   0.704  -4.551  1.00  0.00     0.041 C 
ATOM      5  O   UNL     1      -0.577   1.465  -5.248  1.00  0.00    -0.550 OA
ATOM      6  O   UNL     1      -0.388   0.097  -3.421  1.00  0.00    -0.550 OA
ENDBRANCH   3   4
ENDBRANCH   2   3
ENDBRANCH   1   2
BRANCH   1   7
ATOM      7  C   UNL     1       4.698   2.533  -3.790  1.00  0.00     0.000 C 
BRANCH   7   8
ATOM      8  C   UNL     1       3.799   3.734  -3.457  1.00  0.00    -0.000 C 
BRANCH   8   9
ATOM      9  C   UNL     1       4.296   5.041  -4.095  1.00  0.00    -0.000 C 
BRANCH   9  10
ATOM     10  C   UNL     1       3.898   6.282  -3.283  1.00  0.00    -0.003 C 
ATOM     11  C   UNL     1       2.692   6.981  -3.905  1.00  0.00     0.004 C 
ENDBRANCH   9  10
ENDBRANCH   8   9
ENDBRANCH   7   8
ENDBRANCH   1   7
TORSDOF 7
ENDMDL
MODEL 9
REMARK VINA RESULT:    -3.362     13.247     14.993
REMARK INTER + INTRA:          -5.458
REMARK INTER:                  -4.994
REMARK INTRA:                  -0.465
REMARK UNBOUND:                -0.721
REMARK SMILES CCCCCCCCC(=O)[O-]
REMARK SMILES IDX 6 1 7 2 8 3 9 4 10 5 11 6 5 7 4 8 3 9 2 10 1 11
REMARK H PARENT
REMARK Flexibility Score: inf
ROOT
ATOM      1  C   UNL     1       7.240  -7.265   6.002  1.00  0.00     0.000 C 
ENDROOT
BRANCH   1   2
ATOM      2  C   UNL     1       7.231  -7.428   4.478  1.00  0.00     0.006 C 
BRANCH   2   3
ATOM      3  C   UNL     1       8.476  -8.181   3.999  1.00  0.00     0.053 C 
BRANCH   3   4
ATOM      4  C   UNL     1       8.111  -9.556   3.537  1.00  0.00     0.041 C 
ATOM      5  O   UNL     1       7.674 -10.406   4.356  1.00  0.00    -0.550 OA
ATOM      6  O   UNL     1       8.300  -9.915   2.208  1.00  0.00    -0.550 OA
ENDBRANCH   3   4
ENDBRANCH   2   3
ENDBRANCH   1   2
BRANCH   1   7
ATOM      7  C   UNL     1       8.592  -7.680   6.593  1.00  0.00     0.000 C 
BRANCH   7   8
ATOM      8  C   UNL     1       8.407  -8.412   7.931  1.00  0.00    -0.000 C 
BRANCH   8   9
ATOM      9  C   UNL     1       8.380  -9.940   7.773  1.00  0.00    -0.000 C 
BRANCH   9  10
ATOM     10  C   UNL     1       7.708 -10.645   8.960  1.00  0.00    -0.003 C 
ATOM     11  C   UNL     1       7.742  -9.769  10.209  1.00  0.00     0.004 C 
ENDBRANCH   9  10
ENDBRANCH   8   9
ENDBRANCH   7   8
ENDBRANCH   1   7
TORSDOF 7
ENDMDL
