MODEL 1
REMARK VINA RESULT:    -6.660      0.000      0.000
REMARK INTER + INTRA:         -12.627
REMARK INTER:                 -10.554
REMARK INTRA:                  -2.073
REMARK UNBOUND:                -2.073
REMARK SMILES C[C@@H]1O[C@@H](O[C@H]2[C@H](Oc3cc(O)c4c(c3)O[C@H](c3ccc(O)cc3)CC4=O)O[C@H](CO)[C@H](O)[C@H]2O)[C@@H](O)[C@H](O)[C@@H]1O
REMARK SMILES IDX 6 1 34 2 32 3 29 4 28 5 7 6 5 7 4 8 1 9 2 10 40 11 3 12
REMARK SMILES IDX 38 13 36 14 41 15 39 17 37 19 35 21 8 23 9 24 10 25 15 26
REMARK SMILES IDX 11 27 14 28 13 29 16 30 26 31 17 32 27 33 25 34 12 35 18 37
REMARK SMILES IDX 19 38 24 39 20 40 23 41 21 42 22 43 33 45 30 47 31 48
REMARK H PARENT 41 16 39 18 37 20 35 22 12 36 22 44 33 46 31 49
REMARK Flexibility Score: inf
ROOT
ATOM      1  C   UNL     1      18.174  28.303  18.559  1.00  0.00     0.221 C 
ATOM      2  C   UNL     1      16.858  28.760  17.916  1.00  0.00     0.181 C 
ATOM      3  C   UNL     1      17.098  29.091  16.441  1.00  0.00     0.177 C 
ATOM      4  C   UNL     1      18.275  30.089  16.273  1.00  0.00     0.179 C 
ATOM      5  O   UNL     1      19.455  29.673  16.954  1.00  0.00    -0.332 OA
ATOM      6  C   UNL     1      19.259  29.375  18.332  1.00  0.00     0.339 C 
ENDROOT
BRANCH   1   7
ATOM      7  O   UNL     1      18.567  27.072  17.970  1.00  0.00    -0.337 OA
BRANCH   7   8
ATOM      8  C   UNL     1      19.156  26.177  18.908  1.00  0.00     0.282 C 
ATOM      9  C   UNL     1      21.805  24.842  16.721  1.00  0.00     0.041 C 
ATOM     10  C   UNL     1      20.381  25.099  17.216  1.00  0.00     0.150 C 
ATOM     11  C   UNL     1      19.596  23.779  17.354  1.00  0.00     0.174 C 
ATOM     12  O   UNL     1      20.444  25.781  18.459  1.00  0.00    -0.344 OA
ATOM     13  C   UNL     1      18.176  24.087  17.855  1.00  0.00     0.179 C 
ATOM     14  C   UNL     1      18.242  24.950  19.129  1.00  0.00     0.202 C 
BRANCH  11  15
ATOM     15  O   UNL     1      20.257  22.925  18.256  1.00  0.00    -0.388 OA
ATOM     16  H   UNL     1      20.245  22.016  17.858  1.00  0.00     0.211 HD
ENDBRANCH  11  15
BRANCH  13  17
ATOM     17  O   UNL     1      17.496  22.886  18.112  1.00  0.00    -0.387 OA
ATOM     18  H   UNL     1      16.887  22.729  17.343  1.00  0.00     0.211 HD
ENDBRANCH  13  17
BRANCH  14  19
ATOM     19  O   UNL     1      16.949  25.370  19.477  1.00  0.00    -0.385 OA
ATOM     20  H   UNL     1      16.703  24.886  20.309  1.00  0.00     0.211 HD
ENDBRANCH  14  19
ENDBRANCH   7   8
ENDBRANCH   1   7
BRANCH   2  21
ATOM     21  O   UNL     1      15.890  27.747  18.015  1.00  0.00    -0.387 OA
ATOM     22  H   UNL     1      16.379  26.891  18.123  1.00  0.00     0.211 HD
ENDBRANCH   2  21
BRANCH   6  23
ATOM     23  O   UNL     1      18.965  30.551  19.090  1.00  0.00    -0.462 OA
BRANCH  23  24
ATOM     24  C   UNL     1      19.603  30.927  20.282  1.00  0.00     0.130 A 
ATOM     25  C   UNL     1      20.089  29.988  21.211  1.00  0.00     0.093 A 
ATOM     26  C   UNL     1      19.760  32.291  20.544  1.00  0.00     0.094 A 
ATOM     27  C   UNL     1      20.702  30.412  22.401  1.00  0.00     0.133 A 
ATOM     28  C   UNL     1      20.389  32.723  21.713  1.00  0.00     0.138 A 
ATOM     29  C   UNL     1      20.846  31.789  22.662  1.00  0.00     0.102 A 
ATOM     30  O   UNL     1      20.553  34.096  21.937  1.00  0.00    -0.484 OA
ATOM     31  C   UNL     1      21.426  32.313  23.922  1.00  0.00     0.174 C 
ATOM     32  C   UNL     1      21.457  34.612  22.918  1.00  0.00     0.211 C 
ATOM     33  O   UNL     1      21.941  31.541  24.774  1.00  0.00    -0.294 OA
ATOM     34  C   UNL     1      21.345  33.785  24.216  1.00  0.00     0.131 C 
BRANCH  27  35
ATOM     35  O   UNL     1      21.154  29.465  23.320  1.00  0.00    -0.507 OA
ATOM     36  H   UNL     1      20.530  29.041  23.997  1.00  0.00     0.293 HD
ENDBRANCH  27  35
BRANCH  32  37
ATOM     37  C   UNL     1      22.851  34.711  22.312  1.00  0.00    -0.007 A 
ATOM     38  C   UNL     1      22.955  35.061  20.953  1.00  0.00     0.011 A 
ATOM     39  C   UNL     1      24.041  34.472  23.038  1.00  0.00     0.011 A 
ATOM     40  C   UNL     1      24.203  35.170  20.335  1.00  0.00     0.046 A 
ATOM     41  C   UNL     1      25.287  34.583  22.414  1.00  0.00     0.046 A 
ATOM     42  C   UNL     1      25.371  34.933  21.062  1.00  0.00     0.115 A 
BRANCH  42  43
ATOM     43  O   UNL     1      26.608  35.049  20.432  1.00  0.00    -0.508 OA
ATOM     44  H   UNL     1      27.475  34.925  20.942  1.00  0.00     0.293 HD
ENDBRANCH  42  43
ENDBRANCH  32  37
ENDBRANCH  23  24
ENDBRANCH   6  23
BRANCH   3  45
ATOM     45  O   UNL     1      15.916  29.599  15.875  1.00  0.00    -0.387 OA
ATOM     46  H   UNL     1      15.685  29.005  15.114  1.00  0.00     0.211 HD
ENDBRANCH   3  45
BRANCH   4  47
ATOM     47  C   UNL     1      17.916  31.563  16.577  1.00  0.00     0.191 C 
BRANCH  47  48
ATOM     48  O   UNL     1      19.073  32.345  16.716  1.00  0.00    -0.394 OA
ATOM     49  H   UNL     1      19.631  32.171  15.915  1.00  0.00     0.210 HD
ENDBRANCH  47  48
ENDBRANCH   4  47
TORSDOF 14
ENDMDL
MODEL 2
REMARK VINA RESULT:    -6.311      4.430      8.781
REMARK INTER + INTRA:         -12.074
REMARK INTER:                 -11.595
REMARK INTRA:                  -0.479
REMARK UNBOUND:                -2.073
REMARK SMILES C[C@@H]1O[C@@H](O[C@H]2[C@H](Oc3cc(O)c4c(c3)O[C@H](c3ccc(O)cc3)CC4=O)O[C@H](CO)[C@H](O)[C@H]2O)[C@@H](O)[C@H](O)[C@@H]1O
REMARK SMILES IDX 6 1 34 2 32 3 29 4 28 5 7 6 5 7 4 8 1 9 2 10 40 11 3 12
REMARK SMILES IDX 38 13 36 14 41 15 39 17 37 19 35 21 8 23 9 24 10 25 15 26
REMARK SMILES IDX 11 27 14 28 13 29 16 30 26 31 17 32 27 33 25 34 12 35 18 37
REMARK SMILES IDX 19 38 24 39 20 40 23 41 21 42 22 43 33 45 30 47 31 48
REMARK H PARENT 41 16 39 18 37 20 35 22 12 36 22 44 33 46 31 49
REMARK Flexibility Score: inf
ROOT
ATOM      1  C   UNL     1      21.375  32.577  23.671  1.00  0.00     0.221 C 
ATOM      2  C   UNL     1      21.047  31.115  23.339  1.00  0.00     0.181 C 
ATOM      3  C   UNL     1      20.866  30.962  21.826  1.00  0.00     0.177 C 
ATOM      4  C   UNL     1      19.842  31.990  21.276  1.00  0.00     0.179 C 
ATOM      5  O   UNL     1      20.129  33.327  21.675  1.00  0.00    -0.332 OA
ATOM      6  C   UNL     1      20.286  33.496  23.079  1.00  0.00     0.339 C 
ENDROOT
BRANCH   1   7
ATOM      7  O   UNL     1      22.643  32.898  23.119  1.00  0.00    -0.337 OA
BRANCH   7   8
ATOM      8  C   UNL     1      22.744  34.264  22.729  1.00  0.00     0.282 C 
ATOM      9  C   UNL     1      23.002  33.722  19.093  1.00  0.00     0.041 C 
ATOM     10  C   UNL     1      23.428  33.667  20.561  1.00  0.00     0.150 C 
ATOM     11  C   UNL     1      24.849  34.237  20.747  1.00  0.00     0.174 C 
ATOM     12  O   UNL     1      22.487  34.392  21.338  1.00  0.00    -0.344 OA
ATOM     13  C   UNL     1      25.230  34.164  22.234  1.00  0.00     0.179 C 
ATOM     14  C   UNL     1      24.137  34.826  23.093  1.00  0.00     0.202 C 
BRANCH  11  15
ATOM     15  O   UNL     1      24.888  35.571  20.299  1.00  0.00    -0.388 OA
ATOM     16  H   UNL     1      24.521  36.133  21.029  1.00  0.00     0.211 HD
ENDBRANCH  11  15
BRANCH  13  17
ATOM     17  O   UNL     1      26.464  34.800  22.436  1.00  0.00    -0.387 OA
ATOM     18  H   UNL     1      27.100  34.415  21.776  1.00  0.00     0.211 HD
ENDBRANCH  13  17
BRANCH  14  19
ATOM     19  O   UNL     1      24.407  34.601  24.451  1.00  0.00    -0.385 OA
ATOM     20  H   UNL     1      25.195  33.998  24.493  1.00  0.00     0.211 HD
ENDBRANCH  14  19
ENDBRANCH   7   8
ENDBRANCH   1   7
BRANCH   2  21
ATOM     21  O   UNL     1      22.085  30.273  23.771  1.00  0.00    -0.387 OA
ATOM     22  H   UNL     1      22.004  29.429  23.256  1.00  0.00     0.211 HD
ENDBRANCH   2  21
BRANCH   6  23
ATOM     23  O   UNL     1      19.050  33.316  23.774  1.00  0.00    -0.462 OA
BRANCH  23  24
ATOM     24  C   UNL     1      18.794  33.728  25.091  1.00  0.00     0.130 A 
ATOM     25  C   UNL     1      17.580  33.455  25.749  1.00  0.00     0.093 A 
ATOM     26  C   UNL     1      19.793  34.433  25.768  1.00  0.00     0.094 A 
ATOM     27  C   UNL     1      17.360  33.907  27.060  1.00  0.00     0.133 A 
ATOM     28  C   UNL     1      19.594  34.867  27.080  1.00  0.00     0.138 A 
ATOM     29  C   UNL     1      18.369  34.627  27.731  1.00  0.00     0.102 A 
ATOM     30  O   UNL     1      20.622  35.551  27.741  1.00  0.00    -0.484 OA
ATOM     31  C   UNL     1      18.188  35.188  29.091  1.00  0.00     0.174 C 
ATOM     32  C   UNL     1      20.636  35.736  29.159  1.00  0.00     0.211 C 
ATOM     33  O   UNL     1      17.158  34.934  29.770  1.00  0.00    -0.294 OA
ATOM     34  C   UNL     1      19.224  36.125  29.647  1.00  0.00     0.131 C 
BRANCH  27  35
ATOM     35  O   UNL     1      16.140  33.647  27.684  1.00  0.00    -0.507 OA
ATOM     36  H   UNL     1      15.871  32.709  27.957  1.00  0.00     0.293 HD
ENDBRANCH  27  35
BRANCH  32  37
ATOM     37  C   UNL     1      21.251  34.508  29.818  1.00  0.00    -0.007 A 
ATOM     38  C   UNL     1      21.899  34.680  31.055  1.00  0.00     0.011 A 
ATOM     39  C   UNL     1      21.205  33.211  29.257  1.00  0.00     0.011 A 
ATOM     40  C   UNL     1      22.485  33.596  31.714  1.00  0.00     0.046 A 
ATOM     41  C   UNL     1      21.792  32.130  29.921  1.00  0.00     0.046 A 
ATOM     42  C   UNL     1      22.432  32.319  31.151  1.00  0.00     0.115 A 
BRANCH  42  43
ATOM     43  O   UNL     1      23.017  31.248  31.821  1.00  0.00    -0.508 OA
ATOM     44  H   UNL     1      23.668  31.394  32.586  1.00  0.00     0.293 HD
ENDBRANCH  42  43
ENDBRANCH  32  37
ENDBRANCH  23  24
ENDBRANCH   6  23
BRANCH   3  45
ATOM     45  O   UNL     1      20.475  29.645  21.531  1.00  0.00    -0.387 OA
ATOM     46  H   UNL     1      20.342  29.600  20.549  1.00  0.00     0.211 HD
ENDBRANCH   3  45
BRANCH   4  47
ATOM     47  C   UNL     1      18.360  31.615  21.523  1.00  0.00     0.191 C 
BRANCH  47  48
ATOM     48  O   UNL     1      17.979  30.520  20.732  1.00  0.00    -0.394 OA
ATOM     49  H   UNL     1      18.770  29.924  20.672  1.00  0.00     0.210 HD
ENDBRANCH  47  48
ENDBRANCH   4  47
TORSDOF 14
ENDMDL
MODEL 3
REMARK VINA RESULT:    -6.275      2.278      3.882
REMARK INTER + INTRA:         -12.017
REMARK INTER:                 -10.305
REMARK INTRA:                  -1.712
REMARK UNBOUND:                -2.073
REMARK SMILES C[C@@H]1O[C@@H](O[C@H]2[C@H](Oc3cc(O)c4c(c3)O[C@H](c3ccc(O)cc3)CC4=O)O[C@H](CO)[C@H](O)[C@H]2O)[C@@H](O)[C@H](O)[C@@H]1O
REMARK SMILES IDX 6 1 34 2 32 3 29 4 28 5 7 6 5 7 4 8 1 9 2 10 40 11 3 12
REMARK SMILES IDX 38 13 36 14 41 15 39 17 37 19 35 21 8 23 9 24 10 25 15 26
REMARK SMILES IDX 11 27 14 28 13 29 16 30 26 31 17 32 27 33 25 34 12 35 18 37
REMARK SMILES IDX 19 38 24 39 20 40 23 41 21 42 22 43 33 45 30 47 31 48
REMARK H PARENT 41 16 39 18 37 20 35 22 12 36 22 44 33 46 31 49
REMARK Flexibility Score: inf
ROOT
ATOM      1  C   UNL     1      18.799  25.712  18.207  1.00  0.00     0.221 C 
ATOM      2  C   UNL     1      17.379  25.397  17.718  1.00  0.00     0.181 C 
ATOM      3  C   UNL     1      17.203  25.920  16.290  1.00  0.00     0.177 C 
ATOM      4  C   UNL     1      17.598  27.417  16.186  1.00  0.00     0.179 C 
ATOM      5  O   UNL     1      18.888  27.687  16.728  1.00  0.00    -0.332 OA
ATOM      6  C   UNL     1      19.070  27.224  18.062  1.00  0.00     0.339 C 
ENDROOT
BRANCH   1   7
ATOM      7  O   UNL     1      19.726  24.969  17.431  1.00  0.00    -0.337 OA
BRANCH   7   8
ATOM      8  C   UNL     1      20.548  24.118  18.223  1.00  0.00     0.282 C 
ATOM      9  C   UNL     1      23.814  25.289  16.980  1.00  0.00     0.041 C 
ATOM     10  C   UNL     1      22.440  24.618  16.921  1.00  0.00     0.150 C 
ATOM     11  C   UNL     1      22.545  23.190  16.349  1.00  0.00     0.174 C 
ATOM     12  O   UNL     1      21.884  24.600  18.227  1.00  0.00    -0.344 OA
ATOM     13  C   UNL     1      21.145  22.557  16.314  1.00  0.00     0.179 C 
ATOM     14  C   UNL     1      20.482  22.665  17.699  1.00  0.00     0.202 C 
BRANCH  11  15
ATOM     15  O   UNL     1      23.408  22.419  17.151  1.00  0.00    -0.388 OA
ATOM     16  H   UNL     1      24.292  22.410  16.700  1.00  0.00     0.211 HD
ENDBRANCH  11  15
BRANCH  13  17
ATOM     17  O   UNL     1      21.245  21.214  15.921  1.00  0.00    -0.387 OA
ATOM     18  H   UNL     1      20.321  20.893  15.748  1.00  0.00     0.211 HD
ENDBRANCH  13  17
BRANCH  14  19
ATOM     19  O   UNL     1      19.145  22.245  17.612  1.00  0.00    -0.385 OA
ATOM     20  H   UNL     1      18.609  22.872  18.164  1.00  0.00     0.211 HD
ENDBRANCH  14  19
ENDBRANCH   7   8
ENDBRANCH   1   7
BRANCH   2  21
ATOM     21  O   UNL     1      17.154  24.010  17.737  1.00  0.00    -0.387 OA
ATOM     22  H   UNL     1      16.484  23.837  18.449  1.00  0.00     0.211 HD
ENDBRANCH   2  21
BRANCH   6  23
ATOM     23  O   UNL     1      18.276  27.965  18.991  1.00  0.00    -0.462 OA
BRANCH  23  24
ATOM     24  C   UNL     1      18.528  29.283  19.400  1.00  0.00     0.130 A 
ATOM     25  C   UNL     1      17.508  30.243  19.540  1.00  0.00     0.093 A 
ATOM     26  C   UNL     1      19.849  29.646  19.681  1.00  0.00     0.094 A 
ATOM     27  C   UNL     1      17.811  31.556  19.931  1.00  0.00     0.133 A 
ATOM     28  C   UNL     1      20.159  30.943  20.093  1.00  0.00     0.138 A 
ATOM     29  C   UNL     1      19.147  31.916  20.201  1.00  0.00     0.102 A 
ATOM     30  O   UNL     1      21.488  31.270  20.391  1.00  0.00    -0.484 OA
ATOM     31  C   UNL     1      19.552  33.296  20.559  1.00  0.00     0.174 C 
ATOM     32  C   UNL     1      21.845  32.447  21.122  1.00  0.00     0.211 C 
ATOM     33  O   UNL     1      18.694  34.195  20.766  1.00  0.00    -0.294 OA
ATOM     34  C   UNL     1      21.013  33.646  20.618  1.00  0.00     0.131 C 
BRANCH  27  35
ATOM     35  O   UNL     1      16.788  32.498  20.038  1.00  0.00    -0.507 OA
ATOM     36  H   UNL     1      16.977  33.464  20.277  1.00  0.00     0.293 HD
ENDBRANCH  27  35
BRANCH  32  37
ATOM     37  C   UNL     1      21.754  32.156  22.615  1.00  0.00    -0.007 A 
ATOM     38  C   UNL     1      21.898  33.235  23.505  1.00  0.00     0.011 A 
ATOM     39  C   UNL     1      21.534  30.867  23.150  1.00  0.00     0.011 A 
ATOM     40  C   UNL     1      21.825  33.039  24.886  1.00  0.00     0.046 A 
ATOM     41  C   UNL     1      21.460  30.676  24.533  1.00  0.00     0.046 A 
ATOM     42  C   UNL     1      21.605  31.761  25.405  1.00  0.00     0.115 A 
BRANCH  42  43
ATOM     43  O   UNL     1      21.532  31.582  26.783  1.00  0.00    -0.508 OA
ATOM     44  H   UNL     1      21.372  32.362  27.411  1.00  0.00     0.293 HD
ENDBRANCH  42  43
ENDBRANCH  32  37
ENDBRANCH  23  24
ENDBRANCH   6  23
BRANCH   3  45
ATOM     45  O   UNL     1      15.875  25.714  15.875  1.00  0.00    -0.387 OA
ATOM     46  H   UNL     1      15.914  25.424  14.927  1.00  0.00     0.211 HD
ENDBRANCH   3  45
BRANCH   4  47
ATOM     47  C   UNL     1      16.528  28.402  16.713  1.00  0.00     0.191 C 
BRANCH  47  48
ATOM     48  O   UNL     1      16.791  29.712  16.279  1.00  0.00    -0.394 OA
ATOM     49  H   UNL     1      16.901  30.264  17.095  1.00  0.00     0.210 HD
ENDBRANCH  47  48
ENDBRANCH   4  47
TORSDOF 14
ENDMDL
MODEL 4
REMARK VINA RESULT:    -6.165      6.341     12.273
REMARK INTER + INTRA:         -11.843
REMARK INTER:                 -10.348
REMARK INTRA:                  -1.495
REMARK UNBOUND:                -2.073
REMARK SMILES C[C@@H]1O[C@@H](O[C@H]2[C@H](Oc3cc(O)c4c(c3)O[C@H](c3ccc(O)cc3)CC4=O)O[C@H](CO)[C@H](O)[C@H]2O)[C@@H](O)[C@H](O)[C@@H]1O
REMARK SMILES IDX 6 1 34 2 32 3 29 4 28 5 7 6 5 7 4 8 1 9 2 10 40 11 3 12
REMARK SMILES IDX 38 13 36 14 41 15 39 17 37 19 35 21 8 23 9 24 10 25 15 26
REMARK SMILES IDX 11 27 14 28 13 29 16 30 26 31 17 32 27 33 25 34 12 35 18 37
REMARK SMILES IDX 19 38 24 39 20 40 23 41 21 42 22 43 33 45 30 47 31 48
REMARK H PARENT 41 16 39 18 37 20 35 22 12 36 22 44 33 46 31 49
REMARK Flexibility Score: inf
ROOT
ATOM      1  C   UNL     1      21.458  33.529  30.823  1.00  0.00     0.221 C 
ATOM      2  C   UNL     1      20.094  34.064  31.281  1.00  0.00     0.181 C 
ATOM      3  C   UNL     1      19.109  32.900  31.416  1.00  0.00     0.177 C 
ATOM      4  C   UNL     1      19.061  32.051  30.118  1.00  0.00     0.179 C 
ATOM      5  O   UNL     1      20.352  31.644  29.675  1.00  0.00    -0.332 OA
ATOM      6  C   UNL     1      21.282  32.712  29.527  1.00  0.00     0.339 C 
ENDROOT
BRANCH   1   7
ATOM      7  O   UNL     1      21.998  32.713  31.851  1.00  0.00    -0.337 OA
BRANCH   7   8
ATOM      8  C   UNL     1      23.419  32.780  31.917  1.00  0.00     0.282 C 
ATOM      9  C   UNL     1      23.945  29.909  34.168  1.00  0.00     0.041 C 
ATOM     10  C   UNL     1      23.473  31.301  33.744  1.00  0.00     0.150 C 
ATOM     11  C   UNL     1      23.974  32.379  34.726  1.00  0.00     0.174 C 
ATOM     12  O   UNL     1      23.939  31.561  32.429  1.00  0.00    -0.344 OA
ATOM     13  C   UNL     1      23.480  33.756  34.258  1.00  0.00     0.179 C 
ATOM     14  C   UNL     1      23.862  33.981  32.783  1.00  0.00     0.202 C 
BRANCH  11  15
ATOM     15  O   UNL     1      25.381  32.357  34.778  1.00  0.00    -0.388 OA
ATOM     16  H   UNL     1      25.661  33.104  35.369  1.00  0.00     0.211 HD
ENDBRANCH  11  15
BRANCH  13  17
ATOM     17  O   UNL     1      24.039  34.758  35.067  1.00  0.00    -0.387 OA
ATOM     18  H   UNL     1      25.026  34.683  34.980  1.00  0.00     0.211 HD
ENDBRANCH  13  17
BRANCH  14  19
ATOM     19  O   UNL     1      23.258  35.159  32.317  1.00  0.00    -0.385 OA
ATOM     20  H   UNL     1      23.210  35.088  31.328  1.00  0.00     0.211 HD
ENDBRANCH  14  19
ENDBRANCH   7   8
ENDBRANCH   1   7
BRANCH   2  21
ATOM     21  O   UNL     1      20.218  34.716  32.519  1.00  0.00    -0.387 OA
ATOM     22  H   UNL     1      19.429  35.311  32.611  1.00  0.00     0.211 HD
ENDBRANCH   2  21
BRANCH   6  23
ATOM     23  O   UNL     1      20.932  33.570  28.439  1.00  0.00    -0.462 OA
BRANCH  23  24
ATOM     24  C   UNL     1      21.228  33.328  27.089  1.00  0.00     0.130 A 
ATOM     25  C   UNL     1      21.238  32.034  26.534  1.00  0.00     0.093 A 
ATOM     26  C   UNL     1      21.520  34.423  26.271  1.00  0.00     0.094 A 
ATOM     27  C   UNL     1      21.562  31.839  25.183  1.00  0.00     0.133 A 
ATOM     28  C   UNL     1      21.821  34.242  24.920  1.00  0.00     0.138 A 
ATOM     29  C   UNL     1      21.866  32.948  24.368  1.00  0.00     0.102 A 
ATOM     30  O   UNL     1      22.086  35.361  24.119  1.00  0.00    -0.484 OA
ATOM     31  C   UNL     1      22.276  32.816  22.950  1.00  0.00     0.174 C 
ATOM     32  C   UNL     1      22.075  35.303  22.690  1.00  0.00     0.211 C 
ATOM     33  O   UNL     1      22.248  31.702  22.363  1.00  0.00    -0.294 OA
ATOM     34  C   UNL     1      22.792  34.022  22.215  1.00  0.00     0.131 C 
BRANCH  27  35
ATOM     35  O   UNL     1      21.591  30.546  24.660  1.00  0.00    -0.507 OA
ATOM     36  H   UNL     1      21.370  29.737  25.229  1.00  0.00     0.293 HD
ENDBRANCH  27  35
BRANCH  32  37
ATOM     37  C   UNL     1      20.648  35.490  22.192  1.00  0.00    -0.007 A 
ATOM     38  C   UNL     1      20.370  35.164  20.852  1.00  0.00     0.011 A 
ATOM     39  C   UNL     1      19.592  35.968  23.001  1.00  0.00     0.011 A 
ATOM     40  C   UNL     1      19.083  35.311  20.330  1.00  0.00     0.046 A 
ATOM     41  C   UNL     1      18.305  36.112  22.474  1.00  0.00     0.046 A 
ATOM     42  C   UNL     1      18.046  35.783  21.139  1.00  0.00     0.115 A 
BRANCH  42  43
ATOM     43  O   UNL     1      16.768  35.921  20.606  1.00  0.00    -0.508 OA
ATOM     44  H   UNL     1      16.590  35.793  19.616  1.00  0.00     0.293 HD
ENDBRANCH  42  43
ENDBRANCH  32  37
ENDBRANCH  23  24
ENDBRANCH   6  23
BRANCH   3  45
ATOM     45  O   UNL     1      17.836  33.399  31.745  1.00  0.00    -0.387 OA
ATOM     46  H   UNL     1      17.295  33.370  30.914  1.00  0.00     0.211 HD
ENDBRANCH   3  45
BRANCH   4  47
ATOM     47  C   UNL     1      18.222  32.670  28.975  1.00  0.00     0.191 C 
BRANCH  47  48
ATOM     48  O   UNL     1      16.847  32.547  29.234  1.00  0.00    -0.394 OA
ATOM     49  H   UNL     1      16.746  32.519  30.220  1.00  0.00     0.210 HD
ENDBRANCH  47  48
ENDBRANCH   4  47
TORSDOF 14
ENDMDL
MODEL 5
REMARK VINA RESULT:    -6.073      2.085      9.717
REMARK INTER + INTRA:         -11.696
REMARK INTER:                 -10.010
REMARK INTRA:                  -1.686
REMARK UNBOUND:                -2.073
REMARK SMILES C[C@@H]1O[C@@H](O[C@H]2[C@H](Oc3cc(O)c4c(c3)O[C@H](c3ccc(O)cc3)CC4=O)O[C@H](CO)[C@H](O)[C@H]2O)[C@@H](O)[C@H](O)[C@@H]1O
REMARK SMILES IDX 6 1 34 2 32 3 29 4 28 5 7 6 5 7 4 8 1 9 2 10 40 11 3 12
REMARK SMILES IDX 38 13 36 14 41 15 39 17 37 19 35 21 8 23 9 24 10 25 15 26
REMARK SMILES IDX 11 27 14 28 13 29 16 30 26 31 17 32 27 33 25 34 12 35 18 37
REMARK SMILES IDX 19 38 24 39 20 40 23 41 21 42 22 43 33 45 30 47 31 48
REMARK H PARENT 41 16 39 18 37 20 35 22 12 36 22 44 33 46 31 49
REMARK Flexibility Score: inf
ROOT
ATOM      1  C   UNL     1      22.293  33.161  21.686  1.00  0.00     0.221 C 
ATOM      2  C   UNL     1      23.584  33.583  20.973  1.00  0.00     0.181 C 
ATOM      3  C   UNL     1      23.400  34.976  20.364  1.00  0.00     0.177 C 
ATOM      4  C   UNL     1      22.129  35.038  19.477  1.00  0.00     0.179 C 
ATOM      5  O   UNL     1      20.964  34.558  20.144  1.00  0.00    -0.332 OA
ATOM      6  C   UNL     1      21.107  33.258  20.705  1.00  0.00     0.339 C 
ENDROOT
BRANCH   1   7
ATOM      7  O   UNL     1      22.083  34.019  22.798  1.00  0.00    -0.337 OA
BRANCH   7   8
ATOM      8  C   UNL     1      22.120  33.326  24.042  1.00  0.00     0.282 C 
ATOM      9  C   UNL     1      18.564  33.715  24.930  1.00  0.00     0.041 C 
ATOM     10  C   UNL     1      20.003  34.151  24.643  1.00  0.00     0.150 C 
ATOM     11  C   UNL     1      20.558  35.017  25.792  1.00  0.00     0.174 C 
ATOM     12  O   UNL     1      20.801  32.994  24.451  1.00  0.00    -0.344 OA
ATOM     13  C   UNL     1      22.002  35.426  25.461  1.00  0.00     0.179 C 
ATOM     14  C   UNL     1      22.837  34.180  25.112  1.00  0.00     0.202 C 
BRANCH  11  15
ATOM     15  O   UNL     1      20.521  34.290  26.996  1.00  0.00    -0.388 OA
ATOM     16  H   UNL     1      19.701  34.570  27.479  1.00  0.00     0.211 HD
ENDBRANCH  11  15
BRANCH  13  17
ATOM     17  O   UNL     1      22.563  36.101  26.556  1.00  0.00    -0.387 OA
ATOM     18  H   UNL     1      22.255  35.630  27.375  1.00  0.00     0.211 HD
ENDBRANCH  13  17
BRANCH  14  19
ATOM     19  O   UNL     1      24.099  34.578  24.645  1.00  0.00    -0.385 OA
ATOM     20  H   UNL     1      23.970  34.928  23.725  1.00  0.00     0.211 HD
ENDBRANCH  14  19
ENDBRANCH   7   8
ENDBRANCH   1   7
BRANCH   2  21
ATOM     21  O   UNL     1      24.656  33.610  21.881  1.00  0.00    -0.387 OA
ATOM     22  H   UNL     1      24.826  32.671  22.153  1.00  0.00     0.211 HD
ENDBRANCH   2  21
BRANCH   6  23
ATOM     23  O   UNL     1      21.215  32.255  19.692  1.00  0.00    -0.462 OA
BRANCH  23  24
ATOM     24  C   UNL     1      20.138  31.547  19.136  1.00  0.00     0.130 A 
ATOM     25  C   UNL     1      19.620  31.834  17.859  1.00  0.00     0.093 A 
ATOM     26  C   UNL     1      19.567  30.516  19.888  1.00  0.00     0.094 A 
ATOM     27  C   UNL     1      18.527  31.114  17.353  1.00  0.00     0.133 A 
ATOM     28  C   UNL     1      18.495  29.778  19.384  1.00  0.00     0.138 A 
ATOM     29  C   UNL     1      17.951  30.083  18.122  1.00  0.00     0.102 A 
ATOM     30  O   UNL     1      17.959  28.734  20.151  1.00  0.00    -0.484 OA
ATOM     31  C   UNL     1      16.758  29.320  17.682  1.00  0.00     0.174 C 
ATOM     32  C   UNL     1      17.102  27.733  19.594  1.00  0.00     0.211 C 
ATOM     33  O   UNL     1      16.276  29.472  16.528  1.00  0.00    -0.294 OA
ATOM     34  C   UNL     1      16.076  28.392  18.648  1.00  0.00     0.131 C 
BRANCH  27  35
ATOM     35  O   UNL     1      18.013  31.432  16.096  1.00  0.00    -0.507 OA
ATOM     36  H   UNL     1      17.714  32.372  15.866  1.00  0.00     0.293 HD
ENDBRANCH  27  35
BRANCH  32  37
ATOM     37  C   UNL     1      17.955  26.628  18.984  1.00  0.00    -0.007 A 
ATOM     38  C   UNL     1      17.385  25.347  18.865  1.00  0.00     0.011 A 
ATOM     39  C   UNL     1      19.280  26.819  18.531  1.00  0.00     0.011 A 
ATOM     40  C   UNL     1      18.110  24.288  18.313  1.00  0.00     0.046 A 
ATOM     41  C   UNL     1      20.001  25.757  17.979  1.00  0.00     0.046 A 
ATOM     42  C   UNL     1      19.419  24.489  17.868  1.00  0.00     0.115 A 
BRANCH  42  43
ATOM     43  O   UNL     1      20.128  23.425  17.317  1.00  0.00    -0.508 OA
ATOM     44  H   UNL     1      21.137  23.455  17.222  1.00  0.00     0.293 HD
ENDBRANCH  42  43
ENDBRANCH  32  37
ENDBRANCH  23  24
ENDBRANCH   6  23
BRANCH   3  45
ATOM     45  O   UNL     1      24.549  35.324  19.632  1.00  0.00    -0.387 OA
ATOM     46  H   UNL     1      25.218  35.649  20.288  1.00  0.00     0.211 HD
ENDBRANCH   3  45
BRANCH   4  47
ATOM     47  C   UNL     1      22.294  34.411  18.072  1.00  0.00     0.191 C 
BRANCH  47  48
ATOM     48  O   UNL     1      23.333  33.466  18.060  1.00  0.00    -0.394 OA
ATOM     49  H   UNL     1      23.682  33.440  17.132  1.00  0.00     0.210 HD
ENDBRANCH  47  48
ENDBRANCH   4  47
TORSDOF 14
ENDMDL
MODEL 6
REMARK VINA RESULT:    -6.029      5.949     12.056
REMARK INTER + INTRA:         -11.627
REMARK INTER:                 -10.388
REMARK INTRA:                  -1.239
REMARK UNBOUND:                -2.073
REMARK SMILES C[C@@H]1O[C@@H](O[C@H]2[C@H](Oc3cc(O)c4c(c3)O[C@H](c3ccc(O)cc3)CC4=O)O[C@H](CO)[C@H](O)[C@H]2O)[C@@H](O)[C@H](O)[C@@H]1O
REMARK SMILES IDX 6 1 34 2 32 3 29 4 28 5 7 6 5 7 4 8 1 9 2 10 40 11 3 12
REMARK SMILES IDX 38 13 36 14 41 15 39 17 37 19 35 21 8 23 9 24 10 25 15 26
REMARK SMILES IDX 11 27 14 28 13 29 16 30 26 31 17 32 27 33 25 34 12 35 18 37
REMARK SMILES IDX 19 38 24 39 20 40 23 41 21 42 22 43 33 45 30 47 31 48
REMARK H PARENT 41 16 39 18 37 20 35 22 12 36 22 44 33 46 31 49
REMARK Flexibility Score: inf
ROOT
ATOM      1  C   UNL     1      19.864  33.845  30.151  1.00  0.00     0.221 C 
ATOM      2  C   UNL     1      18.456  34.243  30.611  1.00  0.00     0.181 C 
ATOM      3  C   UNL     1      17.726  33.010  31.149  1.00  0.00     0.177 C 
ATOM      4  C   UNL     1      17.759  31.846  30.123  1.00  0.00     0.179 C 
ATOM      5  O   UNL     1      19.073  31.560  29.653  1.00  0.00    -0.332 OA
ATOM      6  C   UNL     1      19.766  32.690  29.134  1.00  0.00     0.339 C 
ENDROOT
BRANCH   1   7
ATOM      7  O   UNL     1      20.619  33.441  31.283  1.00  0.00    -0.337 OA
BRANCH   7   8
ATOM      8  C   UNL     1      21.943  33.964  31.277  1.00  0.00     0.282 C 
ATOM      9  C   UNL     1      23.548  31.269  33.211  1.00  0.00     0.041 C 
ATOM     10  C   UNL     1      22.621  32.457  32.949  1.00  0.00     0.150 C 
ATOM     11  C   UNL     1      22.830  33.566  34.000  1.00  0.00     0.174 C 
ATOM     12  O   UNL     1      22.868  32.949  31.640  1.00  0.00    -0.344 OA
ATOM     13  C   UNL     1      21.882  34.735  33.693  1.00  0.00     0.179 C 
ATOM     14  C   UNL     1      22.047  35.178  32.228  1.00  0.00     0.202 C 
BRANCH  11  15
ATOM     15  O   UNL     1      24.168  34.001  33.972  1.00  0.00    -0.388 OA
ATOM     16  H   UNL     1      24.721  33.223  33.703  1.00  0.00     0.211 HD
ENDBRANCH  11  15
BRANCH  13  17
ATOM     17  O   UNL     1      22.155  35.804  34.562  1.00  0.00    -0.387 OA
ATOM     18  H   UNL     1      21.368  36.409  34.533  1.00  0.00     0.211 HD
ENDBRANCH  13  17
BRANCH  14  19
ATOM     19  O   UNL     1      21.061  36.125  31.910  1.00  0.00    -0.385 OA
ATOM     20  H   UNL     1      20.836  36.602  32.752  1.00  0.00     0.211 HD
ENDBRANCH  14  19
ENDBRANCH   7   8
ENDBRANCH   1   7
BRANCH   2  21
ATOM     21  O   UNL     1      18.531  35.217  31.621  1.00  0.00    -0.387 OA
ATOM     22  H   UNL     1      19.340  35.760  31.438  1.00  0.00     0.211 HD
ENDBRANCH   2  21
BRANCH   6  23
ATOM     23  O   UNL     1      19.186  33.149  27.911  1.00  0.00    -0.462 OA
BRANCH  23  24
ATOM     24  C   UNL     1      19.901  33.496  26.755  1.00  0.00     0.130 A 
ATOM     25  C   UNL     1      21.296  33.688  26.754  1.00  0.00     0.093 A 
ATOM     26  C   UNL     1      19.191  33.652  25.561  1.00  0.00     0.094 A 
ATOM     27  C   UNL     1      21.966  34.056  25.578  1.00  0.00     0.133 A 
ATOM     28  C   UNL     1      19.851  33.996  24.380  1.00  0.00     0.138 A 
ATOM     29  C   UNL     1      21.240  34.221  24.381  1.00  0.00     0.102 A 
ATOM     30  O   UNL     1      19.116  34.121  23.194  1.00  0.00    -0.484 OA
ATOM     31  C   UNL     1      21.868  34.668  23.114  1.00  0.00     0.174 C 
ATOM     32  C   UNL     1      19.734  34.140  21.905  1.00  0.00     0.211 C 
ATOM     33  O   UNL     1      23.117  34.798  23.015  1.00  0.00    -0.294 OA
ATOM     34  C   UNL     1      20.995  35.029  21.945  1.00  0.00     0.131 C 
BRANCH  27  35
ATOM     35  O   UNL     1      23.345  34.265  25.605  1.00  0.00    -0.507 OA
ATOM     36  H   UNL     1      23.939  33.999  24.829  1.00  0.00     0.293 HD
ENDBRANCH  27  35
BRANCH  32  37
ATOM     37  C   UNL     1      19.946  32.708  21.429  1.00  0.00    -0.007 A 
ATOM     38  C   UNL     1      19.793  32.442  20.056  1.00  0.00     0.011 A 
ATOM     39  C   UNL     1      20.287  31.639  22.288  1.00  0.00     0.011 A 
ATOM     40  C   UNL     1      19.974  31.151  19.553  1.00  0.00     0.046 A 
ATOM     41  C   UNL     1      20.467  30.350  21.779  1.00  0.00     0.046 A 
ATOM     42  C   UNL     1      20.312  30.102  20.411  1.00  0.00     0.115 A 
BRANCH  42  43
ATOM     43  O   UNL     1      20.491  28.822  19.894  1.00  0.00    -0.508 OA
ATOM     44  H   UNL     1      21.404  28.381  19.877  1.00  0.00     0.293 HD
ENDBRANCH  42  43
ENDBRANCH  32  37
ENDBRANCH  23  24
ENDBRANCH   6  23
BRANCH   3  45
ATOM     45  O   UNL     1      16.405  33.355  31.484  1.00  0.00    -0.387 OA
ATOM     46  H   UNL     1      15.814  32.707  31.019  1.00  0.00     0.211 HD
ENDBRANCH   3  45
BRANCH   4  47
ATOM     47  C   UNL     1      16.743  31.981  28.964  1.00  0.00     0.191 C 
BRANCH  47  48
ATOM     48  O   UNL     1      15.875  30.878  28.923  1.00  0.00    -0.394 OA
ATOM     49  H   UNL     1      15.956  30.420  29.799  1.00  0.00     0.210 HD
ENDBRANCH  47  48
ENDBRANCH   4  47
TORSDOF 14
ENDMDL
MODEL 7
REMARK VINA RESULT:    -5.874      6.027      9.991
REMARK INTER + INTRA:         -11.381
REMARK INTER:                  -9.227
REMARK INTRA:                  -2.154
REMARK UNBOUND:                -2.073
REMARK SMILES C[C@@H]1O[C@@H](O[C@H]2[C@H](Oc3cc(O)c4c(c3)O[C@H](c3ccc(O)cc3)CC4=O)O[C@H](CO)[C@H](O)[C@H]2O)[C@@H](O)[C@H](O)[C@@H]1O
REMARK SMILES IDX 6 1 34 2 32 3 29 4 28 5 7 6 5 7 4 8 1 9 2 10 40 11 3 12
REMARK SMILES IDX 38 13 36 14 41 15 39 17 37 19 35 21 8 23 9 24 10 25 15 26
REMARK SMILES IDX 11 27 14 28 13 29 16 30 26 31 17 32 27 33 25 34 12 35 18 37
REMARK SMILES IDX 19 38 24 39 20 40 23 41 21 42 22 43 33 45 30 47 31 48
REMARK H PARENT 41 16 39 18 37 20 35 22 12 36 22 44 33 46 31 49
REMARK Flexibility Score: inf
ROOT
ATOM      1  C   UNL     1      19.364  33.041  24.444  1.00  0.00     0.221 C 
ATOM      2  C   UNL     1      18.164  32.800  23.520  1.00  0.00     0.181 C 
ATOM      3  C   UNL     1      17.603  34.144  23.049  1.00  0.00     0.177 C 
ATOM      4  C   UNL     1      17.308  35.082  24.249  1.00  0.00     0.179 C 
ATOM      5  O   UNL     1      18.418  35.215  25.133  1.00  0.00    -0.332 OA
ATOM      6  C   UNL     1      18.947  33.978  25.596  1.00  0.00     0.339 C 
ENDROOT
BRANCH   1   7
ATOM      7  O   UNL     1      20.413  33.628  23.688  1.00  0.00    -0.337 OA
BRANCH   7   8
ATOM      8  C   UNL     1      21.649  32.936  23.832  1.00  0.00     0.282 C 
ATOM      9  C   UNL     1      23.602  35.708  25.276  1.00  0.00     0.041 C 
ATOM     10  C   UNL     1      22.810  34.944  24.213  1.00  0.00     0.150 C 
ATOM     11  C   UNL     1      23.599  34.852  22.892  1.00  0.00     0.174 C 
ATOM     12  O   UNL     1      22.506  33.650  24.712  1.00  0.00    -0.344 OA
ATOM     13  C   UNL     1      22.766  34.076  21.861  1.00  0.00     0.179 C 
ATOM     14  C   UNL     1      22.314  32.728  22.453  1.00  0.00     0.202 C 
BRANCH  11  15
ATOM     15  O   UNL     1      24.827  34.201  23.117  1.00  0.00    -0.388 OA
ATOM     16  H   UNL     1      24.620  33.336  23.557  1.00  0.00     0.211 HD
ENDBRANCH  11  15
BRANCH  13  17
ATOM     17  O   UNL     1      23.527  33.870  20.699  1.00  0.00    -0.387 OA
ATOM     18  H   UNL     1      23.966  32.984  20.794  1.00  0.00     0.211 HD
ENDBRANCH  13  17
BRANCH  14  19
ATOM     19  O   UNL     1      21.414  32.108  21.572  1.00  0.00    -0.385 OA
ATOM     20  H   UNL     1      21.946  31.772  20.804  1.00  0.00     0.211 HD
ENDBRANCH  14  19
ENDBRANCH   7   8
ENDBRANCH   1   7
BRANCH   2  21
ATOM     21  O   UNL     1      18.553  32.041  22.403  1.00  0.00    -0.387 OA
ATOM     22  H   UNL     1      19.374  32.464  22.041  1.00  0.00     0.211 HD
ENDBRANCH   2  21
BRANCH   6  23
ATOM     23  O   UNL     1      18.039  33.312  26.476  1.00  0.00    -0.462 OA
BRANCH  23  24
ATOM     24  C   UNL     1      18.013  33.453  27.873  1.00  0.00     0.130 A 
ATOM     25  C   UNL     1      17.041  32.835  28.680  1.00  0.00     0.093 A 
ATOM     26  C   UNL     1      19.000  34.239  28.474  1.00  0.00     0.094 A 
ATOM     27  C   UNL     1      17.042  33.023  30.071  1.00  0.00     0.133 A 
ATOM     28  C   UNL     1      19.025  34.414  29.859  1.00  0.00     0.138 A 
ATOM     29  C   UNL     1      18.035  33.826  30.668  1.00  0.00     0.102 A 
ATOM     30  O   UNL     1      20.040  35.188  30.435  1.00  0.00    -0.484 OA
ATOM     31  C   UNL     1      18.065  34.121  32.121  1.00  0.00     0.174 C 
ATOM     32  C   UNL     1      20.335  35.151  31.834  1.00  0.00     0.211 C 
ATOM     33  O   UNL     1      17.271  33.556  32.918  1.00  0.00    -0.294 OA
ATOM     34  C   UNL     1      19.021  35.156  32.644  1.00  0.00     0.131 C 
BRANCH  27  35
ATOM     35  O   UNL     1      16.054  32.421  30.850  1.00  0.00    -0.507 OA
ATOM     36  H   UNL     1      16.218  31.546  31.335  1.00  0.00     0.293 HD
ENDBRANCH  27  35
BRANCH  32  37
ATOM     37  C   UNL     1      21.284  33.992  32.116  1.00  0.00    -0.007 A 
ATOM     38  C   UNL     1      21.730  33.812  33.438  1.00  0.00     0.011 A 
ATOM     39  C   UNL     1      21.737  33.092  31.125  1.00  0.00     0.011 A 
ATOM     40  C   UNL     1      22.600  32.770  33.765  1.00  0.00     0.046 A 
ATOM     41  C   UNL     1      22.607  32.050  31.458  1.00  0.00     0.046 A 
ATOM     42  C   UNL     1      23.040  31.885  32.778  1.00  0.00     0.115 A 
BRANCH  42  43
ATOM     43  O   UNL     1      23.905  30.849  33.120  1.00  0.00    -0.508 OA
ATOM     44  H   UNL     1      23.780  29.912  32.752  1.00  0.00     0.293 HD
ENDBRANCH  42  43
ENDBRANCH  32  37
ENDBRANCH  23  24
ENDBRANCH   6  23
BRANCH   3  45
ATOM     45  O   UNL     1      16.447  33.926  22.278  1.00  0.00    -0.387 OA
ATOM     46  H   UNL     1      15.687  33.868  22.913  1.00  0.00     0.211 HD
ENDBRANCH   3  45
BRANCH   4  47
ATOM     47  C   UNL     1      15.997  34.764  25.007  1.00  0.00     0.191 C 
BRANCH  47  48
ATOM     48  O   UNL     1      15.889  35.536  26.175  1.00  0.00    -0.394 OA
ATOM     49  H   UNL     1      15.994  36.483  25.900  1.00  0.00     0.210 HD
ENDBRANCH  47  48
ENDBRANCH   4  47
TORSDOF 14
ENDMDL
MODEL 8
REMARK VINA RESULT:    -5.738      4.728      8.619
REMARK INTER + INTRA:         -11.166
REMARK INTER:                  -9.834
REMARK INTRA:                  -1.332
REMARK UNBOUND:                -2.073
REMARK SMILES C[C@@H]1O[C@@H](O[C@H]2[C@H](Oc3cc(O)c4c(c3)O[C@H](c3ccc(O)cc3)CC4=O)O[C@H](CO)[C@H](O)[C@H]2O)[C@@H](O)[C@H](O)[C@@H]1O
REMARK SMILES IDX 6 1 34 2 32 3 29 4 28 5 7 6 5 7 4 8 1 9 2 10 40 11 3 12
REMARK SMILES IDX 38 13 36 14 41 15 39 17 37 19 35 21 8 23 9 24 10 25 15 26
REMARK SMILES IDX 11 27 14 28 13 29 16 30 26 31 17 32 27 33 25 34 12 35 18 37
REMARK SMILES IDX 19 38 24 39 20 40 23 41 21 42 22 43 33 45 30 47 31 48
REMARK H PARENT 41 16 39 18 37 20 35 22 12 36 22 44 33 46 31 49
REMARK Flexibility Score: inf
ROOT
ATOM      1  C   UNL     1      20.310  34.069  23.103  1.00  0.00     0.221 C 
ATOM      2  C   UNL     1      20.994  35.324  22.544  1.00  0.00     0.181 C 
ATOM      3  C   UNL     1      22.157  34.911  21.638  1.00  0.00     0.177 C 
ATOM      4  C   UNL     1      23.115  33.930  22.365  1.00  0.00     0.179 C 
ATOM      5  O   UNL     1      22.435  32.821  22.946  1.00  0.00    -0.332 OA
ATOM      6  C   UNL     1      21.358  33.181  23.804  1.00  0.00     0.339 C 
ENDROOT
BRANCH   1   7
ATOM      7  O   UNL     1      19.704  33.362  22.031  1.00  0.00    -0.337 OA
BRANCH   7   8
ATOM      8  C   UNL     1      18.940  32.244  22.472  1.00  0.00     0.282 C 
ATOM      9  C   UNL     1      20.289  29.761  20.106  1.00  0.00     0.041 C 
ATOM     10  C   UNL     1      19.523  31.004  20.562  1.00  0.00     0.150 C 
ATOM     11  C   UNL     1      18.086  31.006  20.003  1.00  0.00     0.174 C 
ATOM     12  O   UNL     1      19.513  31.041  21.981  1.00  0.00    -0.344 OA
ATOM     13  C   UNL     1      17.358  32.269  20.489  1.00  0.00     0.179 C 
ATOM     14  C   UNL     1      17.469  32.385  22.020  1.00  0.00     0.202 C 
BRANCH  11  15
ATOM     15  O   UNL     1      17.406  29.853  20.437  1.00  0.00    -0.388 OA
ATOM     16  H   UNL     1      18.009  29.381  21.068  1.00  0.00     0.211 HD
ENDBRANCH  11  15
BRANCH  13  17
ATOM     17  O   UNL     1      16.011  32.216  20.097  1.00  0.00    -0.387 OA
ATOM     18  H   UNL     1      15.496  32.750  20.758  1.00  0.00     0.211 HD
ENDBRANCH  13  17
BRANCH  14  19
ATOM     19  O   UNL     1      16.954  33.624  22.434  1.00  0.00    -0.385 OA
ATOM     20  H   UNL     1      16.596  34.073  21.625  1.00  0.00     0.211 HD
ENDBRANCH  14  19
ENDBRANCH   7   8
ENDBRANCH   1   7
BRANCH   2  21
ATOM     21  O   UNL     1      20.077  36.089  21.804  1.00  0.00    -0.387 OA
ATOM     22  H   UNL     1      19.323  35.488  21.570  1.00  0.00     0.211 HD
ENDBRANCH   2  21
BRANCH   6  23
ATOM     23  O   UNL     1      21.824  33.809  25.000  1.00  0.00    -0.462 OA
BRANCH  23  24
ATOM     24  C   UNL     1      21.063  34.001  26.164  1.00  0.00     0.130 A 
ATOM     25  C   UNL     1      19.776  33.455  26.327  1.00  0.00     0.093 A 
ATOM     26  C   UNL     1      21.616  34.763  27.196  1.00  0.00     0.094 A 
ATOM     27  C   UNL     1      19.042  33.692  27.500  1.00  0.00     0.133 A 
ATOM     28  C   UNL     1      20.905  34.986  28.377  1.00  0.00     0.138 A 
ATOM     29  C   UNL     1      19.604  34.471  28.532  1.00  0.00     0.102 A 
ATOM     30  O   UNL     1      21.496  35.734  29.404  1.00  0.00    -0.484 OA
ATOM     31  C   UNL     1      18.869  34.815  29.772  1.00  0.00     0.174 C 
ATOM     32  C   UNL     1      20.992  35.733  30.743  1.00  0.00     0.211 C 
ATOM     33  O   UNL     1      17.740  34.314  30.022  1.00  0.00    -0.294 OA
ATOM     34  C   UNL     1      19.452  35.825  30.721  1.00  0.00     0.131 C 
BRANCH  27  35
ATOM     35  O   UNL     1      17.759  33.162  27.631  1.00  0.00    -0.507 OA
ATOM     36  H   UNL     1      17.342  32.996  28.539  1.00  0.00     0.293 HD
ENDBRANCH  27  35
BRANCH  32  37
ATOM     37  C   UNL     1      21.576  34.544  31.496  1.00  0.00    -0.007 A 
ATOM     38  C   UNL     1      21.466  34.535  32.899  1.00  0.00     0.011 A 
ATOM     39  C   UNL     1      22.217  33.454  30.865  1.00  0.00     0.011 A 
ATOM     40  C   UNL     1      21.978  33.475  33.651  1.00  0.00     0.046 A 
ATOM     41  C   UNL     1      22.728  32.396  31.622  1.00  0.00     0.046 A 
ATOM     42  C   UNL     1      22.609  32.403  33.016  1.00  0.00     0.115 A 
BRANCH  42  43
ATOM     43  O   UNL     1      23.112  31.352  33.779  1.00  0.00    -0.508 OA
ATOM     44  H   UNL     1      24.084  31.326  34.068  1.00  0.00     0.293 HD
ENDBRANCH  42  43
ENDBRANCH  32  37
ENDBRANCH  23  24
ENDBRANCH   6  23
BRANCH   3  45
ATOM     45  O   UNL     1      22.841  36.059  21.200  1.00  0.00    -0.387 OA
ATOM     46  H   UNL     1      23.207  36.499  22.010  1.00  0.00     0.211 HD
ENDBRANCH   3  45
BRANCH   4  47
ATOM     47  C   UNL     1      24.088  34.603  23.363  1.00  0.00     0.191 C 
BRANCH  47  48
ATOM     48  O   UNL     1      25.414  34.212  23.115  1.00  0.00    -0.394 OA
ATOM     49  H   UNL     1      25.995  34.901  23.528  1.00  0.00     0.210 HD
ENDBRANCH  47  48
ENDBRANCH   4  47
TORSDOF 14
ENDMDL
MODEL 9
REMARK VINA RESULT:    -5.733      5.072      8.321
REMARK INTER + INTRA:         -11.157
REMARK INTER:                  -9.444
REMARK INTRA:                  -1.713
REMARK UNBOUND:                -2.073
REMARK SMILES C[C@@H]1O[C@@H](O[C@H]2[C@H](Oc3cc(O)c4c(c3)O[C@H](c3ccc(O)cc3)CC4=O)O[C@H](CO)[C@H](O)[C@H]2O)[C@@H](O)[C@H](O)[C@@H]1O
REMARK SMILES IDX 6 1 34 2 32 3 29 4 28 5 7 6 5 7 4 8 1 9 2 10 40 11 3 12
REMARK SMILES IDX 38 13 36 14 41 15 39 17 37 19 35 21 8 23 9 24 10 25 15 26
REMARK SMILES IDX 11 27 14 28 13 29 16 30 26 31 17 32 27 33 25 34 12 35 18 37
REMARK SMILES IDX 19 38 24 39 20 40 23 41 21 42 22 43 33 45 30 47 31 48
REMARK H PARENT 41 16 39 18 37 20 35 22 12 36 22 44 33 46 31 49
REMARK Flexibility Score: inf
ROOT
ATOM      1  C   UNL     1      20.513  33.765  21.512  1.00  0.00     0.221 C 
ATOM      2  C   UNL     1      19.722  32.886  20.533  1.00  0.00     0.181 C 
ATOM      3  C   UNL     1      19.437  33.676  19.253  1.00  0.00     0.177 C 
ATOM      4  C   UNL     1      18.771  35.041  19.571  1.00  0.00     0.179 C 
ATOM      5  O   UNL     1      19.487  35.793  20.546  1.00  0.00    -0.332 OA
ATOM      6  C   UNL     1      19.750  35.084  21.752  1.00  0.00     0.339 C 
ENDROOT
BRANCH   1   7
ATOM      7  O   UNL     1      21.792  34.030  20.956  1.00  0.00    -0.337 OA
BRANCH   7   8
ATOM      8  C   UNL     1      22.804  33.168  21.468  1.00  0.00     0.282 C 
ATOM      9  C   UNL     1      23.377  34.919  24.660  1.00  0.00     0.041 C 
ATOM     10  C   UNL     1      23.373  34.716  23.144  1.00  0.00     0.150 C 
ATOM     11  C   UNL     1      24.763  35.004  22.542  1.00  0.00     0.174 C 
ATOM     12  O   UNL     1      22.966  33.385  22.863  1.00  0.00    -0.344 OA
ATOM     13  C   UNL     1      24.709  34.783  21.022  1.00  0.00     0.179 C 
ATOM     14  C   UNL     1      24.133  33.389  20.711  1.00  0.00     0.202 C 
BRANCH  11  15
ATOM     15  O   UNL     1      25.719  34.152  23.125  1.00  0.00    -0.388 OA
ATOM     16  H   UNL     1      26.416  34.732  23.528  1.00  0.00     0.211 HD
ENDBRANCH  11  15
BRANCH  13  17
ATOM     17  O   UNL     1      25.998  34.913  20.481  1.00  0.00    -0.387 OA
ATOM     18  H   UNL     1      26.288  35.849  20.647  1.00  0.00     0.211 HD
ENDBRANCH  13  17
BRANCH  14  19
ATOM     19  O   UNL     1      23.926  33.266  19.329  1.00  0.00    -0.385 OA
ATOM     20  H   UNL     1      23.455  34.087  19.032  1.00  0.00     0.211 HD
ENDBRANCH  14  19
ENDBRANCH   7   8
ENDBRANCH   1   7
BRANCH   2  21
ATOM     21  O   UNL     1      20.455  31.731  20.215  1.00  0.00    -0.387 OA
ATOM     22  H   UNL     1      20.592  31.739  19.232  1.00  0.00     0.211 HD
ENDBRANCH   2  21
BRANCH   6  23
ATOM     23  O   UNL     1      18.552  34.839  22.492  1.00  0.00    -0.462 OA
BRANCH  23  24
ATOM     24  C   UNL     1      18.427  34.941  23.887  1.00  0.00     0.130 A 
ATOM     25  C   UNL     1      17.193  34.807  24.550  1.00  0.00     0.093 A 
ATOM     26  C   UNL     1      19.581  35.181  24.637  1.00  0.00     0.094 A 
ATOM     27  C   UNL     1      17.112  34.938  25.944  1.00  0.00     0.133 A 
ATOM     28  C   UNL     1      19.517  35.291  26.027  1.00  0.00     0.138 A 
ATOM     29  C   UNL     1      18.280  35.192  26.692  1.00  0.00     0.102 A 
ATOM     30  O   UNL     1      20.694  35.509  26.754  1.00  0.00    -0.484 OA
ATOM     31  C   UNL     1      18.266  35.404  28.159  1.00  0.00     0.174 C 
ATOM     32  C   UNL     1      20.773  35.307  28.168  1.00  0.00     0.211 C 
ATOM     33  O   UNL     1      17.215  35.237  28.833  1.00  0.00    -0.294 OA
ATOM     34  C   UNL     1      19.513  35.883  28.848  1.00  0.00     0.131 C 
BRANCH  27  35
ATOM     35  O   UNL     1      15.875  34.827  26.578  1.00  0.00    -0.507 OA
ATOM     36  H   UNL     1      15.416  35.629  26.994  1.00  0.00     0.293 HD
ENDBRANCH  27  35
BRANCH  32  37
ATOM     37  C   UNL     1      21.066  33.838  28.448  1.00  0.00    -0.007 A 
ATOM     38  C   UNL     1      21.242  32.980  27.348  1.00  0.00     0.011 A 
ATOM     39  C   UNL     1      21.171  33.294  29.749  1.00  0.00     0.011 A 
ATOM     40  C   UNL     1      21.513  31.622  27.533  1.00  0.00     0.046 A 
ATOM     41  C   UNL     1      21.444  31.935  29.929  1.00  0.00     0.046 A 
ATOM     42  C   UNL     1      21.617  31.096  28.823  1.00  0.00     0.115 A 
BRANCH  42  43
ATOM     43  O   UNL     1      21.891  29.741  28.992  1.00  0.00    -0.508 OA
ATOM     44  H   UNL     1      21.197  29.031  28.786  1.00  0.00     0.293 HD
ENDBRANCH  42  43
ENDBRANCH  32  37
ENDBRANCH  23  24
ENDBRANCH   6  23
BRANCH   3  45
ATOM     45  O   UNL     1      18.634  32.905  18.395  1.00  0.00    -0.387 OA
ATOM     46  H   UNL     1      18.746  31.959  18.672  1.00  0.00     0.211 HD
ENDBRANCH   3  45
BRANCH   4  47
ATOM     47  C   UNL     1      17.260  34.959  19.894  1.00  0.00     0.191 C 
BRANCH  47  48
ATOM     48  O   UNL     1      16.858  36.035  20.701  1.00  0.00    -0.394 OA
ATOM     49  H   UNL     1      16.322  35.650  21.442  1.00  0.00     0.210 HD
ENDBRANCH  47  48
ENDBRANCH   4  47
TORSDOF 14
ENDMDL
