MODEL 1
REMARK VINA RESULT:    -4.491      0.000      0.000
REMARK INTER + INTRA:          -4.491
REMARK INTER:                  -4.491
REMARK INTRA:                   0.000
REMARK UNBOUND:                 0.000
REMARK SMILES CC(C)=C1CC[C@H](C)CC1=O
REMARK SMILES IDX 8 1 7 2 6 3 5 4 4 5 2 6 1 7 3 8 10 9 11 10 9 11
REMARK H PARENT
REMARK Flexibility Score: inf
ROOT
ATOM      1  C   UNL     1       9.957  18.759  16.619  1.00  0.00     0.008 C 
ATOM      2  C   UNL     1      10.904  19.814  16.026  1.00  0.00    -0.006 C 
ATOM      3  C   UNL     1      11.738  20.523  17.108  1.00  0.00     0.008 C 
ATOM      4  C   UNL     1      12.744  19.592  17.800  1.00  0.00     0.039 C 
ATOM      5  C   UNL     1      13.583  18.788  16.816  1.00  0.00    -0.006 C 
ATOM      6  C   UNL     1      14.855  18.398  17.124  1.00  0.00    -0.070 C 
ATOM      7  C   UNL     1      15.475  18.735  18.461  1.00  0.00     0.039 C 
ATOM      8  C   UNL     1      15.720  17.648  16.138  1.00  0.00     0.039 C 
ATOM      9  C   UNL     1      12.897  18.354  15.563  1.00  0.00     0.159 C 
ATOM     10  O   UNL     1      13.190  17.264  15.000  1.00  0.00    -0.295 OA
ATOM     11  C   UNL     1      11.827  19.213  14.954  1.00  0.00     0.084 C 
ENDROOT
TORSDOF 0
ENDMDL
MODEL 2
REMARK VINA RESULT:    -4.320      1.676      2.717
REMARK INTER + INTRA:          -4.320
REMARK INTER:                  -4.320
REMARK INTRA:                   0.000
REMARK UNBOUND:                 0.000
REMARK SMILES CC(C)=C1CC[C@H](C)CC1=O
REMARK SMILES IDX 8 1 7 2 6 3 5 4 4 5 2 6 1 7 3 8 10 9 11 10 9 11
REMARK H PARENT
REMARK Flexibility Score: inf
ROOT
ATOM      1  C   UNL     1      12.118  19.559  18.136  1.00  0.00     0.008 C 
ATOM      2  C   UNL     1      13.385  19.899  17.335  1.00  0.00    -0.006 C 
ATOM      3  C   UNL     1      14.584  19.022  17.739  1.00  0.00     0.008 C 
ATOM      4  C   UNL     1      14.400  17.543  17.369  1.00  0.00     0.039 C 
ATOM      5  C   UNL     1      13.959  17.343  15.925  1.00  0.00    -0.006 C 
ATOM      6  C   UNL     1      14.304  16.219  15.230  1.00  0.00    -0.070 C 
ATOM      7  C   UNL     1      15.123  15.122  15.871  1.00  0.00     0.039 C 
ATOM      8  C   UNL     1      13.922  16.030  13.780  1.00  0.00     0.039 C 
ATOM      9  C   UNL     1      13.039  18.376  15.365  1.00  0.00     0.159 C 
ATOM     10  O   UNL     1      12.157  18.077  14.516  1.00  0.00    -0.295 OA
ATOM     11  C   UNL     1      13.143  19.803  15.821  1.00  0.00     0.084 C 
ENDROOT
TORSDOF 0
ENDMDL
MODEL 3
REMARK VINA RESULT:    -4.253      1.511      2.862
REMARK INTER + INTRA:          -4.253
REMARK INTER:                  -4.253
REMARK INTRA:                   0.000
REMARK UNBOUND:                 0.000
REMARK SMILES CC(C)=C1CC[C@H](C)CC1=O
REMARK SMILES IDX 8 1 7 2 6 3 5 4 4 5 2 6 1 7 3 8 10 9 11 10 9 11
REMARK H PARENT
REMARK Flexibility Score: inf
ROOT
ATOM      1  C   UNL     1      12.129  21.491  16.642  1.00  0.00     0.008 C 
ATOM      2  C   UNL     1      11.472  20.236  17.238  1.00  0.00    -0.006 C 
ATOM      3  C   UNL     1      10.832  19.344  16.159  1.00  0.00     0.008 C 
ATOM      4  C   UNL     1      11.863  18.706  15.216  1.00  0.00     0.039 C 
ATOM      5  C   UNL     1      13.012  18.035  15.957  1.00  0.00    -0.006 C 
ATOM      6  C   UNL     1      13.661  16.957  15.428  1.00  0.00    -0.070 C 
ATOM      7  C   UNL     1      13.277  16.397  14.077  1.00  0.00     0.039 C 
ATOM      8  C   UNL     1      14.765  16.246  16.175  1.00  0.00     0.039 C 
ATOM      9  C   UNL     1      13.457  18.694  17.221  1.00  0.00     0.159 C 
ATOM     10  O   UNL     1      14.663  18.664  17.585  1.00  0.00    -0.295 OA
ATOM     11  C   UNL     1      12.464  19.420  18.081  1.00  0.00     0.084 C 
ENDROOT
TORSDOF 0
ENDMDL
MODEL 4
REMARK VINA RESULT:    -4.165      1.014      3.878
REMARK INTER + INTRA:          -4.165
REMARK INTER:                  -4.165
REMARK INTRA:                   0.000
REMARK UNBOUND:                 0.000
REMARK SMILES CC(C)=C1CC[C@H](C)CC1=O
REMARK SMILES IDX 8 1 7 2 6 3 5 4 4 5 2 6 1 7 3 8 10 9 11 10 9 11
REMARK H PARENT
REMARK Flexibility Score: inf
ROOT
ATOM      1  C   UNL     1      16.323  17.947  15.925  1.00  0.00     0.008 C 
ATOM      2  C   UNL     1      15.355  17.699  17.093  1.00  0.00    -0.006 C 
ATOM      3  C   UNL     1      15.067  18.981  17.893  1.00  0.00     0.008 C 
ATOM      4  C   UNL     1      14.282  20.029  17.090  1.00  0.00     0.039 C 
ATOM      5  C   UNL     1      13.053  19.451  16.402  1.00  0.00    -0.006 C 
ATOM      6  C   UNL     1      11.946  20.218  16.171  1.00  0.00    -0.070 C 
ATOM      7  C   UNL     1      11.904  21.674  16.574  1.00  0.00     0.039 C 
ATOM      8  C   UNL     1      10.698  19.645  15.539  1.00  0.00     0.039 C 
ATOM      9  C   UNL     1      13.175  18.053  15.893  1.00  0.00     0.159 C 
ATOM     10  O   UNL     1      12.571  17.679  14.852  1.00  0.00    -0.295 OA
ATOM     11  C   UNL     1      14.041  17.062  16.617  1.00  0.00     0.084 C 
ENDROOT
TORSDOF 0
ENDMDL
MODEL 5
REMARK VINA RESULT:    -4.103     10.095     11.865
REMARK INTER + INTRA:          -4.103
REMARK INTER:                  -4.103
REMARK INTRA:                   0.000
REMARK UNBOUND:                 0.000
REMARK SMILES CC(C)=C1CC[C@H](C)CC1=O
REMARK SMILES IDX 8 1 7 2 6 3 5 4 4 5 2 6 1 7 3 8 10 9 11 10 9 11
REMARK H PARENT
REMARK Flexibility Score: inf
ROOT
ATOM      1  C   UNL     1       5.776  26.510  14.187  1.00  0.00     0.008 C 
ATOM      2  C   UNL     1       6.557  26.307  15.495  1.00  0.00    -0.006 C 
ATOM      3  C   UNL     1       8.035  26.714  15.360  1.00  0.00     0.008 C 
ATOM      4  C   UNL     1       8.227  28.223  15.145  1.00  0.00     0.039 C 
ATOM      5  C   UNL     1       7.451  29.069  16.146  1.00  0.00    -0.006 C 
ATOM      6  C   UNL     1       7.903  30.297  16.535  1.00  0.00    -0.070 C 
ATOM      7  C   UNL     1       9.183  30.873  15.974  1.00  0.00     0.039 C 
ATOM      8  C   UNL     1       7.174  31.125  17.568  1.00  0.00     0.039 C 
ATOM      9  C   UNL     1       6.124  28.534  16.576  1.00  0.00     0.159 C 
ATOM     10  O   UNL     1       5.168  29.305  16.856  1.00  0.00    -0.295 OA
ATOM     11  C   UNL     1       5.905  27.052  16.669  1.00  0.00     0.084 C 
ENDROOT
TORSDOF 0
ENDMDL
MODEL 6
REMARK VINA RESULT:    -4.082      1.312      3.935
REMARK INTER + INTRA:          -4.082
REMARK INTER:                  -4.082
REMARK INTRA:                   0.000
REMARK UNBOUND:                 0.000
REMARK SMILES CC(C)=C1CC[C@H](C)CC1=O
REMARK SMILES IDX 8 1 7 2 6 3 5 4 4 5 2 6 1 7 3 8 10 9 11 10 9 11
REMARK H PARENT
REMARK Flexibility Score: inf
ROOT
ATOM      1  C   UNL     1      14.354  20.244  16.981  1.00  0.00     0.008 C 
ATOM      2  C   UNL     1      13.673  19.038  17.648  1.00  0.00    -0.006 C 
ATOM      3  C   UNL     1      12.306  19.401  18.255  1.00  0.00     0.008 C 
ATOM      4  C   UNL     1      11.257  19.773  17.197  1.00  0.00     0.039 C 
ATOM      5  C   UNL     1      11.170  18.758  16.065  1.00  0.00    -0.006 C 
ATOM      6  C   UNL     1       9.998  18.543  15.397  1.00  0.00    -0.070 C 
ATOM      7  C   UNL     1       8.746  19.316  15.743  1.00  0.00     0.039 C 
ATOM      8  C   UNL     1       9.881  17.500  14.309  1.00  0.00     0.039 C 
ATOM      9  C   UNL     1      12.452  18.111  15.656  1.00  0.00     0.159 C 
ATOM     10  O   UNL     1      12.664  17.777  14.459  1.00  0.00    -0.295 OA
ATOM     11  C   UNL     1      13.525  17.858  16.674  1.00  0.00     0.084 C 
ENDROOT
TORSDOF 0
ENDMDL
MODEL 7
REMARK VINA RESULT:    -4.075      8.189      8.840
REMARK INTER + INTRA:          -4.075
REMARK INTER:                  -4.075
REMARK INTRA:                   0.000
REMARK UNBOUND:                 0.000
REMARK SMILES CC(C)=C1CC[C@H](C)CC1=O
REMARK SMILES IDX 8 1 7 2 6 3 5 4 4 5 2 6 1 7 3 8 10 9 11 10 9 11
REMARK H PARENT
REMARK Flexibility Score: inf
ROOT
ATOM      1  C   UNL     1      12.199  26.441  14.595  1.00  0.00     0.008 C 
ATOM      2  C   UNL     1      12.860  27.209  15.750  1.00  0.00    -0.006 C 
ATOM      3  C   UNL     1      13.746  26.303  16.622  1.00  0.00     0.008 C 
ATOM      4  C   UNL     1      14.986  25.779  15.881  1.00  0.00     0.039 C 
ATOM      5  C   UNL     1      15.758  26.879  15.165  1.00  0.00    -0.006 C 
ATOM      6  C   UNL     1      17.109  26.789  14.981  1.00  0.00    -0.070 C 
ATOM      7  C   UNL     1      17.887  25.587  15.466  1.00  0.00     0.039 C 
ATOM      8  C   UNL     1      17.898  27.896  14.323  1.00  0.00     0.039 C 
ATOM      9  C   UNL     1      14.945  27.985  14.579  1.00  0.00     0.159 C 
ATOM     10  O   UNL     1      15.301  28.568  13.520  1.00  0.00    -0.295 OA
ATOM     11  C   UNL     1      13.669  28.414  15.243  1.00  0.00     0.084 C 
ENDROOT
TORSDOF 0
ENDMDL
MODEL 8
REMARK VINA RESULT:    -4.040      7.799      9.134
REMARK INTER + INTRA:          -4.040
REMARK INTER:                  -4.040
REMARK INTRA:                   0.000
REMARK UNBOUND:                 0.000
REMARK SMILES CC(C)=C1CC[C@H](C)CC1=O
REMARK SMILES IDX 8 1 7 2 6 3 5 4 4 5 2 6 1 7 3 8 10 9 11 10 9 11
REMARK H PARENT
REMARK Flexibility Score: inf
ROOT
ATOM      1  C   UNL     1      17.628  26.870  13.529  1.00  0.00     0.008 C 
ATOM      2  C   UNL     1      17.408  27.319  14.983  1.00  0.00    -0.006 C 
ATOM      3  C   UNL     1      16.418  28.494  15.087  1.00  0.00     0.008 C 
ATOM      4  C   UNL     1      14.985  28.111  14.686  1.00  0.00     0.039 C 
ATOM      5  C   UNL     1      14.497  26.841  15.369  1.00  0.00    -0.006 C 
ATOM      6  C   UNL     1      13.173  26.653  15.648  1.00  0.00    -0.070 C 
ATOM      7  C   UNL     1      12.139  27.690  15.274  1.00  0.00     0.039 C 
ATOM      8  C   UNL     1      12.679  25.424  16.375  1.00  0.00     0.039 C 
ATOM      9  C   UNL     1      15.520  25.779  15.601  1.00  0.00     0.159 C 
ATOM     10  O   UNL     1      15.215  24.557  15.562  1.00  0.00    -0.295 OA
ATOM     11  C   UNL     1      16.947  26.156  15.875  1.00  0.00     0.084 C 
ENDROOT
TORSDOF 0
ENDMDL
MODEL 9
REMARK VINA RESULT:    -3.936      1.701      4.335
REMARK INTER + INTRA:          -3.936
REMARK INTER:                  -3.936
REMARK INTRA:                   0.000
REMARK UNBOUND:                 0.000
REMARK SMILES CC(C)=C1CC[C@H](C)CC1=O
REMARK SMILES IDX 8 1 7 2 6 3 5 4 4 5 2 6 1 7 3 8 10 9 11 10 9 11
REMARK H PARENT
REMARK Flexibility Score: inf
ROOT
ATOM      1  C   UNL     1      15.484  15.331  15.791  1.00  0.00     0.008 C 
ATOM      2  C   UNL     1      15.616  16.709  15.121  1.00  0.00    -0.006 C 
ATOM      3  C   UNL     1      14.386  17.063  14.267  1.00  0.00     0.008 C 
ATOM      4  C   UNL     1      13.113  17.272  15.102  1.00  0.00     0.039 C 
ATOM      5  C   UNL     1      13.325  18.210  16.282  1.00  0.00    -0.006 C 
ATOM      6  C   UNL     1      12.307  18.985  16.761  1.00  0.00    -0.070 C 
ATOM      7  C   UNL     1      10.926  18.929  16.149  1.00  0.00     0.039 C 
ATOM      8  C   UNL     1      12.515  19.961  17.896  1.00  0.00     0.039 C 
ATOM      9  C   UNL     1      14.658  18.142  16.951  1.00  0.00     0.159 C 
ATOM     10  O   UNL     1      14.781  18.341  18.189  1.00  0.00    -0.295 OA
ATOM     11  C   UNL     1      15.886  17.818  16.150  1.00  0.00     0.084 C 
ENDROOT
TORSDOF 0
ENDMDL
