MODEL 1
REMARK VINA RESULT:    -3.971      0.000      0.000
REMARK INTER + INTRA:          -7.527
REMARK INTER:                  -6.873
REMARK INTRA:                  -0.654
REMARK UNBOUND:                -0.654
REMARK SMILES CCCCCCCCCCCCCCO
REMARK SMILES IDX 8 1 7 2 6 3 5 4 4 5 3 6 2 7 1 8 9 9 10 10 11 11 12 12 13 13
REMARK SMILES IDX 14 14 15 15
REMARK H PARENT 15 16
REMARK Flexibility Score: inf
ROOT
ATOM      1  C   UNL     1      15.413   1.633  -1.697  1.00  0.00     0.000 C 
ENDROOT
BRANCH   1   2
ATOM      2  C   UNL     1      14.737   2.002  -3.029  1.00  0.00    -0.000 C 
BRANCH   2   3
ATOM      3  C   UNL     1      14.053   3.377  -2.984  1.00  0.00    -0.000 C 
BRANCH   3   4
ATOM      4  C   UNL     1      13.830   3.878  -1.550  1.00  0.00    -0.000 C 
BRANCH   4   5
ATOM      5  C   UNL     1      12.935   5.124  -1.536  1.00  0.00    -0.000 C 
BRANCH   5   6
ATOM      6  C   UNL     1      11.922   5.061  -0.383  1.00  0.00    -0.000 C 
BRANCH   6   7
ATOM      7  C   UNL     1      10.467   5.026  -0.876  1.00  0.00    -0.003 C 
ATOM      8  C   UNL     1      10.358   4.753  -2.376  1.00  0.00     0.004 C 
ENDBRANCH   6   7
ENDBRANCH   5   6
ENDBRANCH   4   5
ENDBRANCH   3   4
ENDBRANCH   2   3
ENDBRANCH   1   2
BRANCH   1   9
ATOM      9  C   UNL     1      16.932   1.869  -1.722  1.00  0.00     0.000 C 
BRANCH   9  10
ATOM     10  C   UNL     1      17.568   1.467  -3.065  1.00  0.00     0.000 C 
BRANCH  10  11
ATOM     11  C   UNL     1      19.095   1.644  -3.075  1.00  0.00     0.000 C 
BRANCH  11  12
ATOM     12  C   UNL     1      19.843   0.316  -2.862  1.00  0.00     0.002 C 
BRANCH  12  13
ATOM     13  C   UNL     1      20.423   0.187  -1.444  1.00  0.00     0.028 C 
BRANCH  13  14
ATOM     14  C   UNL     1      21.730   0.968  -1.262  1.00  0.00     0.156 C 
BRANCH  14  15
ATOM     15  O   UNL     1      22.575   0.294  -0.370  1.00  0.00    -0.396 OA
ATOM     16  H   UNL     1      22.802  -0.574  -0.795  1.00  0.00     0.210 HD
ENDBRANCH  14  15
ENDBRANCH  13  14
ENDBRANCH  12  13
ENDBRANCH  11  12
ENDBRANCH  10  11
ENDBRANCH   9  10
ENDBRANCH   1   9
TORSDOF 13
ENDMDL
MODEL 2
REMARK VINA RESULT:    -3.886      1.057      1.224
REMARK INTER + INTRA:          -7.379
REMARK INTER:                  -6.709
REMARK INTRA:                  -0.669
REMARK UNBOUND:                -0.654
REMARK SMILES CCCCCCCCCCCCCCO
REMARK SMILES IDX 8 1 7 2 6 3 5 4 4 5 3 6 2 7 1 8 9 9 10 10 11 11 12 12 13 13
REMARK SMILES IDX 14 14 15 15
REMARK H PARENT 15 16
REMARK Flexibility Score: inf
ROOT
ATOM      1  C   UNL     1      15.967   2.299  -1.408  1.00  0.00     0.000 C 
ENDROOT
BRANCH   1   2
ATOM      2  C   UNL     1      15.035   3.407  -1.930  1.00  0.00    -0.000 C 
BRANCH   2   3
ATOM      3  C   UNL     1      13.773   2.848  -2.604  1.00  0.00    -0.000 C 
BRANCH   3   4
ATOM      4  C   UNL     1      12.601   3.840  -2.578  1.00  0.00    -0.000 C 
BRANCH   4   5
ATOM      5  C   UNL     1      12.858   4.968  -1.571  1.00  0.00    -0.000 C 
BRANCH   5   6
ATOM      6  C   UNL     1      11.780   4.986  -0.477  1.00  0.00    -0.000 C 
BRANCH   6   7
ATOM      7  C   UNL     1      10.722   6.076  -0.707  1.00  0.00    -0.003 C 
ATOM      8  C   UNL     1      11.273   7.283  -1.466  1.00  0.00     0.004 C 
ENDBRANCH   6   7
ENDBRANCH   5   6
ENDBRANCH   4   5
ENDBRANCH   3   4
ENDBRANCH   2   3
ENDBRANCH   1   2
BRANCH   1   9
ATOM      9  C   UNL     1      15.721   0.948  -2.097  1.00  0.00     0.000 C 
BRANCH   9  10
ATOM     10  C   UNL     1      16.947   0.460  -2.890  1.00  0.00     0.000 C 
BRANCH  10  11
ATOM     11  C   UNL     1      18.204   1.299  -2.614  1.00  0.00     0.000 C 
BRANCH  11  12
ATOM     12  C   UNL     1      19.488   0.623  -3.124  1.00  0.00     0.002 C 
BRANCH  12  13
ATOM     13  C   UNL     1      20.354   0.065  -1.983  1.00  0.00     0.028 C 
BRANCH  13  14
ATOM     14  C   UNL     1      21.519   0.992  -1.611  1.00  0.00     0.156 C 
BRANCH  14  15
ATOM     15  O   UNL     1      22.191   0.495  -0.486  1.00  0.00    -0.396 OA
ATOM     16  H   UNL     1      21.494   0.162   0.138  1.00  0.00     0.210 HD
ENDBRANCH  14  15
ENDBRANCH  13  14
ENDBRANCH  12  13
ENDBRANCH  11  12
ENDBRANCH  10  11
ENDBRANCH   9  10
ENDBRANCH   1   9
TORSDOF 13
ENDMDL
MODEL 3
REMARK VINA RESULT:    -3.697      3.958      8.708
REMARK INTER + INTRA:          -7.052
REMARK INTER:                  -6.452
REMARK INTRA:                  -0.601
REMARK UNBOUND:                -0.654
REMARK SMILES CCCCCCCCCCCCCCO
REMARK SMILES IDX 8 1 7 2 6 3 5 4 4 5 3 6 2 7 1 8 9 9 10 10 11 11 12 12 13 13
REMARK SMILES IDX 14 14 15 15
REMARK H PARENT 15 16
REMARK Flexibility Score: inf
ROOT
ATOM      1  C   UNL     1      15.738   2.332  -1.215  1.00  0.00     0.000 C 
ENDROOT
BRANCH   1   2
ATOM      2  C   UNL     1      15.440   1.222  -2.238  1.00  0.00    -0.000 C 
BRANCH   2   3
ATOM      3  C   UNL     1      16.702   0.730  -2.962  1.00  0.00    -0.000 C 
BRANCH   3   4
ATOM      4  C   UNL     1      17.946   1.559  -2.610  1.00  0.00    -0.000 C 
BRANCH   4   5
ATOM      5  C   UNL     1      19.230   0.790  -2.943  1.00  0.00    -0.000 C 
BRANCH   5   6
ATOM      6  C   UNL     1      20.441   1.735  -2.989  1.00  0.00    -0.000 C 
BRANCH   6   7
ATOM      7  C   UNL     1      21.752   1.035  -2.600  1.00  0.00    -0.003 C 
ATOM      8  C   UNL     1      21.843   0.740  -1.103  1.00  0.00     0.004 C 
ENDBRANCH   6   7
ENDBRANCH   5   6
ENDBRANCH   4   5
ENDBRANCH   3   4
ENDBRANCH   2   3
ENDBRANCH   1   2
BRANCH   1   9
ATOM      9  C   UNL     1      14.692   3.458  -1.245  1.00  0.00     0.000 C 
BRANCH   9  10
ATOM     10  C   UNL     1      13.760   3.363  -2.465  1.00  0.00     0.000 C 
BRANCH  10  11
ATOM     11  C   UNL     1      12.391   4.016  -2.219  1.00  0.00     0.000 C 
BRANCH  11  12
ATOM     12  C   UNL     1      12.370   4.879  -0.945  1.00  0.00     0.002 C 
BRANCH  12  13
ATOM     13  C   UNL     1      10.951   5.328  -0.560  1.00  0.00     0.028 C 
BRANCH  13  14
ATOM     14  C   UNL     1      10.676   6.796  -0.911  1.00  0.00     0.156 C 
BRANCH  14  15
ATOM     15  O   UNL     1       9.367   6.939  -1.393  1.00  0.00    -0.396 OA
ATOM     16  H   UNL     1       8.765   6.574  -0.693  1.00  0.00     0.210 HD
ENDBRANCH  14  15
ENDBRANCH  13  14
ENDBRANCH  12  13
ENDBRANCH  11  12
ENDBRANCH  10  11
ENDBRANCH   9  10
ENDBRANCH   1   9
TORSDOF 13
ENDMDL
MODEL 4
REMARK VINA RESULT:    -3.633      2.800      5.266
REMARK INTER + INTRA:          -6.941
REMARK INTER:                  -6.074
REMARK INTRA:                  -0.867
REMARK UNBOUND:                -0.654
REMARK SMILES CCCCCCCCCCCCCCO
REMARK SMILES IDX 8 1 7 2 6 3 5 4 4 5 3 6 2 7 1 8 9 9 10 10 11 11 12 12 13 13
REMARK SMILES IDX 14 14 15 15
REMARK H PARENT 15 16
REMARK Flexibility Score: inf
ROOT
ATOM      1  C   UNL     1      11.820   4.966  -0.439  1.00  0.00     0.000 C 
ENDROOT
BRANCH   1   2
ATOM      2  C   UNL     1      10.995   6.265  -0.458  1.00  0.00    -0.000 C 
BRANCH   2   3
ATOM      3  C   UNL     1      10.094   6.375  -1.696  1.00  0.00    -0.000 C 
BRANCH   3   4
ATOM      4  C   UNL     1      10.554   7.472  -2.667  1.00  0.00    -0.000 C 
BRANCH   4   5
ATOM      5  C   UNL     1      11.482   8.472  -1.966  1.00  0.00    -0.000 C 
BRANCH   5   6
ATOM      6  C   UNL     1      12.726   8.760  -2.820  1.00  0.00    -0.000 C 
BRANCH   6   7
ATOM      7  C   UNL     1      13.628   9.842  -2.205  1.00  0.00    -0.003 C 
ATOM      8  C   UNL     1      15.109   9.467  -2.241  1.00  0.00     0.004 C 
ENDBRANCH   6   7
ENDBRANCH   5   6
ENDBRANCH   4   5
ENDBRANCH   3   4
ENDBRANCH   2   3
ENDBRANCH   1   2
BRANCH   1   9
ATOM      9  C   UNL     1      12.974   4.986  -1.454  1.00  0.00     0.000 C 
BRANCH   9  10
ATOM     10  C   UNL     1      12.849   3.874  -2.510  1.00  0.00     0.000 C 
BRANCH  10  11
ATOM     11  C   UNL     1      14.187   3.171  -2.792  1.00  0.00     0.000 C 
BRANCH  11  12
ATOM     12  C   UNL     1      15.014   2.944  -1.516  1.00  0.00     0.002 C 
BRANCH  12  13
ATOM     13  C   UNL     1      15.702   1.568  -1.495  1.00  0.00     0.028 C 
BRANCH  13  14
ATOM     14  C   UNL     1      16.875   1.475  -2.479  1.00  0.00     0.156 C 
BRANCH  14  15
ATOM     15  O   UNL     1      18.064   1.865  -1.849  1.00  0.00    -0.396 OA
ATOM     16  H   UNL     1      18.696   2.124  -2.569  1.00  0.00     0.210 HD
ENDBRANCH  14  15
ENDBRANCH  13  14
ENDBRANCH  12  13
ENDBRANCH  11  12
ENDBRANCH  10  11
ENDBRANCH   9  10
ENDBRANCH   1   9
TORSDOF 13
ENDMDL
MODEL 5
REMARK VINA RESULT:    -3.579      3.839      8.282
REMARK INTER + INTRA:          -6.847
REMARK INTER:                  -5.861
REMARK INTRA:                  -0.986
REMARK UNBOUND:                -0.654
REMARK SMILES CCCCCCCCCCCCCCO
REMARK SMILES IDX 8 1 7 2 6 3 5 4 4 5 3 6 2 7 1 8 9 9 10 10 11 11 12 12 13 13
REMARK SMILES IDX 14 14 15 15
REMARK H PARENT 15 16
REMARK Flexibility Score: inf
ROOT
ATOM      1  C   UNL     1      10.403   4.966  -1.299  1.00  0.00     0.000 C 
ENDROOT
BRANCH   1   2
ATOM      2  C   UNL     1      11.680   5.313  -0.514  1.00  0.00    -0.000 C 
BRANCH   2   3
ATOM      3  C   UNL     1      12.962   4.979  -1.291  1.00  0.00    -0.000 C 
BRANCH   3   4
ATOM      4  C   UNL     1      12.767   3.824  -2.284  1.00  0.00    -0.000 C 
BRANCH   4   5
ATOM      5  C   UNL     1      14.097   3.120  -2.577  1.00  0.00    -0.000 C 
BRANCH   5   6
ATOM      6  C   UNL     1      15.008   3.128  -1.340  1.00  0.00    -0.000 C 
BRANCH   6   7
ATOM      7  C   UNL     1      16.299   2.321  -1.551  1.00  0.00    -0.003 C 
ATOM      8  C   UNL     1      16.071   1.044  -2.360  1.00  0.00     0.004 C 
ENDBRANCH   6   7
ENDBRANCH   5   6
ENDBRANCH   4   5
ENDBRANCH   3   4
ENDBRANCH   2   3
ENDBRANCH   1   2
BRANCH   1   9
ATOM      9  C   UNL     1       9.879   6.151  -2.125  1.00  0.00     0.000 C 
BRANCH   9  10
ATOM     10  C   UNL     1       9.895   7.472  -1.336  1.00  0.00     0.000 C 
BRANCH  10  11
ATOM     11  C   UNL     1      10.210   8.688  -2.221  1.00  0.00     0.000 C 
BRANCH  11  12
ATOM     12  C   UNL     1      11.527   9.379  -1.827  1.00  0.00     0.002 C 
BRANCH  12  13
ATOM     13  C   UNL     1      12.754   8.726  -2.486  1.00  0.00     0.028 C 
BRANCH  13  14
ATOM     14  C   UNL     1      14.033   9.555  -2.313  1.00  0.00     0.156 C 
BRANCH  14  15
ATOM     15  O   UNL     1      15.141   8.833  -2.777  1.00  0.00    -0.396 OA
ATOM     16  H   UNL     1      15.531   8.374  -1.988  1.00  0.00     0.210 HD
ENDBRANCH  14  15
ENDBRANCH  13  14
ENDBRANCH  12  13
ENDBRANCH  11  12
ENDBRANCH  10  11
ENDBRANCH   9  10
ENDBRANCH   1   9
TORSDOF 13
ENDMDL
MODEL 6
REMARK VINA RESULT:    -3.518      2.015      3.698
REMARK INTER + INTRA:          -6.742
REMARK INTER:                  -6.090
REMARK INTRA:                  -0.652
REMARK UNBOUND:                -0.654
REMARK SMILES CCCCCCCCCCCCCCO
REMARK SMILES IDX 8 1 7 2 6 3 5 4 4 5 3 6 2 7 1 8 9 9 10 10 11 11 12 12 13 13
REMARK SMILES IDX 14 14 15 15
REMARK H PARENT 15 16
REMARK Flexibility Score: inf
ROOT
ATOM      1  C   UNL     1      12.629   3.874  -2.553  1.00  0.00     0.000 C 
ENDROOT
BRANCH   1   2
ATOM      2  C   UNL     1      12.498   4.636  -1.222  1.00  0.00    -0.000 C 
BRANCH   2   3
ATOM      3  C   UNL     1      11.040   4.975  -0.876  1.00  0.00    -0.000 C 
BRANCH   3   4
ATOM      4  C   UNL     1      10.850   6.451  -0.500  1.00  0.00    -0.000 C 
BRANCH   4   5
ATOM      5  C   UNL     1       9.892   7.147  -1.475  1.00  0.00    -0.000 C 
BRANCH   5   6
ATOM      6  C   UNL     1       8.955   6.131  -2.145  1.00  0.00    -0.000 C 
BRANCH   6   7
ATOM      7  C   UNL     1       7.543   6.691  -2.377  1.00  0.00    -0.003 C 
ATOM      8  C   UNL     1       7.255   7.933  -1.533  1.00  0.00     0.004 C 
ENDBRANCH   6   7
ENDBRANCH   5   6
ENDBRANCH   4   5
ENDBRANCH   3   4
ENDBRANCH   2   3
ENDBRANCH   1   2
BRANCH   1   9
ATOM      9  C   UNL     1      13.968   3.130  -2.676  1.00  0.00     0.000 C 
BRANCH   9  10
ATOM     10  C   UNL     1      14.808   3.212  -1.388  1.00  0.00     0.000 C 
BRANCH  10  11
ATOM     11  C   UNL     1      16.014   2.260  -1.405  1.00  0.00     0.000 C 
BRANCH  11  12
ATOM     12  C   UNL     1      16.588   2.060  -2.818  1.00  0.00     0.002 C 
BRANCH  12  13
ATOM     13  C   UNL     1      17.624   0.925  -2.879  1.00  0.00     0.028 C 
BRANCH  13  14
ATOM     14  C   UNL     1      19.055   1.437  -3.090  1.00  0.00     0.156 C 
BRANCH  14  15
ATOM     15  O   UNL     1      19.792   1.310  -1.905  1.00  0.00    -0.396 OA
ATOM     16  H   UNL     1      19.135   1.287  -1.162  1.00  0.00     0.210 HD
ENDBRANCH  14  15
ENDBRANCH  13  14
ENDBRANCH  12  13
ENDBRANCH  11  12
ENDBRANCH  10  11
ENDBRANCH   9  10
ENDBRANCH   1   9
TORSDOF 13
ENDMDL
MODEL 7
REMARK VINA RESULT:    -3.478      3.921      6.350
REMARK INTER + INTRA:          -6.672
REMARK INTER:                  -5.664
REMARK INTRA:                  -1.008
REMARK UNBOUND:                -0.654
REMARK SMILES CCCCCCCCCCCCCCO
REMARK SMILES IDX 8 1 7 2 6 3 5 4 4 5 3 6 2 7 1 8 9 9 10 10 11 11 12 12 13 13
REMARK SMILES IDX 14 14 15 15
REMARK H PARENT 15 16
REMARK Flexibility Score: inf
ROOT
ATOM      1  C   UNL     1      10.928   6.430  -0.404  1.00  0.00     0.000 C 
ENDROOT
BRANCH   1   2
ATOM      2  C   UNL     1       9.903   6.774  -1.498  1.00  0.00    -0.000 C 
BRANCH   2   3
ATOM      3  C   UNL     1      10.206   8.110  -2.193  1.00  0.00    -0.000 C 
BRANCH   3   4
ATOM      4  C   UNL     1      11.523   8.080  -2.982  1.00  0.00    -0.000 C 
BRANCH   4   5
ATOM      5  C   UNL     1      12.495   9.150  -2.470  1.00  0.00    -0.000 C 
BRANCH   5   6
ATOM      6  C   UNL     1      11.869   9.958  -1.323  1.00  0.00    -0.000 C 
BRANCH   6   7
ATOM      7  C   UNL     1      11.806  11.463  -1.625  1.00  0.00    -0.003 C 
ATOM      8  C   UNL     1      11.122  12.261  -0.515  1.00  0.00     0.004 C 
ENDBRANCH   6   7
ENDBRANCH   5   6
ENDBRANCH   4   5
ENDBRANCH   3   4
ENDBRANCH   2   3
ENDBRANCH   1   2
BRANCH   1   9
ATOM      9  C   UNL     1      11.510   5.017  -0.566  1.00  0.00     0.000 C 
BRANCH   9  10
ATOM     10  C   UNL     1      12.849   5.015  -1.326  1.00  0.00     0.000 C 
BRANCH  10  11
ATOM     11  C   UNL     1      12.816   4.132  -2.584  1.00  0.00     0.000 C 
BRANCH  11  12
ATOM     12  C   UNL     1      14.150   3.406  -2.829  1.00  0.00     0.002 C 
BRANCH  12  13
ATOM     13  C   UNL     1      14.873   3.042  -1.521  1.00  0.00     0.028 C 
BRANCH  13  14
ATOM     14  C   UNL     1      15.735   1.780  -1.649  1.00  0.00     0.156 C 
BRANCH  14  15
ATOM     15  O   UNL     1      15.149   0.886  -2.556  1.00  0.00    -0.396 OA
ATOM     16  H   UNL     1      15.865   0.607  -3.184  1.00  0.00     0.210 HD
ENDBRANCH  14  15
ENDBRANCH  13  14
ENDBRANCH  12  13
ENDBRANCH  11  12
ENDBRANCH  10  11
ENDBRANCH   9  10
ENDBRANCH   1   9
TORSDOF 13
ENDMDL
MODEL 8
REMARK VINA RESULT:    -3.427      6.255     10.130
REMARK INTER + INTRA:          -6.585
REMARK INTER:                  -5.818
REMARK INTRA:                  -0.767
REMARK UNBOUND:                -0.654
REMARK SMILES CCCCCCCCCCCCCCO
REMARK SMILES IDX 8 1 7 2 6 3 5 4 4 5 3 6 2 7 1 8 9 9 10 10 11 11 12 12 13 13
REMARK SMILES IDX 14 14 15 15
REMARK H PARENT 15 16
REMARK Flexibility Score: inf
ROOT
ATOM      1  C   UNL     1      11.015   7.260  -1.963  1.00  0.00     0.000 C 
ENDROOT
BRANCH   1   2
ATOM      2  C   UNL     1      10.918   6.506  -0.625  1.00  0.00    -0.000 C 
BRANCH   2   3
ATOM      3  C   UNL     1      11.516   5.093  -0.698  1.00  0.00    -0.000 C 
BRANCH   3   4
ATOM      4  C   UNL     1      11.079   4.330  -1.957  1.00  0.00    -0.000 C 
BRANCH   4   5
ATOM      5  C   UNL     1      12.294   3.799  -2.728  1.00  0.00    -0.000 C 
BRANCH   5   6
ATOM      6  C   UNL     1      13.570   3.897  -1.879  1.00  0.00    -0.000 C 
BRANCH   6   7
ATOM      7  C   UNL     1      14.619   2.843  -2.264  1.00  0.00    -0.003 C 
ATOM      8  C   UNL     1      15.831   2.847  -1.332  1.00  0.00     0.004 C 
ENDBRANCH   6   7
ENDBRANCH   5   6
ENDBRANCH   4   5
ENDBRANCH   3   4
ENDBRANCH   2   3
ENDBRANCH   1   2
BRANCH   1   9
ATOM      9  C   UNL     1      12.424   7.814  -2.225  1.00  0.00     0.000 C 
BRANCH   9  10
ATOM     10  C   UNL     1      12.425   9.336  -2.453  1.00  0.00     0.000 C 
BRANCH  10  11
ATOM     11  C   UNL     1      11.632  10.097  -1.378  1.00  0.00     0.000 C 
BRANCH  11  12
ATOM     12  C   UNL     1      11.606  11.615  -1.629  1.00  0.00     0.002 C 
BRANCH  12  13
ATOM     13  C   UNL     1      10.969  12.394  -0.466  1.00  0.00     0.028 C 
BRANCH  13  14
ATOM     14  C   UNL     1       9.689  13.133  -0.876  1.00  0.00     0.156 C 
BRANCH  14  15
ATOM     15  O   UNL     1       8.675  12.899   0.063  1.00  0.00    -0.396 OA
ATOM     16  H   UNL     1       8.187  12.090  -0.240  1.00  0.00     0.210 HD
ENDBRANCH  14  15
ENDBRANCH  13  14
ENDBRANCH  12  13
ENDBRANCH  11  12
ENDBRANCH  10  11
ENDBRANCH   9  10
ENDBRANCH   1   9
TORSDOF 13
ENDMDL
MODEL 9
REMARK VINA RESULT:    -3.280      4.681      9.397
REMARK INTER + INTRA:          -6.330
REMARK INTER:                  -5.791
REMARK INTRA:                  -0.539
REMARK UNBOUND:                -0.654
REMARK SMILES CCCCCCCCCCCCCCO
REMARK SMILES IDX 8 1 7 2 6 3 5 4 4 5 3 6 2 7 1 8 9 9 10 10 11 11 12 12 13 13
REMARK SMILES IDX 14 14 15 15
REMARK H PARENT 15 16
REMARK Flexibility Score: inf
ROOT
ATOM      1  C   UNL     1      13.142   4.649  -1.264  1.00  0.00     0.000 C 
ENDROOT
BRANCH   1   2
ATOM      2  C   UNL     1      13.005   3.542  -2.325  1.00  0.00    -0.000 C 
BRANCH   2   3
ATOM      3  C   UNL     1      14.351   3.164  -2.961  1.00  0.00    -0.000 C 
BRANCH   3   4
ATOM      4  C   UNL     1      15.404   2.757  -1.919  1.00  0.00    -0.000 C 
BRANCH   4   5
ATOM      5  C   UNL     1      15.522   1.230  -1.824  1.00  0.00    -0.000 C 
BRANCH   5   6
ATOM      6  C   UNL     1      16.597   0.701  -2.786  1.00  0.00    -0.000 C 
BRANCH   6   7
ATOM      7  C   UNL     1      17.852   1.587  -2.815  1.00  0.00    -0.003 C 
ATOM      8  C   UNL     1      19.147   0.777  -2.763  1.00  0.00     0.004 C 
ENDBRANCH   6   7
ENDBRANCH   5   6
ENDBRANCH   4   5
ENDBRANCH   3   4
ENDBRANCH   2   3
ENDBRANCH   1   2
BRANCH   1   9
ATOM      9  C   UNL     1      11.787   5.259  -0.872  1.00  0.00     0.000 C 
BRANCH   9  10
ATOM     10  C   UNL     1      10.607   4.593  -1.603  1.00  0.00     0.000 C 
BRANCH  10  11
ATOM     11  C   UNL     1      10.044   5.464  -2.737  1.00  0.00     0.000 C 
BRANCH  11  12
ATOM     12  C   UNL     1       8.621   5.968  -2.441  1.00  0.00     0.002 C 
BRANCH  12  13
ATOM     13  C   UNL     1       8.446   7.462  -2.763  1.00  0.00     0.028 C 
BRANCH  13  14
ATOM     14  C   UNL     1       8.640   8.361  -1.536  1.00  0.00     0.156 C 
BRANCH  14  15
ATOM     15  O   UNL     1       7.521   8.281  -0.696  1.00  0.00    -0.396 OA
ATOM     16  H   UNL     1       6.986   7.505  -1.009  1.00  0.00     0.210 HD
ENDBRANCH  14  15
ENDBRANCH  13  14
ENDBRANCH  12  13
ENDBRANCH  11  12
ENDBRANCH  10  11
ENDBRANCH   9  10
ENDBRANCH   1   9
TORSDOF 13
ENDMDL
