MODEL 1
REMARK VINA RESULT:    -5.582      0.000      0.000
REMARK INTER + INTRA:         -16.916
REMARK INTER:                 -14.066
REMARK INTRA:                  -2.850
REMARK UNBOUND:                -2.850
REMARK SMILES CCCCCCCCCCCCCCCCCCCCCCCCCCCC(=O)[O-]
REMARK SMILES IDX 15 1 16 2 17 3 18 4 19 5 20 6 21 7 22 8 23 9 24 10 25 11
REMARK SMILES IDX 26 12 27 13 28 14 29 15 30 16 14 17 13 18 12 19 11 20 10 21
REMARK SMILES IDX 9 22 8 23 7 24 6 25 5 26 4 27 3 28 2 29 1 30
REMARK H PARENT
REMARK Flexibility Score: inf
ROOT
ATOM      1  C   UNL     1      43.747   5.354 127.502  1.00  0.00     0.000 C 
ENDROOT
BRANCH   1   2
ATOM      2  C   UNL     1      43.450   6.338 128.652  1.00  0.00     0.000 C 
BRANCH   2   3
ATOM      3  C   UNL     1      44.021   5.911 130.017  1.00  0.00     0.000 C 
BRANCH   3   4
ATOM      4  C   UNL     1      45.069   4.790 129.907  1.00  0.00     0.000 C 
BRANCH   4   5
ATOM      5  C   UNL     1      46.521   5.304 129.962  1.00  0.00     0.000 C 
BRANCH   5   6
ATOM      6  C   UNL     1      47.461   4.542 130.919  1.00  0.00     0.000 C 
BRANCH   6   7
ATOM      7  C   UNL     1      46.830   4.261 132.294  1.00  0.00     0.000 C 
BRANCH   7   8
ATOM      8  C   UNL     1      46.878   2.771 132.667  1.00  0.00     0.000 C 
BRANCH   8   9
ATOM      9  C   UNL     1      45.665   2.332 133.507  1.00  0.00     0.000 C 
BRANCH   9  10
ATOM     10  C   UNL     1      44.448   3.258 133.298  1.00  0.00     0.000 C 
BRANCH  10  11
ATOM     11  C   UNL     1      43.306   2.607 132.494  1.00  0.00     0.000 C 
BRANCH  11  12
ATOM     12  C   UNL     1      43.561   1.150 132.064  1.00  0.00     0.006 C 
BRANCH  12  13
ATOM     13  C   UNL     1      42.336   0.232 132.190  1.00  0.00     0.053 C 
BRANCH  13  14
ATOM     14  C   UNL     1      42.312  -0.490 133.502  1.00  0.00     0.041 C 
ATOM     15  O   UNL     1      43.253  -0.338 134.325  1.00  0.00    -0.550 OA
ATOM     16  O   UNL     1      41.274  -1.362 133.799  1.00  0.00    -0.550 OA
ENDBRANCH  13  14
ENDBRANCH  12  13
ENDBRANCH  11  12
ENDBRANCH  10  11
ENDBRANCH   9  10
ENDBRANCH   8   9
ENDBRANCH   7   8
ENDBRANCH   6   7
ENDBRANCH   5   6
ENDBRANCH   4   5
ENDBRANCH   3   4
ENDBRANCH   2   3
ENDBRANCH   1   2
BRANCH   1  17
ATOM     17  C   UNL     1      44.647   5.962 126.408  1.00  0.00     0.000 C 
BRANCH  17  18
ATOM     18  C   UNL     1      45.488   7.152 126.912  1.00  0.00     0.000 C 
BRANCH  18  19
ATOM     19  C   UNL     1      46.989   6.846 127.078  1.00  0.00     0.000 C 
BRANCH  19  20
ATOM     20  C   UNL     1      47.876   7.593 126.070  1.00  0.00     0.000 C 
BRANCH  20  21
ATOM     21  C   UNL     1      47.026   8.369 125.051  1.00  0.00     0.000 C 
BRANCH  21  22
ATOM     22  C   UNL     1      47.672   8.426 123.656  1.00  0.00    -0.000 C 
BRANCH  22  23
ATOM     23  C   UNL     1      47.690   9.846 123.070  1.00  0.00    -0.000 C 
BRANCH  23  24
ATOM     24  C   UNL     1      47.469  10.902 124.160  1.00  0.00    -0.000 C 
BRANCH  24  25
ATOM     25  C   UNL     1      46.539  12.015 123.659  1.00  0.00    -0.000 C 
BRANCH  25  26
ATOM     26  C   UNL     1      45.064  11.765 124.013  1.00  0.00    -0.000 C 
BRANCH  26  27
ATOM     27  C   UNL     1      44.173  11.491 122.783  1.00  0.00    -0.000 C 
BRANCH  27  28
ATOM     28  C   UNL     1      44.956  11.604 121.464  1.00  0.00    -0.000 C 
BRANCH  28  29
ATOM     29  C   UNL     1      44.400  12.696 120.537  1.00  0.00    -0.003 C 
ATOM     30  C   UNL     1      44.578  14.103 121.106  1.00  0.00     0.004 C 
ENDBRANCH  28  29
ENDBRANCH  27  28
ENDBRANCH  26  27
ENDBRANCH  25  26
ENDBRANCH  24  25
ENDBRANCH  23  24
ENDBRANCH  22  23
ENDBRANCH  21  22
ENDBRANCH  20  21
ENDBRANCH  19  20
ENDBRANCH  18  19
ENDBRANCH  17  18
ENDBRANCH   1  17
TORSDOF 26
ENDMDL
MODEL 2
REMARK VINA RESULT:    -5.526      4.873     12.192
REMARK INTER + INTRA:         -16.774
REMARK INTER:                 -14.252
REMARK INTRA:                  -2.523
REMARK UNBOUND:                -2.850
REMARK SMILES CCCCCCCCCCCCCCCCCCCCCCCCCCCC(=O)[O-]
REMARK SMILES IDX 15 1 16 2 17 3 18 4 19 5 20 6 21 7 22 8 23 9 24 10 25 11
REMARK SMILES IDX 26 12 27 13 28 14 29 15 30 16 14 17 13 18 12 19 11 20 10 21
REMARK SMILES IDX 9 22 8 23 7 24 6 25 5 26 4 27 3 28 2 29 1 30
REMARK H PARENT
REMARK Flexibility Score: inf
ROOT
ATOM      1  C   UNL     1      43.511   5.952 127.211  1.00  0.00     0.000 C 
ENDROOT
BRANCH   1   2
ATOM      2  C   UNL     1      44.765   6.096 126.326  1.00  0.00     0.000 C 
BRANCH   2   3
ATOM      3  C   UNL     1      45.578   7.378 126.579  1.00  0.00     0.000 C 
BRANCH   3   4
ATOM      4  C   UNL     1      47.098   7.156 126.487  1.00  0.00     0.000 C 
BRANCH   4   5
ATOM      5  C   UNL     1      47.792   8.087 125.474  1.00  0.00     0.000 C 
BRANCH   5   6
ATOM      6  C   UNL     1      47.190   8.094 124.054  1.00  0.00     0.000 C 
BRANCH   6   7
ATOM      7  C   UNL     1      47.272   9.468 123.366  1.00  0.00     0.000 C 
BRANCH   7   8
ATOM      8  C   UNL     1      47.355  10.624 124.374  1.00  0.00     0.000 C 
BRANCH   8   9
ATOM      9  C   UNL     1      46.533  11.850 123.937  1.00  0.00     0.000 C 
BRANCH   9  10
ATOM     10  C   UNL     1      45.014  11.613 124.084  1.00  0.00     0.000 C 
BRANCH  10  11
ATOM     11  C   UNL     1      44.257  11.605 122.742  1.00  0.00     0.000 C 
BRANCH  11  12
ATOM     12  C   UNL     1      44.584  12.782 121.803  1.00  0.00     0.006 C 
BRANCH  12  13
ATOM     13  C   UNL     1      44.638  12.404 120.315  1.00  0.00     0.053 C 
BRANCH  13  14
ATOM     14  C   UNL     1      45.678  11.362 120.040  1.00  0.00     0.041 C 
ATOM     15  O   UNL     1      45.362  10.291 119.458  1.00  0.00    -0.550 OA
ATOM     16  O   UNL     1      46.986  11.554 120.462  1.00  0.00    -0.550 OA
ENDBRANCH  13  14
ENDBRANCH  12  13
ENDBRANCH  11  12
ENDBRANCH  10  11
ENDBRANCH   9  10
ENDBRANCH   8   9
ENDBRANCH   7   8
ENDBRANCH   6   7
ENDBRANCH   5   6
ENDBRANCH   4   5
ENDBRANCH   3   4
ENDBRANCH   2   3
ENDBRANCH   1   2
BRANCH   1  17
ATOM     17  C   UNL     1      43.544   6.866 128.453  1.00  0.00     0.000 C 
BRANCH  17  18
ATOM     18  C   UNL     1      43.856   6.102 129.755  1.00  0.00     0.000 C 
BRANCH  18  19
ATOM     19  C   UNL     1      44.976   5.052 129.624  1.00  0.00     0.000 C 
BRANCH  19  20
ATOM     20  C   UNL     1      46.386   5.656 129.695  1.00  0.00     0.000 C 
BRANCH  20  21
ATOM     21  C   UNL     1      47.396   4.645 130.263  1.00  0.00     0.000 C 
BRANCH  21  22
ATOM     22  C   UNL     1      47.392   4.596 131.800  1.00  0.00    -0.000 C 
BRANCH  22  23
ATOM     23  C   UNL     1      46.896   3.250 132.349  1.00  0.00    -0.000 C 
BRANCH  23  24
ATOM     24  C   UNL     1      45.825   3.449 133.428  1.00  0.00    -0.000 C 
BRANCH  24  25
ATOM     25  C   UNL     1      44.535   2.705 133.058  1.00  0.00    -0.000 C 
BRANCH  25  26
ATOM     26  C   UNL     1      44.493   1.271 133.610  1.00  0.00    -0.000 C 
BRANCH  26  27
ATOM     27  C   UNL     1      44.327   0.194 132.517  1.00  0.00    -0.000 C 
BRANCH  27  28
ATOM     28  C   UNL     1      43.013   0.362 131.736  1.00  0.00    -0.000 C 
BRANCH  28  29
ATOM     29  C   UNL     1      41.769   0.198 132.624  1.00  0.00    -0.003 C 
ATOM     30  C   UNL     1      41.854  -1.019 133.543  1.00  0.00     0.004 C 
ENDBRANCH  28  29
ENDBRANCH  27  28
ENDBRANCH  26  27
ENDBRANCH  25  26
ENDBRANCH  24  25
ENDBRANCH  23  24
ENDBRANCH  22  23
ENDBRANCH  21  22
ENDBRANCH  20  21
ENDBRANCH  19  20
ENDBRANCH  18  19
ENDBRANCH  17  18
ENDBRANCH   1  17
TORSDOF 26
ENDMDL
MODEL 3
REMARK VINA RESULT:    -5.509      5.274     11.680
REMARK INTER + INTRA:         -16.731
REMARK INTER:                 -13.883
REMARK INTRA:                  -2.848
REMARK UNBOUND:                -2.850
REMARK SMILES CCCCCCCCCCCCCCCCCCCCCCCCCCCC(=O)[O-]
REMARK SMILES IDX 15 1 16 2 17 3 18 4 19 5 20 6 21 7 22 8 23 9 24 10 25 11
REMARK SMILES IDX 26 12 27 13 28 14 29 15 30 16 14 17 13 18 12 19 11 20 10 21
REMARK SMILES IDX 9 22 8 23 7 24 6 25 5 26 4 27 3 28 2 29 1 30
REMARK H PARENT
REMARK Flexibility Score: inf
ROOT
ATOM      1  C   UNL     1      43.560   4.850 126.751  1.00  0.00     0.000 C 
ENDROOT
BRANCH   1   2
ATOM      2  C   UNL     1      45.000   5.291 126.420  1.00  0.00     0.000 C 
BRANCH   2   3
ATOM      3  C   UNL     1      45.092   6.493 125.462  1.00  0.00     0.000 C 
BRANCH   3   4
ATOM      4  C   UNL     1      45.883   7.673 126.050  1.00  0.00     0.000 C 
BRANCH   4   5
ATOM      5  C   UNL     1      47.405   7.556 125.839  1.00  0.00     0.000 C 
BRANCH   5   6
ATOM      6  C   UNL     1      48.065   8.729 125.086  1.00  0.00     0.000 C 
BRANCH   6   7
ATOM      7  C   UNL     1      47.779   8.718 123.574  1.00  0.00     0.000 C 
BRANCH   7   8
ATOM      8  C   UNL     1      46.609   9.636 123.191  1.00  0.00     0.000 C 
BRANCH   8   9
ATOM      9  C   UNL     1      46.672  11.001 123.899  1.00  0.00     0.000 C 
BRANCH   9  10
ATOM     10  C   UNL     1      45.273  11.632 124.071  1.00  0.00     0.000 C 
BRANCH  10  11
ATOM     11  C   UNL     1      44.303  11.309 122.918  1.00  0.00     0.000 C 
BRANCH  11  12
ATOM     12  C   UNL     1      44.313  12.321 121.756  1.00  0.00     0.006 C 
BRANCH  12  13
ATOM     13  C   UNL     1      45.238  11.936 120.592  1.00  0.00     0.053 C 
BRANCH  13  14
ATOM     14  C   UNL     1      44.514  11.931 119.281  1.00  0.00     0.041 C 
ATOM     15  O   UNL     1      44.951  11.246 118.320  1.00  0.00    -0.550 OA
ATOM     16  O   UNL     1      43.382  12.715 119.107  1.00  0.00    -0.550 OA
ENDBRANCH  13  14
ENDBRANCH  12  13
ENDBRANCH  11  12
ENDBRANCH  10  11
ENDBRANCH   9  10
ENDBRANCH   8   9
ENDBRANCH   7   8
ENDBRANCH   6   7
ENDBRANCH   5   6
ENDBRANCH   4   5
ENDBRANCH   3   4
ENDBRANCH   2   3
ENDBRANCH   1   2
BRANCH   1  17
ATOM     17  C   UNL     1      42.612   6.039 127.007  1.00  0.00     0.000 C 
BRANCH  17  18
ATOM     18  C   UNL     1      42.481   6.395 128.501  1.00  0.00     0.000 C 
BRANCH  18  19
ATOM     19  C   UNL     1      43.535   7.396 129.012  1.00  0.00     0.000 C 
BRANCH  19  20
ATOM     20  C   UNL     1      44.764   6.718 129.635  1.00  0.00     0.000 C 
BRANCH  20  21
ATOM     21  C   UNL     1      46.058   7.460 129.260  1.00  0.00     0.000 C 
BRANCH  21  22
ATOM     22  C   UNL     1      47.312   6.583 129.408  1.00  0.00    -0.000 C 
BRANCH  22  23
ATOM     23  C   UNL     1      46.978   5.091 129.563  1.00  0.00    -0.000 C 
BRANCH  23  24
ATOM     24  C   UNL     1      47.487   4.542 130.901  1.00  0.00    -0.000 C 
BRANCH  24  25
ATOM     25  C   UNL     1      46.313   4.182 131.823  1.00  0.00    -0.000 C 
BRANCH  25  26
ATOM     26  C   UNL     1      46.566   2.904 132.639  1.00  0.00    -0.000 C 
BRANCH  26  27
ATOM     27  C   UNL     1      45.303   2.360 133.340  1.00  0.00    -0.000 C 
BRANCH  27  28
ATOM     28  C   UNL     1      44.175   2.053 132.342  1.00  0.00    -0.000 C 
BRANCH  28  29
ATOM     29  C   UNL     1      43.864   0.551 132.242  1.00  0.00    -0.003 C 
ATOM     30  C   UNL     1      42.391   0.269 131.951  1.00  0.00     0.004 C 
ENDBRANCH  28  29
ENDBRANCH  27  28
ENDBRANCH  26  27
ENDBRANCH  25  26
ENDBRANCH  24  25
ENDBRANCH  23  24
ENDBRANCH  22  23
ENDBRANCH  21  22
ENDBRANCH  20  21
ENDBRANCH  19  20
ENDBRANCH  18  19
ENDBRANCH  17  18
ENDBRANCH   1  17
TORSDOF 26
ENDMDL
MODEL 4
REMARK VINA RESULT:    -5.489      5.023     11.872
REMARK INTER + INTRA:         -16.681
REMARK INTER:                 -13.798
REMARK INTRA:                  -2.882
REMARK UNBOUND:                -2.850
REMARK SMILES CCCCCCCCCCCCCCCCCCCCCCCCCCCC(=O)[O-]
REMARK SMILES IDX 15 1 16 2 17 3 18 4 19 5 20 6 21 7 22 8 23 9 24 10 25 11
REMARK SMILES IDX 26 12 27 13 28 14 29 15 30 16 14 17 13 18 12 19 11 20 10 21
REMARK SMILES IDX 9 22 8 23 7 24 6 25 5 26 4 27 3 28 2 29 1 30
REMARK H PARENT
REMARK Flexibility Score: inf
ROOT
ATOM      1  C   UNL     1      42.903   6.372 128.259  1.00  0.00     0.000 C 
ENDROOT
BRANCH   1   2
ATOM      2  C   UNL     1      43.040   5.830 126.821  1.00  0.00     0.000 C 
BRANCH   2   3
ATOM      3  C   UNL     1      44.471   5.419 126.430  1.00  0.00     0.000 C 
BRANCH   3   4
ATOM      4  C   UNL     1      45.116   6.377 125.414  1.00  0.00     0.000 C 
BRANCH   4   5
ATOM      5  C   UNL     1      45.854   7.560 126.071  1.00  0.00     0.000 C 
BRANCH   5   6
ATOM      6  C   UNL     1      47.394   7.482 126.045  1.00  0.00     0.000 C 
BRANCH   6   7
ATOM      7  C   UNL     1      48.040   8.534 125.126  1.00  0.00     0.000 C 
BRANCH   7   8
ATOM      8  C   UNL     1      47.562   8.414 123.671  1.00  0.00     0.000 C 
BRANCH   8   9
ATOM      9  C   UNL     1      47.020   9.743 123.115  1.00  0.00     0.000 C 
BRANCH   9  10
ATOM     10  C   UNL     1      46.790  10.788 124.228  1.00  0.00     0.000 C 
BRANCH  10  11
ATOM     11  C   UNL     1      45.492  11.601 124.055  1.00  0.00     0.000 C 
BRANCH  11  12
ATOM     12  C   UNL     1      44.580  11.132 122.906  1.00  0.00     0.006 C 
BRANCH  12  13
ATOM     13  C   UNL     1      44.347  12.189 121.815  1.00  0.00     0.053 C 
BRANCH  13  14
ATOM     14  C   UNL     1      45.631  12.636 121.188  1.00  0.00     0.041 C 
ATOM     15  O   UNL     1      46.088  13.784 121.432  1.00  0.00    -0.550 OA
ATOM     16  O   UNL     1      46.301  11.804 120.302  1.00  0.00    -0.550 OA
ENDBRANCH  13  14
ENDBRANCH  12  13
ENDBRANCH  11  12
ENDBRANCH  10  11
ENDBRANCH   9  10
ENDBRANCH   8   9
ENDBRANCH   7   8
ENDBRANCH   6   7
ENDBRANCH   5   6
ENDBRANCH   4   5
ENDBRANCH   3   4
ENDBRANCH   2   3
ENDBRANCH   1   2
BRANCH   1  17
ATOM     17  C   UNL     1      44.102   6.002 129.156  1.00  0.00     0.000 C 
BRANCH  17  18
ATOM     18  C   UNL     1      45.078   7.175 129.371  1.00  0.00     0.000 C 
BRANCH  18  19
ATOM     19  C   UNL     1      46.555   6.756 129.511  1.00  0.00     0.000 C 
BRANCH  19  20
ATOM     20  C   UNL     1      46.810   5.292 129.124  1.00  0.00     0.000 C 
BRANCH  20  21
ATOM     21  C   UNL     1      47.683   4.584 130.173  1.00  0.00     0.000 C 
BRANCH  21  22
ATOM     22  C   UNL     1      47.060   4.604 131.579  1.00  0.00    -0.000 C 
BRANCH  22  23
ATOM     23  C   UNL     1      47.080   3.225 132.256  1.00  0.00    -0.000 C 
BRANCH  23  24
ATOM     24  C   UNL     1      45.854   3.028 133.156  1.00  0.00    -0.000 C 
BRANCH  24  25
ATOM     25  C   UNL     1      44.603   3.642 132.512  1.00  0.00    -0.000 C 
BRANCH  25  26
ATOM     26  C   UNL     1      43.359   2.752 132.661  1.00  0.00    -0.000 C 
BRANCH  26  27
ATOM     27  C   UNL     1      43.651   1.247 132.481  1.00  0.00    -0.000 C 
BRANCH  27  28
ATOM     28  C   UNL     1      42.365   0.405 132.477  1.00  0.00    -0.000 C 
BRANCH  28  29
ATOM     29  C   UNL     1      42.315  -0.607 133.633  1.00  0.00    -0.003 C 
ATOM     30  C   UNL     1      40.898  -1.085 133.941  1.00  0.00     0.004 C 
ENDBRANCH  28  29
ENDBRANCH  27  28
ENDBRANCH  26  27
ENDBRANCH  25  26
ENDBRANCH  24  25
ENDBRANCH  23  24
ENDBRANCH  22  23
ENDBRANCH  21  22
ENDBRANCH  20  21
ENDBRANCH  19  20
ENDBRANCH  18  19
ENDBRANCH  17  18
ENDBRANCH   1  17
TORSDOF 26
ENDMDL
MODEL 5
REMARK VINA RESULT:    -5.300      4.912     11.255
REMARK INTER + INTRA:         -16.205
REMARK INTER:                 -13.287
REMARK INTRA:                  -2.918
REMARK UNBOUND:                -2.850
REMARK SMILES CCCCCCCCCCCCCCCCCCCCCCCCCCCC(=O)[O-]
REMARK SMILES IDX 15 1 16 2 17 3 18 4 19 5 20 6 21 7 22 8 23 9 24 10 25 11
REMARK SMILES IDX 26 12 27 13 28 14 29 15 30 16 14 17 13 18 12 19 11 20 10 21
REMARK SMILES IDX 9 22 8 23 7 24 6 25 5 26 4 27 3 28 2 29 1 30
REMARK H PARENT
REMARK Flexibility Score: inf
ROOT
ATOM      1  C   UNL     1      42.318   6.028 127.505  1.00  0.00     0.000 C 
ENDROOT
BRANCH   1   2
ATOM      2  C   UNL     1      42.975   6.406 128.848  1.00  0.00     0.000 C 
BRANCH   2   3
ATOM      3  C   UNL     1      43.671   7.779 128.851  1.00  0.00     0.000 C 
BRANCH   3   4
ATOM      4  C   UNL     1      45.200   7.679 128.986  1.00  0.00     0.000 C 
BRANCH   4   5
ATOM      5  C   UNL     1      45.952   8.006 127.681  1.00  0.00     0.000 C 
BRANCH   5   6
ATOM      6  C   UNL     1      47.408   7.504 127.608  1.00  0.00     0.000 C 
BRANCH   6   7
ATOM      7  C   UNL     1      47.990   7.535 126.183  1.00  0.00     0.000 C 
BRANCH   7   8
ATOM      8  C   UNL     1      46.929   7.872 125.124  1.00  0.00     0.000 C 
BRANCH   8   9
ATOM      9  C   UNL     1      47.548   8.251 123.767  1.00  0.00     0.000 C 
BRANCH   9  10
ATOM     10  C   UNL     1      47.059   9.628 123.270  1.00  0.00     0.000 C 
BRANCH  10  11
ATOM     11  C   UNL     1      46.678  10.596 124.407  1.00  0.00     0.000 C 
BRANCH  11  12
ATOM     12  C   UNL     1      46.044  11.923 123.946  1.00  0.00     0.006 C 
BRANCH  12  13
ATOM     13  C   UNL     1      44.697  11.760 123.224  1.00  0.00     0.053 C 
BRANCH  13  14
ATOM     14  C   UNL     1      44.771  12.206 121.797  1.00  0.00     0.041 C 
ATOM     15  O   UNL     1      43.718  12.318 121.114  1.00  0.00    -0.550 OA
ATOM     16  O   UNL     1      46.001  12.459 121.207  1.00  0.00    -0.550 OA
ENDBRANCH  13  14
ENDBRANCH  12  13
ENDBRANCH  11  12
ENDBRANCH  10  11
ENDBRANCH   9  10
ENDBRANCH   8   9
ENDBRANCH   7   8
ENDBRANCH   6   7
ENDBRANCH   5   6
ENDBRANCH   4   5
ENDBRANCH   3   4
ENDBRANCH   2   3
ENDBRANCH   1   2
BRANCH   1  17
ATOM     17  C   UNL     1      43.345   5.798 126.377  1.00  0.00     0.000 C 
BRANCH  17  18
ATOM     18  C   UNL     1      44.050   4.430 126.474  1.00  0.00     0.000 C 
BRANCH  18  19
ATOM     19  C   UNL     1      45.487   4.492 127.026  1.00  0.00     0.000 C 
BRANCH  19  20
ATOM     20  C   UNL     1      45.566   4.253 128.541  1.00  0.00     0.000 C 
BRANCH  20  21
ATOM     21  C   UNL     1      46.959   4.605 129.087  1.00  0.00     0.000 C 
BRANCH  21  22
ATOM     22  C   UNL     1      46.966   4.824 130.610  1.00  0.00    -0.000 C 
BRANCH  22  23
ATOM     23  C   UNL     1      47.964   3.907 131.335  1.00  0.00    -0.000 C 
BRANCH  23  24
ATOM     24  C   UNL     1      47.243   2.925 132.265  1.00  0.00    -0.000 C 
BRANCH  24  25
ATOM     25  C   UNL     1      46.145   3.639 133.066  1.00  0.00    -0.000 C 
BRANCH  25  26
ATOM     26  C   UNL     1      45.993   3.088 134.493  1.00  0.00    -0.000 C 
BRANCH  26  27
ATOM     27  C   UNL     1      44.845   2.066 134.639  1.00  0.00    -0.000 C 
BRANCH  27  28
ATOM     28  C   UNL     1      43.985   1.976 133.368  1.00  0.00    -0.000 C 
BRANCH  28  29
ATOM     29  C   UNL     1      43.959   0.562 132.768  1.00  0.00    -0.003 C 
ATOM     30  C   UNL     1      42.847   0.376 131.738  1.00  0.00     0.004 C 
ENDBRANCH  28  29
ENDBRANCH  27  28
ENDBRANCH  26  27
ENDBRANCH  25  26
ENDBRANCH  24  25
ENDBRANCH  23  24
ENDBRANCH  22  23
ENDBRANCH  21  22
ENDBRANCH  20  21
ENDBRANCH  19  20
ENDBRANCH  18  19
ENDBRANCH  17  18
ENDBRANCH   1  17
TORSDOF 26
ENDMDL
MODEL 6
REMARK VINA RESULT:    -5.239      2.120      3.205
REMARK INTER + INTRA:         -16.051
REMARK INTER:                 -14.174
REMARK INTRA:                  -1.876
REMARK UNBOUND:                -2.850
REMARK SMILES CCCCCCCCCCCCCCCCCCCCCCCCCCCC(=O)[O-]
REMARK SMILES IDX 15 1 16 2 17 3 18 4 19 5 20 6 21 7 22 8 23 9 24 10 25 11
REMARK SMILES IDX 26 12 27 13 28 14 29 15 30 16 14 17 13 18 12 19 11 20 10 21
REMARK SMILES IDX 9 22 8 23 7 24 6 25 5 26 4 27 3 28 2 29 1 30
REMARK H PARENT
REMARK Flexibility Score: inf
ROOT
ATOM      1  C   UNL     1      45.849   7.257 126.903  1.00  0.00     0.000 C 
ENDROOT
BRANCH   1   2
ATOM      2  C   UNL     1      45.143   5.886 126.880  1.00  0.00     0.000 C 
BRANCH   2   3
ATOM      3  C   UNL     1      43.948   5.770 127.844  1.00  0.00     0.000 C 
BRANCH   3   4
ATOM      4  C   UNL     1      44.329   6.040 129.310  1.00  0.00     0.000 C 
BRANCH   4   5
ATOM      5  C   UNL     1      45.191   4.925 129.933  1.00  0.00     0.000 C 
BRANCH   5   6
ATOM      6  C   UNL     1      46.672   5.285 130.175  1.00  0.00     0.000 C 
BRANCH   6   7
ATOM      7  C   UNL     1      47.369   4.345 131.175  1.00  0.00     0.000 C 
BRANCH   7   8
ATOM      8  C   UNL     1      46.571   4.178 132.477  1.00  0.00     0.000 C 
BRANCH   8   9
ATOM      9  C   UNL     1      46.353   2.702 132.852  1.00  0.00     0.000 C 
BRANCH   9  10
ATOM     10  C   UNL     1      44.961   2.460 133.474  1.00  0.00     0.000 C 
BRANCH  10  11
ATOM     11  C   UNL     1      43.846   2.244 132.431  1.00  0.00     0.000 C 
BRANCH  11  12
ATOM     12  C   UNL     1      43.640   0.781 131.994  1.00  0.00     0.006 C 
BRANCH  12  13
ATOM     13  C   UNL     1      42.199   0.273 132.156  1.00  0.00     0.053 C 
BRANCH  13  14
ATOM     14  C   UNL     1      41.993  -0.412 133.471  1.00  0.00     0.041 C 
ATOM     15  O   UNL     1      42.979  -0.678 134.208  1.00  0.00    -0.550 OA
ATOM     16  O   UNL     1      40.718  -0.794 133.867  1.00  0.00    -0.550 OA
ENDBRANCH  13  14
ENDBRANCH  12  13
ENDBRANCH  11  12
ENDBRANCH  10  11
ENDBRANCH   9  10
ENDBRANCH   8   9
ENDBRANCH   7   8
ENDBRANCH   6   7
ENDBRANCH   5   6
ENDBRANCH   4   5
ENDBRANCH   3   4
ENDBRANCH   2   3
ENDBRANCH   1   2
BRANCH   1  17
ATOM     17  C   UNL     1      47.385   7.142 126.824  1.00  0.00     0.000 C 
BRANCH  17  18
ATOM     18  C   UNL     1      47.986   7.908 125.629  1.00  0.00     0.000 C 
BRANCH  18  19
ATOM     19  C   UNL     1      46.968   8.276 124.532  1.00  0.00     0.000 C 
BRANCH  19  20
ATOM     20  C   UNL     1      47.422   9.449 123.651  1.00  0.00     0.000 C 
BRANCH  20  21
ATOM     21  C   UNL     1      46.311  10.501 123.510  1.00  0.00     0.000 C 
BRANCH  21  22
ATOM     22  C   UNL     1      45.308  10.164 122.393  1.00  0.00    -0.000 C 
BRANCH  22  23
ATOM     23  C   UNL     1      45.469  11.067 121.160  1.00  0.00    -0.000 C 
BRANCH  23  24
ATOM     24  C   UNL     1      46.540  10.522 120.208  1.00  0.00    -0.000 C 
BRANCH  24  25
ATOM     25  C   UNL     1      46.148  10.776 118.745  1.00  0.00    -0.000 C 
BRANCH  25  26
ATOM     26  C   UNL     1      45.111   9.769 118.222  1.00  0.00    -0.000 C 
BRANCH  26  27
ATOM     27  C   UNL     1      45.043   9.698 116.682  1.00  0.00    -0.000 C 
BRANCH  27  28
ATOM     28  C   UNL     1      43.870  10.515 116.117  1.00  0.00    -0.000 C 
BRANCH  28  29
ATOM     29  C   UNL     1      42.802  10.830 117.176  1.00  0.00    -0.003 C 
ATOM     30  C   UNL     1      41.403  10.379 116.759  1.00  0.00     0.004 C 
ENDBRANCH  28  29
ENDBRANCH  27  28
ENDBRANCH  26  27
ENDBRANCH  25  26
ENDBRANCH  24  25
ENDBRANCH  23  24
ENDBRANCH  22  23
ENDBRANCH  21  22
ENDBRANCH  20  21
ENDBRANCH  19  20
ENDBRANCH  18  19
ENDBRANCH  17  18
ENDBRANCH   1  17
TORSDOF 26
ENDMDL
MODEL 7
REMARK VINA RESULT:    -5.225      1.541      2.556
REMARK INTER + INTRA:         -16.017
REMARK INTER:                 -13.543
REMARK INTRA:                  -2.474
REMARK UNBOUND:                -2.850
REMARK SMILES CCCCCCCCCCCCCCCCCCCCCCCCCCCC(=O)[O-]
REMARK SMILES IDX 15 1 16 2 17 3 18 4 19 5 20 6 21 7 22 8 23 9 24 10 25 11
REMARK SMILES IDX 26 12 27 13 28 14 29 15 30 16 14 17 13 18 12 19 11 20 10 21
REMARK SMILES IDX 9 22 8 23 7 24 6 25 5 26 4 27 3 28 2 29 1 30
REMARK H PARENT
REMARK Flexibility Score: inf
ROOT
ATOM      1  C   UNL     1      45.401   6.099 126.802  1.00  0.00     0.000 C 
ENDROOT
BRANCH   1   2
ATOM      2  C   UNL     1      45.326   5.505 128.223  1.00  0.00     0.000 C 
BRANCH   2   3
ATOM      3  C   UNL     1      46.648   4.900 128.729  1.00  0.00     0.000 C 
BRANCH   3   4
ATOM      4  C   UNL     1      47.094   5.475 130.085  1.00  0.00     0.000 C 
BRANCH   4   5
ATOM      5  C   UNL     1      48.012   4.526 130.880  1.00  0.00     0.000 C 
BRANCH   5   6
ATOM      6  C   UNL     1      47.291   3.474 131.747  1.00  0.00     0.000 C 
BRANCH   6   7
ATOM      7  C   UNL     1      45.895   3.925 132.213  1.00  0.00     0.000 C 
BRANCH   7   8
ATOM      8  C   UNL     1      45.829   4.154 133.730  1.00  0.00     0.000 C 
BRANCH   8   9
ATOM      9  C   UNL     1      46.399   2.971 134.533  1.00  0.00     0.000 C 
BRANCH   9  10
ATOM     10  C   UNL     1      45.402   2.454 135.593  1.00  0.00     0.000 C 
BRANCH  10  11
ATOM     11  C   UNL     1      44.631   1.194 135.154  1.00  0.00     0.000 C 
BRANCH  11  12
ATOM     12  C   UNL     1      43.230   1.460 134.570  1.00  0.00     0.006 C 
BRANCH  12  13
ATOM     13  C   UNL     1      43.200   1.585 133.039  1.00  0.00     0.053 C 
BRANCH  13  14
ATOM     14  C   UNL     1      42.535   0.408 132.395  1.00  0.00     0.041 C 
ATOM     15  O   UNL     1      42.821   0.090 131.211  1.00  0.00    -0.550 OA
ATOM     16  O   UNL     1      41.571  -0.313 133.086  1.00  0.00    -0.550 OA
ENDBRANCH  13  14
ENDBRANCH  12  13
ENDBRANCH  11  12
ENDBRANCH  10  11
ENDBRANCH   9  10
ENDBRANCH   8   9
ENDBRANCH   7   8
ENDBRANCH   6   7
ENDBRANCH   5   6
ENDBRANCH   4   5
ENDBRANCH   3   4
ENDBRANCH   2   3
ENDBRANCH   1   2
BRANCH   1  17
ATOM     17  C   UNL     1      46.029   7.508 126.772  1.00  0.00     0.000 C 
BRANCH  17  18
ATOM     18  C   UNL     1      47.522   7.494 126.391  1.00  0.00     0.000 C 
BRANCH  18  19
ATOM     19  C   UNL     1      47.911   8.517 125.306  1.00  0.00     0.000 C 
BRANCH  19  20
ATOM     20  C   UNL     1      47.311   8.199 123.928  1.00  0.00     0.000 C 
BRANCH  20  21
ATOM     21  C   UNL     1      46.529   9.400 123.372  1.00  0.00     0.000 C 
BRANCH  21  22
ATOM     22  C   UNL     1      46.788  10.696 124.158  1.00  0.00    -0.000 C 
BRANCH  22  23
ATOM     23  C   UNL     1      45.576  11.641 124.159  1.00  0.00    -0.000 C 
BRANCH  23  24
ATOM     24  C   UNL     1      44.699  11.422 122.920  1.00  0.00    -0.000 C 
BRANCH  24  25
ATOM     25  C   UNL     1      44.888  12.564 121.911  1.00  0.00    -0.000 C 
BRANCH  25  26
ATOM     26  C   UNL     1      44.007  12.407 120.662  1.00  0.00    -0.000 C 
BRANCH  26  27
ATOM     27  C   UNL     1      44.812  12.258 119.354  1.00  0.00    -0.000 C 
BRANCH  27  28
ATOM     28  C   UNL     1      45.766  11.052 119.396  1.00  0.00    -0.000 C 
BRANCH  28  29
ATOM     29  C   UNL     1      47.246  11.466 119.400  1.00  0.00    -0.003 C 
ATOM     30  C   UNL     1      48.013  10.912 120.599  1.00  0.00     0.004 C 
ENDBRANCH  28  29
ENDBRANCH  27  28
ENDBRANCH  26  27
ENDBRANCH  25  26
ENDBRANCH  24  25
ENDBRANCH  23  24
ENDBRANCH  22  23
ENDBRANCH  21  22
ENDBRANCH  20  21
ENDBRANCH  19  20
ENDBRANCH  18  19
ENDBRANCH  17  18
ENDBRANCH   1  17
TORSDOF 26
ENDMDL
MODEL 8
REMARK VINA RESULT:    -5.165      1.694      3.718
REMARK INTER + INTRA:         -15.865
REMARK INTER:                 -13.300
REMARK INTRA:                  -2.565
REMARK UNBOUND:                -2.850
REMARK SMILES CCCCCCCCCCCCCCCCCCCCCCCCCCCC(=O)[O-]
REMARK SMILES IDX 15 1 16 2 17 3 18 4 19 5 20 6 21 7 22 8 23 9 24 10 25 11
REMARK SMILES IDX 26 12 27 13 28 14 29 15 30 16 14 17 13 18 12 19 11 20 10 21
REMARK SMILES IDX 9 22 8 23 7 24 6 25 5 26 4 27 3 28 2 29 1 30
REMARK H PARENT
REMARK Flexibility Score: inf
ROOT
ATOM      1  C   UNL     1      46.290   7.565 125.689  1.00  0.00     0.000 C 
ENDROOT
BRANCH   1   2
ATOM      2  C   UNL     1      46.173   7.213 127.186  1.00  0.00     0.000 C 
BRANCH   2   3
ATOM      3  C   UNL     1      44.734   7.239 127.734  1.00  0.00     0.000 C 
BRANCH   3   4
ATOM      4  C   UNL     1      44.035   5.871 127.654  1.00  0.00     0.000 C 
BRANCH   4   5
ATOM      5  C   UNL     1      44.876   4.719 128.238  1.00  0.00     0.000 C 
BRANCH   5   6
ATOM      6  C   UNL     1      45.187   4.819 129.745  1.00  0.00     0.000 C 
BRANCH   6   7
ATOM      7  C   UNL     1      46.678   5.058 130.043  1.00  0.00     0.000 C 
BRANCH   7   8
ATOM      8  C   UNL     1      47.035   4.779 131.510  1.00  0.00     0.000 C 
BRANCH   8   9
ATOM      9  C   UNL     1      47.664   3.388 131.712  1.00  0.00     0.000 C 
BRANCH   9  10
ATOM     10  C   UNL     1      46.956   2.586 132.824  1.00  0.00     0.000 C 
BRANCH  10  11
ATOM     11  C   UNL     1      45.758   3.324 133.453  1.00  0.00     0.000 C 
BRANCH  11  12
ATOM     12  C   UNL     1      44.501   2.460 133.668  1.00  0.00     0.006 C 
BRANCH  12  13
ATOM     13  C   UNL     1      43.682   2.211 132.392  1.00  0.00     0.053 C 
BRANCH  13  14
ATOM     14  C   UNL     1      43.617   0.756 132.044  1.00  0.00     0.041 C 
ATOM     15  O   UNL     1      42.560   0.265 131.567  1.00  0.00    -0.550 OA
ATOM     16  O   UNL     1      44.709  -0.068 132.285  1.00  0.00    -0.550 OA
ENDBRANCH  13  14
ENDBRANCH  12  13
ENDBRANCH  11  12
ENDBRANCH  10  11
ENDBRANCH   9  10
ENDBRANCH   8   9
ENDBRANCH   7   8
ENDBRANCH   6   7
ENDBRANCH   5   6
ENDBRANCH   4   5
ENDBRANCH   3   4
ENDBRANCH   2   3
ENDBRANCH   1   2
BRANCH   1  17
ATOM     17  C   UNL     1      47.687   8.090 125.303  1.00  0.00     0.000 C 
BRANCH  17  18
ATOM     18  C   UNL     1      47.808   8.438 123.806  1.00  0.00     0.000 C 
BRANCH  18  19
ATOM     19  C   UNL     1      47.616   9.932 123.482  1.00  0.00     0.000 C 
BRANCH  19  20
ATOM     20  C   UNL     1      47.579  10.226 121.974  1.00  0.00     0.000 C 
BRANCH  20  21
ATOM     21  C   UNL     1      46.366  11.097 121.608  1.00  0.00     0.000 C 
BRANCH  21  22
ATOM     22  C   UNL     1      45.241  11.024 122.654  1.00  0.00    -0.000 C 
BRANCH  22  23
ATOM     23  C   UNL     1      44.020  11.875 122.271  1.00  0.00    -0.000 C 
BRANCH  23  24
ATOM     24  C   UNL     1      44.382  12.924 121.213  1.00  0.00    -0.000 C 
BRANCH  24  25
ATOM     25  C   UNL     1      43.401  12.868 120.034  1.00  0.00    -0.000 C 
BRANCH  25  26
ATOM     26  C   UNL     1      44.044  13.285 118.702  1.00  0.00    -0.000 C 
BRANCH  26  27
ATOM     27  C   UNL     1      44.999  12.222 118.118  1.00  0.00    -0.000 C 
BRANCH  27  28
ATOM     28  C   UNL     1      44.425  10.801 118.240  1.00  0.00    -0.000 C 
BRANCH  28  29
ATOM     29  C   UNL     1      45.493   9.712 118.051  1.00  0.00    -0.003 C 
ATOM     30  C   UNL     1      46.909  10.278 117.974  1.00  0.00     0.004 C 
ENDBRANCH  28  29
ENDBRANCH  27  28
ENDBRANCH  26  27
ENDBRANCH  25  26
ENDBRANCH  24  25
ENDBRANCH  23  24
ENDBRANCH  22  23
ENDBRANCH  21  22
ENDBRANCH  20  21
ENDBRANCH  19  20
ENDBRANCH  18  19
ENDBRANCH  17  18
ENDBRANCH   1  17
TORSDOF 26
ENDMDL
MODEL 9
REMARK VINA RESULT:    -5.157      1.958      2.730
REMARK INTER + INTRA:         -15.845
REMARK INTER:                 -13.244
REMARK INTRA:                  -2.601
REMARK UNBOUND:                -2.850
REMARK SMILES CCCCCCCCCCCCCCCCCCCCCCCCCCCC(=O)[O-]
REMARK SMILES IDX 15 1 16 2 17 3 18 4 19 5 20 6 21 7 22 8 23 9 24 10 25 11
REMARK SMILES IDX 26 12 27 13 28 14 29 15 30 16 14 17 13 18 12 19 11 20 10 21
REMARK SMILES IDX 9 22 8 23 7 24 6 25 5 26 4 27 3 28 2 29 1 30
REMARK H PARENT
REMARK Flexibility Score: inf
ROOT
ATOM      1  C   UNL     1      42.690   5.998 127.453  1.00  0.00     0.000 C 
ENDROOT
BRANCH   1   2
ATOM      2  C   UNL     1      43.070   6.739 128.751  1.00  0.00     0.000 C 
BRANCH   2   3
ATOM      3  C   UNL     1      44.389   6.267 129.389  1.00  0.00     0.000 C 
BRANCH   3   4
ATOM      4  C   UNL     1      45.473   7.359 129.408  1.00  0.00     0.000 C 
BRANCH   4   5
ATOM      5  C   UNL     1      46.903   6.803 129.269  1.00  0.00     0.000 C 
BRANCH   5   6
ATOM      6  C   UNL     1      47.010   5.370 128.710  1.00  0.00     0.000 C 
BRANCH   6   7
ATOM      7  C   UNL     1      47.983   4.479 129.504  1.00  0.00     0.000 C 
BRANCH   7   8
ATOM      8  C   UNL     1      47.943   4.768 131.012  1.00  0.00     0.000 C 
BRANCH   8   9
ATOM      9  C   UNL     1      47.280   3.633 131.814  1.00  0.00     0.000 C 
BRANCH   9  10
ATOM     10  C   UNL     1      45.877   4.026 132.324  1.00  0.00     0.000 C 
BRANCH  10  11
ATOM     11  C   UNL     1      45.622   3.637 133.794  1.00  0.00     0.000 C 
BRANCH  11  12
ATOM     12  C   UNL     1      44.833   2.328 133.992  1.00  0.00     0.006 C 
BRANCH  12  13
ATOM     13  C   UNL     1      43.694   2.120 132.983  1.00  0.00     0.053 C 
BRANCH  13  14
ATOM     14  C   UNL     1      43.450   0.669 132.707  1.00  0.00     0.041 C 
ATOM     15  O   UNL     1      43.669  -0.191 133.602  1.00  0.00    -0.550 OA
ATOM     16  O   UNL     1      43.021   0.259 131.453  1.00  0.00    -0.550 OA
ENDBRANCH  13  14
ENDBRANCH  12  13
ENDBRANCH  11  12
ENDBRANCH  10  11
ENDBRANCH   9  10
ENDBRANCH   8   9
ENDBRANCH   7   8
ENDBRANCH   6   7
ENDBRANCH   5   6
ENDBRANCH   4   5
ENDBRANCH   3   4
ENDBRANCH   2   3
ENDBRANCH   1   2
BRANCH   1  17
ATOM     17  C   UNL     1      43.885   5.270 126.805  1.00  0.00     0.000 C 
BRANCH  17  18
ATOM     18  C   UNL     1      44.422   5.988 125.551  1.00  0.00     0.000 C 
BRANCH  18  19
ATOM     19  C   UNL     1      45.510   7.041 125.838  1.00  0.00     0.000 C 
BRANCH  19  20
ATOM     20  C   UNL     1      45.920   7.845 124.594  1.00  0.00     0.000 C 
BRANCH  20  21
ATOM     21  C   UNL     1      47.237   8.601 124.831  1.00  0.00     0.000 C 
BRANCH  21  22
ATOM     22  C   UNL     1      47.273   9.971 124.133  1.00  0.00    -0.000 C 
BRANCH  22  23
ATOM     23  C   UNL     1      45.870  10.556 123.904  1.00  0.00    -0.000 C 
BRANCH  23  24
ATOM     24  C   UNL     1      45.726  11.117 122.485  1.00  0.00    -0.000 C 
BRANCH  24  25
ATOM     25  C   UNL     1      47.094  11.210 121.795  1.00  0.00    -0.000 C 
BRANCH  25  26
ATOM     26  C   UNL     1      47.095  10.593 120.387  1.00  0.00    -0.000 C 
BRANCH  26  27
ATOM     27  C   UNL     1      45.693  10.515 119.747  1.00  0.00    -0.000 C 
BRANCH  27  28
ATOM     28  C   UNL     1      45.764  10.311 118.224  1.00  0.00    -0.000 C 
BRANCH  28  29
ATOM     29  C   UNL     1      44.587   9.484 117.681  1.00  0.00    -0.003 C 
ATOM     30  C   UNL     1      44.535   9.459 116.155  1.00  0.00     0.004 C 
ENDBRANCH  28  29
ENDBRANCH  27  28
ENDBRANCH  26  27
ENDBRANCH  25  26
ENDBRANCH  24  25
ENDBRANCH  23  24
ENDBRANCH  22  23
ENDBRANCH  21  22
ENDBRANCH  20  21
ENDBRANCH  19  20
ENDBRANCH  18  19
ENDBRANCH  17  18
ENDBRANCH   1  17
TORSDOF 26
ENDMDL
