MODEL 1
REMARK VINA RESULT:    -0.363      0.000      0.000
REMARK INTER + INTRA:          -0.363
REMARK INTER:                  -0.363
REMARK INTRA:                   0.000
REMARK UNBOUND:                 0.000
REMARK SMILES CC(=O)[O-]
REMARK SMILES IDX 1 1 2 2 3 3 4 4
REMARK H PARENT
REMARK Flexibility Score: inf
ROOT
ATOM      1  C   UNL     1       0.627  -9.126  27.125  1.00  0.00     0.063 C 
ATOM      2  C   UNL     1       0.019  -8.257  26.079  1.00  0.00     0.038 C 
ATOM      3  O   UNL     1       0.383  -7.057  25.964  1.00  0.00    -0.550 OA
ATOM      4  O   UNL     1      -0.990  -8.751  25.263  1.00  0.00    -0.550 OA
ENDROOT
TORSDOF 0
ENDMDL
MODEL 2
REMARK VINA RESULT:    -0.129      1.425      1.782
REMARK INTER + INTRA:          -0.129
REMARK INTER:                  -0.129
REMARK INTRA:                   0.000
REMARK UNBOUND:                 0.000
REMARK SMILES CC(=O)[O-]
REMARK SMILES IDX 1 1 2 2 3 3 4 4
REMARK H PARENT
REMARK Flexibility Score: inf
ROOT
ATOM      1  C   UNL     1      -0.923  -8.802  25.401  1.00  0.00     0.063 C 
ATOM      2  C   UNL     1       0.159  -8.327  26.309  1.00  0.00     0.038 C 
ATOM      3  O   UNL     1       0.503  -7.117  26.305  1.00  0.00    -0.550 OA
ATOM      4  O   UNL     1       0.830  -9.230  27.125  1.00  0.00    -0.550 OA
ENDROOT
TORSDOF 0
ENDMDL
MODEL 3
REMARK VINA RESULT:     0.085     10.240     10.867
REMARK INTER + INTRA:           0.085
REMARK INTER:                   0.085
REMARK INTRA:                   0.000
REMARK UNBOUND:                 0.000
REMARK SMILES CC(=O)[O-]
REMARK SMILES IDX 1 1 2 2 3 3 4 4
REMARK H PARENT
REMARK Flexibility Score: inf
ROOT
ATOM      1  C   UNL     1      -4.727 -16.579  25.625  1.00  0.00     0.063 C 
ATOM      2  C   UNL     1      -4.978 -17.743  24.727  1.00  0.00     0.038 C 
ATOM      3  O   UNL     1      -5.438 -18.816  25.197  1.00  0.00    -0.550 OA
ATOM      4  O   UNL     1      -4.653 -17.665  23.379  1.00  0.00    -0.550 OA
ENDROOT
TORSDOF 0
ENDMDL
MODEL 4
REMARK VINA RESULT:     0.142      1.441      1.720
REMARK INTER + INTRA:           0.142
REMARK INTER:                   0.142
REMARK INTRA:                   0.000
REMARK UNBOUND:                 0.000
REMARK SMILES CC(=O)[O-]
REMARK SMILES IDX 1 1 2 2 3 3 4 4
REMARK H PARENT
REMARK Flexibility Score: inf
ROOT
ATOM      1  C   UNL     1       0.623  -6.945  26.191  1.00  0.00     0.063 C 
ATOM      2  C   UNL     1       0.241  -8.376  26.358  1.00  0.00     0.038 C 
ATOM      3  O   UNL     1       0.904  -9.121  27.125  1.00  0.00    -0.550 OA
ATOM      4  O   UNL     1      -0.813  -8.905  25.625  1.00  0.00    -0.550 OA
ENDROOT
TORSDOF 0
ENDMDL
MODEL 5
REMARK VINA RESULT:     0.458      9.944     10.588
REMARK INTER + INTRA:           0.458
REMARK INTER:                   0.458
REMARK INTRA:                   0.000
REMARK UNBOUND:                 0.000
REMARK SMILES CC(=O)[O-]
REMARK SMILES IDX 1 1 2 2 3 3 4 4
REMARK H PARENT
REMARK Flexibility Score: inf
ROOT
ATOM      1  C   UNL     1      -5.490 -18.488  25.658  1.00  0.00     0.063 C 
ATOM      2  C   UNL     1      -4.895 -17.424  24.801  1.00  0.00     0.038 C 
ATOM      3  O   UNL     1      -4.647 -17.654  23.589  1.00  0.00    -0.550 OA
ATOM      4  O   UNL     1      -4.561 -16.193  25.351  1.00  0.00    -0.550 OA
ENDROOT
TORSDOF 0
ENDMDL
MODEL 6
REMARK VINA RESULT:     0.527     15.297     15.850
REMARK INTER + INTRA:           0.527
REMARK INTER:                   0.527
REMARK INTRA:                   0.000
REMARK UNBOUND:                 0.000
REMARK SMILES CC(=O)[O-]
REMARK SMILES IDX 1 1 2 2 3 3 4 4
REMARK H PARENT
REMARK Flexibility Score: inf
ROOT
ATOM      1  C   UNL     1     -13.270 -16.141  24.166  1.00  0.00     0.063 C 
ATOM      2  C   UNL     1     -14.001 -15.128  23.354  1.00  0.00     0.038 C 
ATOM      3  O   UNL     1     -13.632 -13.925  23.364  1.00  0.00    -0.550 OA
ATOM      4  O   UNL     1     -15.125 -15.497  22.627  1.00  0.00    -0.550 OA
ENDROOT
TORSDOF 0
ENDMDL
MODEL 7
REMARK VINA RESULT:     0.889     15.541     16.088
REMARK INTER + INTRA:           0.889
REMARK INTER:                   0.889
REMARK INTRA:                   0.000
REMARK UNBOUND:                 0.000
REMARK SMILES CC(=O)[O-]
REMARK SMILES IDX 1 1 2 2 3 3 4 4
REMARK H PARENT
REMARK Flexibility Score: inf
ROOT
ATOM      1  C   UNL     1     -14.005 -14.379  22.936  1.00  0.00     0.063 C 
ATOM      2  C   UNL     1     -14.045 -15.557  23.848  1.00  0.00     0.038 C 
ATOM      3  O   UNL     1     -15.125 -15.892  24.401  1.00  0.00    -0.550 OA
ATOM      4  O   UNL     1     -12.880 -16.256  24.134  1.00  0.00    -0.550 OA
ENDROOT
TORSDOF 0
ENDMDL
MODEL 8
REMARK VINA RESULT:     2.456     24.937     25.512
REMARK INTER + INTRA:           2.456
REMARK INTER:                   2.456
REMARK INTRA:                   0.000
REMARK UNBOUND:                 0.000
REMARK SMILES CC(=O)[O-]
REMARK SMILES IDX 1 1 2 2 3 3 4 4
REMARK H PARENT
REMARK Flexibility Score: inf
ROOT
ATOM      1  C   UNL     1      -9.187 -24.975  10.659  1.00  0.00     0.063 C 
ATOM      2  C   UNL     1      -9.025 -26.456  10.707  1.00  0.00     0.038 C 
ATOM      3  O   UNL     1      -8.955 -27.119   9.639  1.00  0.00    -0.550 OA
ATOM      4  O   UNL     1      -9.006 -27.115  11.929  1.00  0.00    -0.550 OA
ENDROOT
TORSDOF 0
ENDMDL
MODEL 9
REMARK VINA RESULT:     2.547      2.360      3.000
REMARK INTER + INTRA:           2.547
REMARK INTER:                   2.547
REMARK INTRA:                   0.000
REMARK UNBOUND:                 0.000
REMARK SMILES CC(=O)[O-]
REMARK SMILES IDX 1 1 2 2 3 3 4 4
REMARK H PARENT
REMARK Flexibility Score: inf
ROOT
ATOM      1  C   UNL     1      -2.749  -8.193  24.153  1.00  0.00     0.063 C 
ATOM      2  C   UNL     1      -1.602  -9.070  24.523  1.00  0.00     0.038 C 
ATOM      3  O   UNL     1      -0.874  -8.777  25.507  1.00  0.00    -0.550 OA
ATOM      4  O   UNL     1      -1.300 -10.184  23.751  1.00  0.00    -0.550 OA
ENDROOT
TORSDOF 0
ENDMDL
