MODEL 1
REMARK VINA RESULT:    -3.076      0.000      0.000
REMARK INTER + INTRA:          -7.017
REMARK INTER:                  -5.234
REMARK INTRA:                  -1.783
REMARK UNBOUND:                -1.783
REMARK SMILES CCCCCCCCCCCCCC(=O)[O-]
REMARK SMILES IDX 8 1 9 2 10 3 11 4 12 5 13 6 14 7 15 8 16 9 7 10 6 11 5 12
REMARK SMILES IDX 4 13 3 14 2 15 1 16
REMARK H PARENT
REMARK Flexibility Score: inf
ROOT
ATOM      1  C   UNL     1     -47.410 -50.826  69.039  1.00  0.00     0.000 C 
ENDROOT
BRANCH   1   2
ATOM      2  C   UNL     1     -48.199 -50.163  67.896  1.00  0.00     0.000 C 
BRANCH   2   3
ATOM      3  C   UNL     1     -47.341 -49.206  67.055  1.00  0.00     0.000 C 
BRANCH   3   4
ATOM      4  C   UNL     1     -48.225 -48.244  66.247  1.00  0.00     0.000 C 
BRANCH   4   5
ATOM      5  C   UNL     1     -49.152 -47.402  67.137  1.00  0.00     0.006 C 
BRANCH   5   6
ATOM      6  C   UNL     1     -50.303 -46.760  66.352  1.00  0.00     0.053 C 
BRANCH   6   7
ATOM      7  C   UNL     1     -51.622 -47.214  66.895  1.00  0.00     0.041 C 
ATOM      8  O   UNL     1     -52.658 -46.526  66.700  1.00  0.00    -0.550 OA
ATOM      9  O   UNL     1     -51.697 -48.371  67.660  1.00  0.00    -0.550 OA
ENDBRANCH   6   7
ENDBRANCH   5   6
ENDBRANCH   4   5
ENDBRANCH   3   4
ENDBRANCH   2   3
ENDBRANCH   1   2
BRANCH   1  10
ATOM     10  C   UNL     1     -47.619 -50.196  70.431  1.00  0.00     0.000 C 
BRANCH  10  11
ATOM     11  C   UNL     1     -48.770 -49.178  70.525  1.00  0.00    -0.000 C 
BRANCH  11  12
ATOM     12  C   UNL     1     -48.315 -47.812  71.066  1.00  0.00    -0.000 C 
BRANCH  12  13
ATOM     13  C   UNL     1     -47.104 -47.249  70.303  1.00  0.00    -0.000 C 
BRANCH  13  14
ATOM     14  C   UNL     1     -45.893 -46.999  71.213  1.00  0.00    -0.000 C 
BRANCH  14  15
ATOM     15  C   UNL     1     -44.712 -47.889  70.807  1.00  0.00    -0.003 C 
ATOM     16  C   UNL     1     -44.668 -48.094  69.296  1.00  0.00     0.004 C 
ENDBRANCH  14  15
ENDBRANCH  13  14
ENDBRANCH  12  13
ENDBRANCH  11  12
ENDBRANCH  10  11
ENDBRANCH   1  10
TORSDOF 12
ENDMDL
MODEL 2
REMARK VINA RESULT:    -3.065      4.033      6.570
REMARK INTER + INTRA:          -6.998
REMARK INTER:                  -5.333
REMARK INTRA:                  -1.665
REMARK UNBOUND:                -1.783
REMARK SMILES CCCCCCCCCCCCCC(=O)[O-]
REMARK SMILES IDX 8 1 9 2 10 3 11 4 12 5 13 6 14 7 15 8 16 9 7 10 6 11 5 12
REMARK SMILES IDX 4 13 3 14 2 15 1 16
REMARK H PARENT
REMARK Flexibility Score: inf
ROOT
ATOM      1  C   UNL     1     -41.930 -46.195  71.695  1.00  0.00     0.000 C 
ENDROOT
BRANCH   1   2
ATOM      2  C   UNL     1     -43.259 -45.874  72.403  1.00  0.00     0.000 C 
BRANCH   2   3
ATOM      3  C   UNL     1     -44.489 -46.257  71.567  1.00  0.00     0.000 C 
BRANCH   3   4
ATOM      4  C   UNL     1     -44.149 -47.378  70.573  1.00  0.00     0.000 C 
BRANCH   4   5
ATOM      5  C   UNL     1     -45.393 -47.943  69.870  1.00  0.00     0.006 C 
BRANCH   5   6
ATOM      6  C   UNL     1     -46.428 -48.499  70.857  1.00  0.00     0.053 C 
BRANCH   6   7
ATOM      7  C   UNL     1     -47.715 -47.743  70.744  1.00  0.00     0.041 C 
ATOM      8  O   UNL     1     -48.788 -48.255  71.159  1.00  0.00    -0.550 OA
ATOM      9  O   UNL     1     -47.736 -46.494  70.137  1.00  0.00    -0.550 OA
ENDBRANCH   6   7
ENDBRANCH   5   6
ENDBRANCH   4   5
ENDBRANCH   3   4
ENDBRANCH   2   3
ENDBRANCH   1   2
BRANCH   1  10
ATOM     10  C   UNL     1     -40.929 -45.025  71.619  1.00  0.00     0.000 C 
BRANCH  10  11
ATOM     11  C   UNL     1     -41.498 -43.647  72.005  1.00  0.00    -0.000 C 
BRANCH  11  12
ATOM     12  C   UNL     1     -41.503 -42.653  70.831  1.00  0.00    -0.000 C 
BRANCH  12  13
ATOM     13  C   UNL     1     -42.914 -42.406  70.273  1.00  0.00    -0.000 C 
BRANCH  13  14
ATOM     14  C   UNL     1     -43.321 -43.437  69.210  1.00  0.00    -0.000 C 
BRANCH  14  15
ATOM     15  C   UNL     1     -42.123 -43.824  68.335  1.00  0.00    -0.003 C 
ATOM     16  C   UNL     1     -42.354 -45.165  67.644  1.00  0.00     0.004 C 
ENDBRANCH  14  15
ENDBRANCH  13  14
ENDBRANCH  12  13
ENDBRANCH  11  12
ENDBRANCH  10  11
ENDBRANCH   1  10
TORSDOF 12
ENDMDL
MODEL 3
REMARK VINA RESULT:    -3.060      2.182      4.806
REMARK INTER + INTRA:          -6.989
REMARK INTER:                  -5.127
REMARK INTRA:                  -1.862
REMARK UNBOUND:                -1.783
REMARK SMILES CCCCCCCCCCCCCC(=O)[O-]
REMARK SMILES IDX 8 1 9 2 10 3 11 4 12 5 13 6 14 7 15 8 16 9 7 10 6 11 5 12
REMARK SMILES IDX 4 13 3 14 2 15 1 16
REMARK H PARENT
REMARK Flexibility Score: inf
ROOT
ATOM      1  C   UNL     1     -44.947 -49.263  69.642  1.00  0.00     0.000 C 
ENDROOT
BRANCH   1   2
ATOM      2  C   UNL     1     -45.639 -48.543  70.814  1.00  0.00     0.000 C 
BRANCH   2   3
ATOM      3  C   UNL     1     -46.535 -47.382  70.355  1.00  0.00     0.000 C 
BRANCH   3   4
ATOM      4  C   UNL     1     -47.962 -47.543  70.901  1.00  0.00     0.000 C 
BRANCH   4   5
ATOM      5  C   UNL     1     -48.447 -49.001  70.870  1.00  0.00     0.006 C 
BRANCH   5   6
ATOM      6  C   UNL     1     -49.929 -49.122  70.493  1.00  0.00     0.053 C 
BRANCH   6   7
ATOM      7  C   UNL     1     -50.770 -49.269  71.723  1.00  0.00     0.041 C 
ATOM      8  O   UNL     1     -51.024 -48.266  72.439  1.00  0.00    -0.550 OA
ATOM      9  O   UNL     1     -51.231 -50.523  72.103  1.00  0.00    -0.550 OA
ENDBRANCH   6   7
ENDBRANCH   5   6
ENDBRANCH   4   5
ENDBRANCH   3   4
ENDBRANCH   2   3
ENDBRANCH   1   2
BRANCH   1  10
ATOM     10  C   UNL     1     -44.827 -48.439  68.345  1.00  0.00     0.000 C 
BRANCH  10  11
ATOM     11  C   UNL     1     -45.672 -48.949  67.163  1.00  0.00    -0.000 C 
BRANCH  11  12
ATOM     12  C   UNL     1     -46.718 -49.994  67.584  1.00  0.00    -0.000 C 
BRANCH  12  13
ATOM     13  C   UNL     1     -48.146 -49.598  67.176  1.00  0.00    -0.000 C 
BRANCH  13  14
ATOM     14  C   UNL     1     -48.228 -48.173  66.609  1.00  0.00    -0.000 C 
BRANCH  14  15
ATOM     15  C   UNL     1     -49.268 -47.341  67.368  1.00  0.00    -0.003 C 
ATOM     16  C   UNL     1     -50.273 -46.708  66.410  1.00  0.00     0.004 C 
ENDBRANCH  14  15
ENDBRANCH  13  14
ENDBRANCH  12  13
ENDBRANCH  11  12
ENDBRANCH  10  11
ENDBRANCH   1  10
TORSDOF 12
ENDMDL
MODEL 4
REMARK VINA RESULT:    -3.058      1.552      3.151
REMARK INTER + INTRA:          -6.986
REMARK INTER:                  -5.092
REMARK INTRA:                  -1.894
REMARK UNBOUND:                -1.783
REMARK SMILES CCCCCCCCCCCCCC(=O)[O-]
REMARK SMILES IDX 8 1 9 2 10 3 11 4 12 5 13 6 14 7 15 8 16 9 7 10 6 11 5 12
REMARK SMILES IDX 4 13 3 14 2 15 1 16
REMARK H PARENT
REMARK Flexibility Score: inf
ROOT
ATOM      1  C   UNL     1     -44.592 -49.924  68.992  1.00  0.00     0.000 C 
ENDROOT
BRANCH   1   2
ATOM      2  C   UNL     1     -43.928 -49.208  67.802  1.00  0.00     0.000 C 
BRANCH   2   3
ATOM      3  C   UNL     1     -44.946 -48.589  66.833  1.00  0.00     0.000 C 
BRANCH   3   4
ATOM      4  C   UNL     1     -46.383 -48.818  67.328  1.00  0.00     0.000 C 
BRANCH   4   5
ATOM      5  C   UNL     1     -47.322 -49.305  66.213  1.00  0.00     0.006 C 
BRANCH   5   6
ATOM      6  C   UNL     1     -48.356 -48.247  65.808  1.00  0.00     0.053 C 
BRANCH   6   7
ATOM      7  C   UNL     1     -49.296 -47.975  66.941  1.00  0.00     0.041 C 
ATOM      8  O   UNL     1     -49.408 -46.811  67.405  1.00  0.00    -0.550 OA
ATOM      9  O   UNL     1     -50.011 -49.018  67.515  1.00  0.00    -0.550 OA
ENDBRANCH   6   7
ENDBRANCH   5   6
ENDBRANCH   4   5
ENDBRANCH   3   4
ENDBRANCH   2   3
ENDBRANCH   1   2
BRANCH   1  10
ATOM     10  C   UNL     1     -44.330 -49.286  70.370  1.00  0.00     0.000 C 
BRANCH  10  11
ATOM     11  C   UNL     1     -43.760 -47.856  70.334  1.00  0.00    -0.000 C 
BRANCH  11  12
ATOM     12  C   UNL     1     -44.805 -46.788  70.702  1.00  0.00    -0.000 C 
BRANCH  12  13
ATOM     13  C   UNL     1     -46.104 -47.399  71.251  1.00  0.00    -0.000 C 
BRANCH  13  14
ATOM     14  C   UNL     1     -47.322 -47.099  70.366  1.00  0.00    -0.000 C 
BRANCH  14  15
ATOM     15  C   UNL     1     -48.455 -48.097  70.636  1.00  0.00    -0.003 C 
ATOM     16  C   UNL     1     -47.935 -49.531  70.649  1.00  0.00     0.004 C 
ENDBRANCH  14  15
ENDBRANCH  13  14
ENDBRANCH  12  13
ENDBRANCH  11  12
ENDBRANCH  10  11
ENDBRANCH   1  10
TORSDOF 12
ENDMDL
MODEL 5
REMARK VINA RESULT:    -3.044      4.400      6.659
REMARK INTER + INTRA:          -6.963
REMARK INTER:                  -5.739
REMARK INTRA:                  -1.225
REMARK UNBOUND:                -1.783
REMARK SMILES CCCCCCCCCCCCCC(=O)[O-]
REMARK SMILES IDX 8 1 9 2 10 3 11 4 12 5 13 6 14 7 15 8 16 9 7 10 6 11 5 12
REMARK SMILES IDX 4 13 3 14 2 15 1 16
REMARK H PARENT
REMARK Flexibility Score: inf
ROOT
ATOM      1  C   UNL     1     -43.091 -44.747  71.252  1.00  0.00     0.000 C 
ENDROOT
BRANCH   1   2
ATOM      2  C   UNL     1     -43.814 -45.962  71.862  1.00  0.00     0.000 C 
BRANCH   2   3
ATOM      3  C   UNL     1     -43.598 -47.251  71.055  1.00  0.00     0.000 C 
BRANCH   3   4
ATOM      4  C   UNL     1     -44.941 -47.912  70.708  1.00  0.00     0.000 C 
BRANCH   4   5
ATOM      5  C   UNL     1     -46.094 -46.899  70.623  1.00  0.00     0.006 C 
BRANCH   5   6
ATOM      6  C   UNL     1     -47.426 -47.479  71.117  1.00  0.00     0.053 C 
BRANCH   6   7
ATOM      7  C   UNL     1     -47.793 -48.693  70.322  1.00  0.00     0.041 C 
ATOM      8  O   UNL     1     -48.100 -48.584  69.106  1.00  0.00    -0.550 OA
ATOM      9  O   UNL     1     -47.843 -49.937  70.938  1.00  0.00    -0.550 OA
ENDBRANCH   6   7
ENDBRANCH   5   6
ENDBRANCH   4   5
ENDBRANCH   3   4
ENDBRANCH   2   3
ENDBRANCH   1   2
BRANCH   1  10
ATOM     10  C   UNL     1     -42.386 -45.011  69.907  1.00  0.00     0.000 C 
BRANCH  10  11
ATOM     11  C   UNL     1     -42.740 -44.029  68.775  1.00  0.00    -0.000 C 
BRANCH  11  12
ATOM     12  C   UNL     1     -43.398 -42.738  69.291  1.00  0.00    -0.000 C 
BRANCH  12  13
ATOM     13  C   UNL     1     -42.463 -41.521  69.198  1.00  0.00    -0.000 C 
BRANCH  13  14
ATOM     14  C   UNL     1     -42.543 -40.615  70.435  1.00  0.00    -0.000 C 
BRANCH  14  15
ATOM     15  C   UNL     1     -43.774 -40.954  71.284  1.00  0.00    -0.003 C 
ATOM     16  C   UNL     1     -43.382 -41.256  72.728  1.00  0.00     0.004 C 
ENDBRANCH  14  15
ENDBRANCH  13  14
ENDBRANCH  12  13
ENDBRANCH  11  12
ENDBRANCH  10  11
ENDBRANCH   1  10
TORSDOF 12
ENDMDL
MODEL 6
REMARK VINA RESULT:    -3.006      3.372      5.572
REMARK INTER + INTRA:          -6.898
REMARK INTER:                  -5.517
REMARK INTRA:                  -1.381
REMARK UNBOUND:                -1.783
REMARK SMILES CCCCCCCCCCCCCC(=O)[O-]
REMARK SMILES IDX 8 1 9 2 10 3 11 4 12 5 13 6 14 7 15 8 16 9 7 10 6 11 5 12
REMARK SMILES IDX 4 13 3 14 2 15 1 16
REMARK H PARENT
REMARK Flexibility Score: inf
ROOT
ATOM      1  C   UNL     1     -43.970 -48.069  68.941  1.00  0.00     0.000 C 
ENDROOT
BRANCH   1   2
ATOM      2  C   UNL     1     -43.729 -47.395  70.304  1.00  0.00     0.000 C 
BRANCH   2   3
ATOM      3  C   UNL     1     -44.906 -46.515  70.752  1.00  0.00     0.000 C 
BRANCH   3   4
ATOM      4  C   UNL     1     -46.122 -47.377  71.126  1.00  0.00     0.000 C 
BRANCH   4   5
ATOM      5  C   UNL     1     -47.375 -47.018  70.312  1.00  0.00     0.006 C 
BRANCH   5   6
ATOM      6  C   UNL     1     -47.990 -48.235  69.609  1.00  0.00     0.053 C 
BRANCH   6   7
ATOM      7  C   UNL     1     -48.642 -49.139  70.608  1.00  0.00     0.041 C 
ATOM      8  O   UNL     1     -49.699 -48.782  71.190  1.00  0.00    -0.550 OA
ATOM      9  O   UNL     1     -48.053 -50.355  70.931  1.00  0.00    -0.550 OA
ENDBRANCH   6   7
ENDBRANCH   5   6
ENDBRANCH   4   5
ENDBRANCH   3   4
ENDBRANCH   2   3
ENDBRANCH   1   2
BRANCH   1  10
ATOM     10  C   UNL     1     -43.292 -47.379  67.741  1.00  0.00     0.000 C 
BRANCH  10  11
ATOM     11  C   UNL     1     -42.166 -46.391  68.100  1.00  0.00    -0.000 C 
BRANCH  11  12
ATOM     12  C   UNL     1     -42.296 -45.047  67.365  1.00  0.00    -0.000 C 
BRANCH  12  13
ATOM     13  C   UNL     1     -41.994 -43.845  68.275  1.00  0.00    -0.000 C 
BRANCH  13  14
ATOM     14  C   UNL     1     -43.221 -43.385  69.077  1.00  0.00    -0.000 C 
BRANCH  14  15
ATOM     15  C   UNL     1     -42.834 -43.043  70.521  1.00  0.00    -0.003 C 
ATOM     16  C   UNL     1     -42.030 -44.172  71.159  1.00  0.00     0.004 C 
ENDBRANCH  14  15
ENDBRANCH  13  14
ENDBRANCH  12  13
ENDBRANCH  11  12
ENDBRANCH  10  11
ENDBRANCH   1  10
TORSDOF 12
ENDMDL
MODEL 7
REMARK VINA RESULT:    -2.938      3.711      6.109
REMARK INTER + INTRA:          -6.781
REMARK INTER:                  -4.689
REMARK INTRA:                  -2.092
REMARK UNBOUND:                -1.783
REMARK SMILES CCCCCCCCCCCCCC(=O)[O-]
REMARK SMILES IDX 8 1 9 2 10 3 11 4 12 5 13 6 14 7 15 8 16 9 7 10 6 11 5 12
REMARK SMILES IDX 4 13 3 14 2 15 1 16
REMARK H PARENT
REMARK Flexibility Score: inf
ROOT
ATOM      1  C   UNL     1     -47.871 -49.000  70.758  1.00  0.00     0.000 C 
ENDROOT
BRANCH   1   2
ATOM      2  C   UNL     1     -47.595 -47.519  71.076  1.00  0.00     0.000 C 
BRANCH   2   3
ATOM      3  C   UNL     1     -46.291 -47.006  70.447  1.00  0.00     0.000 C 
BRANCH   3   4
ATOM      4  C   UNL     1     -45.241 -46.708  71.528  1.00  0.00     0.000 C 
BRANCH   4   5
ATOM      5  C   UNL     1     -43.831 -47.170  71.126  1.00  0.00     0.006 C 
BRANCH   5   6
ATOM      6  C   UNL     1     -43.743 -47.583  69.652  1.00  0.00     0.053 C 
BRANCH   6   7
ATOM      7  C   UNL     1     -43.012 -48.882  69.517  1.00  0.00     0.041 C 
ATOM      8  O   UNL     1     -43.085 -49.747  70.429  1.00  0.00    -0.550 OA
ATOM      9  O   UNL     1     -42.211 -49.117  68.407  1.00  0.00    -0.550 OA
ENDBRANCH   6   7
ENDBRANCH   5   6
ENDBRANCH   4   5
ENDBRANCH   3   4
ENDBRANCH   2   3
ENDBRANCH   1   2
BRANCH   1  10
ATOM     10  C   UNL     1     -46.663 -49.789  70.215  1.00  0.00     0.000 C 
BRANCH  10  11
ATOM     11  C   UNL     1     -46.917 -50.562  68.907  1.00  0.00    -0.000 C 
BRANCH  11  12
ATOM     12  C   UNL     1     -46.030 -50.077  67.747  1.00  0.00    -0.000 C 
BRANCH  12  13
ATOM     13  C   UNL     1     -46.391 -48.657  67.283  1.00  0.00    -0.000 C 
BRANCH  13  14
ATOM     14  C   UNL     1     -47.777 -48.580  66.627  1.00  0.00    -0.000 C 
BRANCH  14  15
ATOM     15  C   UNL     1     -48.699 -47.633  67.405  1.00  0.00    -0.003 C 
ATOM     16  C   UNL     1     -49.971 -48.346  67.853  1.00  0.00     0.004 C 
ENDBRANCH  14  15
ENDBRANCH  13  14
ENDBRANCH  12  13
ENDBRANCH  11  12
ENDBRANCH  10  11
ENDBRANCH   1  10
TORSDOF 12
ENDMDL
MODEL 8
REMARK VINA RESULT:    -2.924      3.876      6.112
REMARK INTER + INTRA:          -6.759
REMARK INTER:                  -5.286
REMARK INTRA:                  -1.472
REMARK UNBOUND:                -1.783
REMARK SMILES CCCCCCCCCCCCCC(=O)[O-]
REMARK SMILES IDX 8 1 9 2 10 3 11 4 12 5 13 6 14 7 15 8 16 9 7 10 6 11 5 12
REMARK SMILES IDX 4 13 3 14 2 15 1 16
REMARK H PARENT
REMARK Flexibility Score: inf
ROOT
ATOM      1  C   UNL     1     -47.790 -49.123  70.738  1.00  0.00     0.000 C 
ENDROOT
BRANCH   1   2
ATOM      2  C   UNL     1     -47.689 -47.598  70.925  1.00  0.00     0.000 C 
BRANCH   2   3
ATOM      3  C   UNL     1     -46.243 -47.111  71.097  1.00  0.00     0.000 C 
BRANCH   3   4
ATOM      4  C   UNL     1     -45.245 -48.241  70.799  1.00  0.00     0.000 C 
BRANCH   4   5
ATOM      5  C   UNL     1     -43.805 -47.731  70.631  1.00  0.00     0.006 C 
BRANCH   5   6
ATOM      6  C   UNL     1     -43.494 -46.534  71.540  1.00  0.00     0.053 C 
BRANCH   6   7
ATOM      7  C   UNL     1     -42.842 -45.439  70.755  1.00  0.00     0.041 C 
ATOM      8  O   UNL     1     -43.543 -44.639  70.081  1.00  0.00    -0.550 OA
ATOM      9  O   UNL     1     -41.457 -45.333  70.728  1.00  0.00    -0.550 OA
ENDBRANCH   6   7
ENDBRANCH   5   6
ENDBRANCH   4   5
ENDBRANCH   3   4
ENDBRANCH   2   3
ENDBRANCH   1   2
BRANCH   1  10
ATOM     10  C   UNL     1     -49.225 -49.683  70.685  1.00  0.00     0.000 C 
BRANCH  10  11
ATOM     11  C   UNL     1     -49.753 -50.004  69.274  1.00  0.00    -0.000 C 
BRANCH  11  12
ATOM     12  C   UNL     1     -50.552 -48.843  68.658  1.00  0.00    -0.000 C 
BRANCH  12  13
ATOM     13  C   UNL     1     -50.007 -48.414  67.286  1.00  0.00    -0.000 C 
BRANCH  13  14
ATOM     14  C   UNL     1     -48.614 -47.773  67.374  1.00  0.00    -0.000 C 
BRANCH  14  15
ATOM     15  C   UNL     1     -47.591 -48.573  66.559  1.00  0.00    -0.003 C 
ATOM     16  C   UNL     1     -46.266 -48.695  67.306  1.00  0.00     0.004 C 
ENDBRANCH  14  15
ENDBRANCH  13  14
ENDBRANCH  12  13
ENDBRANCH  11  12
ENDBRANCH  10  11
ENDBRANCH   1  10
TORSDOF 12
ENDMDL
MODEL 9
REMARK VINA RESULT:    -2.924      5.920      8.492
REMARK INTER + INTRA:          -6.758
REMARK INTER:                  -5.698
REMARK INTRA:                  -1.060
REMARK UNBOUND:                -1.783
REMARK SMILES CCCCCCCCCCCCCC(=O)[O-]
REMARK SMILES IDX 8 1 9 2 10 3 11 4 12 5 13 6 14 7 15 8 16 9 7 10 6 11 5 12
REMARK SMILES IDX 4 13 3 14 2 15 1 16
REMARK H PARENT
REMARK Flexibility Score: inf
ROOT
ATOM      1  C   UNL     1     -42.468 -43.783  68.909  1.00  0.00     0.000 C 
ENDROOT
BRANCH   1   2
ATOM      2  C   UNL     1     -43.489 -42.690  69.270  1.00  0.00     0.000 C 
BRANCH   2   3
ATOM      3  C   UNL     1     -42.830 -41.410  69.807  1.00  0.00     0.000 C 
BRANCH   3   4
ATOM      4  C   UNL     1     -42.152 -41.669  71.161  1.00  0.00     0.000 C 
BRANCH   4   5
ATOM      5  C   UNL     1     -43.062 -41.332  72.352  1.00  0.00     0.006 C 
BRANCH   5   6
ATOM      6  C   UNL     1     -43.033 -42.413  73.441  1.00  0.00     0.053 C 
BRANCH   6   7
ATOM      7  C   UNL     1     -44.133 -42.185  74.430  1.00  0.00     0.041 C 
ATOM      8  O   UNL     1     -44.275 -42.963  75.410  1.00  0.00    -0.550 OA
ATOM      9  O   UNL     1     -45.030 -41.142  74.244  1.00  0.00    -0.550 OA
ENDBRANCH   6   7
ENDBRANCH   5   6
ENDBRANCH   4   5
ENDBRANCH   3   4
ENDBRANCH   2   3
ENDBRANCH   1   2
BRANCH   1  10
ATOM     10  C   UNL     1     -42.707 -45.150  69.580  1.00  0.00     0.000 C 
BRANCH  10  11
ATOM     11  C   UNL     1     -43.440 -45.098  70.934  1.00  0.00    -0.000 C 
BRANCH  11  12
ATOM     12  C   UNL     1     -43.765 -46.496  71.489  1.00  0.00    -0.000 C 
BRANCH  12  13
ATOM     13  C   UNL     1     -44.191 -47.483  70.391  1.00  0.00    -0.000 C 
BRANCH  13  14
ATOM     14  C   UNL     1     -45.531 -48.168  70.696  1.00  0.00    -0.000 C 
BRANCH  14  15
ATOM     15  C   UNL     1     -46.570 -47.149  71.179  1.00  0.00    -0.003 C 
ATOM     16  C   UNL     1     -47.990 -47.673  70.983  1.00  0.00     0.004 C 
ENDBRANCH  14  15
ENDBRANCH  13  14
ENDBRANCH  12  13
ENDBRANCH  11  12
ENDBRANCH  10  11
ENDBRANCH   1  10
TORSDOF 12
ENDMDL
