MODEL 1
REMARK VINA RESULT:    -4.491      0.000      0.000
REMARK INTER + INTRA:         -11.384
REMARK INTER:                  -8.692
REMARK INTRA:                  -2.691
REMARK UNBOUND:                -2.691
REMARK SMILES CCCCCCCCCCCCCCCCCC(=O)[O-]
REMARK SMILES IDX 10 1 11 2 12 3 13 4 14 5 15 6 16 7 17 8 18 9 19 10 20 11
REMARK SMILES IDX 9 12 8 13 7 14 6 15 5 16 4 17 3 18 2 19 1 20
REMARK H PARENT
REMARK Flexibility Score: inf
ROOT
ATOM      1  C   UNL     1      47.496  34.631 -13.164  1.00  0.00     0.000 C 
ENDROOT
BRANCH   1   2
ATOM      2  C   UNL     1      46.000  34.629 -13.524  1.00  0.00     0.000 C 
BRANCH   2   3
ATOM      3  C   UNL     1      45.379  36.039 -13.439  1.00  0.00     0.000 C 
BRANCH   3   4
ATOM      4  C   UNL     1      43.977  36.055 -12.804  1.00  0.00     0.000 C 
BRANCH   4   5
ATOM      5  C   UNL     1      44.012  36.247 -11.281  1.00  0.00     0.000 C 
BRANCH   5   6
ATOM      6  C   UNL     1      45.246  37.056 -10.856  1.00  0.00     0.000 C 
BRANCH   6   7
ATOM      7  C   UNL     1      45.976  36.438  -9.654  1.00  0.00     0.006 C 
BRANCH   7   8
ATOM      8  C   UNL     1      46.130  34.915  -9.771  1.00  0.00     0.053 C 
BRANCH   8   9
ATOM      9  C   UNL     1      45.581  34.237  -8.554  1.00  0.00     0.041 C 
ATOM     10  O   UNL     1      44.495  34.626  -8.050  1.00  0.00    -0.550 OA
ATOM     11  O   UNL     1      46.286  33.197  -7.959  1.00  0.00    -0.550 OA
ENDBRANCH   8   9
ENDBRANCH   7   8
ENDBRANCH   6   7
ENDBRANCH   5   6
ENDBRANCH   4   5
ENDBRANCH   3   4
ENDBRANCH   2   3
ENDBRANCH   1   2
BRANCH   1  12
ATOM     12  C   UNL     1      48.084  36.049 -13.088  1.00  0.00     0.000 C 
BRANCH  12  13
ATOM     13  C   UNL     1      49.513  36.067 -12.516  1.00  0.00    -0.000 C 
BRANCH  13  14
ATOM     14  C   UNL     1      50.513  36.776 -13.443  1.00  0.00    -0.000 C 
BRANCH  14  15
ATOM     15  C   UNL     1      49.898  37.135 -14.807  1.00  0.00    -0.000 C 
BRANCH  15  16
ATOM     16  C   UNL     1      50.727  36.607 -15.989  1.00  0.00    -0.000 C 
BRANCH  16  17
ATOM     17  C   UNL     1      49.859  35.931 -17.066  1.00  0.00    -0.000 C 
BRANCH  17  18
ATOM     18  C   UNL     1      48.935  34.847 -16.486  1.00  0.00    -0.000 C 
BRANCH  18  19
ATOM     19  C   UNL     1      47.458  35.073 -16.845  1.00  0.00    -0.003 C 
ATOM     20  C   UNL     1      47.197  36.536 -17.196  1.00  0.00     0.004 C 
ENDBRANCH  18  19
ENDBRANCH  17  18
ENDBRANCH  16  17
ENDBRANCH  15  16
ENDBRANCH  14  15
ENDBRANCH  13  14
ENDBRANCH  12  13
ENDBRANCH   1  12
TORSDOF 16
ENDMDL
MODEL 2
REMARK VINA RESULT:    -4.229      1.335      2.327
REMARK INTER + INTRA:         -10.875
REMARK INTER:                  -8.418
REMARK INTRA:                  -2.457
REMARK UNBOUND:                -2.691
REMARK SMILES CCCCCCCCCCCCCCCCCC(=O)[O-]
REMARK SMILES IDX 10 1 11 2 12 3 13 4 14 5 15 6 16 7 17 8 18 9 19 10 20 11
REMARK SMILES IDX 9 12 8 13 7 14 6 15 5 16 4 17 3 18 2 19 1 20
REMARK H PARENT
REMARK Flexibility Score: inf
ROOT
ATOM      1  C   UNL     1      45.032  37.347 -14.038  1.00  0.00     0.000 C 
ENDROOT
BRANCH   1   2
ATOM      2  C   UNL     1      44.483  36.156 -13.232  1.00  0.00     0.000 C 
BRANCH   2   3
ATOM      3  C   UNL     1      43.101  36.457 -12.616  1.00  0.00     0.000 C 
BRANCH   3   4
ATOM      4  C   UNL     1      43.119  36.541 -11.079  1.00  0.00     0.000 C 
BRANCH   4   5
ATOM      5  C   UNL     1      44.108  37.587 -10.548  1.00  0.00     0.000 C 
BRANCH   5   6
ATOM      6  C   UNL     1      45.081  36.963  -9.539  1.00  0.00     0.000 C 
BRANCH   6   7
ATOM      7  C   UNL     1      45.142  35.431  -9.642  1.00  0.00     0.006 C 
BRANCH   7   8
ATOM      8  C   UNL     1      44.636  34.730  -8.373  1.00  0.00     0.053 C 
BRANCH   8   9
ATOM      9  C   UNL     1      45.579  33.642  -7.962  1.00  0.00     0.041 C 
ATOM     10  O   UNL     1      45.154  32.648  -7.316  1.00  0.00    -0.550 OA
ATOM     11  O   UNL     1      46.932  33.742  -8.264  1.00  0.00    -0.550 OA
ENDBRANCH   8   9
ENDBRANCH   7   8
ENDBRANCH   6   7
ENDBRANCH   5   6
ENDBRANCH   4   5
ENDBRANCH   3   4
ENDBRANCH   2   3
ENDBRANCH   1   2
BRANCH   1  12
ATOM     12  C   UNL     1      46.413  37.808 -13.546  1.00  0.00     0.000 C 
BRANCH  12  13
ATOM     13  C   UNL     1      47.145  36.722 -12.737  1.00  0.00    -0.000 C 
BRANCH  13  14
ATOM     14  C   UNL     1      48.442  36.253 -13.416  1.00  0.00    -0.000 C 
BRANCH  14  15
ATOM     15  C   UNL     1      48.346  34.807 -13.934  1.00  0.00    -0.000 C 
BRANCH  15  16
ATOM     16  C   UNL     1      47.362  34.661 -15.106  1.00  0.00    -0.000 C 
BRANCH  16  17
ATOM     17  C   UNL     1      47.993  35.035 -16.459  1.00  0.00    -0.000 C 
BRANCH  17  18
ATOM     18  C   UNL     1      47.219  36.147 -17.186  1.00  0.00    -0.000 C 
BRANCH  18  19
ATOM     19  C   UNL     1      47.985  37.479 -17.218  1.00  0.00    -0.003 C 
ATOM     20  C   UNL     1      49.431  37.289 -16.771  1.00  0.00     0.004 C 
ENDBRANCH  18  19
ENDBRANCH  17  18
ENDBRANCH  16  17
ENDBRANCH  15  16
ENDBRANCH  14  15
ENDBRANCH  13  14
ENDBRANCH  12  13
ENDBRANCH   1  12
TORSDOF 16
ENDMDL
MODEL 3
REMARK VINA RESULT:    -4.189      1.034      2.712
REMARK INTER + INTRA:         -10.798
REMARK INTER:                  -8.389
REMARK INTRA:                  -2.409
REMARK UNBOUND:                -2.691
REMARK SMILES CCCCCCCCCCCCCCCCCC(=O)[O-]
REMARK SMILES IDX 10 1 11 2 12 3 13 4 14 5 15 6 16 7 17 8 18 9 19 10 20 11
REMARK SMILES IDX 9 12 8 13 7 14 6 15 5 16 4 17 3 18 2 19 1 20
REMARK H PARENT
REMARK Flexibility Score: inf
ROOT
ATOM      1  C   UNL     1      46.970  34.423 -13.825  1.00  0.00     0.000 C 
ENDROOT
BRANCH   1   2
ATOM      2  C   UNL     1      45.620  34.618 -13.112  1.00  0.00     0.000 C 
BRANCH   2   3
ATOM      3  C   UNL     1      45.041  36.030 -13.340  1.00  0.00     0.000 C 
BRANCH   3   4
ATOM      4  C   UNL     1      45.060  36.913 -12.079  1.00  0.00     0.000 C 
BRANCH   4   5
ATOM      5  C   UNL     1      46.436  37.536 -11.806  1.00  0.00     0.000 C 
BRANCH   5   6
ATOM      6  C   UNL     1      47.109  36.876 -10.595  1.00  0.00     0.000 C 
BRANCH   6   7
ATOM      7  C   UNL     1      46.112  36.127  -9.697  1.00  0.00     0.006 C 
BRANCH   7   8
ATOM      8  C   UNL     1      46.537  34.678  -9.418  1.00  0.00     0.053 C 
BRANCH   8   9
ATOM      9  C   UNL     1      45.691  34.082  -8.336  1.00  0.00     0.041 C 
ATOM     10  O   UNL     1      45.529  32.834  -8.276  1.00  0.00    -0.550 OA
ATOM     11  O   UNL     1      45.054  34.905  -7.414  1.00  0.00    -0.550 OA
ENDBRANCH   8   9
ENDBRANCH   7   8
ENDBRANCH   6   7
ENDBRANCH   5   6
ENDBRANCH   4   5
ENDBRANCH   3   4
ENDBRANCH   2   3
ENDBRANCH   1   2
BRANCH   1  12
ATOM     12  C   UNL     1      47.155  35.380 -15.013  1.00  0.00     0.000 C 
BRANCH  12  13
ATOM     13  C   UNL     1      47.688  34.666 -16.269  1.00  0.00    -0.000 C 
BRANCH  13  14
ATOM     14  C   UNL     1      48.968  35.316 -16.820  1.00  0.00    -0.000 C 
BRANCH  14  15
ATOM     15  C   UNL     1      48.767  36.799 -17.179  1.00  0.00    -0.000 C 
BRANCH  15  16
ATOM     16  C   UNL     1      49.843  37.709 -16.563  1.00  0.00    -0.000 C 
BRANCH  16  17
ATOM     17  C   UNL     1      50.852  36.932 -15.698  1.00  0.00    -0.000 C 
BRANCH  17  18
ATOM     18  C   UNL     1      51.054  37.568 -14.312  1.00  0.00    -0.000 C 
BRANCH  18  19
ATOM     19  C   UNL     1      49.889  37.279 -13.352  1.00  0.00    -0.003 C 
ATOM     20  C   UNL     1      50.082  35.940 -12.645  1.00  0.00     0.004 C 
ENDBRANCH  18  19
ENDBRANCH  17  18
ENDBRANCH  16  17
ENDBRANCH  15  16
ENDBRANCH  14  15
ENDBRANCH  13  14
ENDBRANCH  12  13
ENDBRANCH   1  12
TORSDOF 16
ENDMDL
MODEL 4
REMARK VINA RESULT:    -4.129      1.626      3.168
REMARK INTER + INTRA:         -10.683
REMARK INTER:                  -8.398
REMARK INTRA:                  -2.285
REMARK UNBOUND:                -2.691
REMARK SMILES CCCCCCCCCCCCCCCCCC(=O)[O-]
REMARK SMILES IDX 10 1 11 2 12 3 13 4 14 5 15 6 16 7 17 8 18 9 19 10 20 11
REMARK SMILES IDX 9 12 8 13 7 14 6 15 5 16 4 17 3 18 2 19 1 20
REMARK H PARENT
REMARK Flexibility Score: inf
ROOT
ATOM      1  C   UNL     1      47.321  34.771 -14.421  1.00  0.00     0.000 C 
ENDROOT
BRANCH   1   2
ATOM      2  C   UNL     1      46.489  36.001 -14.014  1.00  0.00     0.000 C 
BRANCH   2   3
ATOM      3  C   UNL     1      45.105  35.608 -13.455  1.00  0.00     0.000 C 
BRANCH   3   4
ATOM      4  C   UNL     1      44.235  36.815 -13.065  1.00  0.00     0.000 C 
BRANCH   4   5
ATOM      5  C   UNL     1      43.004  36.422 -12.236  1.00  0.00     0.000 C 
BRANCH   5   6
ATOM      6  C   UNL     1      43.360  36.294 -10.748  1.00  0.00     0.000 C 
BRANCH   6   7
ATOM      7  C   UNL     1      44.422  37.310 -10.302  1.00  0.00     0.006 C 
BRANCH   7   8
ATOM      8  C   UNL     1      45.528  36.677  -9.445  1.00  0.00     0.053 C 
BRANCH   8   9
ATOM      9  C   UNL     1      46.775  36.489 -10.253  1.00  0.00     0.041 C 
ATOM     10  O   UNL     1      47.303  35.350 -10.344  1.00  0.00    -0.550 OA
ATOM     11  O   UNL     1      47.372  37.579 -10.877  1.00  0.00    -0.550 OA
ENDBRANCH   8   9
ENDBRANCH   7   8
ENDBRANCH   6   7
ENDBRANCH   5   6
ENDBRANCH   4   5
ENDBRANCH   3   4
ENDBRANCH   2   3
ENDBRANCH   1   2
BRANCH   1  12
ATOM     12  C   UNL     1      47.593  34.714 -15.932  1.00  0.00     0.000 C 
BRANCH  12  13
ATOM     13  C   UNL     1      47.444  36.087 -16.611  1.00  0.00    -0.000 C 
BRANCH  13  14
ATOM     14  C   UNL     1      48.765  36.600 -17.205  1.00  0.00    -0.000 C 
BRANCH  14  15
ATOM     15  C   UNL     1      49.913  35.587 -17.051  1.00  0.00    -0.000 C 
BRANCH  15  16
ATOM     16  C   UNL     1      51.231  36.245 -16.612  1.00  0.00    -0.000 C 
BRANCH  16  17
ATOM     17  C   UNL     1      51.009  37.570 -15.860  1.00  0.00    -0.000 C 
BRANCH  17  18
ATOM     18  C   UNL     1      51.288  37.448 -14.352  1.00  0.00    -0.000 C 
BRANCH  18  19
ATOM     19  C   UNL     1      50.007  37.251 -13.527  1.00  0.00    -0.003 C 
ATOM     20  C   UNL     1      50.104  36.003 -12.654  1.00  0.00     0.004 C 
ENDBRANCH  18  19
ENDBRANCH  17  18
ENDBRANCH  16  17
ENDBRANCH  15  16
ENDBRANCH  14  15
ENDBRANCH  13  14
ENDBRANCH  12  13
ENDBRANCH   1  12
TORSDOF 16
ENDMDL
MODEL 5
REMARK VINA RESULT:    -4.097      3.273      6.760
REMARK INTER + INTRA:         -10.620
REMARK INTER:                  -7.684
REMARK INTRA:                  -2.935
REMARK UNBOUND:                -2.691
REMARK SMILES CCCCCCCCCCCCCCCCCC(=O)[O-]
REMARK SMILES IDX 10 1 11 2 12 3 13 4 14 5 15 6 16 7 17 8 18 9 19 10 20 11
REMARK SMILES IDX 9 12 8 13 7 14 6 15 5 16 4 17 3 18 2 19 1 20
REMARK H PARENT
REMARK Flexibility Score: inf
ROOT
ATOM      1  C   UNL     1      46.391  34.832 -11.040  1.00  0.00     0.000 C 
ENDROOT
BRANCH   1   2
ATOM      2  C   UNL     1      47.509  35.761 -10.533  1.00  0.00     0.000 C 
BRANCH   2   3
ATOM      3  C   UNL     1      47.125  37.251 -10.650  1.00  0.00     0.000 C 
BRANCH   3   4
ATOM      4  C   UNL     1      47.843  37.983 -11.797  1.00  0.00     0.000 C 
BRANCH   4   5
ATOM      5  C   UNL     1      48.920  37.123 -12.474  1.00  0.00     0.000 C 
BRANCH   5   6
ATOM      6  C   UNL     1      48.945  37.364 -13.990  1.00  0.00     0.000 C 
BRANCH   6   7
ATOM      7  C   UNL     1      49.171  36.074 -14.793  1.00  0.00     0.006 C 
BRANCH   7   8
ATOM      8  C   UNL     1      49.048  36.289 -16.308  1.00  0.00     0.053 C 
BRANCH   8   9
ATOM      9  C   UNL     1      47.776  35.688 -16.822  1.00  0.00     0.041 C 
ATOM     10  O   UNL     1      47.063  36.324 -17.643  1.00  0.00    -0.550 OA
ATOM     11  O   UNL     1      47.360  34.441 -16.369  1.00  0.00    -0.550 OA
ENDBRANCH   8   9
ENDBRANCH   7   8
ENDBRANCH   6   7
ENDBRANCH   5   6
ENDBRANCH   4   5
ENDBRANCH   3   4
ENDBRANCH   2   3
ENDBRANCH   1   2
BRANCH   1  12
ATOM     12  C   UNL     1      46.581  34.423 -12.509  1.00  0.00     0.000 C 
BRANCH  12  13
ATOM     13  C   UNL     1      45.389  34.827 -13.394  1.00  0.00    -0.000 C 
BRANCH  13  14
ATOM     14  C   UNL     1      45.482  36.281 -13.884  1.00  0.00    -0.000 C 
BRANCH  14  15
ATOM     15  C   UNL     1      44.378  37.174 -13.292  1.00  0.00    -0.000 C 
BRANCH  15  16
ATOM     16  C   UNL     1      43.272  36.366 -12.594  1.00  0.00    -0.000 C 
BRANCH  16  17
ATOM     17  C   UNL     1      42.411  37.229 -11.654  1.00  0.00    -0.000 C 
BRANCH  17  18
ATOM     18  C   UNL     1      43.013  37.345 -10.243  1.00  0.00    -0.000 C 
BRANCH  18  19
ATOM     19  C   UNL     1      43.381  35.980  -9.642  1.00  0.00    -0.003 C 
ATOM     20  C   UNL     1      44.180  36.148  -8.352  1.00  0.00     0.004 C 
ENDBRANCH  18  19
ENDBRANCH  17  18
ENDBRANCH  16  17
ENDBRANCH  15  16
ENDBRANCH  14  15
ENDBRANCH  13  14
ENDBRANCH  12  13
ENDBRANCH   1  12
TORSDOF 16
ENDMDL
MODEL 6
REMARK VINA RESULT:    -4.078      2.830      7.077
REMARK INTER + INTRA:         -10.583
REMARK INTER:                  -8.466
REMARK INTRA:                  -2.118
REMARK UNBOUND:                -2.691
REMARK SMILES CCCCCCCCCCCCCCCCCC(=O)[O-]
REMARK SMILES IDX 10 1 11 2 12 3 13 4 14 5 15 6 16 7 17 8 18 9 19 10 20 11
REMARK SMILES IDX 9 12 8 13 7 14 6 15 5 16 4 17 3 18 2 19 1 20
REMARK H PARENT
REMARK Flexibility Score: inf
ROOT
ATOM      1  C   UNL     1      45.564  34.788 -13.177  1.00  0.00     0.000 C 
ENDROOT
BRANCH   1   2
ATOM      2  C   UNL     1      46.941  34.736 -13.864  1.00  0.00     0.000 C 
BRANCH   2   3
ATOM      3  C   UNL     1      47.117  35.867 -14.899  1.00  0.00     0.000 C 
BRANCH   3   4
ATOM      4  C   UNL     1      47.521  35.364 -16.296  1.00  0.00     0.000 C 
BRANCH   4   5
ATOM      5  C   UNL     1      48.943  34.786 -16.335  1.00  0.00     0.000 C 
BRANCH   5   6
ATOM      6  C   UNL     1      49.882  35.688 -17.148  1.00  0.00     0.000 C 
BRANCH   6   7
ATOM      7  C   UNL     1      50.978  36.334 -16.287  1.00  0.00     0.006 C 
BRANCH   7   8
ATOM      8  C   UNL     1      50.441  37.453 -15.383  1.00  0.00     0.053 C 
BRANCH   8   9
ATOM      9  C   UNL     1      50.840  37.215 -13.959  1.00  0.00     0.041 C 
ATOM     10  O   UNL     1      51.769  37.890 -13.442  1.00  0.00    -0.550 OA
ATOM     11  O   UNL     1      50.208  36.226 -13.214  1.00  0.00    -0.550 OA
ENDBRANCH   8   9
ENDBRANCH   7   8
ENDBRANCH   6   7
ENDBRANCH   5   6
ENDBRANCH   4   5
ENDBRANCH   3   4
ENDBRANCH   2   3
ENDBRANCH   1   2
BRANCH   1  12
ATOM     12  C   UNL     1      44.882  36.157 -13.321  1.00  0.00     0.000 C 
BRANCH  12  13
ATOM     13  C   UNL     1      43.437  36.156 -12.792  1.00  0.00    -0.000 C 
BRANCH  13  14
ATOM     14  C   UNL     1      43.016  37.520 -12.219  1.00  0.00    -0.000 C 
BRANCH  14  15
ATOM     15  C   UNL     1      42.986  37.528 -10.681  1.00  0.00    -0.000 C 
BRANCH  15  16
ATOM     16  C   UNL     1      43.069  36.116 -10.078  1.00  0.00    -0.000 C 
BRANCH  16  17
ATOM     17  C   UNL     1      44.200  35.980  -9.043  1.00  0.00    -0.000 C 
BRANCH  17  18
ATOM     18  C   UNL     1      45.513  35.476  -9.666  1.00  0.00    -0.000 C 
BRANCH  18  19
ATOM     19  C   UNL     1      46.470  36.620 -10.036  1.00  0.00    -0.003 C 
ATOM     20  C   UNL     1      47.840  36.079 -10.436  1.00  0.00     0.004 C 
ENDBRANCH  18  19
ENDBRANCH  17  18
ENDBRANCH  16  17
ENDBRANCH  15  16
ENDBRANCH  14  15
ENDBRANCH  13  14
ENDBRANCH  12  13
ENDBRANCH   1  12
TORSDOF 16
ENDMDL
MODEL 7
REMARK VINA RESULT:    -4.045      1.425      2.935
REMARK INTER + INTRA:         -10.521
REMARK INTER:                  -8.317
REMARK INTRA:                  -2.203
REMARK UNBOUND:                -2.691
REMARK SMILES CCCCCCCCCCCCCCCCCC(=O)[O-]
REMARK SMILES IDX 10 1 11 2 12 3 13 4 14 5 15 6 16 7 17 8 18 9 19 10 20 11
REMARK SMILES IDX 9 12 8 13 7 14 6 15 5 16 4 17 3 18 2 19 1 20
REMARK H PARENT
REMARK Flexibility Score: inf
ROOT
ATOM      1  C   UNL     1      47.845  34.722 -13.821  1.00  0.00     0.000 C 
ENDROOT
BRANCH   1   2
ATOM      2  C   UNL     1      46.901  34.915 -12.621  1.00  0.00     0.000 C 
BRANCH   2   3
ATOM      3  C   UNL     1      45.481  35.331 -13.059  1.00  0.00     0.000 C 
BRANCH   3   4
ATOM      4  C   UNL     1      45.251  36.852 -13.036  1.00  0.00     0.000 C 
BRANCH   4   5
ATOM      5  C   UNL     1      43.799  37.234 -12.714  1.00  0.00     0.000 C 
BRANCH   5   6
ATOM      6  C   UNL     1      43.177  36.243 -11.720  1.00  0.00     0.000 C 
BRANCH   6   7
ATOM      7  C   UNL     1      43.155  36.781 -10.281  1.00  0.00     0.006 C 
BRANCH   7   8
ATOM      8  C   UNL     1      43.695  35.769  -9.260  1.00  0.00     0.053 C 
BRANCH   8   9
ATOM      9  C   UNL     1      45.185  35.663  -9.362  1.00  0.00     0.041 C 
ATOM     10  O   UNL     1      45.883  36.700  -9.511  1.00  0.00    -0.550 OA
ATOM     11  O   UNL     1      45.799  34.416  -9.325  1.00  0.00    -0.550 OA
ENDBRANCH   8   9
ENDBRANCH   7   8
ENDBRANCH   6   7
ENDBRANCH   5   6
ENDBRANCH   4   5
ENDBRANCH   3   4
ENDBRANCH   2   3
ENDBRANCH   1   2
BRANCH   1  12
ATOM     12  C   UNL     1      47.087  34.515 -15.142  1.00  0.00     0.000 C 
BRANCH  12  13
ATOM     13  C   UNL     1      47.954  34.827 -16.375  1.00  0.00    -0.000 C 
BRANCH  13  14
ATOM     14  C   UNL     1      47.405  36.001 -17.202  1.00  0.00    -0.000 C 
BRANCH  14  15
ATOM     15  C   UNL     1      47.460  37.335 -16.439  1.00  0.00    -0.000 C 
BRANCH  15  16
ATOM     16  C   UNL     1      48.872  37.943 -16.408  1.00  0.00    -0.000 C 
BRANCH  16  17
ATOM     17  C   UNL     1      49.540  37.820 -15.026  1.00  0.00    -0.000 C 
BRANCH  17  18
ATOM     18  C   UNL     1      50.817  36.964 -15.061  1.00  0.00    -0.000 C 
BRANCH  18  19
ATOM     19  C   UNL     1      51.149  36.453 -16.471  1.00  0.00    -0.003 C 
ATOM     20  C   UNL     1      52.625  36.665 -16.797  1.00  0.00     0.004 C 
ENDBRANCH  18  19
ENDBRANCH  17  18
ENDBRANCH  16  17
ENDBRANCH  15  16
ENDBRANCH  14  15
ENDBRANCH  13  14
ENDBRANCH  12  13
ENDBRANCH   1  12
TORSDOF 16
ENDMDL
MODEL 8
REMARK VINA RESULT:    -4.027      2.903      7.157
REMARK INTER + INTRA:         -10.484
REMARK INTER:                  -8.332
REMARK INTRA:                  -2.152
REMARK UNBOUND:                -2.691
REMARK SMILES CCCCCCCCCCCCCCCCCC(=O)[O-]
REMARK SMILES IDX 10 1 11 2 12 3 13 4 14 5 15 6 16 7 17 8 18 9 19 10 20 11
REMARK SMILES IDX 9 12 8 13 7 14 6 15 5 16 4 17 3 18 2 19 1 20
REMARK H PARENT
REMARK Flexibility Score: inf
ROOT
ATOM      1  C   UNL     1      45.595  34.635 -13.115  1.00  0.00     0.000 C 
ENDROOT
BRANCH   1   2
ATOM      2  C   UNL     1      47.133  34.558 -13.094  1.00  0.00     0.000 C 
BRANCH   2   3
ATOM      3  C   UNL     1      47.776  35.899 -12.684  1.00  0.00     0.000 C 
BRANCH   3   4
ATOM      4  C   UNL     1      49.291  35.960 -12.947  1.00  0.00     0.000 C 
BRANCH   4   5
ATOM      5  C   UNL     1      49.721  37.239 -13.679  1.00  0.00     0.000 C 
BRANCH   5   6
ATOM      6  C   UNL     1      50.584  36.909 -14.904  1.00  0.00     0.000 C 
BRANCH   6   7
ATOM      7  C   UNL     1      49.882  37.235 -16.231  1.00  0.00     0.006 C 
BRANCH   7   8
ATOM      8  C   UNL     1      49.343  35.985 -16.941  1.00  0.00     0.053 C 
BRANCH   8   9
ATOM      9  C   UNL     1      47.911  35.749 -16.574  1.00  0.00     0.041 C 
ATOM     10  O   UNL     1      47.177  36.715 -16.236  1.00  0.00    -0.550 OA
ATOM     11  O   UNL     1      47.395  34.458 -16.573  1.00  0.00    -0.550 OA
ENDBRANCH   8   9
ENDBRANCH   7   8
ENDBRANCH   6   7
ENDBRANCH   5   6
ENDBRANCH   4   5
ENDBRANCH   3   4
ENDBRANCH   2   3
ENDBRANCH   1   2
BRANCH   1  12
ATOM     12  C   UNL     1      45.076  36.073 -13.270  1.00  0.00     0.000 C 
BRANCH  12  13
ATOM     13  C   UNL     1      43.640  36.243 -12.745  1.00  0.00    -0.000 C 
BRANCH  13  14
ATOM     14  C   UNL     1      43.574  36.285 -11.209  1.00  0.00    -0.000 C 
BRANCH  14  15
ATOM     15  C   UNL     1      44.482  37.373 -10.611  1.00  0.00    -0.000 C 
BRANCH  15  16
ATOM     16  C   UNL     1      45.618  36.791  -9.753  1.00  0.00    -0.000 C 
BRANCH  16  17
ATOM     17  C   UNL     1      45.197  35.518  -8.996  1.00  0.00    -0.000 C 
BRANCH  17  18
ATOM     18  C   UNL     1      46.270  34.418  -9.048  1.00  0.00    -0.000 C 
BRANCH  18  19
ATOM     19  C   UNL     1      45.938  33.224  -8.140  1.00  0.00    -0.003 C 
ATOM     20  C   UNL     1      44.558  33.383  -7.508  1.00  0.00     0.004 C 
ENDBRANCH  18  19
ENDBRANCH  17  18
ENDBRANCH  16  17
ENDBRANCH  15  16
ENDBRANCH  14  15
ENDBRANCH  13  14
ENDBRANCH  12  13
ENDBRANCH   1  12
TORSDOF 16
ENDMDL
MODEL 9
REMARK VINA RESULT:    -4.007      2.479      6.649
REMARK INTER + INTRA:         -10.446
REMARK INTER:                  -8.105
REMARK INTRA:                  -2.341
REMARK UNBOUND:                -2.691
REMARK SMILES CCCCCCCCCCCCCCCCCC(=O)[O-]
REMARK SMILES IDX 10 1 11 2 12 3 13 4 14 5 15 6 16 7 17 8 18 9 19 10 20 11
REMARK SMILES IDX 9 12 8 13 7 14 6 15 5 16 4 17 3 18 2 19 1 20
REMARK H PARENT
REMARK Flexibility Score: inf
ROOT
ATOM      1  C   UNL     1      45.310  37.962 -14.987  1.00  0.00     0.000 C 
ENDROOT
BRANCH   1   2
ATOM      2  C   UNL     1      46.667  37.986 -15.714  1.00  0.00     0.000 C 
BRANCH   2   3
ATOM      3  C   UNL     1      46.757  36.906 -16.812  1.00  0.00     0.000 C 
BRANCH   3   4
ATOM      4  C   UNL     1      48.202  36.536 -17.193  1.00  0.00     0.000 C 
BRANCH   4   5
ATOM      5  C   UNL     1      48.677  35.231 -16.539  1.00  0.00     0.000 C 
BRANCH   5   6
ATOM      6  C   UNL     1      47.614  34.675 -15.582  1.00  0.00     0.000 C 
BRANCH   6   7
ATOM      7  C   UNL     1      48.049  34.737 -14.110  1.00  0.00     0.006 C 
BRANCH   7   8
ATOM      8  C   UNL     1      49.286  35.620 -13.893  1.00  0.00     0.053 C 
BRANCH   8   9
ATOM      9  C   UNL     1      48.995  36.694 -12.892  1.00  0.00     0.041 C 
ATOM     10  O   UNL     1      49.214  37.901 -13.179  1.00  0.00    -0.550 OA
ATOM     11  O   UNL     1      48.515  36.361 -11.630  1.00  0.00    -0.550 OA
ENDBRANCH   8   9
ENDBRANCH   7   8
ENDBRANCH   6   7
ENDBRANCH   5   6
ENDBRANCH   4   5
ENDBRANCH   3   4
ENDBRANCH   2   3
ENDBRANCH   1   2
BRANCH   1  12
ATOM     12  C   UNL     1      45.438  37.566 -13.508  1.00  0.00     0.000 C 
BRANCH  12  13
ATOM     13  C   UNL     1      44.810  36.194 -13.206  1.00  0.00    -0.000 C 
BRANCH  13  14
ATOM     14  C   UNL     1      43.352  36.303 -12.730  1.00  0.00    -0.000 C 
BRANCH  14  15
ATOM     15  C   UNL     1      43.048  37.659 -12.071  1.00  0.00    -0.000 C 
BRANCH  15  16
ATOM     16  C   UNL     1      42.637  37.522 -10.596  1.00  0.00    -0.000 C 
BRANCH  16  17
ATOM     17  C   UNL     1      42.952  36.130 -10.019  1.00  0.00    -0.000 C 
BRANCH  17  18
ATOM     18  C   UNL     1      44.030  36.175  -8.923  1.00  0.00    -0.000 C 
BRANCH  18  19
ATOM     19  C   UNL     1      45.455  36.239  -9.495  1.00  0.00    -0.003 C 
ATOM     20  C   UNL     1      46.024  34.839  -9.707  1.00  0.00     0.004 C 
ENDBRANCH  18  19
ENDBRANCH  17  18
ENDBRANCH  16  17
ENDBRANCH  15  16
ENDBRANCH  14  15
ENDBRANCH  13  14
ENDBRANCH  12  13
ENDBRANCH   1  12
TORSDOF 16
ENDMDL
