MODEL 1
REMARK VINA RESULT:    22.675      0.000      0.000
REMARK INTER + INTRA:          34.035
REMARK INTER:                  31.954
REMARK INTRA:                   2.081
REMARK UNBOUND:                 2.081
REMARK SMILES CC1=CCC(=C(C)C)C(=O)CC(C)=CCC1
REMARK SMILES IDX 12 1 14 2 13 3 15 4 16 5 2 6 1 7 3 8 11 10 9 11 10 12 5 13
REMARK SMILES IDX 6 14 7 15 8 16 4 17
REMARK H PARENT
REMARK Flexibility Score: 60.00
ROOT
ATOM      1  C   UNL     1       2.740  77.485  19.451  1.00  0.00    -0.070 C 
ATOM      2  C   UNL     1       1.997  76.631  20.189  1.00  0.00    -0.027 C 
ATOM      3  C   UNL     1       2.781  78.932  19.875  1.00  0.00     0.039 C 
ENDROOT
BRANCH   2   4
ATOM      4  C   UNL     1       1.754  75.171  19.872  1.00  0.00     0.032 C 
BRANCH   4   5
ATOM      5  C   UNL     1       0.857  74.914  18.644  1.00  0.00     0.034 C 
BRANCH   5   6
ATOM      6  C   UNL     1       1.107  73.565  17.993  1.00  0.00    -0.077 C 
ATOM      7  C   UNL     1       0.064  72.491  18.184  1.00  0.00     0.039 C 
ATOM      8  C   UNL     1       2.233  73.241  17.313  1.00  0.00    -0.023 CG0
ATOM      9  G   UNL     1       3.397  74.155  16.984  1.00  0.00     0.000 G0
ENDBRANCH   5   6
ENDBRANCH   4   5
ENDBRANCH   2   4
BRANCH   1  10
ATOM     10  C   UNL     1       3.454  77.079  18.177  1.00  0.00     0.111 C 
BRANCH  10  11
ATOM     11  C   UNL     1       4.479  76.006  18.432  1.00  0.00     0.163 C 
ATOM     12  O   UNL     1       5.646  76.362  18.751  1.00  0.00    -0.294 OA
BRANCH  11  13
ATOM     13  C   UNL     1       4.178  74.554  18.260  1.00  0.00    -0.002 C 
ATOM     14  C   UNL     1       4.644  73.631  19.155  1.00  0.00    -0.069 C 
ATOM     15  C   UNL     1       4.492  72.144  18.925  1.00  0.00     0.039 C 
ATOM     16  C   UNL     1       5.342  74.058  20.428  1.00  0.00     0.039 C 
BRANCH  13  17
ATOM     17  C   UNL     1       3.420  74.144  17.007  1.00  0.00     0.066 CG0
ATOM     18  G   UNL     1       2.238  73.247  17.315  1.00  0.00     0.000 G0
ENDBRANCH  13  17
ENDBRANCH  11  13
ENDBRANCH  10  11
ENDBRANCH   1  10
TORSDOF 0
ENDMDL
MODEL 2
REMARK VINA RESULT:    24.259      1.635      3.635
REMARK INTER + INTRA:          36.267
REMARK INTER:                  35.520
REMARK INTRA:                   0.747
REMARK UNBOUND:                 2.081
REMARK SMILES CC1=CCC(=C(C)C)C(=O)CC(C)=CCC1
REMARK SMILES IDX 12 1 14 2 13 3 15 4 16 5 2 6 1 7 3 8 11 10 9 11 10 12 5 13
REMARK SMILES IDX 6 14 7 15 8 16 4 17
REMARK H PARENT
REMARK Flexibility Score: 60.00
ROOT
ATOM      1  C   UNL     1       3.317  73.752  16.898  1.00  0.00    -0.070 C 
ATOM      2  C   UNL     1       1.991  73.491  16.877  1.00  0.00    -0.027 C 
ATOM      3  C   UNL     1       3.913  74.472  15.713  1.00  0.00     0.039 C 
ENDROOT
BRANCH   2   4
ATOM      4  C   UNL     1       1.230  72.700  17.920  1.00  0.00     0.032 C 
BRANCH   4   5
ATOM      5  C   UNL     1       0.062  73.457  18.583  1.00  0.00     0.034 C 
BRANCH   5   6
ATOM      6  C   UNL     1       0.084  74.950  18.306  1.00  0.00    -0.077 C 
ATOM      7  C   UNL     1      -0.947  75.501  17.352  1.00  0.00     0.039 C 
ATOM      8  C   UNL     1       1.009  75.806  18.803  1.00  0.00    -0.023 CG0
ATOM      9  G   UNL     1       2.119  75.485  19.785  1.00  0.00     0.000 G0
ENDBRANCH   5   6
ENDBRANCH   4   5
ENDBRANCH   2   4
BRANCH   1  10
ATOM     10  C   UNL     1       4.241  73.279  18.002  1.00  0.00     0.111 C 
BRANCH  10  11
ATOM     11  C   UNL     1       4.291  74.260  19.143  1.00  0.00     0.163 C 
ATOM     12  O   UNL     1       4.988  73.963  20.151  1.00  0.00    -0.294 OA
BRANCH  11  13
ATOM     13  C   UNL     1       3.502  75.527  19.145  1.00  0.00    -0.002 C 
ATOM     14  C   UNL     1       4.041  76.688  18.663  1.00  0.00    -0.069 C 
ATOM     15  C   UNL     1       3.330  78.017  18.796  1.00  0.00     0.039 C 
ATOM     16  C   UNL     1       5.387  76.699  17.971  1.00  0.00     0.039 C 
BRANCH  13  17
ATOM     17  C   UNL     1       2.125  75.489  19.788  1.00  0.00     0.066 CG0
ATOM     18  G   UNL     1       1.018  75.811  18.803  1.00  0.00     0.000 G0
ENDBRANCH  13  17
ENDBRANCH  11  13
ENDBRANCH  10  11
ENDBRANCH   1  10
TORSDOF 0
ENDMDL
MODEL 3
REMARK VINA RESULT:    24.509      1.603      3.207
REMARK INTER + INTRA:          36.619
REMARK INTER:                  35.509
REMARK INTRA:                   1.110
REMARK UNBOUND:                 2.081
REMARK SMILES CC1=CCC(=C(C)C)C(=O)CC(C)=CCC1
REMARK SMILES IDX 12 1 14 2 13 3 15 4 16 5 2 6 1 7 3 8 11 10 9 11 10 12 5 13
REMARK SMILES IDX 6 14 7 15 8 16 4 17
REMARK H PARENT
REMARK Flexibility Score: 60.00
ROOT
ATOM      1  C   UNL     1       4.285  76.075  18.583  1.00  0.00    -0.070 C 
ATOM      2  C   UNL     1       3.504  77.135  18.886  1.00  0.00    -0.027 C 
ATOM      3  C   UNL     1       5.321  76.249  17.500  1.00  0.00     0.039 C 
ENDROOT
BRANCH   2   4
ATOM      4  C   UNL     1       2.352  77.131  19.869  1.00  0.00     0.032 C 
BRANCH   4   5
ATOM      5  C   UNL     1       1.512  75.837  19.878  1.00  0.00     0.034 C 
BRANCH   5   6
ATOM      6  C   UNL     1       0.526  75.757  18.725  1.00  0.00    -0.077 C 
ATOM      7  C   UNL     1      -0.449  76.896  18.557  1.00  0.00     0.039 C 
ATOM      8  C   UNL     1       0.420  74.702  17.883  1.00  0.00    -0.023 CG0
ATOM      9  G   UNL     1       1.295  73.465  17.850  1.00  0.00     0.000 G0
ENDBRANCH   5   6
ENDBRANCH   4   5
ENDBRANCH   2   4
BRANCH   1  10
ATOM     10  C   UNL     1       4.110  74.706  19.210  1.00  0.00     0.111 C 
BRANCH  10  11
ATOM     11  C   UNL     1       3.834  73.651  18.173  1.00  0.00     0.163 C 
ATOM     12  O   UNL     1       4.658  72.703  18.055  1.00  0.00    -0.294 OA
BRANCH  11  13
ATOM     13  C   UNL     1       2.663  73.722  17.249  1.00  0.00    -0.002 C 
ATOM     14  C   UNL     1       2.824  74.088  15.941  1.00  0.00    -0.069 C 
ATOM     15  C   UNL     1       1.645  74.323  15.024  1.00  0.00     0.039 C 
ATOM     16  C   UNL     1       4.202  74.280  15.345  1.00  0.00     0.039 C 
BRANCH  13  17
ATOM     17  C   UNL     1       1.289  73.466  17.847  1.00  0.00     0.066 CG0
ATOM     18  G   UNL     1       0.425  74.711  17.863  1.00  0.00     0.000 G0
ENDBRANCH  13  17
ENDBRANCH  11  13
ENDBRANCH  10  11
ENDBRANCH   1  10
TORSDOF 0
ENDMDL
MODEL 4
REMARK VINA RESULT:    24.828      1.984      3.914
REMARK INTER + INTRA:          37.069
REMARK INTER:                  35.971
REMARK INTRA:                   1.098
REMARK UNBOUND:                 2.081
REMARK SMILES CC1=CCC(=C(C)C)C(=O)CC(C)=CCC1
REMARK SMILES IDX 12 1 14 2 13 3 15 4 16 5 2 6 1 7 3 8 11 10 9 11 10 12 5 13
REMARK SMILES IDX 6 14 7 15 8 16 4 17
REMARK H PARENT
REMARK Flexibility Score: 60.00
ROOT
ATOM      1  C   UNL     1       1.255  75.357  19.707  1.00  0.00    -0.070 C 
ATOM      2  C   UNL     1       2.370  76.075  19.960  1.00  0.00    -0.027 C 
ATOM      3  C   UNL     1       0.559  74.700  20.873  1.00  0.00     0.039 C 
ENDROOT
BRANCH   2   4
ATOM      4  C   UNL     1       3.257  76.726  18.919  1.00  0.00     0.032 C 
BRANCH   4   5
ATOM      5  C   UNL     1       4.440  75.859  18.442  1.00  0.00     0.034 C 
BRANCH   5   6
ATOM      6  C   UNL     1       4.427  74.457  19.026  1.00  0.00    -0.077 C 
ATOM      7  C   UNL     1       4.844  74.295  20.468  1.00  0.00     0.039 C 
ATOM      8  C   UNL     1       4.135  73.338  18.321  1.00  0.00    -0.023 CG0
ATOM      9  G   UNL     1       3.678  73.259  16.878  1.00  0.00     0.000 G0
ENDBRANCH   5   6
ENDBRANCH   4   5
ENDBRANCH   2   4
BRANCH   1  10
ATOM     10  C   UNL     1       0.726  75.106  18.309  1.00  0.00     0.111 C 
BRANCH  10  11
ATOM     11  C   UNL     1       1.316  73.860  17.706  1.00  0.00     0.163 C 
ATOM     12  O   UNL     1       0.976  72.746  18.191  1.00  0.00    -0.294 OA
BRANCH  11  13
ATOM     13  C   UNL     1       2.325  73.902  16.607  1.00  0.00    -0.002 C 
ATOM     14  C   UNL     1       2.009  74.430  15.386  1.00  0.00    -0.069 C 
ATOM     15  C   UNL     1       2.953  74.345  14.207  1.00  0.00     0.039 C 
ATOM     16  C   UNL     1       0.686  75.128  15.152  1.00  0.00     0.039 C 
BRANCH  13  17
ATOM     17  C   UNL     1       3.673  73.253  16.875  1.00  0.00     0.066 CG0
ATOM     18  G   UNL     1       4.085  73.356  18.331  1.00  0.00     0.000 G0
ENDBRANCH  13  17
ENDBRANCH  11  13
ENDBRANCH  10  11
ENDBRANCH   1  10
TORSDOF 0
ENDMDL
MODEL 5
REMARK VINA RESULT:    24.840      1.932      4.224
REMARK INTER + INTRA:          37.086
REMARK INTER:                  36.554
REMARK INTRA:                   0.532
REMARK UNBOUND:                 2.081
REMARK SMILES CC1=CCC(=C(C)C)C(=O)CC(C)=CCC1
REMARK SMILES IDX 12 1 14 2 13 3 15 4 16 5 2 6 1 7 3 8 11 10 9 11 10 12 5 13
REMARK SMILES IDX 6 14 7 15 8 16 4 17
REMARK H PARENT
REMARK Flexibility Score: 60.00
ROOT
ATOM      1  C   UNL     1       3.989  73.746  18.092  1.00  0.00    -0.070 C 
ATOM      2  C   UNL     1       4.220  74.722  18.997  1.00  0.00    -0.027 C 
ATOM      3  C   UNL     1       4.289  72.324  18.496  1.00  0.00     0.039 C 
ENDROOT
BRANCH   2   4
ATOM      4  C   UNL     1       4.073  76.209  18.750  1.00  0.00     0.032 C 
BRANCH   4   5
ATOM      5  C   UNL     1       2.794  76.840  19.336  1.00  0.00     0.034 C 
BRANCH   5   6
ATOM      6  C   UNL     1       1.991  75.877  20.192  1.00  0.00    -0.077 C 
ATOM      7  C   UNL     1       2.270  75.858  21.675  1.00  0.00     0.039 C 
ATOM      8  C   UNL     1       1.092  74.988  19.705  1.00  0.00    -0.023 CG0
ATOM      9  G   UNL     1       0.641  74.839  18.265  1.00  0.00     0.000 G0
ENDBRANCH   5   6
ENDBRANCH   4   5
ENDBRANCH   2   4
BRANCH   1  10
ATOM     10  C   UNL     1       3.533  74.018  16.673  1.00  0.00     0.111 C 
BRANCH  10  11
ATOM     11  C   UNL     1       2.079  73.677  16.481  1.00  0.00     0.163 C 
ATOM     12  O   UNL     1       1.649  73.550  15.302  1.00  0.00    -0.294 OA
BRANCH  11  13
ATOM     13  C   UNL     1       1.129  73.547  17.625  1.00  0.00    -0.002 C 
ATOM     14  C   UNL     1       0.666  72.320  18.015  1.00  0.00    -0.069 C 
ATOM     15  C   UNL     1      -0.414  72.168  19.062  1.00  0.00     0.039 C 
ATOM     16  C   UNL     1       1.216  71.046  17.410  1.00  0.00     0.039 C 
BRANCH  13  17
ATOM     17  C   UNL     1       0.631  74.833  18.266  1.00  0.00     0.066 CG0
ATOM     18  G   UNL     1       1.088  74.974  19.705  1.00  0.00     0.000 G0
ENDBRANCH  13  17
ENDBRANCH  11  13
ENDBRANCH  10  11
ENDBRANCH   1  10
TORSDOF 0
ENDMDL
MODEL 6
REMARK VINA RESULT:    25.265      1.570      3.436
REMARK INTER + INTRA:          37.685
REMARK INTER:                  36.078
REMARK INTRA:                   1.607
REMARK UNBOUND:                 2.081
REMARK SMILES CC1=CCC(=C(C)C)C(=O)CC(C)=CCC1
REMARK SMILES IDX 12 1 14 2 13 3 15 4 16 5 2 6 1 7 3 8 11 10 9 11 10 12 5 13
REMARK SMILES IDX 6 14 7 15 8 16 4 17
REMARK H PARENT
REMARK Flexibility Score: 60.00
ROOT
ATOM      1  C   UNL     1       2.859  76.647  19.414  1.00  0.00    -0.070 C 
ATOM      2  C   UNL     1       4.044  76.578  18.769  1.00  0.00    -0.027 C 
ATOM      3  C   UNL     1       2.366  78.008  19.841  1.00  0.00     0.039 C 
ENDROOT
BRANCH   2   4
ATOM      4  C   UNL     1       4.748  75.305  18.349  1.00  0.00     0.032 C 
BRANCH   4   5
ATOM      5  C   UNL     1       4.353  74.050  19.153  1.00  0.00     0.034 C 
BRANCH   5   6
ATOM      6  C   UNL     1       4.229  72.804  18.293  1.00  0.00    -0.077 C 
ATOM      7  C   UNL     1       5.214  71.687  18.531  1.00  0.00     0.039 C 
ATOM      8  C   UNL     1       3.338  72.659  17.283  1.00  0.00    -0.023 CG0
ATOM      9  G   UNL     1       2.250  73.633  16.875  1.00  0.00     0.000 G0
ENDBRANCH   5   6
ENDBRANCH   4   5
ENDBRANCH   2   4
BRANCH   1  10
ATOM     10  C   UNL     1       2.053  75.426  19.806  1.00  0.00     0.111 C 
BRANCH  10  11
ATOM     11  C   UNL     1       1.082  75.030  18.725  1.00  0.00     0.163 C 
ATOM     12  O   UNL     1       0.130  75.815  18.464  1.00  0.00    -0.294 OA
BRANCH  11  13
ATOM     13  C   UNL     1       1.174  73.726  18.004  1.00  0.00    -0.002 C 
ATOM     14  C   UNL     1       0.408  72.659  18.387  1.00  0.00    -0.069 C 
ATOM     15  C   UNL     1       0.590  71.285  17.783  1.00  0.00     0.039 C 
ATOM     16  C   UNL     1      -0.665  72.804  19.445  1.00  0.00     0.039 C 
BRANCH  13  17
ATOM     17  C   UNL     1       2.213  73.612  16.901  1.00  0.00     0.066 CG0
ATOM     18  G   UNL     1       3.334  72.656  17.260  1.00  0.00     0.000 G0
ENDBRANCH  13  17
ENDBRANCH  11  13
ENDBRANCH  10  11
ENDBRANCH   1  10
TORSDOF 0
ENDMDL
MODEL 7
REMARK VINA RESULT:    25.269      1.561      3.285
REMARK INTER + INTRA:          37.691
REMARK INTER:                  36.455
REMARK INTRA:                   1.236
REMARK UNBOUND:                 2.081
REMARK SMILES CC1=CCC(=C(C)C)C(=O)CC(C)=CCC1
REMARK SMILES IDX 12 1 14 2 13 3 15 4 16 5 2 6 1 7 3 8 11 10 9 11 10 12 5 13
REMARK SMILES IDX 6 14 7 15 8 16 4 17
REMARK H PARENT
REMARK Flexibility Score: 60.00
ROOT
ATOM      1  C   UNL     1       4.246  74.590  18.946  1.00  0.00    -0.070 C 
ATOM      2  C   UNL     1       3.909  73.682  18.004  1.00  0.00    -0.027 C 
ATOM      3  C   UNL     1       4.650  74.078  20.306  1.00  0.00     0.039 C 
ENDROOT
BRANCH   2   4
ATOM      4  C   UNL     1       3.388  73.998  16.618  1.00  0.00     0.032 C 
BRANCH   4   5
ATOM      5  C   UNL     1       1.934  73.555  16.355  1.00  0.00     0.034 C 
BRANCH   5   6
ATOM      6  C   UNL     1       1.230  73.046  17.601  1.00  0.00    -0.077 C 
ATOM      7  C   UNL     1       1.033  71.556  17.735  1.00  0.00     0.039 C 
ATOM      8  C   UNL     1       0.708  73.844  18.563  1.00  0.00    -0.023 CG0
ATOM      9  G   UNL     1       0.798  75.355  18.648  1.00  0.00     0.000 G0
ENDBRANCH   5   6
ENDBRANCH   4   5
ENDBRANCH   2   4
BRANCH   1  10
ATOM     10  C   UNL     1       4.152  76.086  18.730  1.00  0.00     0.111 C 
BRANCH  10  11
ATOM     11  C   UNL     1       2.902  76.659  19.343  1.00  0.00     0.163 C 
ATOM     12  O   UNL     1       2.860  77.902  19.556  1.00  0.00    -0.294 OA
BRANCH  11  13
ATOM     13  C   UNL     1       1.750  75.806  19.758  1.00  0.00    -0.002 C 
ATOM     14  C   UNL     1       1.617  75.390  21.055  1.00  0.00    -0.069 C 
ATOM     15  C   UNL     1       0.554  74.399  21.473  1.00  0.00     0.039 C 
ATOM     16  C   UNL     1       2.539  75.903  22.140  1.00  0.00     0.039 C 
BRANCH  13  17
ATOM     17  C   UNL     1       0.794  75.347  18.668  1.00  0.00     0.066 CG0
ATOM     18  G   UNL     1       0.719  73.837  18.564  1.00  0.00     0.000 G0
ENDBRANCH  13  17
ENDBRANCH  11  13
ENDBRANCH  10  11
ENDBRANCH   1  10
TORSDOF 0
ENDMDL
MODEL 8
REMARK VINA RESULT:    25.309      2.165      4.615
REMARK INTER + INTRA:          37.747
REMARK INTER:                  36.804
REMARK INTRA:                   0.943
REMARK UNBOUND:                 2.081
REMARK SMILES CC1=CCC(=C(C)C)C(=O)CC(C)=CCC1
REMARK SMILES IDX 12 1 14 2 13 3 15 4 16 5 2 6 1 7 3 8 11 10 9 11 10 12 5 13
REMARK SMILES IDX 6 14 7 15 8 16 4 17
REMARK H PARENT
REMARK Flexibility Score: 60.00
ROOT
ATOM      1  C   UNL     1       2.364  73.638  16.978  1.00  0.00    -0.070 C 
ATOM      2  C   UNL     1       3.671  73.561  17.310  1.00  0.00    -0.027 C 
ATOM      3  C   UNL     1       2.019  73.984  15.551  1.00  0.00     0.039 C 
ENDROOT
BRANCH   2   4
ATOM      4  C   UNL     1       4.216  73.323  18.703  1.00  0.00     0.032 C 
BRANCH   4   5
ATOM      5  C   UNL     1       4.555  74.602  19.495  1.00  0.00     0.034 C 
BRANCH   5   6
ATOM      6  C   UNL     1       4.181  75.877  18.758  1.00  0.00    -0.077 C 
ATOM      7  C   UNL     1       5.078  76.322  17.629  1.00  0.00     0.039 C 
ATOM      8  C   UNL     1       3.139  76.675  19.092  1.00  0.00    -0.023 CG0
ATOM      9  G   UNL     1       2.102  76.423  20.169  1.00  0.00     0.000 G0
ENDBRANCH   5   6
ENDBRANCH   4   5
ENDBRANCH   2   4
BRANCH   1  10
ATOM     10  C   UNL     1       1.240  73.483  17.982  1.00  0.00     0.111 C 
BRANCH  10  11
ATOM     11  C   UNL     1       0.878  74.798  18.618  1.00  0.00     0.163 C 
ATOM     12  O   UNL     1       0.243  75.639  17.924  1.00  0.00    -0.294 OA
BRANCH  11  13
ATOM     13  C   UNL     1       1.295  75.159  20.005  1.00  0.00    -0.002 C 
ATOM     14  C   UNL     1       0.891  74.410  21.075  1.00  0.00    -0.069 C 
ATOM     15  C   UNL     1       1.162  74.836  22.501  1.00  0.00     0.039 C 
ATOM     16  C   UNL     1       0.143  73.108  20.882  1.00  0.00     0.039 C 
BRANCH  13  17
ATOM     17  C   UNL     1       2.100  76.437  20.179  1.00  0.00     0.066 CG0
ATOM     18  G   UNL     1       3.120  76.632  19.075  1.00  0.00     0.000 G0
ENDBRANCH  13  17
ENDBRANCH  11  13
ENDBRANCH  10  11
ENDBRANCH   1  10
TORSDOF 0
ENDMDL
MODEL 9
REMARK VINA RESULT:    25.508      1.788      3.812
REMARK INTER + INTRA:          38.028
REMARK INTER:                  37.300
REMARK INTRA:                   0.727
REMARK UNBOUND:                 2.081
REMARK SMILES CC1=CCC(=C(C)C)C(=O)CC(C)=CCC1
REMARK SMILES IDX 12 1 14 2 13 3 15 4 16 5 2 6 1 7 3 8 11 10 9 11 10 12 5 13
REMARK SMILES IDX 6 14 7 15 8 16 4 17
REMARK H PARENT
REMARK Flexibility Score: 60.00
ROOT
ATOM      1  C   UNL     1       3.191  76.735  19.136  1.00  0.00    -0.070 C 
ATOM      2  C   UNL     1       4.046  75.803  18.664  1.00  0.00    -0.027 C 
ATOM      3  C   UNL     1       3.225  78.107  18.508  1.00  0.00     0.039 C 
ENDROOT
BRANCH   2   4
ATOM      4  C   UNL     1       4.229  74.408  19.224  1.00  0.00     0.032 C 
BRANCH   4   5
ATOM      5  C   UNL     1       4.078  73.271  18.192  1.00  0.00     0.034 C 
BRANCH   5   6
ATOM      6  C   UNL     1       3.318  73.691  16.946  1.00  0.00    -0.077 C 
ATOM      7  C   UNL     1       4.113  73.912  15.683  1.00  0.00     0.039 C 
ATOM      8  C   UNL     1       1.989  73.948  16.912  1.00  0.00    -0.023 CG0
ATOM      9  G   UNL     1       0.995  73.780  18.045  1.00  0.00     0.000 G0
ENDBRANCH   5   6
ENDBRANCH   4   5
ENDBRANCH   2   4
BRANCH   1  10
ATOM     10  C   UNL     1       2.269  76.499  20.315  1.00  0.00     0.111 C 
BRANCH  10  11
ATOM     11  C   UNL     1       1.319  75.360  20.059  1.00  0.00     0.163 C 
ATOM     12  O   UNL     1       1.089  74.554  21.002  1.00  0.00    -0.294 OA
BRANCH  11  13
ATOM     13  C   UNL     1       0.698  75.119  18.723  1.00  0.00    -0.002 C 
ATOM     14  C   UNL     1      -0.176  76.023  18.185  1.00  0.00    -0.069 C 
ATOM     15  C   UNL     1      -0.942  75.737  16.912  1.00  0.00     0.039 C 
ATOM     16  C   UNL     1      -0.423  77.363  18.844  1.00  0.00     0.039 C 
BRANCH  13  17
ATOM     17  C   UNL     1       1.003  73.795  18.042  1.00  0.00     0.066 CG0
ATOM     18  G   UNL     1       1.993  73.947  16.903  1.00  0.00     0.000 G0
ENDBRANCH  13  17
ENDBRANCH  11  13
ENDBRANCH  10  11
ENDBRANCH   1  10
TORSDOF 0
ENDMDL
