MODEL 1
REMARK VINA RESULT:    -3.666      0.000      0.000
REMARK INTER + INTRA:          -4.398
REMARK INTER:                  -4.308
REMARK INTRA:                  -0.090
REMARK UNBOUND:                -0.090
REMARK SMILES O=C([O-])CCC(=O)[O-]
REMARK SMILES IDX 4 1 2 2 1 3 3 4 5 5 6 6 7 7 8 8
REMARK H PARENT
REMARK Flexibility Score: inf
ROOT
ATOM      1  C   UNL     1      12.181  13.127  68.858  1.00  0.00     0.059 C 
ENDROOT
BRANCH   1   2
ATOM      2  C   UNL     1      10.951  13.312  69.691  1.00  0.00     0.042 C 
ATOM      3  O   UNL     1       9.827  13.444  69.140  1.00  0.00    -0.550 OA
ATOM      4  O   UNL     1      11.053  13.389  71.074  1.00  0.00    -0.550 OA
ENDBRANCH   1   2
BRANCH   1   5
ATOM      5  C   UNL     1      13.421  13.592  69.623  1.00  0.00     0.059 C 
BRANCH   5   6
ATOM      6  C   UNL     1      13.857  14.940  69.143  1.00  0.00     0.042 C 
ATOM      7  O   UNL     1      13.594  15.309  67.969  1.00  0.00    -0.550 OA
ATOM      8  O   UNL     1      14.596  15.769  69.976  1.00  0.00    -0.550 OA
ENDBRANCH   5   6
ENDBRANCH   1   5
TORSDOF 3
ENDMDL
MODEL 2
REMARK VINA RESULT:    -3.663      0.140      3.791
REMARK INTER + INTRA:          -4.395
REMARK INTER:                  -4.304
REMARK INTRA:                  -0.090
REMARK UNBOUND:                -0.090
REMARK SMILES O=C([O-])CCC(=O)[O-]
REMARK SMILES IDX 4 1 2 2 1 3 3 4 5 5 6 6 7 7 8 8
REMARK H PARENT
REMARK Flexibility Score: inf
ROOT
ATOM      1  C   UNL     1      13.382  13.601  69.597  1.00  0.00     0.059 C 
ENDROOT
BRANCH   1   2
ATOM      2  C   UNL     1      13.810  14.952  69.115  1.00  0.00     0.042 C 
ATOM      3  O   UNL     1      13.524  15.327  67.947  1.00  0.00    -0.550 OA
ATOM      4  O   UNL     1      14.565  15.778  69.938  1.00  0.00    -0.550 OA
ENDBRANCH   1   2
BRANCH   1   5
ATOM      5  C   UNL     1      12.169  13.110  68.805  1.00  0.00     0.059 C 
BRANCH   5   6
ATOM      6  C   UNL     1      10.913  13.323  69.587  1.00  0.00     0.042 C 
ATOM      7  O   UNL     1      10.945  13.339  70.846  1.00  0.00    -0.550 OA
ATOM      8  O   UNL     1       9.697  13.455  68.928  1.00  0.00    -0.550 OA
ENDBRANCH   5   6
ENDBRANCH   1   5
TORSDOF 3
ENDMDL
MODEL 3
REMARK VINA RESULT:    -3.638      0.093      3.594
REMARK INTER + INTRA:          -4.366
REMARK INTER:                  -4.272
REMARK INTRA:                  -0.094
REMARK UNBOUND:                -0.090
REMARK SMILES O=C([O-])CCC(=O)[O-]
REMARK SMILES IDX 4 1 2 2 1 3 3 4 5 5 6 6 7 7 8 8
REMARK H PARENT
REMARK Flexibility Score: inf
ROOT
ATOM      1  C   UNL     1      13.367  13.558  69.524  1.00  0.00     0.059 C 
ENDROOT
BRANCH   1   2
ATOM      2  C   UNL     1      13.777  14.932  69.094  1.00  0.00     0.042 C 
ATOM      3  O   UNL     1      13.499  15.342  67.937  1.00  0.00    -0.550 OA
ATOM      4  O   UNL     1      14.509  15.741  69.954  1.00  0.00    -0.550 OA
ENDBRANCH   1   2
BRANCH   1   5
ATOM      5  C   UNL     1      12.101  13.122  68.784  1.00  0.00     0.059 C 
BRANCH   5   6
ATOM      6  C   UNL     1      10.896  13.327  69.646  1.00  0.00     0.042 C 
ATOM      7  O   UNL     1       9.757  13.447  69.123  1.00  0.00    -0.550 OA
ATOM      8  O   UNL     1      11.035  13.435  71.023  1.00  0.00    -0.550 OA
ENDBRANCH   5   6
ENDBRANCH   1   5
TORSDOF 3
ENDMDL
MODEL 4
REMARK VINA RESULT:    -3.620      0.201      1.160
REMARK INTER + INTRA:          -4.344
REMARK INTER:                  -4.246
REMARK INTRA:                  -0.098
REMARK UNBOUND:                -0.090
REMARK SMILES O=C([O-])CCC(=O)[O-]
REMARK SMILES IDX 4 1 2 2 1 3 3 4 5 5 6 6 7 7 8 8
REMARK H PARENT
REMARK Flexibility Score: inf
ROOT
ATOM      1  C   UNL     1      12.085  13.140  68.749  1.00  0.00     0.059 C 
ENDROOT
BRANCH   1   2
ATOM      2  C   UNL     1      10.868  13.383  69.585  1.00  0.00     0.042 C 
ATOM      3  O   UNL     1       9.741  13.518  69.039  1.00  0.00    -0.550 OA
ATOM      4  O   UNL     1      10.984  13.509  70.963  1.00  0.00    -0.550 OA
ENDBRANCH   1   2
BRANCH   1   5
ATOM      5  C   UNL     1      13.343  13.597  69.490  1.00  0.00     0.059 C 
BRANCH   5   6
ATOM      6  C   UNL     1      13.759  14.956  69.025  1.00  0.00     0.042 C 
ATOM      7  O   UNL     1      14.317  15.755  69.822  1.00  0.00    -0.550 OA
ATOM      8  O   UNL     1      13.488  15.359  67.724  1.00  0.00    -0.550 OA
ENDBRANCH   5   6
ENDBRANCH   1   5
TORSDOF 3
ENDMDL
MODEL 5
REMARK VINA RESULT:    -3.512      1.576      3.308
REMARK INTER + INTRA:          -4.217
REMARK INTER:                  -4.089
REMARK INTRA:                  -0.129
REMARK UNBOUND:                -0.090
REMARK SMILES O=C([O-])CCC(=O)[O-]
REMARK SMILES IDX 4 1 2 2 1 3 3 4 5 5 6 6 7 7 8 8
REMARK H PARENT
REMARK Flexibility Score: inf
ROOT
ATOM      1  C   UNL     1      11.571  14.243  68.097  1.00  0.00     0.059 C 
ENDROOT
BRANCH   1   2
ATOM      2  C   UNL     1      12.386  15.392  67.592  1.00  0.00     0.042 C 
ATOM      3  O   UNL     1      13.631  15.268  67.444  1.00  0.00    -0.550 OA
ATOM      4  O   UNL     1      11.780  16.614  67.331  1.00  0.00    -0.550 OA
ENDBRANCH   1   2
BRANCH   1   5
ATOM      5  C   UNL     1      12.439  13.294  68.925  1.00  0.00     0.059 C 
BRANCH   5   6
ATOM      6  C   UNL     1      12.405  13.681  70.369  1.00  0.00     0.042 C 
ATOM      7  O   UNL     1      11.419  13.369  71.087  1.00  0.00    -0.550 OA
ATOM      8  O   UNL     1      13.441  14.430  70.913  1.00  0.00    -0.550 OA
ENDBRANCH   5   6
ENDBRANCH   1   5
TORSDOF 3
ENDMDL
MODEL 6
REMARK VINA RESULT:    -3.492      1.684      2.258
REMARK INTER + INTRA:          -4.194
REMARK INTER:                  -4.073
REMARK INTRA:                  -0.121
REMARK UNBOUND:                -0.090
REMARK SMILES O=C([O-])CCC(=O)[O-]
REMARK SMILES IDX 4 1 2 2 1 3 3 4 5 5 6 6 7 7 8 8
REMARK H PARENT
REMARK Flexibility Score: inf
ROOT
ATOM      1  C   UNL     1      12.792  13.523  69.560  1.00  0.00     0.059 C 
ENDROOT
BRANCH   1   2
ATOM      2  C   UNL     1      12.164  13.984  70.838  1.00  0.00     0.042 C 
ATOM      3  O   UNL     1      12.593  15.015  71.418  1.00  0.00    -0.550 OA
ATOM      4  O   UNL     1      11.136  13.247  71.413  1.00  0.00    -0.550 OA
ENDBRANCH   1   2
BRANCH   1   5
ATOM      5  C   UNL     1      12.001  14.042  68.357  1.00  0.00     0.059 C 
BRANCH   5   6
ATOM      6  C   UNL     1      12.563  15.346  67.886  1.00  0.00     0.042 C 
ATOM      7  O   UNL     1      12.058  16.431  68.276  1.00  0.00    -0.550 OA
ATOM      8  O   UNL     1      13.613  15.364  66.977  1.00  0.00    -0.550 OA
ENDBRANCH   5   6
ENDBRANCH   1   5
TORSDOF 3
ENDMDL
MODEL 7
REMARK VINA RESULT:    -3.490      1.480      1.872
REMARK INTER + INTRA:          -4.192
REMARK INTER:                  -4.035
REMARK INTRA:                  -0.158
REMARK UNBOUND:                -0.090
REMARK SMILES O=C([O-])CCC(=O)[O-]
REMARK SMILES IDX 4 1 2 2 1 3 3 4 5 5 6 6 7 7 8 8
REMARK H PARENT
REMARK Flexibility Score: inf
ROOT
ATOM      1  C   UNL     1      11.530  13.484  69.789  1.00  0.00     0.059 C 
ENDROOT
BRANCH   1   2
ATOM      2  C   UNL     1      10.411  13.341  68.806  1.00  0.00     0.042 C 
ATOM      3  O   UNL     1      10.396  12.374  67.999  1.00  0.00    -0.550 OA
ATOM      4  O   UNL     1       9.410  14.302  68.747  1.00  0.00    -0.550 OA
ENDBRANCH   1   2
BRANCH   1   5
ATOM      5  C   UNL     1      12.864  13.650  69.059  1.00  0.00     0.059 C 
BRANCH   5   6
ATOM      6  C   UNL     1      13.011  15.049  68.549  1.00  0.00     0.042 C 
ATOM      7  O   UNL     1      12.717  16.026  69.287  1.00  0.00    -0.550 OA
ATOM      8  O   UNL     1      13.425  15.273  67.243  1.00  0.00    -0.550 OA
ENDBRANCH   5   6
ENDBRANCH   1   5
TORSDOF 3
ENDMDL
MODEL 8
REMARK VINA RESULT:    -3.480      1.941      2.944
REMARK INTER + INTRA:          -4.180
REMARK INTER:                  -3.997
REMARK INTRA:                  -0.183
REMARK UNBOUND:                -0.090
REMARK SMILES O=C([O-])CCC(=O)[O-]
REMARK SMILES IDX 4 1 2 2 1 3 3 4 5 5 6 6 7 7 8 8
REMARK H PARENT
REMARK Flexibility Score: inf
ROOT
ATOM      1  C   UNL     1      12.412  13.124  69.008  1.00  0.00     0.059 C 
ENDROOT
BRANCH   1   2
ATOM      2  C   UNL     1      11.228  13.618  68.237  1.00  0.00     0.042 C 
ATOM      3  O   UNL     1      10.225  12.875  68.074  1.00  0.00    -0.550 OA
ATOM      4  O   UNL     1      11.252  14.880  67.658  1.00  0.00    -0.550 OA
ENDBRANCH   1   2
BRANCH   1   5
ATOM      5  C   UNL     1      12.719  14.063  70.176  1.00  0.00     0.059 C 
BRANCH   5   6
ATOM      6  C   UNL     1      11.557  14.127  71.115  1.00  0.00     0.042 C 
ATOM      7  O   UNL     1      11.157  13.086  71.700  1.00  0.00    -0.550 OA
ATOM      8  O   UNL     1      10.884  15.327  71.309  1.00  0.00    -0.550 OA
ENDBRANCH   5   6
ENDBRANCH   1   5
TORSDOF 3
ENDMDL
MODEL 9
REMARK VINA RESULT:    -3.476      1.946      2.911
REMARK INTER + INTRA:          -4.175
REMARK INTER:                  -3.990
REMARK INTRA:                  -0.185
REMARK UNBOUND:                -0.090
REMARK SMILES O=C([O-])CCC(=O)[O-]
REMARK SMILES IDX 4 1 2 2 1 3 3 4 5 5 6 6 7 7 8 8
REMARK H PARENT
REMARK Flexibility Score: inf
ROOT
ATOM      1  C   UNL     1      12.730  14.111  70.208  1.00  0.00     0.059 C 
ENDROOT
BRANCH   1   2
ATOM      2  C   UNL     1      11.575  14.153  71.159  1.00  0.00     0.042 C 
ATOM      3  O   UNL     1      11.209  13.106  71.756  1.00  0.00    -0.550 OA
ATOM      4  O   UNL     1      10.873  15.336  71.350  1.00  0.00    -0.550 OA
ENDBRANCH   1   2
BRANCH   1   5
ATOM      5  C   UNL     1      12.459  13.112  69.082  1.00  0.00     0.059 C 
BRANCH   5   6
ATOM      6  C   UNL     1      11.280  13.546  68.269  1.00  0.00     0.042 C 
ATOM      7  O   UNL     1      11.291  14.659  67.681  1.00  0.00    -0.550 OA
ATOM      8  O   UNL     1      10.148  12.743  68.201  1.00  0.00    -0.550 OA
ENDBRANCH   5   6
ENDBRANCH   1   5
TORSDOF 3
ENDMDL
