MODEL 1
REMARK VINA RESULT:    -4.007      0.000      0.000
REMARK INTER + INTRA:          -8.762
REMARK INTER:                  -6.818
REMARK INTRA:                  -1.944
REMARK UNBOUND:                -1.944
REMARK SMILES CCCCCCCCCCCCCC(=O)[O-]
REMARK SMILES IDX 8 1 9 2 10 3 11 4 12 5 13 6 14 7 15 8 16 9 7 10 6 11 5 12
REMARK SMILES IDX 4 13 3 14 2 15 1 16
REMARK H PARENT
REMARK Flexibility Score: inf
ROOT
ATOM      1  C   UNL     1     -34.447  20.156 -30.254  1.00  0.00     0.000 C 
ENDROOT
BRANCH   1   2
ATOM      2  C   UNL     1     -35.801  20.666 -30.770  1.00  0.00     0.000 C 
BRANCH   2   3
ATOM      3  C   UNL     1     -35.901  22.199 -30.748  1.00  0.00     0.000 C 
BRANCH   3   4
ATOM      4  C   UNL     1     -36.480  22.735 -29.427  1.00  0.00     0.000 C 
BRANCH   4   5
ATOM      5  C   UNL     1     -37.624  21.860 -28.882  1.00  0.00     0.006 C 
BRANCH   5   6
ATOM      6  C   UNL     1     -38.995  22.556 -28.862  1.00  0.00     0.053 C 
BRANCH   6   7
ATOM      7  C   UNL     1     -39.860  22.125 -30.007  1.00  0.00     0.041 C 
ATOM      8  O   UNL     1     -39.377  21.430 -30.940  1.00  0.00    -0.550 OA
ATOM      9  O   UNL     1     -41.208  22.461 -30.025  1.00  0.00    -0.550 OA
ENDBRANCH   6   7
ENDBRANCH   5   6
ENDBRANCH   4   5
ENDBRANCH   3   4
ENDBRANCH   2   3
ENDBRANCH   1   2
BRANCH   1  10
ATOM     10  C   UNL     1     -34.638  19.019 -29.243  1.00  0.00     0.000 C 
BRANCH  10  11
ATOM     11  C   UNL     1     -34.922  19.575 -27.839  1.00  0.00    -0.000 C 
BRANCH  11  12
ATOM     12  C   UNL     1     -36.060  18.828 -27.122  1.00  0.00    -0.000 C 
BRANCH  12  13
ATOM     13  C   UNL     1     -37.008  18.045 -28.050  1.00  0.00    -0.000 C 
BRANCH  13  14
ATOM     14  C   UNL     1     -38.465  18.554 -28.024  1.00  0.00    -0.000 C 
BRANCH  14  15
ATOM     15  C   UNL     1     -39.112  18.540 -29.417  1.00  0.00    -0.003 C 
ATOM     16  C   UNL     1     -38.127  18.062 -30.479  1.00  0.00     0.004 C 
ENDBRANCH  14  15
ENDBRANCH  13  14
ENDBRANCH  12  13
ENDBRANCH  11  12
ENDBRANCH  10  11
ENDBRANCH   1  10
TORSDOF 12
ENDMDL
MODEL 2
REMARK VINA RESULT:    -3.991     15.019     17.555
REMARK INTER + INTRA:          -8.735
REMARK INTER:                  -7.181
REMARK INTRA:                  -1.554
REMARK UNBOUND:                -1.944
REMARK SMILES CCCCCCCCCCCCCC(=O)[O-]
REMARK SMILES IDX 8 1 9 2 10 3 11 4 12 5 13 6 14 7 15 8 16 9 7 10 6 11 5 12
REMARK SMILES IDX 4 13 3 14 2 15 1 16
REMARK H PARENT
REMARK Flexibility Score: inf
ROOT
ATOM      1  C   UNL     1     -52.228  10.547 -30.368  1.00  0.00     0.000 C 
ENDROOT
BRANCH   1   2
ATOM      2  C   UNL     1     -51.241  11.696 -30.627  1.00  0.00     0.000 C 
BRANCH   2   3
ATOM      3  C   UNL     1     -50.423  12.063 -29.379  1.00  0.00     0.000 C 
BRANCH   3   4
ATOM      4  C   UNL     1     -48.909  11.883 -29.591  1.00  0.00     0.000 C 
BRANCH   4   5
ATOM      5  C   UNL     1     -48.359  10.620 -28.904  1.00  0.00     0.006 C 
BRANCH   5   6
ATOM      6  C   UNL     1     -48.464   9.343 -29.755  1.00  0.00     0.053 C 
BRANCH   6   7
ATOM      7  C   UNL     1     -47.122   8.860 -30.210  1.00  0.00     0.041 C 
ATOM      8  O   UNL     1     -46.270   8.468 -29.369  1.00  0.00    -0.550 OA
ATOM      9  O   UNL     1     -46.824   8.808 -31.566  1.00  0.00    -0.550 OA
ENDBRANCH   6   7
ENDBRANCH   5   6
ENDBRANCH   4   5
ENDBRANCH   3   4
ENDBRANCH   2   3
ENDBRANCH   1   2
BRANCH   1  10
ATOM     10  C   UNL     1     -52.002   9.397 -31.356  1.00  0.00     0.000 C 
BRANCH  10  11
ATOM     11  C   UNL     1     -51.228   9.880 -32.592  1.00  0.00    -0.000 C 
BRANCH  11  12
ATOM     12  C   UNL     1     -50.014   8.994 -32.918  1.00  0.00    -0.000 C 
BRANCH  12  13
ATOM     13  C   UNL     1     -50.198   7.498 -32.597  1.00  0.00    -0.000 C 
BRANCH  13  14
ATOM     14  C   UNL     1     -50.822   6.686 -33.751  1.00  0.00    -0.000 C 
BRANCH  14  15
ATOM     15  C   UNL     1     -52.302   6.358 -33.501  1.00  0.00    -0.003 C 
ATOM     16  C   UNL     1     -53.201   7.057 -34.515  1.00  0.00     0.004 C 
ENDBRANCH  14  15
ENDBRANCH  13  14
ENDBRANCH  12  13
ENDBRANCH  11  12
ENDBRANCH  10  11
ENDBRANCH   1  10
TORSDOF 12
ENDMDL
MODEL 3
REMARK VINA RESULT:    -3.955      2.755      4.131
REMARK INTER + INTRA:          -8.673
REMARK INTER:                  -6.709
REMARK INTRA:                  -1.964
REMARK UNBOUND:                -1.944
REMARK SMILES CCCCCCCCCCCCCC(=O)[O-]
REMARK SMILES IDX 8 1 9 2 10 3 11 4 12 5 13 6 14 7 15 8 16 9 7 10 6 11 5 12
REMARK SMILES IDX 4 13 3 14 2 15 1 16
REMARK H PARENT
REMARK Flexibility Score: inf
ROOT
ATOM      1  C   UNL     1     -38.783  21.290 -29.655  1.00  0.00     0.000 C 
ENDROOT
BRANCH   1   2
ATOM      2  C   UNL     1     -38.553  20.765 -31.081  1.00  0.00     0.000 C 
BRANCH   2   3
ATOM      3  C   UNL     1     -37.094  20.922 -31.538  1.00  0.00     0.000 C 
BRANCH   3   4
ATOM      4  C   UNL     1     -36.339  22.004 -30.746  1.00  0.00     0.000 C 
BRANCH   4   5
ATOM      5  C   UNL     1     -35.121  21.446 -29.989  1.00  0.00     0.006 C 
BRANCH   5   6
ATOM      6  C   UNL     1     -35.201  21.603 -28.462  1.00  0.00     0.053 C 
BRANCH   6   7
ATOM      7  C   UNL     1     -34.505  22.842 -27.988  1.00  0.00     0.041 C 
ATOM      8  O   UNL     1     -34.030  23.660 -28.819  1.00  0.00    -0.550 OA
ATOM      9  O   UNL     1     -34.413  23.111 -26.628  1.00  0.00    -0.550 OA
ENDBRANCH   6   7
ENDBRANCH   5   6
ENDBRANCH   4   5
ENDBRANCH   3   4
ENDBRANCH   2   3
ENDBRANCH   1   2
BRANCH   1  10
ATOM     10  C   UNL     1     -39.764  20.392 -28.892  1.00  0.00     0.000 C 
BRANCH  10  11
ATOM     11  C   UNL     1     -39.225  18.957 -28.786  1.00  0.00    -0.000 C 
BRANCH  11  12
ATOM     12  C   UNL     1     -37.966  18.857 -27.908  1.00  0.00    -0.000 C 
BRANCH  12  13
ATOM     13  C   UNL     1     -36.737  18.243 -28.605  1.00  0.00    -0.000 C 
BRANCH  13  14
ATOM     14  C   UNL     1     -37.082  17.414 -29.860  1.00  0.00    -0.000 C 
BRANCH  14  15
ATOM     15  C   UNL     1     -35.828  16.934 -30.605  1.00  0.00    -0.003 C 
ATOM     16  C   UNL     1     -34.642  17.858 -30.343  1.00  0.00     0.004 C 
ENDBRANCH  14  15
ENDBRANCH  13  14
ENDBRANCH  12  13
ENDBRANCH  11  12
ENDBRANCH  10  11
ENDBRANCH   1  10
TORSDOF 12
ENDMDL
MODEL 4
REMARK VINA RESULT:    -3.948      1.659      4.012
REMARK INTER + INTRA:          -8.661
REMARK INTER:                  -6.954
REMARK INTRA:                  -1.708
REMARK UNBOUND:                -1.944
REMARK SMILES CCCCCCCCCCCCCC(=O)[O-]
REMARK SMILES IDX 8 1 9 2 10 3 11 4 12 5 13 6 14 7 15 8 16 9 7 10 6 11 5 12
REMARK SMILES IDX 4 13 3 14 2 15 1 16
REMARK H PARENT
REMARK Flexibility Score: inf
ROOT
ATOM      1  C   UNL     1     -39.867  20.078 -28.477  1.00  0.00     0.000 C 
ENDROOT
BRANCH   1   2
ATOM      2  C   UNL     1     -39.487  21.225 -29.425  1.00  0.00     0.000 C 
BRANCH   2   3
ATOM      3  C   UNL     1     -39.013  22.479 -28.673  1.00  0.00     0.000 C 
BRANCH   3   4
ATOM      4  C   UNL     1     -37.550  22.837 -28.984  1.00  0.00     0.000 C 
BRANCH   4   5
ATOM      5  C   UNL     1     -36.752  21.645 -29.543  1.00  0.00     0.006 C 
BRANCH   5   6
ATOM      6  C   UNL     1     -35.676  22.032 -30.571  1.00  0.00     0.053 C 
BRANCH   6   7
ATOM      7  C   UNL     1     -36.161  21.873 -31.979  1.00  0.00     0.041 C 
ATOM      8  O   UNL     1     -37.242  21.271 -32.213  1.00  0.00    -0.550 OA
ATOM      9  O   UNL     1     -35.437  22.422 -33.030  1.00  0.00    -0.550 OA
ENDBRANCH   6   7
ENDBRANCH   5   6
ENDBRANCH   4   5
ENDBRANCH   3   4
ENDBRANCH   2   3
ENDBRANCH   1   2
BRANCH   1  10
ATOM     10  C   UNL     1     -39.081  18.805 -28.814  1.00  0.00     0.000 C 
BRANCH  10  11
ATOM     11  C   UNL     1     -38.714  18.765 -30.305  1.00  0.00    -0.000 C 
BRANCH  11  12
ATOM     12  C   UNL     1     -37.754  17.615 -30.652  1.00  0.00    -0.000 C 
BRANCH  12  13
ATOM     13  C   UNL     1     -36.590  17.422 -29.662  1.00  0.00    -0.000 C 
BRANCH  13  14
ATOM     14  C   UNL     1     -35.277  18.102 -30.103  1.00  0.00    -0.000 C 
BRANCH  14  15
ATOM     15  C   UNL     1     -34.556  18.793 -28.936  1.00  0.00    -0.003 C 
ATOM     16  C   UNL     1     -35.461  18.896 -27.712  1.00  0.00     0.004 C 
ENDBRANCH  14  15
ENDBRANCH  13  14
ENDBRANCH  12  13
ENDBRANCH  11  12
ENDBRANCH  10  11
ENDBRANCH   1  10
TORSDOF 12
ENDMDL
MODEL 5
REMARK VINA RESULT:    -3.909      2.868      5.385
REMARK INTER + INTRA:          -8.594
REMARK INTER:                  -6.712
REMARK INTRA:                  -1.883
REMARK UNBOUND:                -1.944
REMARK SMILES CCCCCCCCCCCCCC(=O)[O-]
REMARK SMILES IDX 8 1 9 2 10 3 11 4 12 5 13 6 14 7 15 8 16 9 7 10 6 11 5 12
REMARK SMILES IDX 4 13 3 14 2 15 1 16
REMARK H PARENT
REMARK Flexibility Score: inf
ROOT
ATOM      1  C   UNL     1     -39.015  21.563 -30.226  1.00  0.00     0.000 C 
ENDROOT
BRANCH   1   2
ATOM      2  C   UNL     1     -38.822  20.933 -28.838  1.00  0.00     0.000 C 
BRANCH   2   3
ATOM      3  C   UNL     1     -39.309  19.477 -28.779  1.00  0.00     0.000 C 
BRANCH   3   4
ATOM      4  C   UNL     1     -38.348  18.564 -27.997  1.00  0.00     0.000 C 
BRANCH   4   5
ATOM      5  C   UNL     1     -36.985  18.400 -28.695  1.00  0.00     0.006 C 
BRANCH   5   6
ATOM      6  C   UNL     1     -37.024  17.521 -29.955  1.00  0.00     0.053 C 
BRANCH   6   7
ATOM      7  C   UNL     1     -35.661  17.037 -30.344  1.00  0.00     0.041 C 
ATOM      8  O   UNL     1     -35.515  15.894 -30.853  1.00  0.00    -0.550 OA
ATOM      9  O   UNL     1     -34.555  17.862 -30.177  1.00  0.00    -0.550 OA
ENDBRANCH   6   7
ENDBRANCH   5   6
ENDBRANCH   4   5
ENDBRANCH   3   4
ENDBRANCH   2   3
ENDBRANCH   1   2
BRANCH   1  10
ATOM     10  C   UNL     1     -38.448  20.656 -31.324  1.00  0.00     0.000 C 
BRANCH  10  11
ATOM     11  C   UNL     1     -37.185  21.272 -31.946  1.00  0.00    -0.000 C 
BRANCH  11  12
ATOM     12  C   UNL     1     -35.902  20.896 -31.186  1.00  0.00    -0.000 C 
BRANCH  12  13
ATOM     13  C   UNL     1     -35.421  21.947 -30.168  1.00  0.00    -0.000 C 
BRANCH  13  14
ATOM     14  C   UNL     1     -34.831  21.339 -28.877  1.00  0.00    -0.000 C 
BRANCH  14  15
ATOM     15  C   UNL     1     -34.979  22.277 -27.670  1.00  0.00    -0.003 C 
ATOM     16  C   UNL     1     -35.956  23.410 -27.967  1.00  0.00     0.004 C 
ENDBRANCH  14  15
ENDBRANCH  13  14
ENDBRANCH  12  13
ENDBRANCH  11  12
ENDBRANCH  10  11
ENDBRANCH   1  10
TORSDOF 12
ENDMDL
MODEL 6
REMARK VINA RESULT:    -3.900      1.956      4.432
REMARK INTER + INTRA:          -8.580
REMARK INTER:                  -7.115
REMARK INTRA:                  -1.465
REMARK UNBOUND:                -1.944
REMARK SMILES CCCCCCCCCCCCCC(=O)[O-]
REMARK SMILES IDX 8 1 9 2 10 3 11 4 12 5 13 6 14 7 15 8 16 9 7 10 6 11 5 12
REMARK SMILES IDX 4 13 3 14 2 15 1 16
REMARK H PARENT
REMARK Flexibility Score: inf
ROOT
ATOM      1  C   UNL     1     -35.323  21.037 -29.769  1.00  0.00     0.000 C 
ENDROOT
BRANCH   1   2
ATOM      2  C   UNL     1     -34.472  19.759 -29.716  1.00  0.00     0.000 C 
BRANCH   2   3
ATOM      3  C   UNL     1     -34.589  19.028 -28.369  1.00  0.00     0.000 C 
BRANCH   3   4
ATOM      4  C   UNL     1     -35.920  19.319 -27.653  1.00  0.00     0.000 C 
BRANCH   4   5
ATOM      5  C   UNL     1     -36.902  18.136 -27.721  1.00  0.00     0.006 C 
BRANCH   5   6
ATOM      6  C   UNL     1     -38.090  18.357 -28.672  1.00  0.00     0.053 C 
BRANCH   6   7
ATOM      7  C   UNL     1     -37.825  17.807 -30.040  1.00  0.00     0.041 C 
ATOM      8  O   UNL     1     -36.823  17.071 -30.244  1.00  0.00    -0.550 OA
ATOM      9  O   UNL     1     -38.703  18.078 -31.081  1.00  0.00    -0.550 OA
ENDBRANCH   6   7
ENDBRANCH   5   6
ENDBRANCH   4   5
ENDBRANCH   3   4
ENDBRANCH   2   3
ENDBRANCH   1   2
BRANCH   1  10
ATOM     10  C   UNL     1     -36.001  21.188 -31.136  1.00  0.00     0.000 C 
BRANCH  10  11
ATOM     11  C   UNL     1     -37.523  21.328 -30.981  1.00  0.00    -0.000 C 
BRANCH  11  12
ATOM     12  C   UNL     1     -37.940  21.760 -29.565  1.00  0.00    -0.000 C 
BRANCH  12  13
ATOM     13  C   UNL     1     -39.435  21.576 -29.245  1.00  0.00    -0.000 C 
BRANCH  13  14
ATOM     14  C   UNL     1     -40.268  22.867 -29.395  1.00  0.00    -0.000 C 
BRANCH  14  15
ATOM     15  C   UNL     1     -41.465  22.683 -30.339  1.00  0.00    -0.003 C 
ATOM     16  C   UNL     1     -42.559  23.706 -30.050  1.00  0.00     0.004 C 
ENDBRANCH  14  15
ENDBRANCH  13  14
ENDBRANCH  12  13
ENDBRANCH  11  12
ENDBRANCH  10  11
ENDBRANCH   1  10
TORSDOF 12
ENDMDL
MODEL 7
REMARK VINA RESULT:    -3.870      1.494      3.608
REMARK INTER + INTRA:          -8.529
REMARK INTER:                  -6.993
REMARK INTRA:                  -1.536
REMARK UNBOUND:                -1.944
REMARK SMILES CCCCCCCCCCCCCC(=O)[O-]
REMARK SMILES IDX 8 1 9 2 10 3 11 4 12 5 13 6 14 7 15 8 16 9 7 10 6 11 5 12
REMARK SMILES IDX 4 13 3 14 2 15 1 16
REMARK H PARENT
REMARK Flexibility Score: inf
ROOT
ATOM      1  C   UNL     1     -38.075  17.580 -30.887  1.00  0.00     0.000 C 
ENDROOT
BRANCH   1   2
ATOM      2  C   UNL     1     -38.749  18.899 -30.480  1.00  0.00     0.000 C 
BRANCH   2   3
ATOM      3  C   UNL     1     -39.112  18.940 -28.987  1.00  0.00     0.000 C 
BRANCH   3   4
ATOM      4  C   UNL     1     -39.640  20.316 -28.545  1.00  0.00     0.000 C 
BRANCH   4   5
ATOM      5  C   UNL     1     -39.699  21.330 -29.702  1.00  0.00     0.006 C 
BRANCH   5   6
ATOM      6  C   UNL     1     -40.248  22.709 -29.304  1.00  0.00     0.053 C 
BRANCH   6   7
ATOM      7  C   UNL     1     -41.475  23.071 -30.084  1.00  0.00     0.041 C 
ATOM      8  O   UNL     1     -41.669  22.578 -31.227  1.00  0.00    -0.550 OA
ATOM      9  O   UNL     1     -42.422  23.926 -29.534  1.00  0.00    -0.550 OA
ENDBRANCH   6   7
ENDBRANCH   5   6
ENDBRANCH   4   5
ENDBRANCH   3   4
ENDBRANCH   2   3
ENDBRANCH   1   2
BRANCH   1  10
ATOM     10  C   UNL     1     -36.970  17.198 -29.895  1.00  0.00     0.000 C 
BRANCH  10  11
ATOM     11  C   UNL     1     -35.606  17.726 -30.363  1.00  0.00    -0.000 C 
BRANCH  11  12
ATOM     12  C   UNL     1     -35.051  18.835 -29.453  1.00  0.00    -0.000 C 
BRANCH  12  13
ATOM     13  C   UNL     1     -35.532  20.257 -29.796  1.00  0.00    -0.000 C 
BRANCH  13  14
ATOM     14  C   UNL     1     -35.990  21.074 -28.569  1.00  0.00    -0.000 C 
BRANCH  14  15
ATOM     15  C   UNL     1     -36.333  22.526 -28.930  1.00  0.00    -0.003 C 
ATOM     16  C   UNL     1     -35.748  23.501 -27.912  1.00  0.00     0.004 C 
ENDBRANCH  14  15
ENDBRANCH  13  14
ENDBRANCH  12  13
ENDBRANCH  11  12
ENDBRANCH  10  11
ENDBRANCH   1  10
TORSDOF 12
ENDMDL
MODEL 8
REMARK VINA RESULT:    -3.796     14.402     15.784
REMARK INTER + INTRA:          -8.403
REMARK INTER:                  -6.876
REMARK INTRA:                  -1.527
REMARK UNBOUND:                -1.944
REMARK SMILES CCCCCCCCCCCCCC(=O)[O-]
REMARK SMILES IDX 8 1 9 2 10 3 11 4 12 5 13 6 14 7 15 8 16 9 7 10 6 11 5 12
REMARK SMILES IDX 4 13 3 14 2 15 1 16
REMARK H PARENT
REMARK Flexibility Score: inf
ROOT
ATOM      1  C   UNL     1     -46.865   9.277 -30.022  1.00  0.00     0.000 C 
ENDROOT
BRANCH   1   2
ATOM      2  C   UNL     1     -48.267   9.770 -29.636  1.00  0.00     0.000 C 
BRANCH   2   3
ATOM      3  C   UNL     1     -48.237  11.125 -28.912  1.00  0.00     0.000 C 
BRANCH   3   4
ATOM      4  C   UNL     1     -49.477  11.985 -29.215  1.00  0.00     0.000 C 
BRANCH   4   5
ATOM      5  C   UNL     1     -49.714  12.173 -30.725  1.00  0.00     0.006 C 
BRANCH   5   6
ATOM      6  C   UNL     1     -51.025  12.898 -31.072  1.00  0.00     0.053 C 
BRANCH   6   7
ATOM      7  C   UNL     1     -50.968  14.355 -30.730  1.00  0.00     0.041 C 
ATOM      8  O   UNL     1     -50.269  15.142 -31.422  1.00  0.00    -0.550 OA
ATOM      9  O   UNL     1     -51.715  14.851 -29.669  1.00  0.00    -0.550 OA
ENDBRANCH   6   7
ENDBRANCH   5   6
ENDBRANCH   4   5
ENDBRANCH   3   4
ENDBRANCH   2   3
ENDBRANCH   1   2
BRANCH   1  10
ATOM     10  C   UNL     1     -46.690   7.793 -29.676  1.00  0.00     0.000 C 
BRANCH  10  11
ATOM     11  C   UNL     1     -47.584   6.914 -30.564  1.00  0.00    -0.000 C 
BRANCH  11  12
ATOM     12  C   UNL     1     -47.328   7.131 -32.065  1.00  0.00    -0.000 C 
BRANCH  12  13
ATOM     13  C   UNL     1     -48.595   7.345 -32.915  1.00  0.00    -0.000 C 
BRANCH  13  14
ATOM     14  C   UNL     1     -48.926   8.829 -33.177  1.00  0.00    -0.000 C 
BRANCH  14  15
ATOM     15  C   UNL     1     -50.348   9.198 -32.729  1.00  0.00    -0.003 C 
ATOM     16  C   UNL     1     -50.909   8.161 -31.760  1.00  0.00     0.004 C 
ENDBRANCH  14  15
ENDBRANCH  13  14
ENDBRANCH  12  13
ENDBRANCH  11  12
ENDBRANCH  10  11
ENDBRANCH   1  10
TORSDOF 12
ENDMDL
MODEL 9
REMARK VINA RESULT:    -3.753     14.684     16.395
REMARK INTER + INTRA:          -8.330
REMARK INTER:                  -6.574
REMARK INTRA:                  -1.756
REMARK UNBOUND:                -1.944
REMARK SMILES CCCCCCCCCCCCCC(=O)[O-]
REMARK SMILES IDX 8 1 9 2 10 3 11 4 12 5 13 6 14 7 15 8 16 9 7 10 6 11 5 12
REMARK SMILES IDX 4 13 3 14 2 15 1 16
REMARK H PARENT
REMARK Flexibility Score: inf
ROOT
ATOM      1  C   UNL     1     -47.097   9.890 -29.626  1.00  0.00     0.000 C 
ENDROOT
BRANCH   1   2
ATOM      2  C   UNL     1     -48.562  10.267 -29.362  1.00  0.00     0.000 C 
BRANCH   2   3
ATOM      3  C   UNL     1     -48.714  11.691 -28.804  1.00  0.00     0.000 C 
BRANCH   3   4
ATOM      4  C   UNL     1     -49.185  12.696 -29.870  1.00  0.00     0.000 C 
BRANCH   4   5
ATOM      5  C   UNL     1     -50.228  12.098 -30.831  1.00  0.00     0.006 C 
BRANCH   5   6
ATOM      6  C   UNL     1     -51.660  12.608 -30.604  1.00  0.00     0.053 C 
BRANCH   6   7
ATOM      7  C   UNL     1     -52.482  11.640 -29.810  1.00  0.00     0.041 C 
ATOM      8  O   UNL     1     -53.382  10.962 -30.372  1.00  0.00    -0.550 OA
ATOM      9  O   UNL     1     -52.230  11.462 -28.455  1.00  0.00    -0.550 OA
ENDBRANCH   6   7
ENDBRANCH   5   6
ENDBRANCH   4   5
ENDBRANCH   3   4
ENDBRANCH   2   3
ENDBRANCH   1   2
BRANCH   1  10
ATOM     10  C   UNL     1     -46.985   8.453 -30.148  1.00  0.00     0.000 C 
BRANCH  10  11
ATOM     11  C   UNL     1     -47.021   8.423 -31.684  1.00  0.00    -0.000 C 
BRANCH  11  12
ATOM     12  C   UNL     1     -47.705   7.162 -32.239  1.00  0.00    -0.000 C 
BRANCH  12  13
ATOM     13  C   UNL     1     -49.006   7.422 -33.022  1.00  0.00    -0.000 C 
BRANCH  13  14
ATOM     14  C   UNL     1     -49.558   8.854 -32.855  1.00  0.00    -0.000 C 
BRANCH  14  15
ATOM     15  C   UNL     1     -51.020   8.865 -32.384  1.00  0.00    -0.003 C 
ATOM     16  C   UNL     1     -51.154   8.273 -30.985  1.00  0.00     0.004 C 
ENDBRANCH  14  15
ENDBRANCH  13  14
ENDBRANCH  12  13
ENDBRANCH  11  12
ENDBRANCH  10  11
ENDBRANCH   1  10
TORSDOF 12
ENDMDL
