MODEL 1
REMARK VINA RESULT:    -5.349      0.000      0.000
REMARK INTER + INTRA:          -5.662
REMARK INTER:                  -5.662
REMARK INTRA:                   0.000
REMARK UNBOUND:                 0.000
REMARK SMILES O=c1ccc2cc(O)c(O)cc2o1
REMARK SMILES IDX 4 1 3 2 2 3 1 4 13 5 12 6 11 7 9 8 7 9 6 10 5 11 8 12 10 14
REMARK H PARENT 8 13 10 15
REMARK Flexibility Score: inf
ROOT
ATOM      1  C   UNL     1      19.618  25.574  39.727  1.00  0.00     0.019 A 
ATOM      2  C   UNL     1      19.003  26.490  38.874  1.00  0.00     0.094 A 
ATOM      3  C   UNL     1      18.634  26.077  37.589  1.00  0.00     0.336 A 
ATOM      4  O   UNL     1      18.078  26.889  36.804  1.00  0.00    -0.246 OA
ATOM      5  O   UNL     1      18.868  24.830  37.189  1.00  0.00    -0.423 OA
ATOM      6  C   UNL     1      19.452  23.926  37.970  1.00  0.00     0.142 A 
ATOM      7  C   UNL     1      19.672  22.628  37.496  1.00  0.00     0.098 A 
ATOM      8  C   UNL     1      20.288  21.670  38.315  1.00  0.00     0.161 A 
ATOM      9  C   UNL     1      20.685  22.014  39.620  1.00  0.00     0.158 A 
ATOM     10  C   UNL     1      20.466  23.312  40.098  1.00  0.00     0.062 A 
ATOM     11  C   UNL     1      19.851  24.269  39.280  1.00  0.00     0.022 A 
ENDROOT
BRANCH   9  12
ATOM     12  O   UNL     1      21.298  21.081  40.456  1.00  0.00    -0.504 OA
ATOM     13  H   UNL     1      21.354  21.212  41.459  1.00  0.00     0.293 HD
ENDBRANCH   9  12
BRANCH   8  14
ATOM     14  O   UNL     1      20.505  20.379  37.837  1.00  0.00    -0.504 OA
ATOM     15  H   UNL     1      19.808  19.892  37.286  1.00  0.00     0.293 HD
ENDBRANCH   8  14
TORSDOF 2
ENDMDL
MODEL 2
REMARK VINA RESULT:    -5.318      1.529      2.442
REMARK INTER + INTRA:          -5.629
REMARK INTER:                  -5.629
REMARK INTRA:                   0.000
REMARK UNBOUND:                 0.000
REMARK SMILES O=c1ccc2cc(O)c(O)cc2o1
REMARK SMILES IDX 4 1 3 2 2 3 1 4 13 5 12 6 11 7 9 8 7 9 6 10 5 11 8 12 10 14
REMARK H PARENT 8 13 10 15
REMARK Flexibility Score: inf
ROOT
ATOM      1  C   UNL     1      19.040  25.177  37.824  1.00  0.00     0.019 A 
ATOM      2  C   UNL     1      18.902  26.373  38.527  1.00  0.00     0.094 A 
ATOM      3  C   UNL     1      19.331  26.431  39.857  1.00  0.00     0.336 A 
ATOM      4  O   UNL     1      19.215  27.502  40.509  1.00  0.00    -0.246 OA
ATOM      5  O   UNL     1      19.864  25.361  40.441  1.00  0.00    -0.423 OA
ATOM      6  C   UNL     1      20.013  24.201  39.806  1.00  0.00     0.142 A 
ATOM      7  C   UNL     1      20.580  23.108  40.471  1.00  0.00     0.098 A 
ATOM      8  C   UNL     1      20.740  21.882  39.807  1.00  0.00     0.161 A 
ATOM      9  C   UNL     1      20.331  21.751  38.468  1.00  0.00     0.158 A 
ATOM     10  C   UNL     1      19.763  22.843  37.800  1.00  0.00     0.062 A 
ATOM     11  C   UNL     1      19.603  24.067  38.462  1.00  0.00     0.022 A 
ENDROOT
BRANCH   9  12
ATOM     12  O   UNL     1      20.480  20.544  37.784  1.00  0.00    -0.504 OA
ATOM     13  H   UNL     1      21.291  20.348  37.210  1.00  0.00     0.293 HD
ENDBRANCH   9  12
BRANCH   8  14
ATOM     14  O   UNL     1      21.306  20.796  40.474  1.00  0.00    -0.504 OA
ATOM     15  H   UNL     1      21.518  20.832  41.464  1.00  0.00     0.293 HD
ENDBRANCH   8  14
TORSDOF 2
ENDMDL
MODEL 3
REMARK VINA RESULT:    -5.307      6.305      7.887
REMARK INTER + INTRA:          -5.617
REMARK INTER:                  -5.617
REMARK INTRA:                   0.000
REMARK UNBOUND:                 0.000
REMARK SMILES O=c1ccc2cc(O)c(O)cc2o1
REMARK SMILES IDX 4 1 3 2 2 3 1 4 13 5 12 6 11 7 9 8 7 9 6 10 5 11 8 12 10 14
REMARK H PARENT 8 13 10 15
REMARK Flexibility Score: inf
ROOT
ATOM      1  C   UNL     1      16.004  25.373  44.960  1.00  0.00     0.019 A 
ATOM      2  C   UNL     1      16.008  24.220  44.176  1.00  0.00     0.094 A 
ATOM      3  C   UNL     1      17.108  23.966  43.351  1.00  0.00     0.336 A 
ATOM      4  O   UNL     1      17.131  22.930  42.636  1.00  0.00    -0.246 OA
ATOM      5  O   UNL     1      18.134  24.812  43.316  1.00  0.00    -0.423 OA
ATOM      6  C   UNL     1      18.170  25.923  44.047  1.00  0.00     0.142 A 
ATOM      7  C   UNL     1      19.276  26.776  43.969  1.00  0.00     0.098 A 
ATOM      8  C   UNL     1      19.320  27.949  44.738  1.00  0.00     0.161 A 
ATOM      9  C   UNL     1      18.248  28.269  45.591  1.00  0.00     0.158 A 
ATOM     10  C   UNL     1      17.140  27.417  45.671  1.00  0.00     0.062 A 
ATOM     11  C   UNL     1      17.096  26.245  44.904  1.00  0.00     0.022 A 
ENDROOT
BRANCH   9  12
ATOM     12  O   UNL     1      18.267  29.428  46.366  1.00  0.00    -0.504 OA
ATOM     13  H   UNL     1      17.447  30.013  46.480  1.00  0.00     0.293 HD
ENDBRANCH   9  12
BRANCH   8  14
ATOM     14  O   UNL     1      20.424  28.796  44.657  1.00  0.00    -0.504 OA
ATOM     15  H   UNL     1      20.333  29.764  44.373  1.00  0.00     0.293 HD
ENDBRANCH   8  14
TORSDOF 2
ENDMDL
MODEL 4
REMARK VINA RESULT:    -5.128      5.785      7.325
REMARK INTER + INTRA:          -5.428
REMARK INTER:                  -5.428
REMARK INTRA:                   0.000
REMARK UNBOUND:                 0.000
REMARK SMILES O=c1ccc2cc(O)c(O)cc2o1
REMARK SMILES IDX 4 1 3 2 2 3 1 4 13 5 12 6 11 7 9 8 7 9 6 10 5 11 8 12 10 14
REMARK H PARENT 8 13 10 15
REMARK Flexibility Score: inf
ROOT
ATOM      1  C   UNL     1      16.447  25.567  43.375  1.00  0.00     0.019 A 
ATOM      2  C   UNL     1      16.770  24.714  42.321  1.00  0.00     0.094 A 
ATOM      3  C   UNL     1      18.067  24.744  41.797  1.00  0.00     0.336 A 
ATOM      4  O   UNL     1      18.378  23.981  40.846  1.00  0.00    -0.246 OA
ATOM      5  O   UNL     1      18.977  25.574  42.299  1.00  0.00    -0.423 OA
ATOM      6  C   UNL     1      18.711  26.405  43.304  1.00  0.00     0.142 A 
ATOM      7  C   UNL     1      19.708  27.257  43.791  1.00  0.00     0.098 A 
ATOM      8  C   UNL     1      19.432  28.135  44.850  1.00  0.00     0.161 A 
ATOM      9  C   UNL     1      18.149  28.159  45.426  1.00  0.00     0.158 A 
ATOM     10  C   UNL     1      17.149  27.308  44.940  1.00  0.00     0.062 A 
ATOM     11  C   UNL     1      17.424  26.430  43.883  1.00  0.00     0.022 A 
ENDROOT
BRANCH   9  12
ATOM     12  O   UNL     1      17.850  29.021  46.480  1.00  0.00    -0.504 OA
ATOM     13  H   UNL     1      17.235  28.751  47.239  1.00  0.00     0.293 HD
ENDBRANCH   9  12
BRANCH   8  14
ATOM     14  O   UNL     1      20.430  28.982  45.331  1.00  0.00    -0.504 OA
ATOM     15  H   UNL     1      20.649  29.859  44.875  1.00  0.00     0.293 HD
ENDBRANCH   8  14
TORSDOF 2
ENDMDL
MODEL 5
REMARK VINA RESULT:    -5.118      6.655      8.177
REMARK INTER + INTRA:          -5.417
REMARK INTER:                  -5.417
REMARK INTRA:                   0.000
REMARK UNBOUND:                 0.000
REMARK SMILES O=c1ccc2cc(O)c(O)cc2o1
REMARK SMILES IDX 4 1 3 2 2 3 1 4 13 5 12 6 11 7 9 8 7 9 6 10 5 11 8 12 10 14
REMARK H PARENT 8 13 10 15
REMARK Flexibility Score: inf
ROOT
ATOM      1  C   UNL     1      18.092  24.751  43.362  1.00  0.00     0.019 A 
ATOM      2  C   UNL     1      16.950  23.956  43.443  1.00  0.00     0.094 A 
ATOM      3  C   UNL     1      15.901  24.359  44.276  1.00  0.00     0.336 A 
ATOM      4  O   UNL     1      14.861  23.655  44.363  1.00  0.00    -0.246 OA
ATOM      5  O   UNL     1      15.994  25.485  44.979  1.00  0.00    -0.423 OA
ATOM      6  C   UNL     1      17.065  26.272  44.932  1.00  0.00     0.142 A 
ATOM      7  C   UNL     1      17.107  27.444  45.693  1.00  0.00     0.098 A 
ATOM      8  C   UNL     1      18.235  28.278  45.647  1.00  0.00     0.161 A 
ATOM      9  C   UNL     1      19.328  27.935  44.831  1.00  0.00     0.158 A 
ATOM     10  C   UNL     1      19.289  26.762  44.067  1.00  0.00     0.062 A 
ATOM     11  C   UNL     1      18.163  25.929  44.113  1.00  0.00     0.022 A 
ENDROOT
BRANCH   9  12
ATOM     12  O   UNL     1      20.460  28.746  44.766  1.00  0.00    -0.504 OA
ATOM     13  H   UNL     1      21.005  28.842  43.917  1.00  0.00     0.293 HD
ENDBRANCH   9  12
BRANCH   8  14
ATOM     14  O   UNL     1      18.271  29.445  46.408  1.00  0.00    -0.504 OA
ATOM     15  H   UNL     1      17.423  29.898  46.729  1.00  0.00     0.293 HD
ENDBRANCH   8  14
TORSDOF 2
ENDMDL
MODEL 6
REMARK VINA RESULT:    -5.101      1.343      4.473
REMARK INTER + INTRA:          -5.399
REMARK INTER:                  -5.399
REMARK INTRA:                   0.000
REMARK UNBOUND:                 0.000
REMARK SMILES O=c1ccc2cc(O)c(O)cc2o1
REMARK SMILES IDX 4 1 3 2 2 3 1 4 13 5 12 6 11 7 9 8 7 9 6 10 5 11 8 12 10 14
REMARK H PARENT 8 13 10 15
REMARK Flexibility Score: inf
ROOT
ATOM      1  C   UNL     1      20.619  22.716  40.393  1.00  0.00     0.019 A 
ATOM      2  C   UNL     1      20.675  21.473  39.764  1.00  0.00     0.094 A 
ATOM      3  C   UNL     1      20.259  21.368  38.432  1.00  0.00     0.336 A 
ATOM      4  O   UNL     1      20.303  20.255  37.847  1.00  0.00    -0.246 OA
ATOM      5  O   UNL     1      19.818  22.439  37.778  1.00  0.00    -0.423 OA
ATOM      6  C   UNL     1      19.747  23.643  38.340  1.00  0.00     0.142 A 
ATOM      7  C   UNL     1      19.274  24.733  37.603  1.00  0.00     0.098 A 
ATOM      8  C   UNL     1      19.197  26.005  38.191  1.00  0.00     0.161 A 
ATOM      9  C   UNL     1      19.599  26.185  39.527  1.00  0.00     0.158 A 
ATOM     10  C   UNL     1      20.073  25.095  40.268  1.00  0.00     0.062 A 
ATOM     11  C   UNL     1      20.150  23.825  39.681  1.00  0.00     0.022 A 
ENDROOT
BRANCH   9  12
ATOM     12  O   UNL     1      19.534  27.438  40.135  1.00  0.00    -0.504 OA
ATOM     13  H   UNL     1      18.682  27.789  40.555  1.00  0.00     0.293 HD
ENDBRANCH   9  12
BRANCH   8  14
ATOM     14  O   UNL     1      18.725  27.088  37.452  1.00  0.00    -0.504 OA
ATOM     15  H   UNL     1      18.579  27.997  37.874  1.00  0.00     0.293 HD
ENDBRANCH   8  14
TORSDOF 2
ENDMDL
MODEL 7
REMARK VINA RESULT:    -4.899      3.592      4.985
REMARK INTER + INTRA:          -5.185
REMARK INTER:                  -5.185
REMARK INTRA:                   0.000
REMARK UNBOUND:                 0.000
REMARK SMILES O=c1ccc2cc(O)c(O)cc2o1
REMARK SMILES IDX 4 1 3 2 2 3 1 4 13 5 12 6 11 7 9 8 7 9 6 10 5 11 8 12 10 14
REMARK H PARENT 8 13 10 15
REMARK Flexibility Score: inf
ROOT
ATOM      1  C   UNL     1      17.451  24.982  41.455  1.00  0.00     0.019 A 
ATOM      2  C   UNL     1      17.251  24.196  40.321  1.00  0.00     0.094 A 
ATOM      3  C   UNL     1      18.258  24.136  39.352  1.00  0.00     0.336 A 
ATOM      4  O   UNL     1      18.096  23.433  38.321  1.00  0.00    -0.246 OA
ATOM      5  O   UNL     1      19.388  24.820  39.512  1.00  0.00    -0.423 OA
ATOM      6  C   UNL     1      19.619  25.582  40.578  1.00  0.00     0.142 A 
ATOM      7  C   UNL     1      20.826  26.278  40.693  1.00  0.00     0.098 A 
ATOM      8  C   UNL     1      21.075  27.083  41.815  1.00  0.00     0.161 A 
ATOM      9  C   UNL     1      20.107  27.190  42.830  1.00  0.00     0.158 A 
ATOM     10  C   UNL     1      18.897  26.493  42.718  1.00  0.00     0.062 A 
ATOM     11  C   UNL     1      18.648  25.690  41.597  1.00  0.00     0.022 A 
ENDROOT
BRANCH   9  12
ATOM     12  O   UNL     1      20.330  27.982  43.956  1.00  0.00    -0.504 OA
ATOM     13  H   UNL     1      21.065  28.678  43.987  1.00  0.00     0.293 HD
ENDBRANCH   9  12
BRANCH   8  14
ATOM     14  O   UNL     1      22.280  27.774  41.924  1.00  0.00    -0.504 OA
ATOM     15  H   UNL     1      22.761  28.137  41.109  1.00  0.00     0.293 HD
ENDBRANCH   8  14
TORSDOF 2
ENDMDL
MODEL 8
REMARK VINA RESULT:    -4.800      3.713      5.153
REMARK INTER + INTRA:          -5.080
REMARK INTER:                  -5.080
REMARK INTRA:                   0.000
REMARK UNBOUND:                 0.000
REMARK SMILES O=c1ccc2cc(O)c(O)cc2o1
REMARK SMILES IDX 4 1 3 2 2 3 1 4 13 5 12 6 11 7 9 8 7 9 6 10 5 11 8 12 10 14
REMARK H PARENT 8 13 10 15
REMARK Flexibility Score: inf
ROOT
ATOM      1  C   UNL     1      19.113  26.216  38.693  1.00  0.00     0.019 A 
ATOM      2  C   UNL     1      17.936  25.513  38.440  1.00  0.00     0.094 A 
ATOM      3  C   UNL     1      17.117  25.153  39.516  1.00  0.00     0.336 A 
ATOM      4  O   UNL     1      16.051  24.518  39.308  1.00  0.00    -0.246 OA
ATOM      5  O   UNL     1      17.457  25.480  40.760  1.00  0.00    -0.423 OA
ATOM      6  C   UNL     1      18.571  26.150  41.045  1.00  0.00     0.142 A 
ATOM      7  C   UNL     1      18.878  26.465  42.373  1.00  0.00     0.098 A 
ATOM      8  C   UNL     1      20.051  27.172  42.679  1.00  0.00     0.161 A 
ATOM      9  C   UNL     1      20.922  27.566  41.648  1.00  0.00     0.158 A 
ATOM     10  C   UNL     1      20.617  27.252  40.317  1.00  0.00     0.062 A 
ATOM     11  C   UNL     1      19.446  26.546  40.011  1.00  0.00     0.022 A 
ENDROOT
BRANCH   9  12
ATOM     12  O   UNL     1      22.093  28.270  41.924  1.00  0.00    -0.504 OA
ATOM     13  H   UNL     1      22.635  28.104  42.764  1.00  0.00     0.293 HD
ENDBRANCH   9  12
BRANCH   8  14
ATOM     14  O   UNL     1      20.351  27.484  44.004  1.00  0.00    -0.504 OA
ATOM     15  H   UNL     1      19.694  27.978  44.596  1.00  0.00     0.293 HD
ENDBRANCH   8  14
TORSDOF 2
ENDMDL
MODEL 9
REMARK VINA RESULT:    -4.757      4.545      5.922
REMARK INTER + INTRA:          -5.035
REMARK INTER:                  -5.035
REMARK INTRA:                   0.000
REMARK UNBOUND:                 0.000
REMARK SMILES O=c1ccc2cc(O)c(O)cc2o1
REMARK SMILES IDX 4 1 3 2 2 3 1 4 13 5 12 6 11 7 9 8 7 9 6 10 5 11 8 12 10 14
REMARK H PARENT 8 13 10 15
REMARK Flexibility Score: inf
ROOT
ATOM      1  C   UNL     1      20.204  25.942  40.736  1.00  0.00     0.019 A 
ATOM      2  C   UNL     1      19.590  25.086  39.822  1.00  0.00     0.094 A 
ATOM      3  C   UNL     1      18.339  24.545  40.136  1.00  0.00     0.336 A 
ATOM      4  O   UNL     1      17.768  23.770  39.324  1.00  0.00    -0.246 OA
ATOM      5  O   UNL     1      17.745  24.844  41.289  1.00  0.00    -0.423 OA
ATOM      6  C   UNL     1      18.296  25.656  42.188  1.00  0.00     0.142 A 
ATOM      7  C   UNL     1      17.625  25.934  43.383  1.00  0.00     0.098 A 
ATOM      8  C   UNL     1      18.202  26.789  44.335  1.00  0.00     0.161 A 
ATOM      9  C   UNL     1      19.459  27.370  44.086  1.00  0.00     0.158 A 
ATOM     10  C   UNL     1      20.132  27.093  42.890  1.00  0.00     0.062 A 
ATOM     11  C   UNL     1      19.557  26.239  41.940  1.00  0.00     0.022 A 
ENDROOT
BRANCH   9  12
ATOM     12  O   UNL     1      20.053  28.224  45.015  1.00  0.00    -0.504 OA
ATOM     13  H   UNL     1      19.526  28.652  45.767  1.00  0.00     0.293 HD
ENDBRANCH   9  12
BRANCH   8  14
ATOM     14  O   UNL     1      17.529  27.063  45.524  1.00  0.00    -0.504 OA
ATOM     15  H   UNL     1      16.906  26.387  45.951  1.00  0.00     0.293 HD
ENDBRANCH   8  14
TORSDOF 2
ENDMDL
