MODEL 1
REMARK VINA RESULT:    -4.023      0.000      0.000
REMARK INTER + INTRA:          -6.651
REMARK INTER:                  -6.140
REMARK INTRA:                  -0.511
REMARK UNBOUND:                -0.511
REMARK SMILES O=C([O-])CCCCCCCCC(=O)[O-]
REMARK SMILES IDX 7 1 6 2 5 3 4 4 2 5 1 6 3 7 8 8 9 9 10 10 11 11 12 12 13 13
REMARK SMILES IDX 14 14
REMARK H PARENT
REMARK Flexibility Score: inf
ROOT
ATOM      1  C   UNL     1       7.888  18.564   1.849  1.00  0.00     0.000 C 
ENDROOT
BRANCH   1   2
ATOM      2  C   UNL     1       6.779  18.467   0.785  1.00  0.00     0.000 C 
BRANCH   2   3
ATOM      3  C   UNL     1       6.208  19.841   0.403  1.00  0.00     0.006 C 
BRANCH   3   4
ATOM      4  C   UNL     1       5.088  19.747  -0.641  1.00  0.00     0.053 C 
BRANCH   4   5
ATOM      5  C   UNL     1       4.827  21.090  -1.249  1.00  0.00     0.041 C 
ATOM      6  O   UNL     1       3.696  21.629  -1.133  1.00  0.00    -0.550 OA
ATOM      7  O   UNL     1       5.819  21.722  -1.987  1.00  0.00    -0.550 OA
ENDBRANCH   4   5
ENDBRANCH   3   4
ENDBRANCH   2   3
ENDBRANCH   1   2
BRANCH   1   8
ATOM      8  C   UNL     1       7.376  18.252   3.264  1.00  0.00     0.000 C 
BRANCH   8   9
ATOM      9  C   UNL     1       8.056  19.110   4.345  1.00  0.00     0.000 C 
BRANCH   9  10
ATOM     10  C   UNL     1       7.046  19.889   5.203  1.00  0.00     0.006 C 
BRANCH  10  11
ATOM     11  C   UNL     1       7.017  21.385   4.866  1.00  0.00     0.053 C 
BRANCH  11  12
ATOM     12  C   UNL     1       5.697  21.760   4.270  1.00  0.00     0.041 C 
ATOM     13  O   UNL     1       5.169  22.869   4.549  1.00  0.00    -0.550 OA
ATOM     14  O   UNL     1       5.026  20.865   3.447  1.00  0.00    -0.550 OA
ENDBRANCH  11  12
ENDBRANCH  10  11
ENDBRANCH   9  10
ENDBRANCH   8   9
ENDBRANCH   1   8
TORSDOF 9
ENDMDL
MODEL 2
REMARK VINA RESULT:    -3.970     13.911     16.499
REMARK INTER + INTRA:          -6.569
REMARK INTER:                  -5.867
REMARK INTRA:                  -0.702
REMARK UNBOUND:                -0.511
REMARK SMILES O=C([O-])CCCCCCCCC(=O)[O-]
REMARK SMILES IDX 7 1 6 2 5 3 4 4 2 5 1 6 3 7 8 8 9 9 10 10 11 11 12 12 13 13
REMARK SMILES IDX 14 14
REMARK H PARENT
REMARK Flexibility Score: inf
ROOT
ATOM      1  C   UNL     1      -9.467  17.232  -1.573  1.00  0.00     0.000 C 
ENDROOT
BRANCH   1   2
ATOM      2  C   UNL     1      -9.630  16.269  -0.384  1.00  0.00     0.000 C 
BRANCH   2   3
ATOM      3  C   UNL     1      -8.542  16.461   0.684  1.00  0.00     0.006 C 
BRANCH   3   4
ATOM      4  C   UNL     1      -7.650  15.225   0.850  1.00  0.00     0.053 C 
BRANCH   4   5
ATOM      5  C   UNL     1      -6.288  15.483   0.284  1.00  0.00     0.041 C 
ATOM      6  O   UNL     1      -5.449  16.158   0.935  1.00  0.00    -0.550 OA
ATOM      7  O   UNL     1      -5.966  15.022  -0.985  1.00  0.00    -0.550 OA
ENDBRANCH   4   5
ENDBRANCH   3   4
ENDBRANCH   2   3
ENDBRANCH   1   2
BRANCH   1   8
ATOM      8  C   UNL     1      -8.673  16.609  -2.732  1.00  0.00     0.000 C 
BRANCH   8   9
ATOM      9  C   UNL     1      -8.969  15.110  -2.916  1.00  0.00     0.000 C 
BRANCH   9  10
ATOM     10  C   UNL     1      -9.030  14.697  -4.395  1.00  0.00     0.006 C 
BRANCH  10  11
ATOM     11  C   UNL     1      -8.412  15.748  -5.326  1.00  0.00     0.053 C 
BRANCH  11  12
ATOM     12  C   UNL     1      -7.367  15.125  -6.197  1.00  0.00     0.041 C 
ATOM     13  O   UNL     1      -6.252  14.798  -5.713  1.00  0.00    -0.550 OA
ATOM     14  O   UNL     1      -7.607  14.950  -7.554  1.00  0.00    -0.550 OA
ENDBRANCH  11  12
ENDBRANCH  10  11
ENDBRANCH   9  10
ENDBRANCH   8   9
ENDBRANCH   1   8
TORSDOF 9
ENDMDL
MODEL 3
REMARK VINA RESULT:    -3.963     13.574     15.654
REMARK INTER + INTRA:          -6.558
REMARK INTER:                  -5.955
REMARK INTRA:                  -0.603
REMARK UNBOUND:                -0.511
REMARK SMILES O=C([O-])CCCCCCCCC(=O)[O-]
REMARK SMILES IDX 7 1 6 2 5 3 4 4 2 5 1 6 3 7 8 8 9 9 10 10 11 11 12 12 13 13
REMARK SMILES IDX 14 14
REMARK H PARENT
REMARK Flexibility Score: inf
ROOT
ATOM      1  C   UNL     1      -7.436  15.622   0.900  1.00  0.00     0.000 C 
ENDROOT
BRANCH   1   2
ATOM      2  C   UNL     1      -6.365  16.027   1.929  1.00  0.00     0.000 C 
BRANCH   2   3
ATOM      3  C   UNL     1      -6.327  17.544   2.175  1.00  0.00     0.006 C 
BRANCH   3   4
ATOM      4  C   UNL     1      -6.547  17.912   3.647  1.00  0.00     0.053 C 
BRANCH   4   5
ATOM      5  C   UNL     1      -7.665  18.899   3.777  1.00  0.00     0.041 C 
ATOM      6  O   UNL     1      -8.856  18.535   3.597  1.00  0.00    -0.550 OA
ATOM      7  O   UNL     1      -7.385  20.232   4.048  1.00  0.00    -0.550 OA
ENDBRANCH   4   5
ENDBRANCH   3   4
ENDBRANCH   2   3
ENDBRANCH   1   2
BRANCH   1   8
ATOM      8  C   UNL     1      -8.236  16.826   0.378  1.00  0.00     0.000 C 
BRANCH   8   9
ATOM      9  C   UNL     1      -9.695  16.470   0.043  1.00  0.00     0.000 C 
BRANCH   9  10
ATOM     10  C   UNL     1     -10.059  16.780  -1.417  1.00  0.00     0.006 C 
BRANCH  10  11
ATOM     11  C   UNL     1      -8.848  17.232  -2.243  1.00  0.00     0.053 C 
BRANCH  11  12
ATOM     12  C   UNL     1      -8.385  16.126  -3.139  1.00  0.00     0.041 C 
ATOM     13  O   UNL     1      -7.638  15.217  -2.689  1.00  0.00    -0.550 OA
ATOM     14  O   UNL     1      -8.739  16.125  -4.481  1.00  0.00    -0.550 OA
ENDBRANCH  11  12
ENDBRANCH  10  11
ENDBRANCH   9  10
ENDBRANCH   8   9
ENDBRANCH   1   8
TORSDOF 9
ENDMDL
MODEL 4
REMARK VINA RESULT:    -3.931     13.981     15.805
REMARK INTER + INTRA:          -6.510
REMARK INTER:                  -5.831
REMARK INTRA:                  -0.679
REMARK UNBOUND:                -0.511
REMARK SMILES O=C([O-])CCCCCCCCC(=O)[O-]
REMARK SMILES IDX 7 1 6 2 5 3 4 4 2 5 1 6 3 7 8 8 9 9 10 10 11 11 12 12 13 13
REMARK SMILES IDX 14 14
REMARK H PARENT
REMARK Flexibility Score: inf
ROOT
ATOM      1  C   UNL     1      -8.451  16.291  -2.999  1.00  0.00     0.000 C 
ENDROOT
BRANCH   1   2
ATOM      2  C   UNL     1      -9.301  15.030  -3.235  1.00  0.00     0.000 C 
BRANCH   2   3
ATOM      3  C   UNL     1      -9.148  14.473  -4.659  1.00  0.00     0.006 C 
BRANCH   3   4
ATOM      4  C   UNL     1      -8.480  15.468  -5.616  1.00  0.00     0.053 C 
BRANCH   4   5
ATOM      5  C   UNL     1      -7.307  14.833  -6.295  1.00  0.00     0.041 C 
ATOM      6  O   UNL     1      -6.190  14.786  -5.717  1.00  0.00    -0.550 OA
ATOM      7  O   UNL     1      -7.436  14.339  -7.586  1.00  0.00    -0.550 OA
ENDBRANCH   4   5
ENDBRANCH   3   4
ENDBRANCH   2   3
ENDBRANCH   1   2
BRANCH   1   8
ATOM      8  C   UNL     1      -9.101  17.262  -2.001  1.00  0.00     0.000 C 
BRANCH   8   9
ATOM      9  C   UNL     1      -9.617  16.556  -0.735  1.00  0.00     0.000 C 
BRANCH   9  10
ATOM     10  C   UNL     1      -8.596  16.580   0.413  1.00  0.00     0.006 C 
BRANCH  10  11
ATOM     11  C   UNL     1      -7.832  15.256   0.550  1.00  0.00     0.053 C 
BRANCH  11  12
ATOM     12  C   UNL     1      -6.394  15.443   0.182  1.00  0.00     0.041 C 
ATOM     13  O   UNL     1      -5.967  15.033  -0.930  1.00  0.00    -0.550 OA
ATOM     14  O   UNL     1      -5.515  16.024   1.086  1.00  0.00    -0.550 OA
ENDBRANCH  11  12
ENDBRANCH  10  11
ENDBRANCH   9  10
ENDBRANCH   8   9
ENDBRANCH   1   8
TORSDOF 9
ENDMDL
MODEL 5
REMARK VINA RESULT:    -3.879     13.324     14.670
REMARK INTER + INTRA:          -6.430
REMARK INTER:                  -5.809
REMARK INTRA:                  -0.620
REMARK UNBOUND:                -0.511
REMARK SMILES O=C([O-])CCCCCCCCC(=O)[O-]
REMARK SMILES IDX 7 1 6 2 5 3 4 4 2 5 1 6 3 7 8 8 9 9 10 10 11 11 12 12 13 13
REMARK SMILES IDX 14 14
REMARK H PARENT
REMARK Flexibility Score: inf
ROOT
ATOM      1  C   UNL     1      -9.583  16.434  -0.727  1.00  0.00     0.000 C 
ENDROOT
BRANCH   1   2
ATOM      2  C   UNL     1      -8.971  17.296  -1.845  1.00  0.00     0.000 C 
BRANCH   2   3
ATOM      3  C   UNL     1      -8.701  16.493  -3.128  1.00  0.00     0.006 C 
BRANCH   3   4
ATOM      4  C   UNL     1      -8.383  15.019  -2.849  1.00  0.00     0.053 C 
BRANCH   4   5
ATOM      5  C   UNL     1      -6.917  14.763  -3.007  1.00  0.00     0.041 C 
ATOM      6  O   UNL     1      -6.463  14.330  -4.098  1.00  0.00    -0.550 OA
ATOM      7  O   UNL     1      -6.059  14.954  -1.932  1.00  0.00    -0.550 OA
ENDBRANCH   4   5
ENDBRANCH   3   4
ENDBRANCH   2   3
ENDBRANCH   1   2
BRANCH   1   8
ATOM      8  C   UNL     1      -8.980  16.743   0.653  1.00  0.00     0.000 C 
BRANCH   8   9
ATOM      9  C   UNL     1      -7.584  16.127   0.843  1.00  0.00     0.000 C 
BRANCH   9  10
ATOM     10  C   UNL     1      -6.608  17.081   1.550  1.00  0.00     0.006 C 
BRANCH  10  11
ATOM     11  C   UNL     1      -6.543  16.841   3.064  1.00  0.00     0.053 C 
BRANCH  11  12
ATOM     12  C   UNL     1      -6.889  18.094   3.805  1.00  0.00     0.041 C 
ATOM     13  O   UNL     1      -6.046  18.629   4.573  1.00  0.00    -0.550 OA
ATOM     14  O   UNL     1      -8.159  18.644   3.687  1.00  0.00    -0.550 OA
ENDBRANCH  11  12
ENDBRANCH  10  11
ENDBRANCH   9  10
ENDBRANCH   8   9
ENDBRANCH   1   8
TORSDOF 9
ENDMDL
MODEL 6
REMARK VINA RESULT:    -3.876     14.121     16.883
REMARK INTER + INTRA:          -6.426
REMARK INTER:                  -6.092
REMARK INTRA:                  -0.334
REMARK UNBOUND:                -0.511
REMARK SMILES O=C([O-])CCCCCCCCC(=O)[O-]
REMARK SMILES IDX 7 1 6 2 5 3 4 4 2 5 1 6 3 7 8 8 9 9 10 10 11 11 12 12 13 13
REMARK SMILES IDX 14 14
REMARK H PARENT
REMARK Flexibility Score: inf
ROOT
ATOM      1  C   UNL     1      -8.718  16.324  -2.789  1.00  0.00     0.000 C 
ENDROOT
BRANCH   1   2
ATOM      2  C   UNL     1      -8.989  16.631  -1.305  1.00  0.00     0.000 C 
BRANCH   2   3
ATOM      3  C   UNL     1      -7.875  16.111  -0.382  1.00  0.00     0.006 C 
BRANCH   3   4
ATOM      4  C   UNL     1      -7.930  16.730   1.020  1.00  0.00     0.053 C 
BRANCH   4   5
ATOM      5  C   UNL     1      -6.547  16.988   1.531  1.00  0.00     0.041 C 
ATOM      6  O   UNL     1      -5.594  16.242   1.186  1.00  0.00    -0.550 OA
ATOM      7  O   UNL     1      -6.321  18.023   2.429  1.00  0.00    -0.550 OA
ENDBRANCH   4   5
ENDBRANCH   3   4
ENDBRANCH   2   3
ENDBRANCH   1   2
BRANCH   1   8
ATOM      8  C   UNL     1      -9.381  15.016  -3.250  1.00  0.00     0.000 C 
BRANCH   8   9
ATOM      9  C   UNL     1      -8.860  14.536  -4.616  1.00  0.00     0.000 C 
BRANCH   9  10
ATOM     10  C   UNL     1      -8.437  15.699  -5.529  1.00  0.00     0.006 C 
BRANCH  10  11
ATOM     11  C   UNL     1      -7.230  15.348  -6.408  1.00  0.00     0.053 C 
BRANCH  11  12
ATOM     12  C   UNL     1      -7.631  14.393  -7.488  1.00  0.00     0.041 C 
ATOM     13  O   UNL     1      -7.265  13.190  -7.438  1.00  0.00    -0.550 OA
ATOM     14  O   UNL     1      -8.368  14.844  -8.575  1.00  0.00    -0.550 OA
ENDBRANCH  11  12
ENDBRANCH  10  11
ENDBRANCH   9  10
ENDBRANCH   8   9
ENDBRANCH   1   8
TORSDOF 9
ENDMDL
MODEL 7
REMARK VINA RESULT:    -3.864     13.305     15.583
REMARK INTER + INTRA:          -6.407
REMARK INTER:                  -5.875
REMARK INTRA:                  -0.532
REMARK UNBOUND:                -0.511
REMARK SMILES O=C([O-])CCCCCCCCC(=O)[O-]
REMARK SMILES IDX 7 1 6 2 5 3 4 4 2 5 1 6 3 7 8 8 9 9 10 10 11 11 12 12 13 13
REMARK SMILES IDX 14 14
REMARK H PARENT
REMARK Flexibility Score: inf
ROOT
ATOM      1  C   UNL     1      -9.241  16.525   0.586  1.00  0.00     0.000 C 
ENDROOT
BRANCH   1   2
ATOM      2  C   UNL     1      -7.704  16.578   0.555  1.00  0.00     0.000 C 
BRANCH   2   3
ATOM      3  C   UNL     1      -7.086  16.611   1.962  1.00  0.00     0.006 C 
BRANCH   3   4
ATOM      4  C   UNL     1      -6.454  17.967   2.300  1.00  0.00     0.053 C 
BRANCH   4   5
ATOM      5  C   UNL     1      -6.630  18.277   3.753  1.00  0.00     0.041 C 
ATOM      6  O   UNL     1      -7.010  19.421   4.116  1.00  0.00    -0.550 OA
ATOM      7  O   UNL     1      -6.324  17.318   4.710  1.00  0.00    -0.550 OA
ENDBRANCH   4   5
ENDBRANCH   3   4
ENDBRANCH   2   3
ENDBRANCH   1   2
BRANCH   1   8
ATOM      8  C   UNL     1      -9.868  16.787  -0.793  1.00  0.00     0.000 C 
BRANCH   8   9
ATOM      9  C   UNL     1      -8.845  17.295  -1.824  1.00  0.00     0.000 C 
BRANCH   9  10
ATOM     10  C   UNL     1      -8.751  16.387  -3.060  1.00  0.00     0.006 C 
BRANCH  10  11
ATOM     11  C   UNL     1      -8.363  14.946  -2.704  1.00  0.00     0.053 C 
BRANCH  11  12
ATOM     12  C   UNL     1      -6.887  14.752  -2.851  1.00  0.00     0.041 C 
ATOM     13  O   UNL     1      -6.378  14.608  -3.993  1.00  0.00    -0.550 OA
ATOM     14  O   UNL     1      -6.080  14.680  -1.723  1.00  0.00    -0.550 OA
ENDBRANCH  11  12
ENDBRANCH  10  11
ENDBRANCH   9  10
ENDBRANCH   8   9
ENDBRANCH   1   8
TORSDOF 9
ENDMDL
MODEL 8
REMARK VINA RESULT:    -3.834     13.820     16.394
REMARK INTER + INTRA:          -6.361
REMARK INTER:                  -5.866
REMARK INTRA:                  -0.495
REMARK UNBOUND:                -0.511
REMARK SMILES O=C([O-])CCCCCCCCC(=O)[O-]
REMARK SMILES IDX 7 1 6 2 5 3 4 4 2 5 1 6 3 7 8 8 9 9 10 10 11 11 12 12 13 13
REMARK SMILES IDX 14 14
REMARK H PARENT
REMARK Flexibility Score: inf
ROOT
ATOM      1  C   UNL     1      -9.685  16.969  -1.150  1.00  0.00     0.000 C 
ENDROOT
BRANCH   1   2
ATOM      2  C   UNL     1      -9.308  15.764  -0.270  1.00  0.00     0.000 C 
BRANCH   2   3
ATOM      3  C   UNL     1      -8.690  16.184   1.073  1.00  0.00     0.006 C 
BRANCH   3   4
ATOM      4  C   UNL     1      -7.253  16.701   0.928  1.00  0.00     0.053 C 
BRANCH   4   5
ATOM      5  C   UNL     1      -6.701  17.089   2.264  1.00  0.00     0.041 C 
ATOM      6  O   UNL     1      -6.334  18.274   2.477  1.00  0.00    -0.550 OA
ATOM      7  O   UNL     1      -6.544  16.130   3.255  1.00  0.00    -0.550 OA
ENDBRANCH   4   5
ENDBRANCH   3   4
ENDBRANCH   2   3
ENDBRANCH   1   2
BRANCH   1   8
ATOM      8  C   UNL     1      -8.833  17.056  -2.426  1.00  0.00     0.000 C 
BRANCH   8   9
ATOM      9  C   UNL     1      -8.120  15.733  -2.756  1.00  0.00     0.000 C 
BRANCH   9  10
ATOM     10  C   UNL     1      -8.671  15.065  -4.025  1.00  0.00     0.006 C 
BRANCH  10  11
ATOM     11  C   UNL     1      -8.403  15.891  -5.290  1.00  0.00     0.053 C 
BRANCH  11  12
ATOM     12  C   UNL     1      -7.356  15.232  -6.131  1.00  0.00     0.041 C 
ATOM     13  O   UNL     1      -6.260  14.883  -5.619  1.00  0.00    -0.550 OA
ATOM     14  O   UNL     1      -7.571  15.048  -7.491  1.00  0.00    -0.550 OA
ENDBRANCH  11  12
ENDBRANCH  10  11
ENDBRANCH   9  10
ENDBRANCH   8   9
ENDBRANCH   1   8
TORSDOF 9
ENDMDL
MODEL 9
REMARK VINA RESULT:    -3.809     13.668     15.086
REMARK INTER + INTRA:          -6.324
REMARK INTER:                  -6.017
REMARK INTRA:                  -0.306
REMARK UNBOUND:                -0.511
REMARK SMILES O=C([O-])CCCCCCCCC(=O)[O-]
REMARK SMILES IDX 7 1 6 2 5 3 4 4 2 5 1 6 3 7 8 8 9 9 10 10 11 11 12 12 13 13
REMARK SMILES IDX 14 14
REMARK H PARENT
REMARK Flexibility Score: inf
ROOT
ATOM      1  C   UNL     1      -8.852  16.898  -2.248  1.00  0.00     0.000 C 
ENDROOT
BRANCH   1   2
ATOM      2  C   UNL     1      -8.003  15.728  -2.775  1.00  0.00     0.000 C 
BRANCH   2   3
ATOM      3  C   UNL     1      -8.627  15.055  -4.007  1.00  0.00     0.006 C 
BRANCH   3   4
ATOM      4  C   UNL     1      -8.403  15.854  -5.296  1.00  0.00     0.053 C 
BRANCH   4   5
ATOM      5  C   UNL     1      -7.386  15.177  -6.161  1.00  0.00     0.041 C 
ATOM      6  O   UNL     1      -6.296  14.785  -5.669  1.00  0.00    -0.550 OA
ATOM      7  O   UNL     1      -7.622  15.026  -7.521  1.00  0.00    -0.550 OA
ENDBRANCH   4   5
ENDBRANCH   3   4
ENDBRANCH   2   3
ENDBRANCH   1   2
BRANCH   1   8
ATOM      8  C   UNL     1      -8.990  16.884  -0.717  1.00  0.00     0.000 C 
BRANCH   8   9
ATOM      9  C   UNL     1      -7.796  16.209  -0.019  1.00  0.00     0.000 C 
BRANCH   9  10
ATOM     10  C   UNL     1      -7.831  16.379   1.508  1.00  0.00     0.006 C 
BRANCH  10  11
ATOM     11  C   UNL     1      -6.650  17.204   2.037  1.00  0.00     0.053 C 
BRANCH  11  12
ATOM     12  C   UNL     1      -7.054  17.971   3.256  1.00  0.00     0.041 C 
ATOM     13  O   UNL     1      -8.270  18.204   3.483  1.00  0.00    -0.550 OA
ATOM     14  O   UNL     1      -6.085  18.470   4.116  1.00  0.00    -0.550 OA
ENDBRANCH  11  12
ENDBRANCH  10  11
ENDBRANCH   9  10
ENDBRANCH   8   9
ENDBRANCH   1   8
TORSDOF 9
ENDMDL
