MODEL 1
REMARK VINA RESULT:    -0.180      0.000      0.000
REMARK INTER + INTRA:           0.440
REMARK INTER:                  -0.306
REMARK INTRA:                   0.747
REMARK UNBOUND:                 0.747
REMARK SMILES CCCCCCCCCCCCCC(=O)[O-]
REMARK SMILES IDX 8 1 9 2 10 3 11 4 12 5 13 6 14 7 15 8 16 9 7 10 6 11 5 12
REMARK SMILES IDX 4 13 3 14 2 15 1 16
REMARK H PARENT
REMARK Flexibility Score: inf
ROOT
ATOM      1  C   UNL     1      31.765  22.665  27.460  1.00  0.00     0.000 C 
ENDROOT
BRANCH   1   2
ATOM      2  C   UNL     1      31.086  21.288  27.301  1.00  0.00     0.000 C 
BRANCH   2   3
ATOM      3  C   UNL     1      29.755  21.123  28.057  1.00  0.00     0.000 C 
BRANCH   3   4
ATOM      4  C   UNL     1      28.933  22.420  28.106  1.00  0.00     0.000 C 
BRANCH   4   5
ATOM      5  C   UNL     1      29.809  23.609  28.527  1.00  0.00     0.006 C 
BRANCH   5   6
ATOM      6  C   UNL     1      29.454  24.124  29.928  1.00  0.00     0.053 C 
BRANCH   6   7
ATOM      7  C   UNL     1      30.579  23.928  30.895  1.00  0.00     0.041 C 
ATOM      8  O   UNL     1      30.338  23.705  32.111  1.00  0.00    -0.550 OA
ATOM      9  O   UNL     1      31.896  24.026  30.463  1.00  0.00    -0.550 OA
ENDBRANCH   6   7
ENDBRANCH   5   6
ENDBRANCH   4   5
ENDBRANCH   3   4
ENDBRANCH   2   3
ENDBRANCH   1   2
BRANCH   1  10
ATOM     10  C   UNL     1      33.267  22.699  27.126  1.00  0.00     0.000 C 
BRANCH  10  11
ATOM     11  C   UNL     1      33.996  23.886  27.778  1.00  0.00    -0.000 C 
BRANCH  11  12
ATOM     12  C   UNL     1      35.484  23.949  27.393  1.00  0.00    -0.000 C 
BRANCH  12  13
ATOM     13  C   UNL     1      36.340  22.938  28.176  1.00  0.00    -0.000 C 
BRANCH  13  14
ATOM     14  C   UNL     1      37.108  21.977  27.256  1.00  0.00    -0.000 C 
BRANCH  14  15
ATOM     15  C   UNL     1      36.290  20.733  26.880  1.00  0.00    -0.003 C 
ATOM     16  C   UNL     1      37.124  19.464  27.021  1.00  0.00     0.004 C 
ENDBRANCH  14  15
ENDBRANCH  13  14
ENDBRANCH  12  13
ENDBRANCH  11  12
ENDBRANCH  10  11
ENDBRANCH   1  10
TORSDOF 12
ENDMDL
MODEL 2
REMARK VINA RESULT:     0.949      1.455      2.367
REMARK INTER + INTRA:           2.361
REMARK INTER:                  -0.265
REMARK INTRA:                   2.626
REMARK UNBOUND:                 0.747
REMARK SMILES CCCCCCCCCCCCCC(=O)[O-]
REMARK SMILES IDX 8 1 9 2 10 3 11 4 12 5 13 6 14 7 15 8 16 9 7 10 6 11 5 12
REMARK SMILES IDX 4 13 3 14 2 15 1 16
REMARK H PARENT
REMARK Flexibility Score: inf
ROOT
ATOM      1  C   UNL     1      31.367  22.371  27.615  1.00  0.00     0.000 C 
ENDROOT
BRANCH   1   2
ATOM      2  C   UNL     1      30.564  21.131  27.167  1.00  0.00     0.000 C 
BRANCH   2   3
ATOM      3  C   UNL     1      29.071  21.148  27.542  1.00  0.00     0.000 C 
BRANCH   3   4
ATOM      4  C   UNL     1      28.709  22.297  28.495  1.00  0.00     0.000 C 
BRANCH   4   5
ATOM      5  C   UNL     1      29.868  23.297  28.614  1.00  0.00     0.006 C 
BRANCH   5   6
ATOM      6  C   UNL     1      29.795  24.118  29.909  1.00  0.00     0.053 C 
BRANCH   6   7
ATOM      7  C   UNL     1      31.040  23.977  30.728  1.00  0.00     0.041 C 
ATOM      8  O   UNL     1      32.161  23.864  30.164  1.00  0.00    -0.550 OA
ATOM      9  O   UNL     1      30.962  23.935  32.115  1.00  0.00    -0.550 OA
ENDBRANCH   6   7
ENDBRANCH   5   6
ENDBRANCH   4   5
ENDBRANCH   3   4
ENDBRANCH   2   3
ENDBRANCH   1   2
BRANCH   1  10
ATOM     10  C   UNL     1      32.710  22.580  26.892  1.00  0.00     0.000 C 
BRANCH  10  11
ATOM     11  C   UNL     1      33.467  23.824  27.389  1.00  0.00    -0.000 C 
BRANCH  11  12
ATOM     12  C   UNL     1      34.918  23.874  26.879  1.00  0.00    -0.000 C 
BRANCH  12  13
ATOM     13  C   UNL     1      35.928  23.367  27.923  1.00  0.00    -0.000 C 
BRANCH  13  14
ATOM     14  C   UNL     1      35.777  24.071  29.281  1.00  0.00    -0.000 C 
BRANCH  14  15
ATOM     15  C   UNL     1      37.022  23.926  30.167  1.00  0.00    -0.003 C 
ATOM     16  C   UNL     1      36.676  24.125  31.639  1.00  0.00     0.004 C 
ENDBRANCH  14  15
ENDBRANCH  13  14
ENDBRANCH  12  13
ENDBRANCH  11  12
ENDBRANCH  10  11
ENDBRANCH   1  10
TORSDOF 12
ENDMDL
