MODEL 1
REMARK VINA RESULT:    -0.861      0.000      0.000
REMARK INTER + INTRA:          -0.753
REMARK INTER:                  -1.214
REMARK INTRA:                   0.461
REMARK UNBOUND:                 0.461
REMARK SMILES CC1=CCC(=C(C)C)C(=O)CC(C)=CCC1
REMARK SMILES IDX 12 1 14 2 13 3 15 4 16 5 2 6 1 7 3 8 11 10 9 11 10 12 5 13
REMARK SMILES IDX 6 14 7 15 8 16 4 17
REMARK H PARENT
REMARK Flexibility Score: 60.00
ROOT
ATOM      1  C   UNL     1      93.241  29.747   9.868  1.00  0.00    -0.070 C 
ATOM      2  C   UNL     1      93.116  28.437   9.549  1.00  0.00    -0.027 C 
ATOM      3  C   UNL     1      93.529  30.713   8.745  1.00  0.00     0.039 C 
ENDROOT
BRANCH   2   4
ATOM      4  C   UNL     1      92.934  27.294  10.518  1.00  0.00     0.032 C 
BRANCH   4   5
ATOM      5  C   UNL     1      91.455  27.040  10.864  1.00  0.00     0.034 C 
BRANCH   5   6
ATOM      6  C   UNL     1      91.209  27.039  12.361  1.00  0.00    -0.077 C 
ATOM      7  C   UNL     1      91.724  25.876  13.170  1.00  0.00     0.039 C 
ATOM      8  C   UNL     1      90.577  28.036  13.018  1.00  0.00    -0.023 CG0
ATOM      9  G   UNL     1      90.025  29.295  12.392  1.00  0.00     0.000 G0
ENDBRANCH   5   6
ENDBRANCH   4   5
ENDBRANCH   2   4
BRANCH   1  10
ATOM     10  C   UNL     1      93.174  30.280  11.290  1.00  0.00     0.111 C 
BRANCH  10  11
ATOM     11  C   UNL     1      91.840  30.922  11.580  1.00  0.00     0.163 C 
ATOM     12  O   UNL     1      91.453  31.853  10.823  1.00  0.00    -0.294 OA
BRANCH  11  13
ATOM     13  C   UNL     1      90.960  30.452  12.694  1.00  0.00    -0.002 C 
ATOM     14  C   UNL     1      91.034  30.994  13.948  1.00  0.00    -0.069 C 
ATOM     15  C   UNL     1      92.062  32.048  14.295  1.00  0.00     0.039 C 
ATOM     16  C   UNL     1      90.113  30.539  15.059  1.00  0.00     0.039 C 
BRANCH  13  17
ATOM     17  C   UNL     1      90.028  29.292  12.393  1.00  0.00     0.066 CG0
ATOM     18  G   UNL     1      90.579  28.022  12.998  1.00  0.00     0.000 G0
ENDBRANCH  13  17
ENDBRANCH  11  13
ENDBRANCH  10  11
ENDBRANCH   1  10
TORSDOF 0
ENDMDL
MODEL 2
REMARK VINA RESULT:    -0.818      2.461      5.146
REMARK INTER + INTRA:          -0.691
REMARK INTER:                  -1.051
REMARK INTRA:                   0.360
REMARK UNBOUND:                 0.461
REMARK SMILES CC1=CCC(=C(C)C)C(=O)CC(C)=CCC1
REMARK SMILES IDX 12 1 14 2 13 3 15 4 16 5 2 6 1 7 3 8 11 10 9 11 10 12 5 13
REMARK SMILES IDX 6 14 7 15 8 16 4 17
REMARK H PARENT
REMARK Flexibility Score: 60.00
ROOT
ATOM      1  C   UNL     1      92.942  30.901  16.606  1.00  0.00    -0.070 C 
ATOM      2  C   UNL     1      93.300  31.962  15.846  1.00  0.00    -0.027 C 
ATOM      3  C   UNL     1      92.841  31.114  18.097  1.00  0.00     0.039 C 
ENDROOT
BRANCH   2   4
ATOM      4  C   UNL     1      93.562  31.951  14.359  1.00  0.00     0.032 C 
BRANCH   4   5
ATOM      5  C   UNL     1      92.265  31.977  13.528  1.00  0.00     0.034 C 
BRANCH   5   6
ATOM      6  C   UNL     1      92.200  30.834  12.534  1.00  0.00    -0.077 C 
ATOM      7  C   UNL     1      93.229  30.784  11.433  1.00  0.00     0.039 C 
ATOM      8  C   UNL     1      91.287  29.839  12.592  1.00  0.00    -0.023 CG0
ATOM      9  G   UNL     1      90.204  29.695  13.635  1.00  0.00     0.000 G0
ENDBRANCH   5   6
ENDBRANCH   4   5
ENDBRANCH   2   4
BRANCH   1  10
ATOM     10  C   UNL     1      92.706  29.506  16.050  1.00  0.00     0.111 C 
BRANCH  10  11
ATOM     11  C   UNL     1      91.234  29.192  15.947  1.00  0.00     0.163 C 
ATOM     12  O   UNL     1      90.505  29.427  16.949  1.00  0.00    -0.294 OA
BRANCH  11  13
ATOM     13  C   UNL     1      90.622  28.667  14.687  1.00  0.00    -0.002 C 
ATOM     14  C   UNL     1      90.497  27.326  14.451  1.00  0.00    -0.069 C 
ATOM     15  C   UNL     1      91.038  26.298  15.421  1.00  0.00     0.039 C 
ATOM     16  C   UNL     1      89.843  26.804  13.191  1.00  0.00     0.039 C 
BRANCH  13  17
ATOM     17  C   UNL     1      90.212  29.690  13.642  1.00  0.00     0.066 CG0
ATOM     18  G   UNL     1      91.310  29.843  12.616  1.00  0.00     0.000 G0
ENDBRANCH  13  17
ENDBRANCH  11  13
ENDBRANCH  10  11
ENDBRANCH   1  10
TORSDOF 0
ENDMDL
MODEL 3
REMARK VINA RESULT:    -0.748      2.599      3.658
REMARK INTER + INTRA:          -0.593
REMARK INTER:                  -1.108
REMARK INTRA:                   0.515
REMARK UNBOUND:                 0.461
REMARK SMILES CC1=CCC(=C(C)C)C(=O)CC(C)=CCC1
REMARK SMILES IDX 12 1 14 2 13 3 15 4 16 5 2 6 1 7 3 8 11 10 9 11 10 12 5 13
REMARK SMILES IDX 6 14 7 15 8 16 4 17
REMARK H PARENT
REMARK Flexibility Score: 60.00
ROOT
ATOM      1  C   UNL     1      91.543  28.851  12.294  1.00  0.00    -0.070 C 
ATOM      2  C   UNL     1      90.916  27.735  12.735  1.00  0.00    -0.027 C 
ATOM      3  C   UNL     1      91.301  29.265  10.863  1.00  0.00     0.039 C 
ENDROOT
BRANCH   2   4
ATOM      4  C   UNL     1      91.093  27.084  14.086  1.00  0.00     0.032 C 
BRANCH   4   5
ATOM      5  C   UNL     1      90.263  27.768  15.188  1.00  0.00     0.034 C 
BRANCH   5   6
ATOM      6  C   UNL     1      91.047  27.932  16.476  1.00  0.00    -0.077 C 
ATOM      7  C   UNL     1      91.499  26.690  17.201  1.00  0.00     0.039 C 
ATOM      8  C   UNL     1      91.387  29.130  17.000  1.00  0.00    -0.023 CG0
ATOM      9  G   UNL     1      91.059  30.479  16.405  1.00  0.00     0.000 G0
ENDBRANCH   5   6
ENDBRANCH   4   5
ENDBRANCH   2   4
BRANCH   1  10
ATOM     10  C   UNL     1      92.517  29.659  13.134  1.00  0.00     0.111 C 
BRANCH  10  11
ATOM     11  C   UNL     1      91.804  30.696  13.967  1.00  0.00     0.163 C 
ATOM     12  O   UNL     1      90.885  31.365  13.423  1.00  0.00    -0.294 OA
BRANCH  11  13
ATOM     13  C   UNL     1      92.124  30.907  15.413  1.00  0.00    -0.002 C 
ATOM     14  C   UNL     1      93.341  31.379  15.820  1.00  0.00    -0.069 C 
ATOM     15  C   UNL     1      94.457  31.645  14.835  1.00  0.00     0.039 C 
ATOM     16  C   UNL     1      93.642  31.626  17.283  1.00  0.00     0.039 C 
BRANCH  13  17
ATOM     17  C   UNL     1      91.061  30.502  16.420  1.00  0.00     0.066 CG0
ATOM     18  G   UNL     1      91.384  29.139  16.986  1.00  0.00     0.000 G0
ENDBRANCH  13  17
ENDBRANCH  11  13
ENDBRANCH  10  11
ENDBRANCH   1  10
TORSDOF 0
ENDMDL
MODEL 4
REMARK VINA RESULT:    -0.565      2.059      2.556
REMARK INTER + INTRA:          -0.335
REMARK INTER:                  -0.769
REMARK INTRA:                   0.434
REMARK UNBOUND:                 0.461
REMARK SMILES CC1=CCC(=C(C)C)C(=O)CC(C)=CCC1
REMARK SMILES IDX 12 1 14 2 13 3 15 4 16 5 2 6 1 7 3 8 11 10 9 11 10 12 5 13
REMARK SMILES IDX 6 14 7 15 8 16 4 17
REMARK H PARENT
REMARK Flexibility Score: 60.00
ROOT
ATOM      1  C   UNL     1      89.314  30.013   9.267  1.00  0.00    -0.070 C 
ATOM      2  C   UNL     1      89.058  28.743   8.874  1.00  0.00    -0.027 C 
ATOM      3  C   UNL     1      88.384  31.095   8.774  1.00  0.00     0.039 C 
ENDROOT
BRANCH   2   4
ATOM      4  C   UNL     1      89.910  27.529   9.159  1.00  0.00     0.032 C 
BRANCH   4   5
ATOM      5  C   UNL     1      89.857  27.102  10.637  1.00  0.00     0.034 C 
BRANCH   5   6
ATOM      6  C   UNL     1      91.238  27.022  11.260  1.00  0.00    -0.077 C 
ATOM      7  C   UNL     1      92.270  26.142  10.602  1.00  0.00     0.039 C 
ATOM      8  C   UNL     1      91.607  27.718  12.358  1.00  0.00    -0.023 CG0
ATOM      9  G   UNL     1      90.731  28.674  13.133  1.00  0.00     0.000 G0
ENDBRANCH   5   6
ENDBRANCH   4   5
ENDBRANCH   2   4
BRANCH   1  10
ATOM     10  C   UNL     1      90.512  30.410  10.114  1.00  0.00     0.111 C 
BRANCH  10  11
ATOM     11  C   UNL     1      90.126  30.619  11.557  1.00  0.00     0.163 C 
ATOM     12  O   UNL     1      89.040  31.213  11.801  1.00  0.00    -0.294 OA
BRANCH  11  13
ATOM     13  C   UNL     1      90.961  30.101  12.684  1.00  0.00    -0.002 C 
ATOM     14  C   UNL     1      91.959  30.851  13.245  1.00  0.00    -0.069 C 
ATOM     15  C   UNL     1      92.320  32.217  12.707  1.00  0.00     0.039 C 
ATOM     16  C   UNL     1      92.774  30.333  14.410  1.00  0.00     0.039 C 
BRANCH  13  17
ATOM     17  C   UNL     1      90.705  28.674  13.133  1.00  0.00     0.066 CG0
ATOM     18  G   UNL     1      91.589  27.726  12.357  1.00  0.00     0.000 G0
ENDBRANCH  13  17
ENDBRANCH  11  13
ENDBRANCH  10  11
ENDBRANCH   1  10
TORSDOF 0
ENDMDL
MODEL 5
REMARK VINA RESULT:    -0.525      2.689      4.392
REMARK INTER + INTRA:          -0.278
REMARK INTER:                  -0.831
REMARK INTRA:                   0.552
REMARK UNBOUND:                 0.461
REMARK SMILES CC1=CCC(=C(C)C)C(=O)CC(C)=CCC1
REMARK SMILES IDX 12 1 14 2 13 3 15 4 16 5 2 6 1 7 3 8 11 10 9 11 10 12 5 13
REMARK SMILES IDX 6 14 7 15 8 16 4 17
REMARK H PARENT
REMARK Flexibility Score: 60.00
ROOT
ATOM      1  C   UNL     1      91.222  28.396  16.331  1.00  0.00    -0.070 C 
ATOM      2  C   UNL     1      90.961  27.266  15.633  1.00  0.00    -0.027 C 
ATOM      3  C   UNL     1      92.273  28.320  17.411  1.00  0.00     0.039 C 
ENDROOT
BRANCH   2   4
ATOM      4  C   UNL     1      89.886  27.088  14.588  1.00  0.00     0.032 C 
BRANCH   4   5
ATOM      5  C   UNL     1      90.353  27.500  13.180  1.00  0.00     0.034 C 
BRANCH   5   6
ATOM      6  C   UNL     1      89.511  28.622  12.602  1.00  0.00    -0.077 C 
ATOM      7  C   UNL     1      88.112  28.301  12.141  1.00  0.00     0.039 C 
ATOM      8  C   UNL     1      89.933  29.901  12.502  1.00  0.00    -0.023 CG0
ATOM      9  G   UNL     1      91.281  30.424  12.941  1.00  0.00     0.000 G0
ENDBRANCH   5   6
ENDBRANCH   4   5
ENDBRANCH   2   4
BRANCH   1  10
ATOM     10  C   UNL     1      90.474  29.704  16.130  1.00  0.00     0.111 C 
BRANCH  10  11
ATOM     11  C   UNL     1      91.357  30.759  15.511  1.00  0.00     0.163 C 
ATOM     12  O   UNL     1      92.382  31.125  16.149  1.00  0.00    -0.294 OA
BRANCH  11  13
ATOM     13  C   UNL     1      91.078  31.332  14.158  1.00  0.00    -0.002 C 
ATOM     14  C   UNL     1      90.601  32.604  13.999  1.00  0.00    -0.069 C 
ATOM     15  C   UNL     1      90.258  33.475  15.187  1.00  0.00     0.039 C 
ATOM     16  C   UNL     1      90.357  33.189  12.625  1.00  0.00     0.039 C 
BRANCH  13  17
ATOM     17  C   UNL     1      91.277  30.414  12.966  1.00  0.00     0.066 CG0
ATOM     18  G   UNL     1      89.941  29.897  12.488  1.00  0.00     0.000 G0
ENDBRANCH  13  17
ENDBRANCH  11  13
ENDBRANCH  10  11
ENDBRANCH   1  10
TORSDOF 0
ENDMDL
MODEL 6
REMARK VINA RESULT:    -0.496      2.857      3.950
REMARK INTER + INTRA:          -0.238
REMARK INTER:                  -0.689
REMARK INTRA:                   0.451
REMARK UNBOUND:                 0.461
REMARK SMILES CC1=CCC(=C(C)C)C(=O)CC(C)=CCC1
REMARK SMILES IDX 12 1 14 2 13 3 15 4 16 5 2 6 1 7 3 8 11 10 9 11 10 12 5 13
REMARK SMILES IDX 6 14 7 15 8 16 4 17
REMARK H PARENT
REMARK Flexibility Score: 60.00
ROOT
ATOM      1  C   UNL     1      90.473  27.832  12.485  1.00  0.00    -0.070 C 
ATOM      2  C   UNL     1      90.760  26.604  12.977  1.00  0.00    -0.027 C 
ATOM      3  C   UNL     1      90.089  27.926  11.029  1.00  0.00     0.039 C 
ENDROOT
BRANCH   2   4
ATOM      4  C   UNL     1      91.264  26.291  14.365  1.00  0.00     0.032 C 
BRANCH   4   5
ATOM      5  C   UNL     1      90.123  26.042  15.369  1.00  0.00     0.034 C 
BRANCH   5   6
ATOM      6  C   UNL     1      90.199  26.972  16.564  1.00  0.00    -0.077 C 
ATOM      7  C   UNL     1      91.243  26.700  17.618  1.00  0.00     0.039 C 
ATOM      8  C   UNL     1      89.401  28.050  16.728  1.00  0.00    -0.023 CG0
ATOM      9  G   UNL     1      88.325  28.506  15.770  1.00  0.00     0.000 G0
ENDBRANCH   5   6
ENDBRANCH   4   5
ENDBRANCH   2   4
BRANCH   1  10
ATOM     10  C   UNL     1      90.583  29.113  13.295  1.00  0.00     0.111 C 
BRANCH  10  11
ATOM     11  C   UNL     1      89.224  29.668  13.642  1.00  0.00     0.163 C 
ATOM     12  O   UNL     1      88.458  29.997  12.695  1.00  0.00    -0.294 OA
BRANCH  11  13
ATOM     13  C   UNL     1      88.753  29.787  15.057  1.00  0.00    -0.002 C 
ATOM     14  C   UNL     1      88.771  30.981  15.724  1.00  0.00    -0.069 C 
ATOM     15  C   UNL     1      89.337  32.233  15.091  1.00  0.00     0.039 C 
ATOM     16  C   UNL     1      88.258  31.099  17.142  1.00  0.00     0.039 C 
BRANCH  13  17
ATOM     17  C   UNL     1      88.322  28.506  15.749  1.00  0.00     0.066 CG0
ATOM     18  G   UNL     1      89.391  28.065  16.721  1.00  0.00     0.000 G0
ENDBRANCH  13  17
ENDBRANCH  11  13
ENDBRANCH  10  11
ENDBRANCH   1  10
TORSDOF 0
ENDMDL
MODEL 7
REMARK VINA RESULT:    -0.467      2.794      4.813
REMARK INTER + INTRA:          -0.197
REMARK INTER:                  -0.923
REMARK INTRA:                   0.726
REMARK UNBOUND:                 0.461
REMARK SMILES CC1=CCC(=C(C)C)C(=O)CC(C)=CCC1
REMARK SMILES IDX 12 1 14 2 13 3 15 4 16 5 2 6 1 7 3 8 11 10 9 11 10 12 5 13
REMARK SMILES IDX 6 14 7 15 8 16 4 17
REMARK H PARENT
REMARK Flexibility Score: 60.00
ROOT
ATOM      1  C   UNL     1      90.959  27.824  15.119  1.00  0.00    -0.070 C 
ATOM      2  C   UNL     1      91.350  27.334  13.919  1.00  0.00    -0.027 C 
ATOM      3  C   UNL     1      90.814  26.844  16.257  1.00  0.00     0.039 C 
ENDROOT
BRANCH   2   4
ATOM      4  C   UNL     1      91.457  28.109  12.628  1.00  0.00     0.032 C 
BRANCH   4   5
ATOM      5  C   UNL     1      92.684  29.039  12.595  1.00  0.00     0.034 C 
BRANCH   5   6
ATOM      6  C   UNL     1      92.292  30.502  12.504  1.00  0.00    -0.077 C 
ATOM      7  C   UNL     1      91.530  30.964  11.288  1.00  0.00     0.039 C 
ATOM      8  C   UNL     1      92.563  31.412  13.466  1.00  0.00    -0.023 CG0
ATOM      9  G   UNL     1      93.280  31.136  14.766  1.00  0.00     0.000 G0
ENDBRANCH   5   6
ENDBRANCH   4   5
ENDBRANCH   2   4
BRANCH   1  10
ATOM     10  C   UNL     1      90.598  29.280  15.359  1.00  0.00     0.111 C 
BRANCH  10  11
ATOM     11  C   UNL     1      91.579  29.950  16.289  1.00  0.00     0.163 C 
ATOM     12  O   UNL     1      91.830  29.388  17.390  1.00  0.00    -0.294 OA
BRANCH  11  13
ATOM     13  C   UNL     1      92.286  31.214  15.918  1.00  0.00    -0.002 C 
ATOM     14  C   UNL     1      92.004  32.404  16.531  1.00  0.00    -0.069 C 
ATOM     15  C   UNL     1      90.909  32.520  17.568  1.00  0.00     0.039 C 
ATOM     16  C   UNL     1      92.751  33.671  16.177  1.00  0.00     0.039 C 
BRANCH  13  17
ATOM     17  C   UNL     1      93.283  31.137  14.775  1.00  0.00     0.066 CG0
ATOM     18  G   UNL     1      92.581  31.405  13.465  1.00  0.00     0.000 G0
ENDBRANCH  13  17
ENDBRANCH  11  13
ENDBRANCH  10  11
ENDBRANCH   1  10
TORSDOF 0
ENDMDL
MODEL 8
REMARK VINA RESULT:    -0.432      2.331      3.004
REMARK INTER + INTRA:          -0.147
REMARK INTER:                  -0.611
REMARK INTRA:                   0.463
REMARK UNBOUND:                 0.461
REMARK SMILES CC1=CCC(=C(C)C)C(=O)CC(C)=CCC1
REMARK SMILES IDX 12 1 14 2 13 3 15 4 16 5 2 6 1 7 3 8 11 10 9 11 10 12 5 13
REMARK SMILES IDX 6 14 7 15 8 16 4 17
REMARK H PARENT
REMARK Flexibility Score: 60.00
ROOT
ATOM      1  C   UNL     1      89.482  29.096  10.566  1.00  0.00    -0.070 C 
ATOM      2  C   UNL     1      89.679  27.920  11.209  1.00  0.00    -0.027 C 
ATOM      3  C   UNL     1      89.690  29.115   9.072  1.00  0.00     0.039 C 
ENDROOT
BRANCH   2   4
ATOM      4  C   UNL     1      89.630  27.697  12.701  1.00  0.00     0.032 C 
BRANCH   4   5
ATOM      5  C   UNL     1      91.016  27.809  13.363  1.00  0.00     0.034 C 
BRANCH   5   6
ATOM      6  C   UNL     1      90.989  28.682  14.603  1.00  0.00    -0.077 C 
ATOM      7  C   UNL     1      90.516  28.071  15.898  1.00  0.00     0.039 C 
ATOM      8  C   UNL     1      91.391  29.972  14.622  1.00  0.00    -0.023 CG0
ATOM      9  G   UNL     1      91.928  30.746  13.441  1.00  0.00     0.000 G0
ENDBRANCH   5   6
ENDBRANCH   4   5
ENDBRANCH   2   4
BRANCH   1  10
ATOM     10  C   UNL     1      89.133  30.395  11.272  1.00  0.00     0.111 C 
BRANCH  10  11
ATOM     11  C   UNL     1      90.354  31.256  11.487  1.00  0.00     0.163 C 
ATOM     12  O   UNL     1      90.950  31.704  10.469  1.00  0.00    -0.294 OA
BRANCH  11  13
ATOM     13  C   UNL     1      90.834  31.624  12.854  1.00  0.00    -0.002 C 
ATOM     14  C   UNL     1      90.356  32.723  13.513  1.00  0.00    -0.069 C 
ATOM     15  C   UNL     1      89.370  33.668  12.865  1.00  0.00     0.039 C 
ATOM     16  C   UNL     1      90.819  33.067  14.912  1.00  0.00     0.039 C 
BRANCH  13  17
ATOM     17  C   UNL     1      91.933  30.765  13.453  1.00  0.00     0.066 CG0
ATOM     18  G   UNL     1      91.388  29.974  14.619  1.00  0.00     0.000 G0
ENDBRANCH  13  17
ENDBRANCH  11  13
ENDBRANCH  10  11
ENDBRANCH   1  10
TORSDOF 0
ENDMDL
MODEL 9
REMARK VINA RESULT:    -0.407      2.236      3.506
REMARK INTER + INTRA:          -0.112
REMARK INTER:                  -0.863
REMARK INTRA:                   0.751
REMARK UNBOUND:                 0.461
REMARK SMILES CC1=CCC(=C(C)C)C(=O)CC(C)=CCC1
REMARK SMILES IDX 12 1 14 2 13 3 15 4 16 5 2 6 1 7 3 8 11 10 9 11 10 12 5 13
REMARK SMILES IDX 6 14 7 15 8 16 4 17
REMARK H PARENT
REMARK Flexibility Score: 60.00
ROOT
ATOM      1  C   UNL     1      89.176  29.776  10.243  1.00  0.00    -0.070 C 
ATOM      2  C   UNL     1      90.377  29.844   9.623  1.00  0.00    -0.027 C 
ATOM      3  C   UNL     1      87.951  29.635   9.373  1.00  0.00     0.039 C 
ENDROOT
BRANCH   2   4
ATOM      4  C   UNL     1      91.713  30.090  10.284  1.00  0.00     0.032 C 
BRANCH   4   5
ATOM      5  C   UNL     1      92.760  29.020   9.920  1.00  0.00     0.034 C 
BRANCH   5   6
ATOM      6  C   UNL     1      92.379  27.647  10.440  1.00  0.00    -0.077 C 
ATOM      7  C   UNL     1      92.538  26.464   9.519  1.00  0.00     0.039 C 
ATOM      8  C   UNL     1      91.929  27.417  11.694  1.00  0.00    -0.023 CG0
ATOM      9  G   UNL     1      91.737  28.462  12.768  1.00  0.00     0.000 G0
ENDBRANCH   5   6
ENDBRANCH   4   5
ENDBRANCH   2   4
BRANCH   1  10
ATOM     10  C   UNL     1      88.993  29.901  11.746  1.00  0.00     0.111 C 
BRANCH  10  11
ATOM     11  C   UNL     1      89.198  28.578  12.442  1.00  0.00     0.163 C 
ATOM     12  O   UNL     1      88.389  27.644  12.189  1.00  0.00    -0.294 OA
BRANCH  11  13
ATOM     13  C   UNL     1      90.347  28.339  13.368  1.00  0.00    -0.002 C 
ATOM     14  C   UNL     1      90.160  28.095  14.700  1.00  0.00    -0.069 C 
ATOM     15  C   UNL     1      88.783  28.127  15.326  1.00  0.00     0.039 C 
ATOM     16  C   UNL     1      91.327  27.816  15.623  1.00  0.00     0.039 C 
BRANCH  13  17
ATOM     17  C   UNL     1      91.742  28.452  12.778  1.00  0.00     0.066 CG0
ATOM     18  G   UNL     1      91.930  27.407  11.703  1.00  0.00     0.000 G0
ENDBRANCH  13  17
ENDBRANCH  11  13
ENDBRANCH  10  11
ENDBRANCH   1  10
TORSDOF 0
ENDMDL
