MODEL 1
REMARK VINA RESULT:    -4.931      0.000      0.000
REMARK INTER + INTRA:          -5.471
REMARK INTER:                  -5.364
REMARK INTRA:                  -0.107
REMARK UNBOUND:                -0.107
REMARK SMILES C=C(C)[C@H]1CC=C(C)[C@@H](O)C1
REMARK SMILES IDX 8 1 7 2 6 3 5 4 4 5 11 6 9 7 10 8 2 10 1 11 3 12
REMARK H PARENT 10 9
REMARK Flexibility Score: inf
ROOT
ATOM      1  C   UNL     1      -2.376  21.875  50.327  1.00  0.00     0.042 C 
ATOM      2  C   UNL     1      -1.907  20.748  49.449  1.00  0.00    -0.049 C 
ATOM      3  C   UNL     1      -0.599  20.611  49.175  1.00  0.00    -0.025 C 
ATOM      4  C   UNL     1      -0.135  19.452  48.338  1.00  0.00     0.035 C 
ATOM      5  C   UNL     1      -0.809  18.146  48.816  1.00  0.00     0.021 C 
ATOM      6  C   UNL     1      -2.343  18.298  49.087  1.00  0.00     0.044 C 
ATOM      7  C   UNL     1      -2.885  19.732  48.891  1.00  0.00     0.140 C 
ENDROOT
BRANCH   7   8
ATOM      8  O   UNL     1      -3.087  19.970  47.523  1.00  0.00    -0.389 OA
ATOM      9  H   UNL     1      -2.563  19.283  47.033  1.00  0.00     0.211 HD
ENDBRANCH   7   8
BRANCH   5  10
ATOM     10  C   UNL     1      -0.512  17.000  47.858  1.00  0.00    -0.077 C 
ATOM     11  C   UNL     1      -1.270  15.891  47.851  1.00  0.00     0.008 C 
ATOM     12  C   UNL     1       0.644  17.093  46.896  1.00  0.00     0.039 C 
ENDBRANCH   5  10
TORSDOF 2
ENDMDL
MODEL 2
REMARK VINA RESULT:    -4.854      1.896      4.721
REMARK INTER + INTRA:          -5.387
REMARK INTER:                  -5.256
REMARK INTRA:                  -0.131
REMARK UNBOUND:                -0.107
REMARK SMILES C=C(C)[C@H]1CC=C(C)[C@@H](O)C1
REMARK SMILES IDX 8 1 7 2 6 3 5 4 4 5 11 6 9 7 10 8 2 10 1 11 3 12
REMARK H PARENT 10 9
REMARK Flexibility Score: inf
ROOT
ATOM      1  C   UNL     1       1.559  15.876  45.491  1.00  0.00     0.042 C 
ATOM      2  C   UNL     1       0.299  16.412  46.113  1.00  0.00    -0.049 C 
ATOM      3  C   UNL     1      -0.126  15.930  47.292  1.00  0.00    -0.025 C 
ATOM      4  C   UNL     1      -1.359  16.507  47.928  1.00  0.00     0.035 C 
ATOM      5  C   UNL     1      -1.314  18.052  47.869  1.00  0.00     0.021 C 
ATOM      6  C   UNL     1      -0.866  18.610  46.478  1.00  0.00     0.044 C 
ATOM      7  C   UNL     1      -0.489  17.524  45.447  1.00  0.00     0.140 C 
ENDROOT
BRANCH   7   8
ATOM      8  O   UNL     1      -1.659  16.999  44.875  1.00  0.00    -0.389 OA
ATOM      9  H   UNL     1      -2.386  17.646  45.070  1.00  0.00     0.211 HD
ENDBRANCH   7   8
BRANCH   5  10
ATOM     10  C   UNL     1      -2.640  18.649  48.321  1.00  0.00    -0.077 C 
ATOM     11  C   UNL     1      -2.676  19.765  49.068  1.00  0.00     0.008 C 
ATOM     12  C   UNL     1      -3.941  17.994  47.937  1.00  0.00     0.039 C 
ENDBRANCH   5  10
TORSDOF 2
ENDMDL
MODEL 3
REMARK VINA RESULT:    -4.820      1.870      3.036
REMARK INTER + INTRA:          -5.350
REMARK INTER:                  -5.200
REMARK INTRA:                  -0.150
REMARK UNBOUND:                -0.107
REMARK SMILES C=C(C)[C@H]1CC=C(C)[C@@H](O)C1
REMARK SMILES IDX 8 1 7 2 6 3 5 4 4 5 11 6 9 7 10 8 2 10 1 11 3 12
REMARK H PARENT 10 9
REMARK Flexibility Score: inf
ROOT
ATOM      1  C   UNL     1      -2.731  18.734  49.241  1.00  0.00     0.042 C 
ATOM      2  C   UNL     1      -1.913  18.192  48.102  1.00  0.00    -0.049 C 
ATOM      3  C   UNL     1      -0.873  18.897  47.626  1.00  0.00    -0.025 C 
ATOM      4  C   UNL     1      -0.032  18.324  46.521  1.00  0.00     0.035 C 
ATOM      5  C   UNL     1       0.306  16.845  46.822  1.00  0.00     0.021 C 
ATOM      6  C   UNL     1      -0.919  16.015  47.329  1.00  0.00     0.044 C 
ATOM      7  C   UNL     1      -2.218  16.835  47.498  1.00  0.00     0.140 C 
ENDROOT
BRANCH   7   8
ATOM      8  O   UNL     1      -2.829  17.001  46.244  1.00  0.00    -0.389 OA
ATOM      9  H   UNL     1      -3.642  16.431  46.246  1.00  0.00     0.211 HD
ENDBRANCH   7   8
BRANCH   5  10
ATOM     10  C   UNL     1       0.981  16.190  45.625  1.00  0.00    -0.077 C 
ATOM     11  C   UNL     1       2.289  15.880  45.653  1.00  0.00     0.008 C 
ATOM     12  C   UNL     1       0.190  15.875  44.382  1.00  0.00     0.039 C 
ENDBRANCH   5  10
TORSDOF 2
ENDMDL
MODEL 4
REMARK VINA RESULT:    -4.796      1.236      4.424
REMARK INTER + INTRA:          -5.323
REMARK INTER:                  -5.170
REMARK INTRA:                  -0.153
REMARK UNBOUND:                -0.107
REMARK SMILES C=C(C)[C@H]1CC=C(C)[C@@H](O)C1
REMARK SMILES IDX 8 1 7 2 6 3 5 4 4 5 11 6 9 7 10 8 2 10 1 11 3 12
REMARK H PARENT 10 9
REMARK Flexibility Score: inf
ROOT
ATOM      1  C   UNL     1      -1.269  15.875  47.804  1.00  0.00     0.042 C 
ATOM      2  C   UNL     1      -1.572  17.341  47.940  1.00  0.00    -0.049 C 
ATOM      3  C   UNL     1      -2.703  17.740  48.545  1.00  0.00    -0.025 C 
ATOM      4  C   UNL     1      -2.972  19.208  48.720  1.00  0.00     0.035 C 
ATOM      5  C   UNL     1      -1.704  19.924  49.241  1.00  0.00     0.021 C 
ATOM      6  C   UNL     1      -0.396  19.492  48.499  1.00  0.00     0.044 C 
ATOM      7  C   UNL     1      -0.600  18.390  47.436  1.00  0.00     0.140 C 
ENDROOT
BRANCH   7   8
ATOM      8  O   UNL     1      -1.095  18.969  46.256  1.00  0.00    -0.389 OA
ATOM      9  H   UNL     1      -1.963  18.525  46.065  1.00  0.00     0.211 HD
ENDBRANCH   7   8
BRANCH   5  10
ATOM     10  C   UNL     1      -1.892  21.435  49.230  1.00  0.00    -0.077 C 
ATOM     11  C   UNL     1      -1.470  22.176  48.193  1.00  0.00     0.008 C 
ATOM     12  C   UNL     1      -2.558  22.127  50.391  1.00  0.00     0.039 C 
ENDBRANCH   5  10
TORSDOF 2
ENDMDL
MODEL 5
REMARK VINA RESULT:    -4.566      1.474      4.109
REMARK INTER + INTRA:          -5.074
REMARK INTER:                  -4.968
REMARK INTRA:                  -0.105
REMARK UNBOUND:                -0.107
REMARK SMILES C=C(C)[C@H]1CC=C(C)[C@@H](O)C1
REMARK SMILES IDX 8 1 7 2 6 3 5 4 4 5 11 6 9 7 10 8 2 10 1 11 3 12
REMARK H PARENT 10 9
REMARK Flexibility Score: inf
ROOT
ATOM      1  C   UNL     1      -1.883  16.307  46.309  1.00  0.00     0.042 C 
ATOM      2  C   UNL     1      -1.660  17.362  47.356  1.00  0.00    -0.049 C 
ATOM      3  C   UNL     1      -0.487  18.013  47.415  1.00  0.00    -0.025 C 
ATOM      4  C   UNL     1      -0.292  19.100  48.434  1.00  0.00     0.035 C 
ATOM      5  C   UNL     1      -1.523  20.036  48.455  1.00  0.00     0.021 C 
ATOM      6  C   UNL     1      -2.888  19.272  48.436  1.00  0.00     0.044 C 
ATOM      7  C   UNL     1      -2.757  17.736  48.334  1.00  0.00     0.140 C 
ENDROOT
BRANCH   7   8
ATOM      8  O   UNL     1      -2.462  17.209  49.602  1.00  0.00    -0.389 OA
ATOM      9  H   UNL     1      -2.027  17.937  50.119  1.00  0.00     0.211 HD
ENDBRANCH   7   8
BRANCH   5  10
ATOM     10  C   UNL     1      -1.437  21.018  49.616  1.00  0.00    -0.077 C 
ATOM     11  C   UNL     1      -2.507  21.737  49.993  1.00  0.00     0.008 C 
ATOM     12  C   UNL     1      -0.142  21.201  50.364  1.00  0.00     0.039 C 
ENDBRANCH   5  10
TORSDOF 2
ENDMDL
MODEL 6
REMARK VINA RESULT:    -4.528      1.801      2.767
REMARK INTER + INTRA:          -5.032
REMARK INTER:                  -4.880
REMARK INTRA:                  -0.153
REMARK UNBOUND:                -0.107
REMARK SMILES C=C(C)[C@H]1CC=C(C)[C@@H](O)C1
REMARK SMILES IDX 8 1 7 2 6 3 5 4 4 5 11 6 9 7 10 8 2 10 1 11 3 12
REMARK H PARENT 10 9
REMARK Flexibility Score: inf
ROOT
ATOM      1  C   UNL     1      -2.694  20.242  49.240  1.00  0.00     0.042 C 
ATOM      2  C   UNL     1      -1.775  19.280  48.540  1.00  0.00    -0.049 C 
ATOM      3  C   UNL     1      -1.972  17.956  48.660  1.00  0.00    -0.025 C 
ATOM      4  C   UNL     1      -1.078  17.004  47.917  1.00  0.00     0.035 C 
ATOM      5  C   UNL     1      -0.899  17.474  46.454  1.00  0.00     0.021 C 
ATOM      6  C   UNL     1      -0.622  19.008  46.322  1.00  0.00     0.044 C 
ATOM      7  C   UNL     1      -0.643  19.777  47.662  1.00  0.00     0.140 C 
ENDROOT
BRANCH   7   8
ATOM      8  O   UNL     1       0.583  19.597  48.321  1.00  0.00    -0.389 OA
ATOM      9  H   UNL     1       1.293  19.693  47.634  1.00  0.00     0.211 HD
ENDBRANCH   7   8
BRANCH   5  10
ATOM     10  C   UNL     1       0.160  16.641  45.744  1.00  0.00    -0.077 C 
ATOM     11  C   UNL     1       1.400  16.526  46.246  1.00  0.00     0.008 C 
ATOM     12  C   UNL     1      -0.169  15.928  44.458  1.00  0.00     0.039 C 
ENDBRANCH   5  10
TORSDOF 2
ENDMDL
MODEL 7
REMARK VINA RESULT:    -4.523      3.556      5.608
REMARK INTER + INTRA:          -5.027
REMARK INTER:                  -4.878
REMARK INTRA:                  -0.149
REMARK UNBOUND:                -0.107
REMARK SMILES C=C(C)[C@H]1CC=C(C)[C@@H](O)C1
REMARK SMILES IDX 8 1 7 2 6 3 5 4 4 5 11 6 9 7 10 8 2 10 1 11 3 12
REMARK H PARENT 10 9
REMARK Flexibility Score: inf
ROOT
ATOM      1  C   UNL     1      -2.385  25.632  54.125  1.00  0.00     0.042 C 
ATOM      2  C   UNL     1      -2.139  24.856  52.861  1.00  0.00    -0.049 C 
ATOM      3  C   UNL     1      -1.039  24.094  52.745  1.00  0.00    -0.025 C 
ATOM      4  C   UNL     1      -0.827  23.284  51.497  1.00  0.00     0.035 C 
ATOM      5  C   UNL     1      -2.133  22.552  51.109  1.00  0.00     0.021 C 
ATOM      6  C   UNL     1      -3.405  23.458  51.199  1.00  0.00     0.044 C 
ATOM      7  C   UNL     1      -3.135  24.888  51.718  1.00  0.00     0.140 C 
ENDROOT
BRANCH   7   8
ATOM      8  O   UNL     1      -2.629  25.675  50.670  1.00  0.00    -0.389 OA
ATOM      9  H   UNL     1      -1.857  25.181  50.290  1.00  0.00     0.211 HD
ENDBRANCH   7   8
BRANCH   5  10
ATOM     10  C   UNL     1      -1.999  21.893  49.743  1.00  0.00    -0.077 C 
ATOM     11  C   UNL     1      -1.547  22.584  48.684  1.00  0.00     0.008 C 
ATOM     12  C   UNL     1      -2.374  20.445  49.556  1.00  0.00     0.039 C 
ENDBRANCH   5  10
TORSDOF 2
ENDMDL
MODEL 8
REMARK VINA RESULT:    -4.490      2.661      3.819
REMARK INTER + INTRA:          -4.991
REMARK INTER:                  -4.865
REMARK INTRA:                  -0.126
REMARK UNBOUND:                -0.107
REMARK SMILES C=C(C)[C@H]1CC=C(C)[C@@H](O)C1
REMARK SMILES IDX 8 1 7 2 6 3 5 4 4 5 11 6 9 7 10 8 2 10 1 11 3 12
REMARK H PARENT 10 9
REMARK Flexibility Score: inf
ROOT
ATOM      1  C   UNL     1      -3.407  17.762  48.018  1.00  0.00     0.042 C 
ATOM      2  C   UNL     1      -2.014  17.251  47.774  1.00  0.00    -0.049 C 
ATOM      3  C   UNL     1      -1.771  16.430  46.739  1.00  0.00    -0.025 C 
ATOM      4  C   UNL     1      -0.367  15.966  46.475  1.00  0.00     0.035 C 
ATOM      5  C   UNL     1       0.614  17.158  46.565  1.00  0.00     0.021 C 
ATOM      6  C   UNL     1       0.359  18.084  47.799  1.00  0.00     0.044 C 
ATOM      7  C   UNL     1      -0.858  17.678  48.660  1.00  0.00     0.140 C 
ENDROOT
BRANCH   7   8
ATOM      8  O   UNL     1      -0.496  16.620  49.509  1.00  0.00    -0.389 OA
ATOM      9  H   UNL     1      -1.334  16.289  49.925  1.00  0.00     0.211 HD
ENDBRANCH   7   8
BRANCH   5  10
ATOM     10  C   UNL     1       2.058  16.677  46.503  1.00  0.00    -0.077 C 
ATOM     11  C   UNL     1       2.477  15.875  45.509  1.00  0.00     0.008 C 
ATOM     12  C   UNL     1       3.046  17.095  47.561  1.00  0.00     0.039 C 
ENDBRANCH   5  10
TORSDOF 2
ENDMDL
MODEL 9
REMARK VINA RESULT:    -4.376      1.856      4.397
REMARK INTER + INTRA:          -4.867
REMARK INTER:                  -4.742
REMARK INTRA:                  -0.125
REMARK UNBOUND:                -0.107
REMARK SMILES C=C(C)[C@H]1CC=C(C)[C@@H](O)C1
REMARK SMILES IDX 8 1 7 2 6 3 5 4 4 5 11 6 9 7 10 8 2 10 1 11 3 12
REMARK H PARENT 10 9
REMARK Flexibility Score: inf
ROOT
ATOM      1  C   UNL     1       2.496  16.567  46.463  1.00  0.00     0.042 C 
ATOM      2  C   UNL     1       1.117  17.135  46.655  1.00  0.00    -0.049 C 
ATOM      3  C   UNL     1       0.043  16.445  46.239  1.00  0.00    -0.025 C 
ATOM      4  C   UNL     1      -1.333  16.999  46.481  1.00  0.00     0.035 C 
ATOM      5  C   UNL     1      -1.452  17.515  47.934  1.00  0.00     0.021 C 
ATOM      6  C   UNL     1      -0.220  18.361  48.397  1.00  0.00     0.044 C 
ATOM      7  C   UNL     1       0.910  18.468  47.349  1.00  0.00     0.140 C 
ENDROOT
BRANCH   7   8
ATOM      8  O   UNL     1       0.575  19.448  46.402  1.00  0.00    -0.389 OA
ATOM      9  H   UNL     1       0.960  20.303  46.728  1.00  0.00     0.211 HD
ENDBRANCH   7   8
BRANCH   5  10
ATOM     10  C   UNL     1      -2.763  18.262  48.138  1.00  0.00    -0.077 C 
ATOM     11  C   UNL     1      -3.935  17.708  47.785  1.00  0.00     0.008 C 
ATOM     12  C   UNL     1      -2.768  19.642  48.742  1.00  0.00     0.039 C 
ENDBRANCH   5  10
TORSDOF 2
ENDMDL
