MODEL 1
REMARK VINA RESULT:    -3.200      0.000      0.000
REMARK INTER + INTRA:          -4.104
REMARK INTER:                  -3.948
REMARK INTRA:                  -0.156
REMARK UNBOUND:                -0.156
REMARK SMILES CCCCCC(=O)[O-]
REMARK SMILES IDX 4 1 5 2 6 3 7 4 8 5 3 6 2 7 1 8
REMARK H PARENT
REMARK Flexibility Score: inf
ROOT
ATOM      1  C   UNL     1      31.425   9.253  27.800  1.00  0.00     0.006 C 
ENDROOT
BRANCH   1   2
ATOM      2  C   UNL     1      29.945   9.643  27.751  1.00  0.00     0.053 C 
BRANCH   2   3
ATOM      3  C   UNL     1      29.747  11.019  28.306  1.00  0.00     0.041 C 
ATOM      4  O   UNL     1      30.689  11.602  28.906  1.00  0.00    -0.550 OA
ATOM      5  O   UNL     1      28.508  11.638  28.203  1.00  0.00    -0.550 OA
ENDBRANCH   2   3
ENDBRANCH   1   2
BRANCH   1   6
ATOM      6  C   UNL     1      31.666   8.135  28.821  1.00  0.00     0.000 C 
BRANCH   6   7
ATOM      7  C   UNL     1      30.368   7.380  29.126  1.00  0.00    -0.003 C 
ATOM      8  C   UNL     1      30.477   6.599  30.432  1.00  0.00     0.004 C 
ENDBRANCH   6   7
ENDBRANCH   1   6
TORSDOF 4
ENDMDL
MODEL 2
REMARK VINA RESULT:    -3.181      1.283      1.328
REMARK INTER + INTRA:          -4.081
REMARK INTER:                  -3.950
REMARK INTRA:                  -0.132
REMARK UNBOUND:                -0.156
REMARK SMILES CCCCCC(=O)[O-]
REMARK SMILES IDX 4 1 5 2 6 3 7 4 8 5 3 6 2 7 1 8
REMARK H PARENT
REMARK Flexibility Score: inf
ROOT
ATOM      1  C   UNL     1      30.996   9.408  27.902  1.00  0.00     0.006 C 
ENDROOT
BRANCH   1   2
ATOM      2  C   UNL     1      30.335  10.530  28.707  1.00  0.00     0.053 C 
BRANCH   2   3
ATOM      3  C   UNL     1      29.012  10.895  28.110  1.00  0.00     0.041 C 
ATOM      4  O   UNL     1      28.899  11.041  26.864  1.00  0.00    -0.550 OA
ATOM      5  O   UNL     1      27.917  11.123  28.932  1.00  0.00    -0.550 OA
ENDBRANCH   2   3
ENDBRANCH   1   2
BRANCH   1   6
ATOM      6  C   UNL     1      30.563   8.031  28.418  1.00  0.00     0.000 C 
BRANCH   6   7
ATOM      7  C   UNL     1      31.159   7.750  29.801  1.00  0.00    -0.003 C 
ATOM      8  C   UNL     1      30.435   6.599  30.491  1.00  0.00     0.004 C 
ENDBRANCH   6   7
ENDBRANCH   1   6
TORSDOF 4
ENDMDL
MODEL 3
REMARK VINA RESULT:    -3.163      1.688      2.213
REMARK INTER + INTRA:          -4.059
REMARK INTER:                  -3.877
REMARK INTRA:                  -0.182
REMARK UNBOUND:                -0.156
REMARK SMILES CCCCCC(=O)[O-]
REMARK SMILES IDX 4 1 5 2 6 3 7 4 8 5 3 6 2 7 1 8
REMARK H PARENT
REMARK Flexibility Score: inf
ROOT
ATOM      1  C   UNL     1      30.394   9.446  29.567  1.00  0.00     0.006 C 
ENDROOT
BRANCH   1   2
ATOM      2  C   UNL     1      30.287  10.835  28.930  1.00  0.00     0.053 C 
BRANCH   2   3
ATOM      3  C   UNL     1      28.949  11.013  28.284  1.00  0.00     0.041 C 
ATOM      4  O   UNL     1      27.912  11.119  28.992  1.00  0.00    -0.550 OA
ATOM      5  O   UNL     1      28.840  11.013  26.900  1.00  0.00    -0.550 OA
ENDBRANCH   2   3
ENDBRANCH   1   2
BRANCH   1   6
ATOM      6  C   UNL     1      30.777   8.390  28.524  1.00  0.00     0.000 C 
BRANCH   6   7
ATOM      7  C   UNL     1      32.141   8.704  27.899  1.00  0.00    -0.003 C 
ATOM      8  C   UNL     1      33.262   8.566  28.925  1.00  0.00     0.004 C 
ENDBRANCH   6   7
ENDBRANCH   1   6
TORSDOF 4
ENDMDL
MODEL 4
REMARK VINA RESULT:    -3.066      2.685      3.231
REMARK INTER + INTRA:          -3.940
REMARK INTER:                  -3.723
REMARK INTRA:                  -0.217
REMARK UNBOUND:                -0.156
REMARK SMILES CCCCCC(=O)[O-]
REMARK SMILES IDX 4 1 5 2 6 3 7 4 8 5 3 6 2 7 1 8
REMARK H PARENT
REMARK Flexibility Score: inf
ROOT
ATOM      1  C   UNL     1      30.357   8.600  29.586  1.00  0.00     0.006 C 
ENDROOT
BRANCH   1   2
ATOM      2  C   UNL     1      31.159   9.285  28.476  1.00  0.00     0.053 C 
BRANCH   2   3
ATOM      3  C   UNL     1      32.484   8.611  28.295  1.00  0.00     0.041 C 
ATOM      4  O   UNL     1      32.716   7.939  27.256  1.00  0.00    -0.550 OA
ATOM      5  O   UNL     1      33.443   8.684  29.297  1.00  0.00    -0.550 OA
ENDBRANCH   2   3
ENDBRANCH   1   2
BRANCH   1   6
ATOM      6  C   UNL     1      30.170   7.108  29.289  1.00  0.00     0.000 C 
BRANCH   6   7
ATOM      7  C   UNL     1      30.392   6.264  30.549  1.00  0.00    -0.003 C 
ATOM      8  C   UNL     1      31.230   7.017  31.577  1.00  0.00     0.004 C 
ENDBRANCH   6   7
ENDBRANCH   1   6
TORSDOF 4
ENDMDL
MODEL 5
REMARK VINA RESULT:    -3.066      9.396     10.139
REMARK INTER + INTRA:          -3.939
REMARK INTER:                  -3.724
REMARK INTRA:                  -0.215
REMARK UNBOUND:                -0.156
REMARK SMILES CCCCCC(=O)[O-]
REMARK SMILES IDX 4 1 5 2 6 3 7 4 8 5 3 6 2 7 1 8
REMARK H PARENT
REMARK Flexibility Score: inf
ROOT
ATOM      1  C   UNL     1      22.749   4.889  26.570  1.00  0.00     0.006 C 
ENDROOT
BRANCH   1   2
ATOM      2  C   UNL     1      21.699   4.045  25.840  1.00  0.00     0.053 C 
BRANCH   2   3
ATOM      3  C   UNL     1      22.211   3.616  24.500  1.00  0.00     0.041 C 
ATOM      4  O   UNL     1      22.506   2.410  24.291  1.00  0.00    -0.550 OA
ATOM      5  O   UNL     1      22.407   4.557  23.498  1.00  0.00    -0.550 OA
ENDBRANCH   2   3
ENDBRANCH   1   2
BRANCH   1   6
ATOM      6  C   UNL     1      23.283   4.155  27.805  1.00  0.00     0.000 C 
BRANCH   6   7
ATOM      7  C   UNL     1      24.452   3.236  27.436  1.00  0.00    -0.003 C 
ATOM      8  C   UNL     1      24.051   1.767  27.533  1.00  0.00     0.004 C 
ENDBRANCH   6   7
ENDBRANCH   1   6
TORSDOF 4
ENDMDL
MODEL 6
REMARK VINA RESULT:    -3.027      3.294      4.189
REMARK INTER + INTRA:          -3.891
REMARK INTER:                  -3.685
REMARK INTRA:                  -0.206
REMARK UNBOUND:                -0.156
REMARK SMILES CCCCCC(=O)[O-]
REMARK SMILES IDX 4 1 5 2 6 3 7 4 8 5 3 6 2 7 1 8
REMARK H PARENT
REMARK Flexibility Score: inf
ROOT
ATOM      1  C   UNL     1      30.770   8.078  28.573  1.00  0.00     0.006 C 
ENDROOT
BRANCH   1   2
ATOM      2  C   UNL     1      30.036   7.901  29.906  1.00  0.00     0.053 C 
BRANCH   2   3
ATOM      3  C   UNL     1      30.591   6.731  30.658  1.00  0.00     0.041 C 
ATOM      4  O   UNL     1      31.453   6.909  31.559  1.00  0.00    -0.550 OA
ATOM      5  O   UNL     1      30.192   5.442  30.330  1.00  0.00    -0.550 OA
ENDBRANCH   2   3
ENDBRANCH   1   2
BRANCH   1   6
ATOM      6  C   UNL     1      31.869   9.140  28.688  1.00  0.00     0.000 C 
BRANCH   6   7
ATOM      7  C   UNL     1      33.252   8.491  28.810  1.00  0.00    -0.003 C 
ATOM      8  C   UNL     1      34.065   9.131  29.931  1.00  0.00     0.004 C 
ENDBRANCH   6   7
ENDBRANCH   1   6
TORSDOF 4
ENDMDL
MODEL 7
REMARK VINA RESULT:    -3.020      9.698     10.519
REMARK INTER + INTRA:          -3.882
REMARK INTER:                  -3.768
REMARK INTRA:                  -0.114
REMARK UNBOUND:                -0.156
REMARK SMILES CCCCCC(=O)[O-]
REMARK SMILES IDX 4 1 5 2 6 3 7 4 8 5 3 6 2 7 1 8
REMARK H PARENT
REMARK Flexibility Score: inf
ROOT
ATOM      1  C   UNL     1      30.187  16.011  21.924  1.00  0.00     0.006 C 
ENDROOT
BRANCH   1   2
ATOM      2  C   UNL     1      28.788  16.634  21.940  1.00  0.00     0.053 C 
BRANCH   2   3
ATOM      3  C   UNL     1      28.215  16.672  20.558  1.00  0.00     0.041 C 
ATOM      4  O   UNL     1      28.904  17.109  19.598  1.00  0.00    -0.550 OA
ATOM      5  O   UNL     1      26.904  16.271  20.338  1.00  0.00    -0.550 OA
ENDBRANCH   2   3
ENDBRANCH   1   2
BRANCH   1   6
ATOM      6  C   UNL     1      30.954  16.350  23.208  1.00  0.00     0.000 C 
BRANCH   6   7
ATOM      7  C   UNL     1      30.262  17.478  23.981  1.00  0.00    -0.003 C 
ATOM      8  C   UNL     1      31.065  18.772  23.905  1.00  0.00     0.004 C 
ENDBRANCH   6   7
ENDBRANCH   1   6
TORSDOF 4
ENDMDL
MODEL 8
REMARK VINA RESULT:    -3.017      2.490      3.860
REMARK INTER + INTRA:          -3.879
REMARK INTER:                  -3.724
REMARK INTRA:                  -0.155
REMARK UNBOUND:                -0.156
REMARK SMILES CCCCCC(=O)[O-]
REMARK SMILES IDX 4 1 5 2 6 3 7 4 8 5 3 6 2 7 1 8
REMARK H PARENT
REMARK Flexibility Score: inf
ROOT
ATOM      1  C   UNL     1      29.542  10.384  27.551  1.00  0.00     0.006 C 
ENDROOT
BRANCH   1   2
ATOM      2  C   UNL     1      30.732  10.047  28.454  1.00  0.00     0.053 C 
BRANCH   2   3
ATOM      3  C   UNL     1      31.178   8.636  28.227  1.00  0.00     0.041 C 
ATOM      4  O   UNL     1      32.345   8.397  27.818  1.00  0.00    -0.550 OA
ATOM      5  O   UNL     1      30.288   7.587  28.421  1.00  0.00    -0.550 OA
ENDBRANCH   2   3
ENDBRANCH   1   2
BRANCH   1   6
ATOM      6  C   UNL     1      28.458  11.139  28.330  1.00  0.00     0.000 C 
BRANCH   6   7
ATOM      7  C   UNL     1      28.606  10.912  29.839  1.00  0.00    -0.003 C 
ATOM      8  C   UNL     1      27.871  11.986  30.633  1.00  0.00     0.004 C 
ENDBRANCH   6   7
ENDBRANCH   1   6
TORSDOF 4
ENDMDL
MODEL 9
REMARK VINA RESULT:    -2.960      2.779      4.040
REMARK INTER + INTRA:          -3.808
REMARK INTER:                  -3.668
REMARK INTRA:                  -0.139
REMARK UNBOUND:                -0.156
REMARK SMILES CCCCCC(=O)[O-]
REMARK SMILES IDX 4 1 5 2 6 3 7 4 8 5 3 6 2 7 1 8
REMARK H PARENT
REMARK Flexibility Score: inf
ROOT
ATOM      1  C   UNL     1      30.398   9.277  29.151  1.00  0.00     0.006 C 
ENDROOT
BRANCH   1   2
ATOM      2  C   UNL     1      31.580   8.524  29.767  1.00  0.00     0.053 C 
BRANCH   2   3
ATOM      3  C   UNL     1      32.722   8.460  28.801  1.00  0.00     0.041 C 
ATOM      4  O   UNL     1      33.881   8.787  29.169  1.00  0.00    -0.550 OA
ATOM      5  O   UNL     1      32.496   8.088  27.483  1.00  0.00    -0.550 OA
ENDBRANCH   2   3
ENDBRANCH   1   2
BRANCH   1   6
ATOM      6  C   UNL     1      30.694  10.778  29.051  1.00  0.00     0.000 C 
BRANCH   6   7
ATOM      7  C   UNL     1      29.499  11.537  28.466  1.00  0.00    -0.003 C 
ATOM      8  C   UNL     1      28.938  10.824  27.240  1.00  0.00     0.004 C 
ENDBRANCH   6   7
ENDBRANCH   1   6
TORSDOF 4
ENDMDL
