MODEL 1
REMARK VINA RESULT:    -7.246      0.000      0.000
REMARK INTER + INTRA:          -8.117
REMARK INTER:                  -7.882
REMARK INTRA:                  -0.235
REMARK UNBOUND:                -0.235
REMARK SMILES CC(=O)[C@@H]1CC[C@@H]2[C@H]3CC=C4C[C@H](O)CC[C@@]4(C)[C@H]3CC[C@@]21C
REMARK SMILES IDX 4 1 5 2 6 3 7 4 22 5 21 6 20 7 19 8 8 9 9 10 10 11 11 12
REMARK SMILES IDX 17 13 16 14 15 15 13 16 12 17 18 18 23 19 2 20 1 21 3 22
REMARK SMILES IDX 14 23
REMARK H PARENT 14 24
REMARK Flexibility Score: inf
ROOT
ATOM      1  C   UNL     1     115.885 120.423 132.347  1.00  0.00     0.062 C 
ATOM      2  C   UNL     1     116.983 120.797 133.351  1.00  0.00     0.012 C 
ATOM      3  C   UNL     1     118.152 121.344 132.537  1.00  0.00     0.005 C 
ATOM      4  C   UNL     1     117.729 121.278 131.062  1.00  0.00    -0.001 C 
ATOM      5  C   UNL     1     116.181 121.284 131.082  1.00  0.00    -0.020 C 
ATOM      6  C   UNL     1     115.646 122.737 131.231  1.00  0.00     0.008 C 
ATOM      7  C   UNL     1     116.257 123.721 130.228  1.00  0.00     0.005 C 
ATOM      8  C   UNL     1     117.799 123.792 130.345  1.00  0.00     0.003 C 
ATOM      9  C   UNL     1     118.422 122.372 130.191  1.00  0.00     0.000 C 
ATOM     10  C   UNL     1     118.602 121.914 128.708  1.00  0.00     0.031 C 
ATOM     11  C   UNL     1     118.303 122.957 127.659  1.00  0.00    -0.027 C 
ATOM     12  C   UNL     1     118.270 124.280 127.913  1.00  0.00    -0.065 C 
ATOM     13  C   UNL     1     118.467 124.799 129.331  1.00  0.00    -0.008 C 
ATOM     14  C   UNL     1     117.846 126.226 129.444  1.00  0.00     0.014 C 
ATOM     15  C   UNL     1     118.370 127.218 128.382  1.00  0.00     0.033 C 
ATOM     16  C   UNL     1     118.545 126.603 126.967  1.00  0.00     0.118 C 
ATOM     17  C   UNL     1     117.859 125.236 126.813  1.00  0.00     0.063 C 
ATOM     18  C   UNL     1     119.990 124.902 129.630  1.00  0.00     0.016 C 
ATOM     19  C   UNL     1     115.582 120.607 129.826  1.00  0.00     0.012 C 
ENDROOT
BRANCH   1  20
ATOM     20  C   UNL     1     114.483 120.504 132.942  1.00  0.00     0.133 C 
ATOM     21  C   UNL     1     114.242 121.134 134.285  1.00  0.00     0.088 C 
ATOM     22  O   UNL     1     113.540 119.957 132.392  1.00  0.00    -0.300 OA
ENDBRANCH   1  20
BRANCH  16  23
ATOM     23  O   UNL     1     119.909 126.466 126.658  1.00  0.00    -0.393 OA
ATOM     24  H   UNL     1     120.051 126.908 125.780  1.00  0.00     0.210 HD
ENDBRANCH  16  23
TORSDOF 2
ENDMDL
MODEL 2
REMARK VINA RESULT:    -6.969      2.247      4.082
REMARK INTER + INTRA:          -7.815
REMARK INTER:                  -7.675
REMARK INTRA:                  -0.141
REMARK UNBOUND:                -0.235
REMARK SMILES CC(=O)[C@@H]1CC[C@@H]2[C@H]3CC=C4C[C@H](O)CC[C@@]4(C)[C@H]3CC[C@@]21C
REMARK SMILES IDX 4 1 5 2 6 3 7 4 22 5 21 6 20 7 19 8 8 9 9 10 10 11 11 12
REMARK SMILES IDX 17 13 16 14 15 15 13 16 12 17 18 18 23 19 2 20 1 21 3 22
REMARK SMILES IDX 14 23
REMARK H PARENT 14 24
REMARK Flexibility Score: inf
ROOT
ATOM      1  C   UNL     1     114.924 120.169 128.379  1.00  0.00     0.062 C 
ATOM      2  C   UNL     1     114.036 120.804 127.300  1.00  0.00     0.012 C 
ATOM      3  C   UNL     1     114.032 122.306 127.566  1.00  0.00     0.005 C 
ATOM      4  C   UNL     1     114.912 122.536 128.804  1.00  0.00    -0.001 C 
ATOM      5  C   UNL     1     115.864 121.316 128.858  1.00  0.00    -0.020 C 
ATOM      6  C   UNL     1     117.066 121.523 127.893  1.00  0.00     0.008 C 
ATOM      7  C   UNL     1     117.773 122.869 128.074  1.00  0.00     0.005 C 
ATOM      8  C   UNL     1     116.815 124.066 127.864  1.00  0.00     0.003 C 
ATOM      9  C   UNL     1     115.581 123.946 128.810  1.00  0.00     0.000 C 
ATOM     10  C   UNL     1     115.838 124.467 130.260  1.00  0.00     0.031 C 
ATOM     11  C   UNL     1     117.167 125.146 130.486  1.00  0.00    -0.027 C 
ATOM     12  C   UNL     1     117.928 125.643 129.491  1.00  0.00    -0.065 C 
ATOM     13  C   UNL     1     117.507 125.473 128.038  1.00  0.00    -0.008 C 
ATOM     14  C   UNL     1     118.761 125.614 127.122  1.00  0.00     0.014 C 
ATOM     15  C   UNL     1     119.554 126.920 127.349  1.00  0.00     0.033 C 
ATOM     16  C   UNL     1     119.682 127.335 128.840  1.00  0.00     0.118 C 
ATOM     17  C   UNL     1     119.292 126.214 129.815  1.00  0.00     0.063 C 
ATOM     18  C   UNL     1     116.498 126.596 127.664  1.00  0.00     0.016 C 
ATOM     19  C   UNL     1     116.360 121.031 130.296  1.00  0.00     0.012 C 
ENDROOT
BRANCH   1  20
ATOM     20  C   UNL     1     115.576 118.868 127.921  1.00  0.00     0.133 C 
ATOM     21  C   UNL     1     115.986 118.663 126.491  1.00  0.00     0.088 C 
ATOM     22  O   UNL     1     115.676 117.920 128.685  1.00  0.00    -0.300 OA
ENDBRANCH   1  20
BRANCH  16  23
ATOM     23  O   UNL     1     118.890 128.465 129.104  1.00  0.00    -0.393 OA
ATOM     24  H   UNL     1     119.219 128.855 129.956  1.00  0.00     0.210 HD
ENDBRANCH  16  23
TORSDOF 2
ENDMDL
MODEL 3
REMARK VINA RESULT:    -6.961      1.428      6.861
REMARK INTER + INTRA:          -7.806
REMARK INTER:                  -7.622
REMARK INTRA:                  -0.184
REMARK UNBOUND:                -0.235
REMARK SMILES CC(=O)[C@@H]1CC[C@@H]2[C@H]3CC=C4C[C@H](O)CC[C@@]4(C)[C@H]3CC[C@@]21C
REMARK SMILES IDX 4 1 5 2 6 3 7 4 22 5 21 6 20 7 19 8 8 9 9 10 10 11 11 12
REMARK SMILES IDX 17 13 16 14 15 15 13 16 12 17 18 18 23 19 2 20 1 21 3 22
REMARK SMILES IDX 14 23
REMARK H PARENT 14 24
REMARK Flexibility Score: inf
ROOT
ATOM      1  C   UNL     1     118.068 125.752 126.916  1.00  0.00     0.062 C 
ATOM      2  C   UNL     1     117.162 126.850 127.488  1.00  0.00     0.012 C 
ATOM      3  C   UNL     1     115.883 126.161 127.955  1.00  0.00     0.005 C 
ATOM      4  C   UNL     1     116.050 124.666 127.644  1.00  0.00    -0.001 C 
ATOM      5  C   UNL     1     117.579 124.432 127.584  1.00  0.00    -0.020 C 
ATOM      6  C   UNL     1     118.157 124.258 129.018  1.00  0.00     0.008 C 
ATOM      7  C   UNL     1     117.404 123.225 129.861  1.00  0.00     0.005 C 
ATOM      8  C   UNL     1     115.906 123.579 130.019  1.00  0.00     0.003 C 
ATOM      9  C   UNL     1     115.240 123.757 128.620  1.00  0.00     0.000 C 
ATOM     10  C   UNL     1     114.804 122.416 127.948  1.00  0.00     0.031 C 
ATOM     11  C   UNL     1     114.941 121.180 128.803  1.00  0.00    -0.027 C 
ATOM     12  C   UNL     1     115.040 121.210 130.147  1.00  0.00    -0.065 C 
ATOM     13  C   UNL     1     115.094 122.541 130.886  1.00  0.00    -0.008 C 
ATOM     14  C   UNL     1     115.751 122.322 132.284  1.00  0.00     0.014 C 
ATOM     15  C   UNL     1     115.073 121.216 133.123  1.00  0.00     0.033 C 
ATOM     16  C   UNL     1     114.651 119.965 132.306  1.00  0.00     0.118 C 
ATOM     17  C   UNL     1     115.276 119.921 130.903  1.00  0.00     0.063 C 
ATOM     18  C   UNL     1     113.646 123.064 131.101  1.00  0.00     0.016 C 
ATOM     19  C   UNL     1     117.946 123.218 126.696  1.00  0.00     0.012 C 
ENDROOT
BRANCH   1  20
ATOM     20  C   UNL     1     119.552 126.089 127.026  1.00  0.00     0.133 C 
ATOM     21  C   UNL     1     120.015 127.368 127.664  1.00  0.00     0.088 C 
ATOM     22  O   UNL     1     120.392 125.379 126.495  1.00  0.00    -0.300 OA
ENDBRANCH   1  20
BRANCH  16  23
ATOM     23  O   UNL     1     113.253 119.909 132.183  1.00  0.00    -0.393 OA
ATOM     24  H   UNL     1     113.055 119.316 131.411  1.00  0.00     0.210 HD
ENDBRANCH  16  23
TORSDOF 2
ENDMDL
MODEL 4
REMARK VINA RESULT:    -6.825      1.441      2.553
REMARK INTER + INTRA:          -7.659
REMARK INTER:                  -7.432
REMARK INTRA:                  -0.227
REMARK UNBOUND:                -0.235
REMARK SMILES CC(=O)[C@@H]1CC[C@@H]2[C@H]3CC=C4C[C@H](O)CC[C@@]4(C)[C@H]3CC[C@@]21C
REMARK SMILES IDX 4 1 5 2 6 3 7 4 22 5 21 6 20 7 19 8 8 9 9 10 10 11 11 12
REMARK SMILES IDX 17 13 16 14 15 15 13 16 12 17 18 18 23 19 2 20 1 21 3 22
REMARK SMILES IDX 14 23
REMARK H PARENT 14 24
REMARK Flexibility Score: inf
ROOT
ATOM      1  C   UNL     1     114.269 120.912 131.552  1.00  0.00     0.062 C 
ATOM      2  C   UNL     1     114.856 119.759 130.728  1.00  0.00     0.012 C 
ATOM      3  C   UNL     1     115.239 120.342 129.371  1.00  0.00     0.005 C 
ATOM      4  C   UNL     1     114.865 121.832 129.412  1.00  0.00    -0.001 C 
ATOM      5  C   UNL     1     114.855 122.207 130.913  1.00  0.00    -0.020 C 
ATOM      6  C   UNL     1     116.301 122.497 131.410  1.00  0.00     0.008 C 
ATOM      7  C   UNL     1     117.064 123.489 130.528  1.00  0.00     0.005 C 
ATOM      8  C   UNL     1     117.178 123.002 129.063  1.00  0.00     0.003 C 
ATOM      9  C   UNL     1     115.765 122.701 128.479  1.00  0.00     0.000 C 
ATOM     10  C   UNL     1     115.013 123.965 127.951  1.00  0.00     0.031 C 
ATOM     11  C   UNL     1     115.814 125.244 127.934  1.00  0.00    -0.027 C 
ATOM     12  C   UNL     1     117.161 125.281 127.976  1.00  0.00    -0.065 C 
ATOM     13  C   UNL     1     117.963 123.995 128.122  1.00  0.00    -0.008 C 
ATOM     14  C   UNL     1     119.374 124.335 128.693  1.00  0.00     0.014 C 
ATOM     15  C   UNL     1     120.133 125.407 127.880  1.00  0.00     0.033 C 
ATOM     16  C   UNL     1     119.242 126.576 127.380  1.00  0.00     0.118 C 
ATOM     17  C   UNL     1     117.864 126.619 128.059  1.00  0.00     0.063 C 
ATOM     18  C   UNL     1     118.145 123.346 126.720  1.00  0.00     0.016 C 
ATOM     19  C   UNL     1     113.926 123.411 131.204  1.00  0.00     0.012 C 
ENDROOT
BRANCH   1  20
ATOM     20  C   UNL     1     114.454 120.722 133.054  1.00  0.00     0.133 C 
ATOM     21  C   UNL     1     115.538 119.837 133.600  1.00  0.00     0.088 C 
ATOM     22  O   UNL     1     113.651 121.196 133.845  1.00  0.00    -0.300 OA
ENDBRANCH   1  20
BRANCH  16  23
ATOM     23  O   UNL     1     119.061 126.494 125.988  1.00  0.00    -0.393 OA
ATOM     24  H   UNL     1     118.351 125.818 125.829  1.00  0.00     0.210 HD
ENDBRANCH  16  23
TORSDOF 2
ENDMDL
MODEL 5
REMARK VINA RESULT:    -6.709      2.932      4.218
REMARK INTER + INTRA:          -7.532
REMARK INTER:                  -7.463
REMARK INTRA:                  -0.069
REMARK UNBOUND:                -0.235
REMARK SMILES CC(=O)[C@@H]1CC[C@@H]2[C@H]3CC=C4C[C@H](O)CC[C@@]4(C)[C@H]3CC[C@@]21C
REMARK SMILES IDX 4 1 5 2 6 3 7 4 22 5 21 6 20 7 19 8 8 9 9 10 10 11 11 12
REMARK SMILES IDX 17 13 16 14 15 15 13 16 12 17 18 18 23 19 2 20 1 21 3 22
REMARK SMILES IDX 14 23
REMARK H PARENT 14 24
REMARK Flexibility Score: inf
ROOT
ATOM      1  C   UNL     1     114.827 122.581 128.386  1.00  0.00     0.062 C 
ATOM      2  C   UNL     1     114.192 122.808 129.763  1.00  0.00     0.012 C 
ATOM      3  C   UNL     1     115.259 123.463 130.635  1.00  0.00     0.005 C 
ATOM      4  C   UNL     1     116.514 123.606 129.760  1.00  0.00    -0.001 C 
ATOM      5  C   UNL     1     115.994 123.611 128.302  1.00  0.00    -0.020 C 
ATOM      6  C   UNL     1     115.489 125.029 127.911  1.00  0.00     0.008 C 
ATOM      7  C   UNL     1     116.495 126.143 128.214  1.00  0.00     0.005 C 
ATOM      8  C   UNL     1     116.875 126.196 129.714  1.00  0.00     0.003 C 
ATOM      9  C   UNL     1     117.409 124.810 130.188  1.00  0.00     0.000 C 
ATOM     10  C   UNL     1     118.917 124.566 129.863  1.00  0.00     0.031 C 
ATOM     11  C   UNL     1     119.665 125.747 129.293  1.00  0.00    -0.027 C 
ATOM     12  C   UNL     1     119.241 127.021 129.405  1.00  0.00    -0.065 C 
ATOM     13  C   UNL     1     117.907 127.335 130.069  1.00  0.00    -0.008 C 
ATOM     14  C   UNL     1     117.412 128.732 129.584  1.00  0.00     0.014 C 
ATOM     15  C   UNL     1     118.443 129.863 129.786  1.00  0.00     0.033 C 
ATOM     16  C   UNL     1     119.908 129.453 129.471  1.00  0.00     0.118 C 
ATOM     17  C   UNL     1     120.012 128.123 128.709  1.00  0.00     0.063 C 
ATOM     18  C   UNL     1     118.106 127.393 131.610  1.00  0.00     0.016 C 
ATOM     19  C   UNL     1     117.067 123.118 127.301  1.00  0.00     0.012 C 
ENDROOT
BRANCH   1  20
ATOM     20  C   UNL     1     113.806 122.580 127.253  1.00  0.00     0.133 C 
ATOM     21  C   UNL     1     113.985 121.708 126.043  1.00  0.00     0.088 C 
ATOM     22  O   UNL     1     112.877 123.373 127.253  1.00  0.00    -0.300 OA
ENDBRANCH   1  20
BRANCH  16  23
ATOM     23  O   UNL     1     120.657 129.359 130.656  1.00  0.00    -0.393 OA
ATOM     24  H   UNL     1     120.881 130.287 130.929  1.00  0.00     0.210 HD
ENDBRANCH  16  23
TORSDOF 2
ENDMDL
MODEL 6
REMARK VINA RESULT:    -6.688      3.123      4.723
REMARK INTER + INTRA:          -7.510
REMARK INTER:                  -7.272
REMARK INTRA:                  -0.238
REMARK UNBOUND:                -0.235
REMARK SMILES CC(=O)[C@@H]1CC[C@@H]2[C@H]3CC=C4C[C@H](O)CC[C@@]4(C)[C@H]3CC[C@@]21C
REMARK SMILES IDX 4 1 5 2 6 3 7 4 22 5 21 6 20 7 19 8 8 9 9 10 10 11 11 12
REMARK SMILES IDX 17 13 16 14 15 15 13 16 12 17 18 18 23 19 2 20 1 21 3 22
REMARK SMILES IDX 14 23
REMARK H PARENT 14 24
REMARK Flexibility Score: inf
ROOT
ATOM      1  C   UNL     1     118.257 120.613 133.871  1.00  0.00     0.062 C 
ATOM      2  C   UNL     1     116.916 120.323 134.558  1.00  0.00     0.012 C 
ATOM      3  C   UNL     1     115.872 121.193 133.865  1.00  0.00     0.005 C 
ATOM      4  C   UNL     1     116.614 121.991 132.781  1.00  0.00    -0.001 C 
ATOM      5  C   UNL     1     117.880 121.160 132.461  1.00  0.00    -0.020 C 
ATOM      6  C   UNL     1     117.539 120.014 131.465  1.00  0.00     0.008 C 
ATOM      7  C   UNL     1     116.777 120.487 130.224  1.00  0.00     0.005 C 
ATOM      8  C   UNL     1     115.443 121.182 130.587  1.00  0.00     0.003 C 
ATOM      9  C   UNL     1     115.696 122.361 131.575  1.00  0.00     0.000 C 
ATOM     10  C   UNL     1     116.144 123.687 130.882  1.00  0.00     0.031 C 
ATOM     11  C   UNL     1     116.112 123.681 129.373  1.00  0.00    -0.027 C 
ATOM     12  C   UNL     1     115.398 122.798 128.647  1.00  0.00    -0.065 C 
ATOM     13  C   UNL     1     114.624 121.681 129.334  1.00  0.00    -0.008 C 
ATOM     14  C   UNL     1     114.376 120.528 128.313  1.00  0.00     0.014 C 
ATOM     15  C   UNL     1     113.696 120.990 127.006  1.00  0.00     0.033 C 
ATOM     16  C   UNL     1     114.212 122.351 126.465  1.00  0.00     0.118 C 
ATOM     17  C   UNL     1     115.515 122.813 127.138  1.00  0.00     0.063 C 
ATOM     18  C   UNL     1     113.245 122.228 129.800  1.00  0.00     0.016 C 
ATOM     19  C   UNL     1     119.027 122.040 131.908  1.00  0.00     0.012 C 
ENDROOT
BRANCH   1  20
ATOM     20  C   UNL     1     119.223 119.435 133.934  1.00  0.00     0.133 C 
ATOM     21  C   UNL     1     118.766 118.074 134.377  1.00  0.00     0.088 C 
ATOM     22  O   UNL     1     120.418 119.598 133.735  1.00  0.00    -0.300 OA
ENDBRANCH   1  20
BRANCH  16  23
ATOM     23  O   UNL     1     113.236 123.347 126.633  1.00  0.00    -0.393 OA
ATOM     24  H   UNL     1     112.811 123.487 125.745  1.00  0.00     0.210 HD
ENDBRANCH  16  23
TORSDOF 2
ENDMDL
MODEL 7
REMARK VINA RESULT:    -6.456      1.890      6.742
REMARK INTER + INTRA:          -7.258
REMARK INTER:                  -7.186
REMARK INTRA:                  -0.072
REMARK UNBOUND:                -0.235
REMARK SMILES CC(=O)[C@@H]1CC[C@@H]2[C@H]3CC=C4C[C@H](O)CC[C@@]4(C)[C@H]3CC[C@@]21C
REMARK SMILES IDX 4 1 5 2 6 3 7 4 22 5 21 6 20 7 19 8 8 9 9 10 10 11 11 12
REMARK SMILES IDX 17 13 16 14 15 15 13 16 12 17 18 18 23 19 2 20 1 21 3 22
REMARK SMILES IDX 14 23
REMARK H PARENT 14 24
REMARK Flexibility Score: inf
ROOT
ATOM      1  C   UNL     1     118.386 128.474 129.126  1.00  0.00     0.062 C 
ATOM      2  C   UNL     1     117.637 128.701 130.446  1.00  0.00     0.012 C 
ATOM      3  C   UNL     1     116.591 127.595 130.550  1.00  0.00     0.005 C 
ATOM      4  C   UNL     1     116.733 126.735 129.285  1.00  0.00    -0.001 C 
ATOM      5  C   UNL     1     118.185 126.964 128.799  1.00  0.00    -0.020 C 
ATOM      6  C   UNL     1     119.172 126.062 129.593  1.00  0.00     0.008 C 
ATOM      7  C   UNL     1     118.758 124.588 129.634  1.00  0.00     0.005 C 
ATOM      8  C   UNL     1     117.358 124.391 130.266  1.00  0.00     0.003 C 
ATOM      9  C   UNL     1     116.298 125.254 129.516  1.00  0.00     0.000 C 
ATOM     10  C   UNL     1     115.750 124.594 128.210  1.00  0.00     0.031 C 
ATOM     11  C   UNL     1     116.197 123.174 127.956  1.00  0.00    -0.027 C 
ATOM     12  C   UNL     1     116.690 122.366 128.914  1.00  0.00    -0.065 C 
ATOM     13  C   UNL     1     116.895 122.885 130.331  1.00  0.00    -0.008 C 
ATOM     14  C   UNL     1     117.948 121.991 131.056  1.00  0.00     0.014 C 
ATOM     15  C   UNL     1     117.609 120.484 131.030  1.00  0.00     0.033 C 
ATOM     16  C   UNL     1     117.026 119.986 129.680  1.00  0.00     0.118 C 
ATOM     17  C   UNL     1     117.206 120.994 128.535  1.00  0.00     0.063 C 
ATOM     18  C   UNL     1     115.552 122.788 131.110  1.00  0.00     0.016 C 
ATOM     19  C   UNL     1     118.331 126.725 127.276  1.00  0.00     0.012 C 
ENDROOT
BRANCH   1  20
ATOM     20  C   UNL     1     119.816 129.004 129.156  1.00  0.00     0.133 C 
ATOM     21  C   UNL     1     120.288 129.911 130.256  1.00  0.00     0.088 C 
ATOM     22  O   UNL     1     120.577 128.795 128.223  1.00  0.00    -0.300 OA
ENDBRANCH   1  20
BRANCH  16  23
ATOM     23  O   UNL     1     115.659 119.690 129.816  1.00  0.00    -0.393 OA
ATOM     24  H   UNL     1     115.598 118.819 130.289  1.00  0.00     0.210 HD
ENDBRANCH  16  23
TORSDOF 2
ENDMDL
MODEL 8
REMARK VINA RESULT:    -6.450      1.195      6.681
REMARK INTER + INTRA:          -7.251
REMARK INTER:                  -7.139
REMARK INTRA:                  -0.111
REMARK UNBOUND:                -0.235
REMARK SMILES CC(=O)[C@@H]1CC[C@@H]2[C@H]3CC=C4C[C@H](O)CC[C@@]4(C)[C@H]3CC[C@@]21C
REMARK SMILES IDX 4 1 5 2 6 3 7 4 22 5 21 6 20 7 19 8 8 9 9 10 10 11 11 12
REMARK SMILES IDX 17 13 16 14 15 15 13 16 12 17 18 18 23 19 2 20 1 21 3 22
REMARK SMILES IDX 14 23
REMARK H PARENT 14 24
REMARK Flexibility Score: inf
ROOT
ATOM      1  C   UNL     1     119.100 125.087 127.719  1.00  0.00     0.062 C 
ATOM      2  C   UNL     1     118.476 124.173 126.656  1.00  0.00     0.012 C 
ATOM      3  C   UNL     1     118.295 122.805 127.309  1.00  0.00     0.005 C 
ATOM      4  C   UNL     1     118.822 122.931 128.747  1.00  0.00    -0.001 C 
ATOM      5  C   UNL     1     118.724 124.438 129.085  1.00  0.00    -0.020 C 
ATOM      6  C   UNL     1     117.276 124.803 129.521  1.00  0.00     0.008 C 
ATOM      7  C   UNL     1     116.715 123.885 130.612  1.00  0.00     0.005 C 
ATOM      8  C   UNL     1     116.694 122.401 130.173  1.00  0.00     0.003 C 
ATOM      9  C   UNL     1     118.118 121.945 129.730  1.00  0.00     0.000 C 
ATOM     10  C   UNL     1     119.049 121.534 130.914  1.00  0.00     0.031 C 
ATOM     11  C   UNL     1     118.397 121.483 132.275  1.00  0.00    -0.027 C 
ATOM     12  C   UNL     1     117.065 121.397 132.459  1.00  0.00    -0.065 C 
ATOM     13  C   UNL     1     116.118 121.422 131.268  1.00  0.00    -0.008 C 
ATOM     14  C   UNL     1     114.702 121.867 131.749  1.00  0.00     0.014 C 
ATOM     15  C   UNL     1     114.148 121.021 132.916  1.00  0.00     0.033 C 
ATOM     16  C   UNL     1     115.205 120.647 133.990  1.00  0.00     0.118 C 
ATOM     17  C   UNL     1     116.505 121.456 133.865  1.00  0.00     0.063 C 
ATOM     18  C   UNL     1     116.006 119.989 130.674  1.00  0.00     0.016 C 
ATOM     19  C   UNL     1     119.744 124.857 130.171  1.00  0.00     0.012 C 
ENDROOT
BRANCH   1  20
ATOM     20  C   UNL     1     118.748 126.558 127.517  1.00  0.00     0.133 C 
ATOM     21  C   UNL     1     119.622 127.650 128.065  1.00  0.00     0.088 C 
ATOM     22  O   UNL     1     117.688 126.879 127.003  1.00  0.00    -0.300 OA
ENDBRANCH   1  20
BRANCH  16  23
ATOM     23  O   UNL     1     115.512 119.278 133.920  1.00  0.00    -0.393 OA
ATOM     24  H   UNL     1     115.362 118.902 134.827  1.00  0.00     0.210 HD
ENDBRANCH  16  23
TORSDOF 2
ENDMDL
MODEL 9
REMARK VINA RESULT:    -6.324      2.487      3.978
REMARK INTER + INTRA:          -7.114
REMARK INTER:                  -7.075
REMARK INTRA:                  -0.039
REMARK UNBOUND:                -0.235
REMARK SMILES CC(=O)[C@@H]1CC[C@@H]2[C@H]3CC=C4C[C@H](O)CC[C@@]4(C)[C@H]3CC[C@@]21C
REMARK SMILES IDX 4 1 5 2 6 3 7 4 22 5 21 6 20 7 19 8 8 9 9 10 10 11 11 12
REMARK SMILES IDX 17 13 16 14 15 15 13 16 12 17 18 18 23 19 2 20 1 21 3 22
REMARK SMILES IDX 14 23
REMARK H PARENT 14 24
REMARK Flexibility Score: inf
ROOT
ATOM      1  C   UNL     1     116.009 118.998 128.665  1.00  0.00     0.062 C 
ATOM      2  C   UNL     1     114.723 119.489 127.987  1.00  0.00     0.012 C 
ATOM      3  C   UNL     1     114.543 120.948 128.395  1.00  0.00     0.005 C 
ATOM      4  C   UNL     1     115.724 121.296 129.315  1.00  0.00    -0.001 C 
ATOM      5  C   UNL     1     116.839 120.288 128.944  1.00  0.00    -0.020 C 
ATOM      6  C   UNL     1     117.606 120.768 127.679  1.00  0.00     0.008 C 
ATOM      7  C   UNL     1     118.088 122.220 127.770  1.00  0.00     0.005 C 
ATOM      8  C   UNL     1     116.920 123.210 127.993  1.00  0.00     0.003 C 
ATOM      9  C   UNL     1     116.102 122.809 129.258  1.00  0.00     0.000 C 
ATOM     10  C   UNL     1     116.722 123.309 130.601  1.00  0.00     0.031 C 
ATOM     11  C   UNL     1     117.913 124.229 130.472  1.00  0.00    -0.027 C 
ATOM     12  C   UNL     1     118.210 124.908 129.347  1.00  0.00    -0.065 C 
ATOM     13  C   UNL     1     117.375 124.718 128.087  1.00  0.00    -0.008 C 
ATOM     14  C   UNL     1     118.218 125.143 126.846  1.00  0.00     0.014 C 
ATOM     15  C   UNL     1     118.801 126.570 126.949  1.00  0.00     0.033 C 
ATOM     16  C   UNL     1     119.333 126.940 128.360  1.00  0.00     0.118 C 
ATOM     17  C   UNL     1     119.484 125.724 129.287  1.00  0.00     0.063 C 
ATOM     18  C   UNL     1     116.120 125.634 128.165  1.00  0.00     0.016 C 
ATOM     19  C   UNL     1     117.817 120.047 130.119  1.00  0.00     0.012 C 
ENDROOT
BRANCH   1  20
ATOM     20  C   UNL     1     116.693 117.873 127.896  1.00  0.00     0.133 C 
ATOM     21  C   UNL     1     117.946 117.225 128.413  1.00  0.00     0.088 C 
ATOM     22  O   UNL     1     116.302 117.551 126.784  1.00  0.00    -0.300 OA
ENDBRANCH   1  20
BRANCH  16  23
ATOM     23  O   UNL     1     118.486 127.878 128.973  1.00  0.00    -0.393 OA
ATOM     24  H   UNL     1     118.905 128.122 129.840  1.00  0.00     0.210 HD
ENDBRANCH  16  23
TORSDOF 2
ENDMDL
