MODEL 1
REMARK VINA RESULT:    -4.609      0.000      0.000
REMARK INTER + INTRA:          -6.620
REMARK INTER:                  -7.034
REMARK INTRA:                   0.414
REMARK UNBOUND:                 0.414
REMARK SMILES CC1=CCC[C@H](C)C(=O)C[C@H](C(C)C)C(=O)C1
REMARK SMILES IDX 8 1 9 2 6 3 7 4 5 5 4 6 3 7 2 8 1 9 10 11 11 12 15 13 16 14
REMARK SMILES IDX 17 15 12 17 13 18 14 19
REMARK H PARENT
REMARK Flexibility Score: 70.00
ROOT
ATOM      1  C   UNL     1     -10.945 -33.200  30.479  1.00  0.00     0.136 C 
ATOM      2  O   UNL     1      -9.981 -32.447  30.433  1.00  0.00    -0.299 OA
ENDROOT
BRANCH   1   3
ATOM      3  C   UNL     1     -11.286 -33.894  31.790  1.00  0.00     0.053 C 
ATOM      4  C   UNL     1     -10.300 -33.506  32.902  1.00  0.00     0.016 C 
BRANCH   3   5
ATOM      5  C   UNL     1     -12.750 -33.647  32.235  1.00  0.00     0.015 C 
BRANCH   5   6
ATOM      6  C   UNL     1     -13.779 -34.657  31.674  1.00  0.00     0.028 C 
BRANCH   6   7
ATOM      7  C   UNL     1     -13.430 -36.083  32.022  1.00  0.00    -0.028 C 
ATOM      8  C   UNL     1     -13.049 -37.032  31.133  1.00  0.00    -0.070 CG0
ATOM      9  C   UNL     1     -12.775 -38.419  31.656  1.00  0.00     0.039 C 
ATOM     10  G   UNL     1     -12.844 -36.759  29.649  1.00  0.00     0.000 G0
ENDBRANCH   6   7
ENDBRANCH   5   6
ENDBRANCH   3   5
ENDBRANCH   1   3
BRANCH   1  11
ATOM     11  C   UNL     1     -11.689 -33.462  29.187  1.00  0.00     0.087 C 
BRANCH  11  12
ATOM     12  C   UNL     1     -11.389 -34.821  28.491  1.00  0.00     0.066 C 
BRANCH  12  13
ATOM     13  C   UNL     1     -11.537 -36.068  29.368  1.00  0.00     0.140 C 
ATOM     14  O   UNL     1     -10.520 -36.528  29.872  1.00  0.00    -0.299 OA
BRANCH  13  15
ATOM     15  C   UNL     1     -12.840 -36.790  29.647  1.00  0.00     0.106 CG0
ATOM     16  G   UNL     1     -13.032 -37.018  31.139  1.00  0.00     0.000 G0
ENDBRANCH  13  15
ENDBRANCH  12  13
BRANCH  12  17
ATOM     17  C   UNL     1     -12.219 -35.004  27.178  1.00  0.00    -0.006 C 
ATOM     18  C   UNL     1     -13.382 -34.006  27.052  1.00  0.00     0.008 C 
ATOM     19  C   UNL     1     -11.346 -34.969  25.912  1.00  0.00     0.008 C 
ENDBRANCH  12  17
ENDBRANCH  11  12
ENDBRANCH   1  11
TORSDOF 1
ENDMDL
MODEL 2
REMARK VINA RESULT:    -4.524      2.019      4.467
REMARK INTER + INTRA:          -6.491
REMARK INTER:                  -6.647
REMARK INTRA:                   0.157
REMARK UNBOUND:                 0.414
REMARK SMILES CC1=CCC[C@H](C)C(=O)C[C@H](C(C)C)C(=O)C1
REMARK SMILES IDX 8 1 9 2 6 3 7 4 5 5 4 6 3 7 2 8 1 9 10 11 11 12 15 13 16 14
REMARK SMILES IDX 17 15 12 17 13 18 14 19
REMARK H PARENT
REMARK Flexibility Score: 70.00
ROOT
ATOM      1  C   UNL     1     -12.777 -34.912  28.106  1.00  0.00     0.136 C 
ATOM      2  O   UNL     1     -13.262 -33.824  27.826  1.00  0.00    -0.299 OA
ENDROOT
BRANCH   1   3
ATOM      3  C   UNL     1     -11.432 -35.302  27.511  1.00  0.00     0.053 C 
ATOM      4  C   UNL     1     -11.342 -34.915  26.027  1.00  0.00     0.016 C 
BRANCH   3   5
ATOM      5  C   UNL     1     -10.234 -34.724  28.307  1.00  0.00     0.015 C 
BRANCH   5   6
ATOM      6  C   UNL     1     -10.584 -33.536  29.236  1.00  0.00     0.028 C 
BRANCH   6   7
ATOM      7  C   UNL     1     -10.207 -33.802  30.672  1.00  0.00    -0.028 C 
ATOM      8  C   UNL     1     -11.083 -33.895  31.703  1.00  0.00    -0.070 CG0
ATOM      9  C   UNL     1     -10.524 -34.128  33.084  1.00  0.00     0.039 C 
ATOM     10  G   UNL     1     -12.593 -33.819  31.532  1.00  0.00     0.000 G0
ENDBRANCH   6   7
ENDBRANCH   5   6
ENDBRANCH   3   5
ENDBRANCH   1   3
BRANCH   1  11
ATOM     11  C   UNL     1     -13.601 -35.844  28.968  1.00  0.00     0.087 C 
BRANCH  11  12
ATOM     12  C   UNL     1     -12.989 -36.214  30.350  1.00  0.00     0.066 C 
BRANCH  12  13
ATOM     13  C   UNL     1     -13.224 -35.204  31.477  1.00  0.00     0.140 C 
ATOM     14  O   UNL     1     -13.983 -35.533  32.379  1.00  0.00    -0.299 OA
BRANCH  13  15
ATOM     15  C   UNL     1     -12.608 -33.822  31.554  1.00  0.00     0.106 CG0
ATOM     16  G   UNL     1     -11.095 -33.904  31.701  1.00  0.00     0.000 G0
ENDBRANCH  13  15
ENDBRANCH  12  13
BRANCH  12  17
ATOM     17  C   UNL     1     -13.429 -37.638  30.824  1.00  0.00    -0.006 C 
ATOM     18  C   UNL     1     -13.707 -38.605  29.661  1.00  0.00     0.008 C 
ATOM     19  C   UNL     1     -12.437 -38.268  31.816  1.00  0.00     0.008 C 
ENDBRANCH  12  17
ENDBRANCH  11  12
ENDBRANCH   1  11
TORSDOF 1
ENDMDL
MODEL 3
REMARK VINA RESULT:    -4.485      1.643      3.586
REMARK INTER + INTRA:          -6.431
REMARK INTER:                  -7.265
REMARK INTRA:                   0.834
REMARK UNBOUND:                 0.414
REMARK SMILES CC1=CCC[C@H](C)C(=O)C[C@H](C(C)C)C(=O)C1
REMARK SMILES IDX 8 1 9 2 6 3 7 4 5 5 4 6 3 7 2 8 1 9 10 11 11 12 15 13 16 14
REMARK SMILES IDX 17 15 12 17 13 18 14 19
REMARK H PARENT
REMARK Flexibility Score: 70.00
ROOT
ATOM      1  C   UNL     1     -13.264 -37.061  29.520  1.00  0.00     0.136 C 
ATOM      2  O   UNL     1     -14.290 -37.201  28.866  1.00  0.00    -0.299 OA
ENDROOT
BRANCH   1   3
ATOM      3  C   UNL     1     -13.250 -37.486  30.981  1.00  0.00     0.053 C 
ATOM      4  C   UNL     1     -11.870 -38.020  31.396  1.00  0.00     0.016 C 
BRANCH   3   5
ATOM      5  C   UNL     1     -13.719 -36.360  31.937  1.00  0.00     0.015 C 
BRANCH   5   6
ATOM      6  C   UNL     1     -13.431 -34.923  31.439  1.00  0.00     0.028 C 
BRANCH   6   7
ATOM      7  C   UNL     1     -12.474 -34.185  32.342  1.00  0.00    -0.028 C 
ATOM      8  C   UNL     1     -11.136 -34.093  32.149  1.00  0.00    -0.070 CG0
ATOM      9  C   UNL     1     -10.325 -33.345  33.178  1.00  0.00     0.039 C 
ATOM     10  G   UNL     1     -10.420 -34.666  30.934  1.00  0.00     0.000 G0
ENDBRANCH   6   7
ENDBRANCH   5   6
ENDBRANCH   3   5
ENDBRANCH   1   3
BRANCH   1  11
ATOM     11  C   UNL     1     -12.091 -36.384  28.845  1.00  0.00     0.087 C 
BRANCH  11  12
ATOM     12  C   UNL     1     -12.116 -34.828  28.836  1.00  0.00     0.066 C 
BRANCH  12  13
ATOM     13  C   UNL     1     -11.001 -34.138  29.629  1.00  0.00     0.140 C 
ATOM     14  O   UNL     1     -10.548 -33.095  29.175  1.00  0.00    -0.299 OA
BRANCH  13  15
ATOM     15  C   UNL     1     -10.401 -34.654  30.921  1.00  0.00     0.106 CG0
ATOM     16  G   UNL     1     -11.128 -34.082  32.130  1.00  0.00     0.000 G0
ENDBRANCH  13  15
ENDBRANCH  12  13
BRANCH  12  17
ATOM     17  C   UNL     1     -12.159 -34.249  27.384  1.00  0.00    -0.006 C 
ATOM     18  C   UNL     1     -11.353 -35.085  26.375  1.00  0.00     0.008 C 
ATOM     19  C   UNL     1     -13.592 -34.031  26.872  1.00  0.00     0.008 C 
ENDBRANCH  12  17
ENDBRANCH  11  12
ENDBRANCH   1  11
TORSDOF 1
ENDMDL
MODEL 4
REMARK VINA RESULT:    -4.368      1.855      4.040
REMARK INTER + INTRA:          -6.253
REMARK INTER:                  -6.646
REMARK INTRA:                   0.392
REMARK UNBOUND:                 0.414
REMARK SMILES CC1=CCC[C@H](C)C(=O)C[C@H](C(C)C)C(=O)C1
REMARK SMILES IDX 8 1 9 2 6 3 7 4 5 5 4 6 3 7 2 8 1 9 10 11 11 12 15 13 16 14
REMARK SMILES IDX 17 15 12 17 13 18 14 19
REMARK H PARENT
REMARK Flexibility Score: 70.00
ROOT
ATOM      1  C   UNL     1     -12.984 -33.759  28.169  1.00  0.00     0.136 C 
ATOM      2  O   UNL     1     -13.924 -33.576  27.406  1.00  0.00    -0.299 OA
ENDROOT
BRANCH   1   3
ATOM      3  C   UNL     1     -11.944 -34.816  27.828  1.00  0.00     0.053 C 
ATOM      4  C   UNL     1     -11.702 -34.896  26.313  1.00  0.00     0.016 C 
BRANCH   3   5
ATOM      5  C   UNL     1     -10.611 -34.614  28.592  1.00  0.00     0.015 C 
BRANCH   5   6
ATOM      6  C   UNL     1     -10.238 -35.759  29.563  1.00  0.00     0.028 C 
BRANCH   6   7
ATOM      7  C   UNL     1     -11.391 -36.702  29.807  1.00  0.00    -0.028 C 
ATOM      8  C   UNL     1     -12.162 -36.718  30.921  1.00  0.00    -0.070 CG0
ATOM      9  C   UNL     1     -13.250 -37.759  31.010  1.00  0.00     0.039 C 
ATOM     10  G   UNL     1     -12.014 -35.720  32.060  1.00  0.00     0.000 G0
ENDBRANCH   6   7
ENDBRANCH   5   6
ENDBRANCH   3   5
ENDBRANCH   1   3
BRANCH   1  11
ATOM     11  C   UNL     1     -12.969 -32.972  29.461  1.00  0.00     0.087 C 
BRANCH  11  12
ATOM     12  C   UNL     1     -13.347 -33.764  30.747  1.00  0.00     0.066 C 
BRANCH  12  13
ATOM     13  C   UNL     1     -12.173 -34.297  31.573  1.00  0.00     0.140 C 
ATOM     14  O   UNL     1     -11.274 -33.512  31.847  1.00  0.00    -0.299 OA
BRANCH  13  15
ATOM     15  C   UNL     1     -12.026 -35.723  32.063  1.00  0.00     0.106 CG0
ATOM     16  G   UNL     1     -12.161 -36.713  30.915  1.00  0.00     0.000 G0
ENDBRANCH  13  15
ENDBRANCH  12  13
BRANCH  12  17
ATOM     17  C   UNL     1     -14.313 -32.953  31.672  1.00  0.00    -0.006 C 
ATOM     18  C   UNL     1     -15.239 -32.001  30.897  1.00  0.00     0.008 C 
ATOM     19  C   UNL     1     -15.135 -33.853  32.609  1.00  0.00     0.008 C 
ENDBRANCH  12  17
ENDBRANCH  11  12
ENDBRANCH   1  11
TORSDOF 1
ENDMDL
MODEL 5
REMARK VINA RESULT:    -4.340      1.859      3.808
REMARK INTER + INTRA:          -6.210
REMARK INTER:                  -6.917
REMARK INTRA:                   0.706
REMARK UNBOUND:                 0.414
REMARK SMILES CC1=CCC[C@H](C)C(=O)C[C@H](C(C)C)C(=O)C1
REMARK SMILES IDX 8 1 9 2 6 3 7 4 5 5 4 6 3 7 2 8 1 9 10 11 11 12 15 13 16 14
REMARK SMILES IDX 17 15 12 17 13 18 14 19
REMARK H PARENT
REMARK Flexibility Score: 70.00
ROOT
ATOM      1  C   UNL     1     -13.131 -34.275  32.171  1.00  0.00     0.136 C 
ATOM      2  O   UNL     1     -12.216 -33.663  32.707  1.00  0.00    -0.299 OA
ENDROOT
BRANCH   1   3
ATOM      3  C   UNL     1     -14.451 -33.564  31.911  1.00  0.00     0.053 C 
ATOM      4  C   UNL     1     -14.848 -32.668  33.094  1.00  0.00     0.016 C 
BRANCH   3   5
ATOM      5  C   UNL     1     -14.446 -32.762  30.585  1.00  0.00     0.015 C 
BRANCH   5   6
ATOM      6  C   UNL     1     -13.096 -32.764  29.828  1.00  0.00     0.028 C 
BRANCH   6   7
ATOM      7  C   UNL     1     -13.171 -33.521  28.525  1.00  0.00    -0.028 C 
ATOM      8  C   UNL     1     -12.206 -34.344  28.046  1.00  0.00    -0.070 CG0
ATOM      9  C   UNL     1     -12.434 -34.990  26.703  1.00  0.00     0.039 C 
ATOM     10  G   UNL     1     -10.932 -34.679  28.809  1.00  0.00     0.000 G0
ENDBRANCH   6   7
ENDBRANCH   5   6
ENDBRANCH   3   5
ENDBRANCH   1   3
BRANCH   1  11
ATOM     11  C   UNL     1     -12.912 -35.745  31.882  1.00  0.00     0.087 C 
BRANCH  11  12
ATOM     12  C   UNL     1     -12.562 -36.105  30.409  1.00  0.00     0.066 C 
BRANCH  12  13
ATOM     13  C   UNL     1     -11.177 -35.665  29.925  1.00  0.00     0.140 C 
ATOM     14  O   UNL     1     -10.204 -36.132  30.504  1.00  0.00    -0.299 OA
BRANCH  13  15
ATOM     15  C   UNL     1     -10.915 -34.684  28.800  1.00  0.00     0.106 CG0
ATOM     16  G   UNL     1     -12.201 -34.343  28.061  1.00  0.00     0.000 G0
ENDBRANCH  13  15
ENDBRANCH  12  13
BRANCH  12  17
ATOM     17  C   UNL     1     -12.760 -37.628  30.114  1.00  0.00    -0.006 C 
ATOM     18  C   UNL     1     -12.944 -38.473  31.386  1.00  0.00     0.008 C 
ATOM     19  C   UNL     1     -13.905 -37.899  29.124  1.00  0.00     0.008 C 
ENDBRANCH  12  17
ENDBRANCH  11  12
ENDBRANCH   1  11
TORSDOF 1
ENDMDL
MODEL 6
REMARK VINA RESULT:    -4.128      2.111      5.045
REMARK INTER + INTRA:          -5.886
REMARK INTER:                  -6.188
REMARK INTRA:                   0.302
REMARK UNBOUND:                 0.414
REMARK SMILES CC1=CCC[C@H](C)C(=O)C[C@H](C(C)C)C(=O)C1
REMARK SMILES IDX 8 1 9 2 6 3 7 4 5 5 4 6 3 7 2 8 1 9 10 11 11 12 15 13 16 14
REMARK SMILES IDX 17 15 12 17 13 18 14 19
REMARK H PARENT
REMARK Flexibility Score: 70.00
ROOT
ATOM      1  C   UNL     1     -12.323 -35.948  31.874  1.00  0.00     0.136 C 
ATOM      2  O   UNL     1     -11.314 -35.381  32.274  1.00  0.00    -0.299 OA
ENDROOT
BRANCH   1   3
ATOM      3  C   UNL     1     -12.185 -37.226  31.059  1.00  0.00     0.053 C 
ATOM      4  C   UNL     1     -12.781 -38.432  31.800  1.00  0.00     0.016 C 
BRANCH   3   5
ATOM      5  C   UNL     1     -12.787 -37.096  29.637  1.00  0.00     0.015 C 
BRANCH   5   6
ATOM      6  C   UNL     1     -11.999 -36.171  28.679  1.00  0.00     0.028 C 
BRANCH   6   7
ATOM      7  C   UNL     1     -12.898 -35.208  27.944  1.00  0.00    -0.028 C 
ATOM      8  C   UNL     1     -13.214 -33.959  28.367  1.00  0.00    -0.070 CG0
ATOM      9  C   UNL     1     -14.162 -33.147  27.522  1.00  0.00     0.039 C 
ATOM     10  G   UNL     1     -12.631 -33.325  29.622  1.00  0.00     0.000 G0
ENDBRANCH   6   7
ENDBRANCH   5   6
ENDBRANCH   3   5
ENDBRANCH   1   3
BRANCH   1  11
ATOM     11  C   UNL     1     -13.654 -35.282  32.147  1.00  0.00     0.087 C 
BRANCH  11  12
ATOM     12  C   UNL     1     -13.661 -33.726  32.096  1.00  0.00     0.066 C 
BRANCH  12  13
ATOM     13  C   UNL     1     -13.689 -33.104  30.697  1.00  0.00     0.140 C 
ATOM     14  O   UNL     1     -14.643 -32.389  30.417  1.00  0.00    -0.299 OA
BRANCH  13  15
ATOM     15  C   UNL     1     -12.639 -33.317  29.625  1.00  0.00     0.106 CG0
ATOM     16  G   UNL     1     -13.246 -33.955  28.383  1.00  0.00     0.000 G0
ENDBRANCH  13  15
ENDBRANCH  12  13
BRANCH  12  17
ATOM     17  C   UNL     1     -14.811 -33.116  32.963  1.00  0.00    -0.006 C 
ATOM     18  C   UNL     1     -15.913 -34.132  33.309  1.00  0.00     0.008 C 
ATOM     19  C   UNL     1     -14.296 -32.431  34.239  1.00  0.00     0.008 C 
ENDBRANCH  12  17
ENDBRANCH  11  12
ENDBRANCH   1  11
TORSDOF 1
ENDMDL
MODEL 7
REMARK VINA RESULT:    -4.119      1.840      4.904
REMARK INTER + INTRA:          -5.873
REMARK INTER:                  -6.594
REMARK INTRA:                   0.721
REMARK UNBOUND:                 0.414
REMARK SMILES CC1=CCC[C@H](C)C(=O)C[C@H](C(C)C)C(=O)C1
REMARK SMILES IDX 8 1 9 2 6 3 7 4 5 5 4 6 3 7 2 8 1 9 10 11 11 12 15 13 16 14
REMARK SMILES IDX 17 15 12 17 13 18 14 19
REMARK H PARENT
REMARK Flexibility Score: 70.00
ROOT
ATOM      1  C   UNL     1     -13.149 -36.919  30.557  1.00  0.00     0.136 C 
ATOM      2  O   UNL     1     -12.807 -37.844  31.283  1.00  0.00    -0.299 OA
ENDROOT
BRANCH   1   3
ATOM      3  C   UNL     1     -13.213 -37.138  29.053  1.00  0.00     0.053 C 
ATOM      4  C   UNL     1     -14.355 -38.093  28.673  1.00  0.00     0.016 C 
BRANCH   3   5
ATOM      5  C   UNL     1     -13.312 -35.811  28.258  1.00  0.00     0.015 C 
BRANCH   5   6
ATOM      6  C   UNL     1     -12.002 -35.372  27.561  1.00  0.00     0.028 C 
BRANCH   6   7
ATOM      7  C   UNL     1     -11.390 -34.153  28.206  1.00  0.00    -0.028 C 
ATOM      8  C   UNL     1     -10.724 -34.148  29.386  1.00  0.00    -0.070 CG0
ATOM      9  C   UNL     1     -10.212 -32.826  29.900  1.00  0.00     0.039 C 
ATOM     10  G   UNL     1     -10.432 -35.405  30.192  1.00  0.00     0.000 G0
ENDBRANCH   6   7
ENDBRANCH   5   6
ENDBRANCH   3   5
ENDBRANCH   1   3
BRANCH   1  11
ATOM     11  C   UNL     1     -13.404 -35.577  31.209  1.00  0.00     0.087 C 
BRANCH  11  12
ATOM     12  C   UNL     1     -12.278 -35.048  32.145  1.00  0.00     0.066 C 
BRANCH  12  13
ATOM     13  C   UNL     1     -10.844 -35.253  31.646  1.00  0.00     0.140 C 
ATOM     14  O   UNL     1      -9.953 -35.273  32.486  1.00  0.00    -0.299 OA
BRANCH  13  15
ATOM     15  C   UNL     1     -10.439 -35.415  30.195  1.00  0.00     0.106 CG0
ATOM     16  G   UNL     1     -10.745 -34.156  29.397  1.00  0.00     0.000 G0
ENDBRANCH  13  15
ENDBRANCH  12  13
BRANCH  12  17
ATOM     17  C   UNL     1     -12.489 -33.546  32.526  1.00  0.00    -0.006 C 
ATOM     18  C   UNL     1     -13.969 -33.129  32.547  1.00  0.00     0.008 C 
ATOM     19  C   UNL     1     -11.809 -33.168  33.852  1.00  0.00     0.008 C 
ENDBRANCH  12  17
ENDBRANCH  11  12
ENDBRANCH   1  11
TORSDOF 1
ENDMDL
MODEL 8
REMARK VINA RESULT:    -4.012      1.955      3.971
REMARK INTER + INTRA:          -5.709
REMARK INTER:                  -6.658
REMARK INTRA:                   0.949
REMARK UNBOUND:                 0.414
REMARK SMILES CC1=CCC[C@H](C)C(=O)C[C@H](C(C)C)C(=O)C1
REMARK SMILES IDX 8 1 9 2 6 3 7 4 5 5 4 6 3 7 2 8 1 9 10 11 11 12 15 13 16 14
REMARK SMILES IDX 17 15 12 17 13 18 14 19
REMARK H PARENT
REMARK Flexibility Score: 70.00
ROOT
ATOM      1  C   UNL     1     -12.304 -34.568  32.153  1.00  0.00     0.136 C 
ATOM      2  O   UNL     1     -13.430 -34.205  32.468  1.00  0.00    -0.299 OA
ENDROOT
BRANCH   1   3
ATOM      3  C   UNL     1     -11.158 -33.568  32.209  1.00  0.00     0.053 C 
ATOM      4  C   UNL     1     -10.772 -33.240  33.660  1.00  0.00     0.016 C 
BRANCH   3   5
ATOM      5  C   UNL     1      -9.921 -34.029  31.397  1.00  0.00     0.015 C 
BRANCH   5   6
ATOM      6  C   UNL     1      -9.875 -33.518  29.937  1.00  0.00     0.028 C 
BRANCH   6   7
ATOM      7  C   UNL     1     -11.218 -33.021  29.462  1.00  0.00    -0.028 C 
ATOM      8  C   UNL     1     -12.157 -33.781  28.847  1.00  0.00    -0.070 CG0
ATOM      9  C   UNL     1     -13.430 -33.106  28.403  1.00  0.00     0.039 C 
ATOM     10  G   UNL     1     -12.009 -35.279  28.621  1.00  0.00     0.000 G0
ENDBRANCH   6   7
ENDBRANCH   5   6
ENDBRANCH   3   5
ENDBRANCH   1   3
BRANCH   1  11
ATOM     11  C   UNL     1     -12.143 -35.981  31.637  1.00  0.00     0.087 C 
BRANCH  11  12
ATOM     12  C   UNL     1     -13.272 -36.497  30.698  1.00  0.00     0.066 C 
BRANCH  12  13
ATOM     13  C   UNL     1     -13.181 -36.050  29.236  1.00  0.00     0.140 C 
ATOM     14  O   UNL     1     -14.112 -36.342  28.497  1.00  0.00    -0.299 OA
BRANCH  13  15
ATOM     15  C   UNL     1     -12.019 -35.291  28.625  1.00  0.00     0.106 CG0
ATOM     16  G   UNL     1     -12.167 -33.793  28.849  1.00  0.00     0.000 G0
ENDBRANCH  13  15
ENDBRANCH  12  13
BRANCH  12  17
ATOM     17  C   UNL     1     -13.423 -38.053  30.760  1.00  0.00    -0.006 C 
ATOM     18  C   UNL     1     -13.175 -38.740  29.407  1.00  0.00     0.008 C 
ATOM     19  C   UNL     1     -12.549 -38.692  31.852  1.00  0.00     0.008 C 
ENDBRANCH  12  17
ENDBRANCH  11  12
ENDBRANCH   1  11
TORSDOF 1
ENDMDL
MODEL 9
REMARK VINA RESULT:    -3.900      1.697      4.090
REMARK INTER + INTRA:          -5.539
REMARK INTER:                  -5.850
REMARK INTRA:                   0.312
REMARK UNBOUND:                 0.414
REMARK SMILES CC1=CCC[C@H](C)C(=O)C[C@H](C(C)C)C(=O)C1
REMARK SMILES IDX 8 1 9 2 6 3 7 4 5 5 4 6 3 7 2 8 1 9 10 11 11 12 15 13 16 14
REMARK SMILES IDX 17 15 12 17 13 18 14 19
REMARK H PARENT
REMARK Flexibility Score: 70.00
ROOT
ATOM      1  C   UNL     1     -11.047 -35.295  29.116  1.00  0.00     0.136 C 
ATOM      2  O   UNL     1      -9.998 -35.139  29.727  1.00  0.00    -0.299 OA
ENDROOT
BRANCH   1   3
ATOM      3  C   UNL     1     -11.546 -34.187  28.200  1.00  0.00     0.053 C 
ATOM      4  C   UNL     1     -12.467 -34.741  27.101  1.00  0.00     0.016 C 
BRANCH   3   5
ATOM      5  C   UNL     1     -12.237 -33.036  28.974  1.00  0.00     0.015 C 
BRANCH   5   6
ATOM      6  C   UNL     1     -13.653 -33.367  29.504  1.00  0.00     0.028 C 
BRANCH   6   7
ATOM      7  C   UNL     1     -13.856 -32.896  30.923  1.00  0.00    -0.028 C 
ATOM      8  C   UNL     1     -14.017 -33.707  31.997  1.00  0.00    -0.070 CG0
ATOM      9  C   UNL     1     -14.249 -33.061  33.340  1.00  0.00     0.039 C 
ATOM     10  G   UNL     1     -13.935 -35.225  31.924  1.00  0.00     0.000 G0
ENDBRANCH   6   7
ENDBRANCH   5   6
ENDBRANCH   3   5
ENDBRANCH   1   3
BRANCH   1  11
ATOM     11  C   UNL     1     -11.831 -36.561  29.386  1.00  0.00     0.087 C 
BRANCH  11  12
ATOM     12  C   UNL     1     -12.083 -36.901  30.884  1.00  0.00     0.066 C 
BRANCH  12  13
ATOM     13  C   UNL     1     -12.516 -35.729  31.771  1.00  0.00     0.140 C 
ATOM     14  O   UNL     1     -11.643 -35.150  32.405  1.00  0.00    -0.299 OA
BRANCH  13  15
ATOM     15  C   UNL     1     -13.940 -35.241  31.940  1.00  0.00     0.106 CG0
ATOM     16  G   UNL     1     -13.997 -33.721  31.988  1.00  0.00     0.000 G0
ENDBRANCH  13  15
ENDBRANCH  12  13
BRANCH  12  17
ATOM     17  C   UNL     1     -13.090 -38.086  31.055  1.00  0.00    -0.006 C 
ATOM     18  C   UNL     1     -13.664 -38.591  29.721  1.00  0.00     0.008 C 
ATOM     19  C   UNL     1     -12.500 -39.255  31.860  1.00  0.00     0.008 C 
ENDBRANCH  12  17
ENDBRANCH  11  12
ENDBRANCH   1  11
TORSDOF 1
ENDMDL
