MODEL 1
REMARK VINA RESULT:    -5.917      0.000      0.000
REMARK INTER + INTRA:          -9.917
REMARK INTER:                  -9.203
REMARK INTRA:                  -0.714
REMARK UNBOUND:                -0.714
REMARK SMILES COc1cc(CNC(=O)CCCCC=CC(C)C)ccc1O
REMARK SMILES IDX 11 1 12 2 13 3 14 4 15 5 16 6 17 7 18 8 10 9 8 10 9 11 7 12
REMARK SMILES IDX 6 14 5 15 4 16 19 17 3 18 20 19 21 20 2 21 1 22 22 23
REMARK H PARENT 7 13 22 24
REMARK Flexibility Score: inf
ROOT
ATOM      1  C   UNL     1      18.282 -14.775   6.969  1.00  0.00     0.010 C 
ENDROOT
BRANCH   1   2
ATOM      2  C   UNL     1      18.730 -15.847   7.977  1.00  0.00     0.005 C 
BRANCH   2   3
ATOM      3  C   UNL     1      20.105 -16.459   7.656  1.00  0.00     0.027 C 
BRANCH   3   4
ATOM      4  C   UNL     1      19.985 -17.828   7.028  1.00  0.00    -0.031 C 
ATOM      5  C   UNL     1      20.970 -18.749   6.997  1.00  0.00    -0.028 C 
BRANCH   5   6
ATOM      6  C   UNL     1      22.321 -18.594   7.671  1.00  0.00     0.005 C 
ATOM      7  C   UNL     1      22.202 -18.957   9.154  1.00  0.00     0.012 C 
ATOM      8  C   UNL     1      23.359 -19.485   6.974  1.00  0.00     0.012 C 
ENDBRANCH   5   6
ENDBRANCH   3   4
ENDBRANCH   2   3
ENDBRANCH   1   2
BRANCH   1   9
ATOM      9  C   UNL     1      17.161 -15.265   6.040  1.00  0.00     0.100 C 
BRANCH   9  10
ATOM     10  C   UNL     1      16.441 -14.089   5.456  1.00  0.00     0.220 C 
ATOM     11  O   UNL     1      16.636 -12.936   5.925  1.00  0.00    -0.275 OA
ATOM     12  N   UNL     1      15.590 -14.271   4.317  1.00  0.00    -0.352 N 
ATOM     13  H   UNL     1      15.237 -15.233   4.097  1.00  0.00     0.163 HD
BRANCH  12  14
ATOM     14  C   UNL     1      15.429 -13.231   3.304  1.00  0.00     0.151 C 
BRANCH  14  15
ATOM     15  C   UNL     1      16.348 -13.515   2.143  1.00  0.00    -0.025 A 
ATOM     16  C   UNL     1      17.247 -12.529   1.702  1.00  0.00     0.056 A 
ATOM     17  C   UNL     1      16.254 -14.727   1.443  1.00  0.00     0.009 A 
ATOM     18  C   UNL     1      18.056 -12.750   0.566  1.00  0.00     0.160 A 
ATOM     19  C   UNL     1      17.059 -14.955   0.323  1.00  0.00     0.050 A 
ATOM     20  C   UNL     1      17.956 -13.970  -0.118  1.00  0.00     0.157 A 
BRANCH  18  21
ATOM     21  O   UNL     1      18.960 -11.782   0.088  1.00  0.00    -0.493 OA
ATOM     22  C   UNL     1      18.589 -10.657  -0.704  1.00  0.00     0.278 C 
ENDBRANCH  18  21
BRANCH  20  23
ATOM     23  O   UNL     1      18.748 -14.193  -1.247  1.00  0.00    -0.504 OA
ATOM     24  H   UNL     1      18.541 -13.745  -2.136  1.00  0.00     0.293 HD
ENDBRANCH  20  23
ENDBRANCH  14  15
ENDBRANCH  12  14
ENDBRANCH   9  10
ENDBRANCH   1   9
TORSDOF 10
ENDMDL
MODEL 2
REMARK VINA RESULT:    -5.914      1.450      2.092
REMARK INTER + INTRA:          -9.912
REMARK INTER:                  -9.132
REMARK INTRA:                  -0.780
REMARK UNBOUND:                -0.714
REMARK SMILES COc1cc(CNC(=O)CCCCC=CC(C)C)ccc1O
REMARK SMILES IDX 11 1 12 2 13 3 14 4 15 5 16 6 17 7 18 8 10 9 8 10 9 11 7 12
REMARK SMILES IDX 6 14 5 15 4 16 19 17 3 18 20 19 21 20 2 21 1 22 22 23
REMARK H PARENT 7 13 22 24
REMARK Flexibility Score: inf
ROOT
ATOM      1  C   UNL     1      16.707 -14.971   5.921  1.00  0.00     0.010 C 
ENDROOT
BRANCH   1   2
ATOM      2  C   UNL     1      16.989 -14.702   7.410  1.00  0.00     0.005 C 
BRANCH   2   3
ATOM      3  C   UNL     1      18.136 -15.552   7.984  1.00  0.00     0.027 C 
BRANCH   3   4
ATOM      4  C   UNL     1      18.600 -16.610   7.010  1.00  0.00    -0.031 C 
ATOM      5  C   UNL     1      19.786 -17.250   7.076  1.00  0.00    -0.028 C 
BRANCH   5   6
ATOM      6  C   UNL     1      20.800 -17.077   8.193  1.00  0.00     0.005 C 
ATOM      7  C   UNL     1      21.356 -18.445   8.601  1.00  0.00     0.012 C 
ATOM      8  C   UNL     1      21.930 -16.145   7.733  1.00  0.00     0.012 C 
ENDBRANCH   5   6
ENDBRANCH   3   4
ENDBRANCH   2   3
ENDBRANCH   1   2
BRANCH   1   9
ATOM      9  C   UNL     1      16.488 -13.682   5.116  1.00  0.00     0.100 C 
BRANCH   9  10
ATOM     10  C   UNL     1      15.624 -13.971   3.928  1.00  0.00     0.220 C 
ATOM     11  O   UNL     1      14.456 -13.500   3.871  1.00  0.00    -0.275 OA
ATOM     12  N   UNL     1      16.155 -14.720   2.827  1.00  0.00    -0.352 N 
ATOM     13  H   UNL     1      17.006 -15.311   2.981  1.00  0.00     0.163 HD
BRANCH  12  14
ATOM     14  C   UNL     1      15.728 -14.472   1.453  1.00  0.00     0.151 C 
BRANCH  14  15
ATOM     15  C   UNL     1      16.863 -13.851   0.679  1.00  0.00    -0.025 A 
ATOM     16  C   UNL     1      17.369 -12.595   1.060  1.00  0.00     0.056 A 
ATOM     17  C   UNL     1      17.365 -14.477  -0.471  1.00  0.00     0.009 A 
ATOM     18  C   UNL     1      18.376 -11.965   0.297  1.00  0.00     0.160 A 
ATOM     19  C   UNL     1      18.369 -13.861  -1.225  1.00  0.00     0.050 A 
ATOM     20  C   UNL     1      18.872 -12.607  -0.846  1.00  0.00     0.157 A 
BRANCH  18  21
ATOM     21  O   UNL     1      18.898 -10.703   0.640  1.00  0.00    -0.493 OA
ATOM     22  C   UNL     1      19.852 -10.481   1.674  1.00  0.00     0.278 C 
ENDBRANCH  18  21
BRANCH  20  23
ATOM     23  O   UNL     1      19.864 -11.986  -1.609  1.00  0.00    -0.504 OA
ATOM     24  H   UNL     1      20.807 -12.360  -1.656  1.00  0.00     0.293 HD
ENDBRANCH  20  23
ENDBRANCH  14  15
ENDBRANCH  12  14
ENDBRANCH   9  10
ENDBRANCH   1   9
TORSDOF 10
ENDMDL
MODEL 3
REMARK VINA RESULT:    -5.666      1.005      1.979
REMARK INTER + INTRA:          -9.526
REMARK INTER:                  -8.775
REMARK INTRA:                  -0.751
REMARK UNBOUND:                -0.714
REMARK SMILES COc1cc(CNC(=O)CCCCC=CC(C)C)ccc1O
REMARK SMILES IDX 11 1 12 2 13 3 14 4 15 5 16 6 17 7 18 8 10 9 8 10 9 11 7 12
REMARK SMILES IDX 6 14 5 15 4 16 19 17 3 18 20 19 21 20 2 21 1 22 22 23
REMARK H PARENT 7 13 22 24
REMARK Flexibility Score: inf
ROOT
ATOM      1  C   UNL     1      18.429 -14.923   7.581  1.00  0.00     0.010 C 
ENDROOT
BRANCH   1   2
ATOM      2  C   UNL     1      19.908 -15.073   7.181  1.00  0.00     0.005 C 
BRANCH   2   3
ATOM      3  C   UNL     1      20.616 -16.254   7.867  1.00  0.00     0.027 C 
BRANCH   3   4
ATOM      4  C   UNL     1      20.217 -17.582   7.266  1.00  0.00    -0.031 C 
ATOM      5  C   UNL     1      21.020 -18.664   7.188  1.00  0.00    -0.028 C 
BRANCH   5   6
ATOM      6  C   UNL     1      22.416 -18.748   7.778  1.00  0.00     0.005 C 
ATOM      7  C   UNL     1      22.326 -19.083   9.270  1.00  0.00     0.012 C 
ATOM      8  C   UNL     1      23.236 -19.809   7.031  1.00  0.00     0.012 C 
ENDBRANCH   5   6
ENDBRANCH   3   4
ENDBRANCH   2   3
ENDBRANCH   1   2
BRANCH   1   9
ATOM      9  C   UNL     1      17.466 -15.324   6.454  1.00  0.00     0.100 C 
BRANCH   9  10
ATOM     10  C   UNL     1      16.565 -14.174   6.128  1.00  0.00     0.220 C 
ATOM     11  O   UNL     1      16.653 -13.101   6.784  1.00  0.00    -0.275 OA
ATOM     12  N   UNL     1      15.657 -14.272   5.024  1.00  0.00    -0.352 N 
ATOM     13  H   UNL     1      15.407 -15.221   4.656  1.00  0.00     0.163 HD
BRANCH  12  14
ATOM     14  C   UNL     1      15.292 -13.107   4.223  1.00  0.00     0.151 C 
BRANCH  14  15
ATOM     15  C   UNL     1      16.161 -13.052   2.992  1.00  0.00    -0.025 A 
ATOM     16  C   UNL     1      16.051 -14.053   2.011  1.00  0.00     0.056 A 
ATOM     17  C   UNL     1      17.139 -12.057   2.856  1.00  0.00     0.009 A 
ATOM     18  C   UNL     1      16.913 -14.061   0.893  1.00  0.00     0.160 A 
ATOM     19  C   UNL     1      17.990 -12.054   1.747  1.00  0.00     0.050 A 
ATOM     20  C   UNL     1      17.882 -13.054   0.768  1.00  0.00     0.157 A 
BRANCH  18  21
ATOM     21  O   UNL     1      16.842 -15.053  -0.104  1.00  0.00    -0.493 OA
ATOM     22  C   UNL     1      15.650 -15.414  -0.795  1.00  0.00     0.278 C 
ENDBRANCH  18  21
BRANCH  20  23
ATOM     23  O   UNL     1      18.743 -13.059  -0.332  1.00  0.00    -0.504 OA
ATOM     24  H   UNL     1      19.749 -13.143  -0.216  1.00  0.00     0.293 HD
ENDBRANCH  20  23
ENDBRANCH  14  15
ENDBRANCH  12  14
ENDBRANCH   9  10
ENDBRANCH   1   9
TORSDOF 10
ENDMDL
MODEL 4
REMARK VINA RESULT:    -5.547      2.393      3.794
REMARK INTER + INTRA:          -9.341
REMARK INTER:                  -8.356
REMARK INTRA:                  -0.984
REMARK UNBOUND:                -0.714
REMARK SMILES COc1cc(CNC(=O)CCCCC=CC(C)C)ccc1O
REMARK SMILES IDX 11 1 12 2 13 3 14 4 15 5 16 6 17 7 18 8 10 9 8 10 9 11 7 12
REMARK SMILES IDX 6 14 5 15 4 16 19 17 3 18 20 19 21 20 2 21 1 22 22 23
REMARK H PARENT 7 13 22 24
REMARK Flexibility Score: inf
ROOT
ATOM      1  C   UNL     1      20.889 -17.430   7.409  1.00  0.00     0.010 C 
ENDROOT
BRANCH   1   2
ATOM      2  C   UNL     1      20.987 -18.537   8.474  1.00  0.00     0.005 C 
BRANCH   2   3
ATOM      3  C   UNL     1      22.426 -19.017   8.733  1.00  0.00     0.027 C 
BRANCH   3   4
ATOM      4  C   UNL     1      23.073 -19.571   7.485  1.00  0.00    -0.031 C 
ATOM      5  C   UNL     1      24.205 -19.093   6.929  1.00  0.00    -0.028 C 
BRANCH   5   6
ATOM      6  C   UNL     1      25.060 -17.987   7.520  1.00  0.00     0.005 C 
ATOM      7  C   UNL     1      26.522 -18.438   7.576  1.00  0.00     0.012 C 
ATOM      8  C   UNL     1      24.915 -16.709   6.682  1.00  0.00     0.012 C 
ENDBRANCH   5   6
ENDBRANCH   3   4
ENDBRANCH   2   3
ENDBRANCH   1   2
BRANCH   1   9
ATOM      9  C   UNL     1      19.454 -17.213   6.909  1.00  0.00     0.100 C 
BRANCH   9  10
ATOM     10  C   UNL     1      18.946 -15.890   7.390  1.00  0.00     0.220 C 
ATOM     11  O   UNL     1      19.737 -14.915   7.497  1.00  0.00    -0.275 OA
ATOM     12  N   UNL     1      17.548 -15.718   7.657  1.00  0.00    -0.352 N 
ATOM     13  H   UNL     1      16.954 -16.567   7.813  1.00  0.00     0.163 HD
BRANCH  12  14
ATOM     14  C   UNL     1      16.877 -14.439   7.442  1.00  0.00     0.151 C 
BRANCH  14  15
ATOM     15  C   UNL     1      16.569 -14.274   5.976  1.00  0.00    -0.025 A 
ATOM     16  C   UNL     1      16.898 -13.074   5.320  1.00  0.00     0.056 A 
ATOM     17  C   UNL     1      15.880 -15.276   5.277  1.00  0.00     0.009 A 
ATOM     18  C   UNL     1      16.544 -12.874   3.968  1.00  0.00     0.160 A 
ATOM     19  C   UNL     1      15.534 -15.086   3.936  1.00  0.00     0.050 A 
ATOM     20  C   UNL     1      15.861 -13.888   3.282  1.00  0.00     0.157 A 
BRANCH  18  21
ATOM     21  O   UNL     1      16.845 -11.682   3.282  1.00  0.00    -0.493 OA
ATOM     22  C   UNL     1      18.117 -11.378   2.718  1.00  0.00     0.278 C 
ENDBRANCH  18  21
BRANCH  20  23
ATOM     23  O   UNL     1      15.501 -13.694   1.945  1.00  0.00    -0.504 OA
ATOM     24  H   UNL     1      14.946 -12.893   1.659  1.00  0.00     0.293 HD
ENDBRANCH  20  23
ENDBRANCH  14  15
ENDBRANCH  12  14
ENDBRANCH   9  10
ENDBRANCH   1   9
TORSDOF 10
ENDMDL
MODEL 5
REMARK VINA RESULT:    -5.497      1.784      2.607
REMARK INTER + INTRA:          -9.263
REMARK INTER:                  -8.363
REMARK INTRA:                  -0.901
REMARK UNBOUND:                -0.714
REMARK SMILES COc1cc(CNC(=O)CCCCC=CC(C)C)ccc1O
REMARK SMILES IDX 11 1 12 2 13 3 14 4 15 5 16 6 17 7 18 8 10 9 8 10 9 11 7 12
REMARK SMILES IDX 6 14 5 15 4 16 19 17 3 18 20 19 21 20 2 21 1 22 22 23
REMARK H PARENT 7 13 22 24
REMARK Flexibility Score: inf
ROOT
ATOM      1  C   UNL     1      19.407 -15.207   7.382  1.00  0.00     0.010 C 
ENDROOT
BRANCH   1   2
ATOM      2  C   UNL     1      19.023 -16.653   7.021  1.00  0.00     0.005 C 
BRANCH   2   3
ATOM      3  C   UNL     1      20.109 -17.685   7.372  1.00  0.00     0.027 C 
BRANCH   3   4
ATOM      4  C   UNL     1      21.468 -17.046   7.535  1.00  0.00    -0.031 C 
ATOM      5  C   UNL     1      22.611 -17.720   7.781  1.00  0.00    -0.028 C 
BRANCH   5   6
ATOM      6  C   UNL     1      22.728 -19.232   7.838  1.00  0.00     0.005 C 
ATOM      7  C   UNL     1      23.784 -19.706   6.836  1.00  0.00     0.012 C 
ATOM      8  C   UNL     1      23.090 -19.676   9.262  1.00  0.00     0.012 C 
ENDBRANCH   5   6
ENDBRANCH   3   4
ENDBRANCH   2   3
ENDBRANCH   1   2
BRANCH   1   9
ATOM      9  C   UNL     1      18.545 -14.629   8.514  1.00  0.00     0.100 C 
BRANCH   9  10
ATOM     10  C   UNL     1      17.821 -13.413   8.026  1.00  0.00     0.220 C 
ATOM     11  O   UNL     1      18.250 -12.266   8.322  1.00  0.00    -0.275 OA
ATOM     12  N   UNL     1      16.686 -13.560   7.164  1.00  0.00    -0.352 N 
ATOM     13  H   UNL     1      16.190 -14.483   7.131  1.00  0.00     0.163 HD
BRANCH  12  14
ATOM     14  C   UNL     1      16.371 -12.573   6.134  1.00  0.00     0.151 C 
BRANCH  14  15
ATOM     15  C   UNL     1      16.257 -13.262   4.798  1.00  0.00    -0.025 A 
ATOM     16  C   UNL     1      16.615 -12.578   3.623  1.00  0.00     0.056 A 
ATOM     17  C   UNL     1      15.715 -14.552   4.708  1.00  0.00     0.009 A 
ATOM     18  C   UNL     1      16.437 -13.180   2.359  1.00  0.00     0.160 A 
ATOM     19  C   UNL     1      15.545 -15.157   3.459  1.00  0.00     0.050 A 
ATOM     20  C   UNL     1      15.902 -14.474   2.286  1.00  0.00     0.157 A 
BRANCH  18  21
ATOM     21  O   UNL     1      16.773 -12.522   1.159  1.00  0.00    -0.493 OA
ATOM     22  C   UNL     1      18.094 -12.432   0.634  1.00  0.00     0.278 C 
ENDBRANCH  18  21
BRANCH  20  23
ATOM     23  O   UNL     1      15.716 -15.074   1.037  1.00  0.00    -0.504 OA
ATOM     24  H   UNL     1      14.937 -15.701   0.863  1.00  0.00     0.293 HD
ENDBRANCH  20  23
ENDBRANCH  14  15
ENDBRANCH  12  14
ENDBRANCH   9  10
ENDBRANCH   1   9
TORSDOF 10
ENDMDL
MODEL 6
REMARK VINA RESULT:    -5.448      3.038      4.786
REMARK INTER + INTRA:          -9.188
REMARK INTER:                  -7.609
REMARK INTRA:                  -1.579
REMARK UNBOUND:                -0.714
REMARK SMILES COc1cc(CNC(=O)CCCCC=CC(C)C)ccc1O
REMARK SMILES IDX 11 1 12 2 13 3 14 4 15 5 16 6 17 7 18 8 10 9 8 10 9 11 7 12
REMARK SMILES IDX 6 14 5 15 4 16 19 17 3 18 20 19 21 20 2 21 1 22 22 23
REMARK H PARENT 7 13 22 24
REMARK Flexibility Score: inf
ROOT
ATOM      1  C   UNL     1      14.365 -11.833   4.068  1.00  0.00     0.010 C 
ENDROOT
BRANCH   1   2
ATOM      2  C   UNL     1      14.608 -13.334   3.829  1.00  0.00     0.005 C 
BRANCH   2   3
ATOM      3  C   UNL     1      16.039 -13.789   4.164  1.00  0.00     0.027 C 
BRANCH   3   4
ATOM      4  C   UNL     1      16.052 -14.979   5.097  1.00  0.00    -0.031 C 
ATOM      5  C   UNL     1      16.795 -15.067   6.219  1.00  0.00    -0.028 C 
BRANCH   5   6
ATOM      6  C   UNL     1      17.660 -13.951   6.774  1.00  0.00     0.005 C 
ATOM      7  C   UNL     1      16.877 -13.169   7.833  1.00  0.00     0.012 C 
ATOM      8  C   UNL     1      18.949 -14.534   7.371  1.00  0.00     0.012 C 
ENDBRANCH   5   6
ENDBRANCH   3   4
ENDBRANCH   2   3
ENDBRANCH   1   2
BRANCH   1   9
ATOM      9  C   UNL     1      15.521 -11.158   4.820  1.00  0.00     0.100 C 
BRANCH   9  10
ATOM     10  C   UNL     1      16.159 -10.127   3.942  1.00  0.00     0.220 C 
ATOM     11  O   UNL     1      16.880  -9.227   4.451  1.00  0.00    -0.275 OA
ATOM     12  N   UNL     1      16.007 -10.212   2.519  1.00  0.00    -0.352 N 
ATOM     13  H   UNL     1      15.223 -10.785   2.127  1.00  0.00     0.163 HD
BRANCH  12  14
ATOM     14  C   UNL     1      17.058  -9.766   1.607  1.00  0.00     0.151 C 
BRANCH  14  15
ATOM     15  C   UNL     1      17.513 -10.928   0.761  1.00  0.00    -0.025 A 
ATOM     16  C   UNL     1      17.053 -12.226   1.044  1.00  0.00     0.056 A 
ATOM     17  C   UNL     1      18.459 -10.738  -0.256  1.00  0.00     0.009 A 
ATOM     18  C   UNL     1      17.532 -13.334   0.313  1.00  0.00     0.160 A 
ATOM     19  C   UNL     1      18.932 -11.831  -0.990  1.00  0.00     0.050 A 
ATOM     20  C   UNL     1      18.473 -13.127  -0.706  1.00  0.00     0.157 A 
BRANCH  18  21
ATOM     21  O   UNL     1      17.104 -14.650   0.576  1.00  0.00    -0.493 OA
ATOM     22  C   UNL     1      15.877 -15.204   0.113  1.00  0.00     0.278 C 
ENDBRANCH  18  21
BRANCH  20  23
ATOM     23  O   UNL     1      18.958 -14.220  -1.429  1.00  0.00    -0.504 OA
ATOM     24  H   UNL     1      19.922 -14.257  -1.749  1.00  0.00     0.293 HD
ENDBRANCH  20  23
ENDBRANCH  14  15
ENDBRANCH  12  14
ENDBRANCH   9  10
ENDBRANCH   1   9
TORSDOF 10
ENDMDL
MODEL 7
REMARK VINA RESULT:    -5.388      5.151      8.433
REMARK INTER + INTRA:          -9.094
REMARK INTER:                  -8.133
REMARK INTRA:                  -0.962
REMARK UNBOUND:                -0.714
REMARK SMILES COc1cc(CNC(=O)CCCCC=CC(C)C)ccc1O
REMARK SMILES IDX 11 1 12 2 13 3 14 4 15 5 16 6 17 7 18 8 10 9 8 10 9 11 7 12
REMARK SMILES IDX 6 14 5 15 4 16 19 17 3 18 20 19 21 20 2 21 1 22 22 23
REMARK H PARENT 7 13 22 24
REMARK Flexibility Score: inf
ROOT
ATOM      1  C   UNL     1      12.260 -11.472   5.144  1.00  0.00     0.010 C 
ENDROOT
BRANCH   1   2
ATOM      2  C   UNL     1      11.395 -10.710   6.164  1.00  0.00     0.005 C 
BRANCH   2   3
ATOM      3  C   UNL     1      12.093  -9.478   6.767  1.00  0.00     0.027 C 
BRANCH   3   4
ATOM      4  C   UNL     1      11.147  -8.309   6.921  1.00  0.00    -0.031 C 
ATOM      5  C   UNL     1      10.798  -7.466   5.928  1.00  0.00    -0.028 C 
BRANCH   5   6
ATOM      6  C   UNL     1      11.223  -7.615   4.478  1.00  0.00     0.005 C 
ATOM      7  C   UNL     1      10.132  -7.055   3.560  1.00  0.00     0.012 C 
ATOM      8  C   UNL     1      12.555  -6.888   4.246  1.00  0.00     0.012 C 
ENDBRANCH   5   6
ENDBRANCH   3   4
ENDBRANCH   2   3
ENDBRANCH   1   2
BRANCH   1   9
ATOM      9  C   UNL     1      13.481 -10.665   4.682  1.00  0.00     0.100 C 
BRANCH   9  10
ATOM     10  C   UNL     1      14.654 -11.579   4.511  1.00  0.00     0.220 C 
ATOM     11  O   UNL     1      15.412 -11.818   5.489  1.00  0.00    -0.275 OA
ATOM     12  N   UNL     1      14.867 -12.237   3.255  1.00  0.00    -0.352 N 
ATOM     13  H   UNL     1      14.405 -11.852   2.397  1.00  0.00     0.163 HD
BRANCH  12  14
ATOM     14  C   UNL     1      15.464 -13.568   3.177  1.00  0.00     0.151 C 
BRANCH  14  15
ATOM     15  C   UNL     1      16.317 -13.663   1.938  1.00  0.00    -0.025 A 
ATOM     16  C   UNL     1      17.288 -12.680   1.677  1.00  0.00     0.056 A 
ATOM     17  C   UNL     1      16.094 -14.679   0.997  1.00  0.00     0.009 A 
ATOM     18  C   UNL     1      18.039 -12.711   0.482  1.00  0.00     0.160 A 
ATOM     19  C   UNL     1      16.841 -14.719  -0.184  1.00  0.00     0.050 A 
ATOM     20  C   UNL     1      17.809 -13.737  -0.445  1.00  0.00     0.157 A 
BRANCH  18  21
ATOM     21  O   UNL     1      19.011 -11.737   0.181  1.00  0.00    -0.493 OA
ATOM     22  C   UNL     1      19.416 -10.702   1.072  1.00  0.00     0.278 C 
ENDBRANCH  18  21
BRANCH  20  23
ATOM     23  O   UNL     1      18.544 -13.770  -1.633  1.00  0.00    -0.504 OA
ATOM     24  H   UNL     1      19.021 -12.944  -1.982  1.00  0.00     0.293 HD
ENDBRANCH  20  23
ENDBRANCH  14  15
ENDBRANCH  12  14
ENDBRANCH   9  10
ENDBRANCH   1   9
TORSDOF 10
ENDMDL
MODEL 8
REMARK VINA RESULT:    -5.375      1.641      2.152
REMARK INTER + INTRA:          -9.074
REMARK INTER:                  -7.817
REMARK INTRA:                  -1.257
REMARK UNBOUND:                -0.714
REMARK SMILES COc1cc(CNC(=O)CCCCC=CC(C)C)ccc1O
REMARK SMILES IDX 11 1 12 2 13 3 14 4 15 5 16 6 17 7 18 8 10 9 8 10 9 11 7 12
REMARK SMILES IDX 6 14 5 15 4 16 19 17 3 18 20 19 21 20 2 21 1 22 22 23
REMARK H PARENT 7 13 22 24
REMARK Flexibility Score: inf
ROOT
ATOM      1  C   UNL     1      17.062 -14.028   7.613  1.00  0.00     0.010 C 
ENDROOT
BRANCH   1   2
ATOM      2  C   UNL     1      17.556 -15.449   7.937  1.00  0.00     0.005 C 
BRANCH   2   3
ATOM      3  C   UNL     1      18.408 -16.076   6.820  1.00  0.00     0.027 C 
BRANCH   3   4
ATOM      4  C   UNL     1      19.692 -16.670   7.351  1.00  0.00    -0.031 C 
ATOM      5  C   UNL     1      20.830 -15.977   7.564  1.00  0.00    -0.028 C 
BRANCH   5   6
ATOM      6  C   UNL     1      20.973 -14.475   7.395  1.00  0.00     0.005 C 
ATOM      7  C   UNL     1      20.765 -13.782   8.744  1.00  0.00     0.012 C 
ATOM      8  C   UNL     1      22.357 -14.143   6.818  1.00  0.00     0.012 C 
ENDBRANCH   5   6
ENDBRANCH   3   4
ENDBRANCH   2   3
ENDBRANCH   1   2
BRANCH   1   9
ATOM      9  C   UNL     1      17.583 -13.512   6.263  1.00  0.00     0.100 C 
BRANCH   9  10
ATOM     10  C   UNL     1      16.441 -12.985   5.451  1.00  0.00     0.220 C 
ATOM     11  O   UNL     1      16.079 -11.785   5.580  1.00  0.00    -0.275 OA
ATOM     12  N   UNL     1      15.813 -13.828   4.476  1.00  0.00    -0.352 N 
ATOM     13  H   UNL     1      15.937 -14.866   4.549  1.00  0.00     0.163 HD
BRANCH  12  14
ATOM     14  C   UNL     1      15.251 -13.287   3.241  1.00  0.00     0.151 C 
BRANCH  14  15
ATOM     15  C   UNL     1      16.228 -13.494   2.112  1.00  0.00    -0.025 A 
ATOM     16  C   UNL     1      17.203 -12.519   1.840  1.00  0.00     0.056 A 
ATOM     17  C   UNL     1      16.119 -14.614   1.275  1.00  0.00     0.009 A 
ATOM     18  C   UNL     1      18.072 -12.661   0.736  1.00  0.00     0.160 A 
ATOM     19  C   UNL     1      16.982 -14.764   0.186  1.00  0.00     0.050 A 
ATOM     20  C   UNL     1      17.955 -13.790  -0.087  1.00  0.00     0.157 A 
BRANCH  18  21
ATOM     21  O   UNL     1      19.053 -11.699   0.425  1.00  0.00    -0.493 OA
ATOM     22  C   UNL     1      18.881 -10.654  -0.526  1.00  0.00     0.278 C 
ENDBRANCH  18  21
BRANCH  20  23
ATOM     23  O   UNL     1      18.808 -13.933  -1.185  1.00  0.00    -0.504 OA
ATOM     24  H   UNL     1      18.605 -13.484  -2.073  1.00  0.00     0.293 HD
ENDBRANCH  20  23
ENDBRANCH  14  15
ENDBRANCH  12  14
ENDBRANCH   9  10
ENDBRANCH   1   9
TORSDOF 10
ENDMDL
MODEL 9
REMARK VINA RESULT:    -5.370      2.079      3.721
REMARK INTER + INTRA:          -9.065
REMARK INTER:                  -8.350
REMARK INTRA:                  -0.715
REMARK UNBOUND:                -0.714
REMARK SMILES COc1cc(CNC(=O)CCCCC=CC(C)C)ccc1O
REMARK SMILES IDX 11 1 12 2 13 3 14 4 15 5 16 6 17 7 18 8 10 9 8 10 9 11 7 12
REMARK SMILES IDX 6 14 5 15 4 16 19 17 3 18 20 19 21 20 2 21 1 22 22 23
REMARK H PARENT 7 13 22 24
REMARK Flexibility Score: inf
ROOT
ATOM      1  C   UNL     1      20.567 -17.023   8.230  1.00  0.00     0.010 C 
ENDROOT
BRANCH   1   2
ATOM      2  C   UNL     1      21.059 -18.220   7.397  1.00  0.00     0.005 C 
BRANCH   2   3
ATOM      3  C   UNL     1      22.105 -19.086   8.121  1.00  0.00     0.027 C 
BRANCH   3   4
ATOM      4  C   UNL     1      23.077 -19.726   7.157  1.00  0.00    -0.031 C 
ATOM      5  C   UNL     1      24.322 -19.272   6.905  1.00  0.00    -0.028 C 
BRANCH   5   6
ATOM      6  C   UNL     1      24.977 -18.104   7.619  1.00  0.00     0.005 C 
ATOM      7  C   UNL     1      26.483 -18.352   7.742  1.00  0.00     0.012 C 
ATOM      8  C   UNL     1      24.701 -16.801   6.853  1.00  0.00     0.012 C 
ENDBRANCH   5   6
ENDBRANCH   3   4
ENDBRANCH   2   3
ENDBRANCH   1   2
BRANCH   1   9
ATOM      9  C   UNL     1      20.013 -15.884   7.361  1.00  0.00     0.100 C 
BRANCH   9  10
ATOM     10  C   UNL     1      18.520 -15.852   7.465  1.00  0.00     0.220 C 
ATOM     11  O   UNL     1      17.968 -15.865   8.598  1.00  0.00    -0.275 OA
ATOM     12  N   UNL     1      17.727 -15.732   6.277  1.00  0.00    -0.352 N 
ATOM     13  H   UNL     1      18.158 -15.975   5.353  1.00  0.00     0.163 HD
BRANCH  12  14
ATOM     14  C   UNL     1      16.449 -15.024   6.275  1.00  0.00     0.151 C 
BRANCH  14  15
ATOM     15  C   UNL     1      16.396 -14.087   5.095  1.00  0.00    -0.025 A 
ATOM     16  C   UNL     1      15.999 -14.567   3.834  1.00  0.00     0.056 A 
ATOM     17  C   UNL     1      16.823 -12.757   5.224  1.00  0.00     0.009 A 
ATOM     18  C   UNL     1      16.022 -13.722   2.704  1.00  0.00     0.160 A 
ATOM     19  C   UNL     1      16.840 -11.914   4.109  1.00  0.00     0.050 A 
ATOM     20  C   UNL     1      16.444 -12.393   2.851  1.00  0.00     0.157 A 
BRANCH  18  21
ATOM     21  O   UNL     1      15.643 -14.170   1.423  1.00  0.00    -0.493 OA
ATOM     22  C   UNL     1      16.549 -14.673   0.446  1.00  0.00     0.278 C 
ENDBRANCH  18  21
BRANCH  20  23
ATOM     23  O   UNL     1      16.477 -11.553   1.734  1.00  0.00    -0.504 OA
ATOM     24  H   UNL     1      15.752 -10.859   1.574  1.00  0.00     0.293 HD
ENDBRANCH  20  23
ENDBRANCH  14  15
ENDBRANCH  12  14
ENDBRANCH   9  10
ENDBRANCH   1   9
TORSDOF 10
ENDMDL
