MODEL 1
REMARK VINA RESULT:    -6.855      0.000      0.000
REMARK INTER + INTRA:          -8.338
REMARK INTER:                  -8.057
REMARK INTRA:                  -0.281
REMARK UNBOUND:                -0.281
REMARK SMILES O=c1cc(-c2ccc(O)c(O)c2)oc2cc(O)cc(O)c12
REMARK SMILES IDX 4 1 3 2 2 3 1 4 21 5 19 6 18 7 16 8 15 9 14 10 13 11 5 12
REMARK SMILES IDX 6 13 7 14 8 15 12 16 10 17 9 18 11 20 20 22 17 24
REMARK H PARENT 9 19 11 21 20 23 17 25
REMARK Flexibility Score: inf
ROOT
ATOM      1  C   UNL     1     129.759 131.886 116.163  1.00  0.00     0.138 A 
ATOM      2  C   UNL     1     129.936 132.681 115.022  1.00  0.00     0.100 A 
ATOM      3  C   UNL     1     130.380 132.097 113.836  1.00  0.00     0.197 A 
ATOM      4  O   UNL     1     130.589 132.846 112.846  1.00  0.00    -0.289 OA
ATOM      5  C   UNL     1     130.617 130.703 113.784  1.00  0.00     0.107 A 
ATOM      6  C   UNL     1     131.031 129.991 112.619  1.00  0.00     0.134 A 
ATOM      7  C   UNL     1     131.348 128.631 112.716  1.00  0.00     0.093 A 
ATOM      8  C   UNL     1     131.206 127.942 113.924  1.00  0.00     0.123 A 
ATOM      9  C   UNL     1     130.751 128.616 115.055  1.00  0.00     0.094 A 
ATOM     10  C   UNL     1     130.460 129.981 114.997  1.00  0.00     0.146 A 
ATOM     11  O   UNL     1     130.042 130.589 116.103  1.00  0.00    -0.456 OA
ENDROOT
BRANCH   1  12
ATOM     12  C   UNL     1     129.288 132.456 117.451  1.00  0.00     0.021 A 
ATOM     13  C   UNL     1     130.008 133.505 118.048  1.00  0.00     0.016 A 
ATOM     14  C   UNL     1     129.590 134.052 119.263  1.00  0.00     0.051 A 
ATOM     15  C   UNL     1     128.454 133.557 119.909  1.00  0.00     0.157 A 
ATOM     16  C   UNL     1     128.152 131.950 118.112  1.00  0.00     0.062 A 
ATOM     17  C   UNL     1     127.733 132.499 119.334  1.00  0.00     0.158 A 
BRANCH  15  18
ATOM     18  O   UNL     1     128.061 134.125 121.120  1.00  0.00    -0.504 OA
ATOM     19  H   UNL     1     128.178 133.643 122.003  1.00  0.00     0.293 HD
ENDBRANCH  15  18
BRANCH  17  20
ATOM     20  O   UNL     1     126.605 131.992 119.978  1.00  0.00    -0.504 OA
ATOM     21  H   UNL     1     125.806 131.645 119.460  1.00  0.00     0.293 HD
ENDBRANCH  17  20
ENDBRANCH   1  12
BRANCH   6  22
ATOM     22  O   UNL     1     131.124 130.563 111.346  1.00  0.00    -0.507 OA
ATOM     23  H   UNL     1     131.499 130.101 110.531  1.00  0.00     0.293 HD
ENDBRANCH   6  22
BRANCH   8  24
ATOM     24  O   UNL     1     131.509 126.585 114.009  1.00  0.00    -0.508 OA
ATOM     25  H   UNL     1     131.646 126.127 114.902  1.00  0.00     0.293 HD
ENDBRANCH   8  24
TORSDOF 5
ENDMDL
MODEL 2
REMARK VINA RESULT:    -6.675      2.333      3.662
REMARK INTER + INTRA:          -8.126
REMARK INTER:                  -7.862
REMARK INTRA:                  -0.264
REMARK UNBOUND:                -0.281
REMARK SMILES O=c1cc(-c2ccc(O)c(O)c2)oc2cc(O)cc(O)c12
REMARK SMILES IDX 4 1 3 2 2 3 1 4 21 5 19 6 18 7 16 8 15 9 14 10 13 11 5 12
REMARK SMILES IDX 6 13 7 14 8 15 12 16 10 17 9 18 11 20 20 22 17 24
REMARK H PARENT 9 19 11 21 20 23 17 25
REMARK Flexibility Score: inf
ROOT
ATOM      1  C   UNL     1     129.888 131.586 114.318  1.00  0.00     0.138 A 
ATOM      2  C   UNL     1     130.692 130.475 114.028  1.00  0.00     0.100 A 
ATOM      3  C   UNL     1     130.658 129.911 112.753  1.00  0.00     0.197 A 
ATOM      4  O   UNL     1     131.344 128.877 112.542  1.00  0.00    -0.289 OA
ATOM      5  C   UNL     1     129.836 130.483 111.753  1.00  0.00     0.107 A 
ATOM      6  C   UNL     1     129.751 130.018 110.406  1.00  0.00     0.134 A 
ATOM      7  C   UNL     1     128.815 130.591 109.536  1.00  0.00     0.093 A 
ATOM      8  C   UNL     1     128.004 131.653 109.946  1.00  0.00     0.123 A 
ATOM      9  C   UNL     1     128.118 132.148 111.243  1.00  0.00     0.094 A 
ATOM     10  C   UNL     1     129.017 131.576 112.145  1.00  0.00     0.146 A 
ATOM     11  O   UNL     1     129.083 132.070 113.377  1.00  0.00    -0.456 OA
ENDROOT
BRANCH   1  12
ATOM     12  C   UNL     1     129.886 132.226 115.658  1.00  0.00     0.021 A 
ATOM     13  C   UNL     1     130.445 133.505 115.815  1.00  0.00     0.016 A 
ATOM     14  C   UNL     1     130.462 134.125 117.066  1.00  0.00     0.051 A 
ATOM     15  C   UNL     1     129.931 133.477 118.184  1.00  0.00     0.157 A 
ATOM     16  C   UNL     1     129.364 131.570 116.790  1.00  0.00     0.062 A 
ATOM     17  C   UNL     1     129.382 132.192 118.048  1.00  0.00     0.158 A 
BRANCH  15  18
ATOM     18  O   UNL     1     129.961 134.122 119.420  1.00  0.00    -0.504 OA
ATOM     19  H   UNL     1     130.191 135.104 119.508  1.00  0.00     0.293 HD
ENDBRANCH  15  18
BRANCH  17  20
ATOM     20  O   UNL     1     128.861 131.534 119.161  1.00  0.00    -0.504 OA
ATOM     21  H   UNL     1     128.416 130.627 119.083  1.00  0.00     0.293 HD
ENDBRANCH  17  20
ENDBRANCH   1  12
BRANCH   6  22
ATOM     22  O   UNL     1     130.573 129.022 109.871  1.00  0.00    -0.507 OA
ATOM     23  H   UNL     1     131.021 129.068 108.968  1.00  0.00     0.293 HD
ENDBRANCH   6  22
BRANCH   8  24
ATOM     24  O   UNL     1     127.087 132.226 109.069  1.00  0.00    -0.508 OA
ATOM     25  H   UNL     1     127.203 132.162 108.065  1.00  0.00     0.293 HD
ENDBRANCH   8  24
TORSDOF 5
ENDMDL
MODEL 3
REMARK VINA RESULT:    -6.454      3.414      4.665
REMARK INTER + INTRA:          -7.867
REMARK INTER:                  -7.603
REMARK INTRA:                  -0.264
REMARK UNBOUND:                -0.281
REMARK SMILES O=c1cc(-c2ccc(O)c(O)c2)oc2cc(O)cc(O)c12
REMARK SMILES IDX 4 1 3 2 2 3 1 4 21 5 19 6 18 7 16 8 15 9 14 10 13 11 5 12
REMARK SMILES IDX 6 13 7 14 8 15 12 16 10 17 9 18 11 20 20 22 17 24
REMARK H PARENT 9 19 11 21 20 23 17 25
REMARK Flexibility Score: inf
ROOT
ATOM      1  C   UNL     1     129.056 131.502 112.064  1.00  0.00     0.138 A 
ATOM      2  C   UNL     1     128.105 132.059 111.198  1.00  0.00     0.100 A 
ATOM      3  C   UNL     1     127.744 131.376 110.037  1.00  0.00     0.197 A 
ATOM      4  O   UNL     1     126.934 131.930 109.249  1.00  0.00    -0.289 OA
ATOM      5  C   UNL     1     128.316 130.112 109.758  1.00  0.00     0.107 A 
ATOM      6  C   UNL     1     127.993 129.305 108.625  1.00  0.00     0.134 A 
ATOM      7  C   UNL     1     128.709 128.125 108.391  1.00  0.00     0.093 A 
ATOM      8  C   UNL     1     129.696 127.692 109.282  1.00  0.00     0.123 A 
ATOM      9  C   UNL     1     129.980 128.445 110.418  1.00  0.00     0.094 A 
ATOM     10  C   UNL     1     129.307 129.644 110.661  1.00  0.00     0.146 A 
ATOM     11  O   UNL     1     129.620 130.339 111.750  1.00  0.00    -0.456 OA
ENDROOT
BRANCH   1  12
ATOM     12  C   UNL     1     129.477 132.186 113.313  1.00  0.00     0.021 A 
ATOM     13  C   UNL     1     130.754 132.767 113.388  1.00  0.00     0.016 A 
ATOM     14  C   UNL     1     131.175 133.409 114.554  1.00  0.00     0.051 A 
ATOM     15  C   UNL     1     130.336 133.474 115.669  1.00  0.00     0.157 A 
ATOM     16  C   UNL     1     128.638 132.241 114.444  1.00  0.00     0.062 A 
ATOM     17  C   UNL     1     129.062 132.885 115.616  1.00  0.00     0.158 A 
BRANCH  15  18
ATOM     18  O   UNL     1     130.784 134.123 116.819  1.00  0.00    -0.504 OA
ATOM     19  H   UNL     1     131.127 135.076 116.799  1.00  0.00     0.293 HD
ENDBRANCH  15  18
BRANCH  17  20
ATOM     20  O   UNL     1     128.223 132.936 116.728  1.00  0.00    -0.504 OA
ATOM     21  H   UNL     1     128.366 132.335 117.532  1.00  0.00     0.293 HD
ENDBRANCH  17  20
ENDBRANCH   1  12
BRANCH   6  22
ATOM     22  O   UNL     1     126.969 129.603 107.721  1.00  0.00    -0.507 OA
ATOM     23  H   UNL     1     127.092 129.710 106.725  1.00  0.00     0.293 HD
ENDBRANCH   6  22
BRANCH   8  24
ATOM     24  O   UNL     1     130.392 126.509 109.050  1.00  0.00    -0.508 OA
ATOM     25  H   UNL     1     131.170 126.470 108.401  1.00  0.00     0.293 HD
ENDBRANCH   8  24
TORSDOF 5
ENDMDL
MODEL 4
REMARK VINA RESULT:    -6.021      1.209      2.583
REMARK INTER + INTRA:          -7.358
REMARK INTER:                  -7.092
REMARK INTRA:                  -0.266
REMARK UNBOUND:                -0.281
REMARK SMILES O=c1cc(-c2ccc(O)c(O)c2)oc2cc(O)cc(O)c12
REMARK SMILES IDX 4 1 3 2 2 3 1 4 21 5 19 6 18 7 16 8 15 9 14 10 13 11 5 12
REMARK SMILES IDX 6 13 7 14 8 15 12 16 10 17 9 18 11 20 20 22 17 24
REMARK H PARENT 9 19 11 21 20 23 17 25
REMARK Flexibility Score: inf
ROOT
ATOM      1  C   UNL     1     129.945 130.910 116.485  1.00  0.00     0.138 A 
ATOM      2  C   UNL     1     130.710 129.767 116.753  1.00  0.00     0.100 A 
ATOM      3  C   UNL     1     131.244 129.030 115.696  1.00  0.00     0.197 A 
ATOM      4  O   UNL     1     131.873 127.974 115.966  1.00  0.00    -0.289 OA
ATOM      5  C   UNL     1     131.036 129.459 114.364  1.00  0.00     0.107 A 
ATOM      6  C   UNL     1     131.566 128.811 113.208  1.00  0.00     0.134 A 
ATOM      7  C   UNL     1     131.197 129.259 111.934  1.00  0.00     0.093 A 
ATOM      8  C   UNL     1     130.364 130.371 111.774  1.00  0.00     0.123 A 
ATOM      9  C   UNL     1     129.885 131.043 112.896  1.00  0.00     0.094 A 
ATOM     10  C   UNL     1     130.208 130.599 114.180  1.00  0.00     0.146 A 
ATOM     11  O   UNL     1     129.717 131.261 115.223  1.00  0.00    -0.456 OA
ENDROOT
BRANCH   1  12
ATOM     12  C   UNL     1     129.353 131.732 117.572  1.00  0.00     0.021 A 
ATOM     13  C   UNL     1     129.962 132.945 117.932  1.00  0.00     0.016 A 
ATOM     14  C   UNL     1     129.430 133.732 118.956  1.00  0.00     0.051 A 
ATOM     15  C   UNL     1     128.287 133.317 119.645  1.00  0.00     0.157 A 
ATOM     16  C   UNL     1     128.210 131.311 118.278  1.00  0.00     0.062 A 
ATOM     17  C   UNL     1     127.675 132.100 119.308  1.00  0.00     0.158 A 
BRANCH  15  18
ATOM     18  O   UNL     1     127.778 134.125 120.661  1.00  0.00    -0.504 OA
ATOM     19  H   UNL     1     128.244 134.974 120.958  1.00  0.00     0.293 HD
ENDBRANCH  15  18
BRANCH  17  20
ATOM     20  O   UNL     1     126.541 131.674 119.999  1.00  0.00    -0.504 OA
ATOM     21  H   UNL     1     126.269 130.698 120.026  1.00  0.00     0.293 HD
ENDBRANCH  17  20
ENDBRANCH   1  12
BRANCH   6  22
ATOM     22  O   UNL     1     132.472 127.746 113.257  1.00  0.00    -0.507 OA
ATOM     23  H   UNL     1     132.603 127.067 112.523  1.00  0.00     0.293 HD
ENDBRANCH   6  22
BRANCH   8  24
ATOM     24  O   UNL     1     130.015 130.819 110.503  1.00  0.00    -0.508 OA
ATOM     25  H   UNL     1     129.379 130.296 109.912  1.00  0.00     0.293 HD
ENDBRANCH   8  24
TORSDOF 5
ENDMDL
MODEL 5
REMARK VINA RESULT:    -5.669      1.950      6.961
REMARK INTER + INTRA:          -6.943
REMARK INTER:                  -6.679
REMARK INTRA:                  -0.265
REMARK UNBOUND:                -0.281
REMARK SMILES O=c1cc(-c2ccc(O)c(O)c2)oc2cc(O)cc(O)c12
REMARK SMILES IDX 4 1 3 2 2 3 1 4 21 5 19 6 18 7 16 8 15 9 14 10 13 11 5 12
REMARK SMILES IDX 6 13 7 14 8 15 12 16 10 17 9 18 11 20 20 22 17 24
REMARK H PARENT 9 19 11 21 20 23 17 25
REMARK Flexibility Score: inf
ROOT
ATOM      1  C   UNL     1     130.015 131.163 114.374  1.00  0.00     0.138 A 
ATOM      2  C   UNL     1     130.671 132.381 114.601  1.00  0.00     0.100 A 
ATOM      3  C   UNL     1     130.561 133.003 115.845  1.00  0.00     0.197 A 
ATOM      4  O   UNL     1     131.110 134.125 115.999  1.00  0.00    -0.289 OA
ATOM      5  C   UNL     1     129.814 132.386 116.876  1.00  0.00     0.107 A 
ATOM      6  C   UNL     1     129.665 132.907 118.196  1.00  0.00     0.134 A 
ATOM      7  C   UNL     1     128.806 132.268 119.099  1.00  0.00     0.093 A 
ATOM      8  C   UNL     1     128.137 131.092 118.748  1.00  0.00     0.123 A 
ATOM      9  C   UNL     1     128.318 130.546 117.479  1.00  0.00     0.094 A 
ATOM     10  C   UNL     1     129.142 131.179 116.546  1.00  0.00     0.146 A 
ATOM     11  O   UNL     1     129.275 130.632 115.341  1.00  0.00    -0.456 OA
ENDROOT
BRANCH   1  12
ATOM     12  C   UNL     1     130.100 130.457 113.070  1.00  0.00     0.021 A 
ATOM     13  C   UNL     1     130.691 129.185 113.009  1.00  0.00     0.016 A 
ATOM     14  C   UNL     1     130.790 128.504 111.793  1.00  0.00     0.051 A 
ATOM     15  C   UNL     1     130.308 129.084 110.616  1.00  0.00     0.157 A 
ATOM     16  C   UNL     1     129.628 131.045 111.879  1.00  0.00     0.062 A 
ATOM     17  C   UNL     1     129.728 130.362 110.657  1.00  0.00     0.158 A 
BRANCH  15  18
ATOM     18  O   UNL     1     130.419 128.379 109.418  1.00  0.00    -0.504 OA
ATOM     19  H   UNL     1     131.247 128.433 108.838  1.00  0.00     0.293 HD
ENDBRANCH  15  18
BRANCH  17  20
ATOM     20  O   UNL     1     129.256 130.952 109.486  1.00  0.00    -0.504 OA
ATOM     21  H   UNL     1     129.011 131.935 109.446  1.00  0.00     0.293 HD
ENDBRANCH  17  20
ENDBRANCH   1  12
BRANCH   6  22
ATOM     22  O   UNL     1     130.353 134.027 118.676  1.00  0.00    -0.507 OA
ATOM     23  H   UNL     1     130.449 134.271 119.650  1.00  0.00     0.293 HD
ENDBRANCH   6  22
BRANCH   8  24
ATOM     24  O   UNL     1     127.297 130.455 119.657  1.00  0.00    -0.508 OA
ATOM     25  H   UNL     1     127.393 130.595 120.656  1.00  0.00     0.293 HD
ENDBRANCH   8  24
TORSDOF 5
ENDMDL
MODEL 6
REMARK VINA RESULT:    -5.443      3.185      7.705
REMARK INTER + INTRA:          -6.678
REMARK INTER:                  -6.372
REMARK INTRA:                  -0.306
REMARK UNBOUND:                -0.281
REMARK SMILES O=c1cc(-c2ccc(O)c(O)c2)oc2cc(O)cc(O)c12
REMARK SMILES IDX 4 1 3 2 2 3 1 4 21 5 19 6 18 7 16 8 15 9 14 10 13 11 5 12
REMARK SMILES IDX 6 13 7 14 8 15 12 16 10 17 9 18 11 20 20 22 17 24
REMARK H PARENT 9 19 11 21 20 23 17 25
REMARK Flexibility Score: inf
ROOT
ATOM      1  C   UNL     1     129.746 129.778 111.769  1.00  0.00     0.138 A 
ATOM      2  C   UNL     1     129.730 131.171 111.923  1.00  0.00     0.100 A 
ATOM      3  C   UNL     1     130.034 131.733 113.162  1.00  0.00     0.197 A 
ATOM      4  O   UNL     1     129.951 132.983 113.285  1.00  0.00    -0.289 OA
ATOM      5  C   UNL     1     130.388 130.895 114.246  1.00  0.00     0.107 A 
ATOM      6  C   UNL     1     130.757 131.358 115.545  1.00  0.00     0.134 A 
ATOM      7  C   UNL     1     130.974 130.432 116.573  1.00  0.00     0.093 A 
ATOM      8  C   UNL     1     130.893 129.057 116.333  1.00  0.00     0.123 A 
ATOM      9  C   UNL     1     130.586 128.595 115.055  1.00  0.00     0.094 A 
ATOM     10  C   UNL     1     130.331 129.494 114.018  1.00  0.00     0.146 A 
ATOM     11  O   UNL     1     130.027 129.011 112.818  1.00  0.00    -0.456 OA
ENDROOT
BRANCH   1  12
ATOM     12  C   UNL     1     129.430 129.127 110.472  1.00  0.00     0.021 A 
ATOM     13  C   UNL     1     128.547 129.757 109.579  1.00  0.00     0.016 A 
ATOM     14  C   UNL     1     128.229 129.161 108.356  1.00  0.00     0.051 A 
ATOM     15  C   UNL     1     128.777 127.924 108.008  1.00  0.00     0.157 A 
ATOM     16  C   UNL     1     129.970 127.874 110.123  1.00  0.00     0.062 A 
ATOM     17  C   UNL     1     129.649 127.274 108.896  1.00  0.00     0.158 A 
BRANCH  15  18
ATOM     18  O   UNL     1     128.441 127.355 106.779  1.00  0.00    -0.504 OA
ATOM     19  H   UNL     1     127.793 126.581 106.705  1.00  0.00     0.293 HD
ENDBRANCH  15  18
BRANCH  17  20
ATOM     20  O   UNL     1     130.191 126.035 108.560  1.00  0.00    -0.504 OA
ATOM     21  H   UNL     1     129.754 125.166 108.849  1.00  0.00     0.293 HD
ENDBRANCH  17  20
ENDBRANCH   1  12
BRANCH   6  22
ATOM     22  O   UNL     1     130.948 132.705 115.869  1.00  0.00    -0.507 OA
ATOM     23  H   UNL     1     130.613 133.483 115.321  1.00  0.00     0.293 HD
ENDBRANCH   6  22
BRANCH   8  24
ATOM     24  O   UNL     1     131.125 128.142 117.357  1.00  0.00    -0.508 OA
ATOM     25  H   UNL     1     132.055 127.788 117.551  1.00  0.00     0.293 HD
ENDBRANCH   8  24
TORSDOF 5
ENDMDL
MODEL 7
REMARK VINA RESULT:    -5.303      2.444      7.258
REMARK INTER + INTRA:          -6.513
REMARK INTER:                  -6.198
REMARK INTRA:                  -0.315
REMARK UNBOUND:                -0.281
REMARK SMILES O=c1cc(-c2ccc(O)c(O)c2)oc2cc(O)cc(O)c12
REMARK SMILES IDX 4 1 3 2 2 3 1 4 21 5 19 6 18 7 16 8 15 9 14 10 13 11 5 12
REMARK SMILES IDX 6 13 7 14 8 15 12 16 10 17 9 18 11 20 20 22 17 24
REMARK H PARENT 9 19 11 21 20 23 17 25
REMARK Flexibility Score: inf
ROOT
ATOM      1  C   UNL     1     130.172 129.921 112.809  1.00  0.00     0.138 A 
ATOM      2  C   UNL     1     130.596 131.213 112.465  1.00  0.00     0.100 A 
ATOM      3  C   UNL     1     130.706 132.190 113.455  1.00  0.00     0.197 A 
ATOM      4  O   UNL     1     131.028 133.355 113.106  1.00  0.00    -0.289 OA
ATOM      5  C   UNL     1     130.419 131.862 114.801  1.00  0.00     0.107 A 
ATOM      6  C   UNL     1     130.536 132.765 115.900  1.00  0.00     0.134 A 
ATOM      7  C   UNL     1     130.113 132.363 117.173  1.00  0.00     0.093 A 
ATOM      8  C   UNL     1     129.634 131.068 117.398  1.00  0.00     0.123 A 
ATOM      9  C   UNL     1     129.568 130.163 116.342  1.00  0.00     0.094 A 
ATOM     10  C   UNL     1     129.950 130.546 115.054  1.00  0.00     0.146 A 
ATOM     11  O   UNL     1     129.856 129.654 114.072  1.00  0.00    -0.456 OA
ENDROOT
BRANCH   1  12
ATOM     12  C   UNL     1     130.038 128.844 111.796  1.00  0.00     0.021 A 
ATOM     13  C   UNL     1     130.044 129.173 110.430  1.00  0.00     0.016 A 
ATOM     14  C   UNL     1     129.912 128.178 109.459  1.00  0.00     0.051 A 
ATOM     15  C   UNL     1     129.763 126.840 109.832  1.00  0.00     0.157 A 
ATOM     16  C   UNL     1     129.873 127.495 112.169  1.00  0.00     0.062 A 
ATOM     17  C   UNL     1     129.739 126.495 111.193  1.00  0.00     0.158 A 
BRANCH  15  18
ATOM     18  O   UNL     1     129.635 125.869 108.840  1.00  0.00    -0.504 OA
ATOM     19  H   UNL     1     129.318 126.095 107.904  1.00  0.00     0.293 HD
ENDBRANCH  15  18
BRANCH  17  20
ATOM     20  O   UNL     1     129.579 125.164 111.573  1.00  0.00    -0.504 OA
ATOM     21  H   UNL     1     130.200 124.723 112.243  1.00  0.00     0.293 HD
ENDBRANCH  17  20
ENDBRANCH   1  12
BRANCH   6  22
ATOM     22  O   UNL     1     131.079 134.050 115.801  1.00  0.00    -0.507 OA
ATOM     23  H   UNL     1     130.580 134.863 115.474  1.00  0.00     0.293 HD
ENDBRANCH   6  22
BRANCH   8  24
ATOM     24  O   UNL     1     129.231 130.671 118.670  1.00  0.00    -0.508 OA
ATOM     25  H   UNL     1     129.549 129.801 119.080  1.00  0.00     0.293 HD
ENDBRANCH   8  24
TORSDOF 5
ENDMDL
MODEL 8
REMARK VINA RESULT:    -5.277      1.887      6.816
REMARK INTER + INTRA:          -6.483
REMARK INTER:                  -6.171
REMARK INTRA:                  -0.312
REMARK UNBOUND:                -0.281
REMARK SMILES O=c1cc(-c2ccc(O)c(O)c2)oc2cc(O)cc(O)c12
REMARK SMILES IDX 4 1 3 2 2 3 1 4 21 5 19 6 18 7 16 8 15 9 14 10 13 11 5 12
REMARK SMILES IDX 6 13 7 14 8 15 12 16 10 17 9 18 11 20 20 22 17 24
REMARK H PARENT 9 19 11 21 20 23 17 25
REMARK Flexibility Score: inf
ROOT
ATOM      1  C   UNL     1     129.547 131.418 115.019  1.00  0.00     0.138 A 
ATOM      2  C   UNL     1     128.851 132.632 115.101  1.00  0.00     0.100 A 
ATOM      3  C   UNL     1     128.339 133.054 116.328  1.00  0.00     0.197 A 
ATOM      4  O   UNL     1     127.667 134.117 116.359  1.00  0.00    -0.289 OA
ATOM      5  C   UNL     1     128.553 132.269 117.486  1.00  0.00     0.107 A 
ATOM      6  C   UNL     1     128.114 132.618 118.798  1.00  0.00     0.134 A 
ATOM      7  C   UNL     1     128.281 131.706 119.848  1.00  0.00     0.093 A 
ATOM      8  C   UNL     1     128.927 130.483 119.645  1.00  0.00     0.123 A 
ATOM      9  C   UNL     1     129.407 130.156 118.379  1.00  0.00     0.094 A 
ATOM     10  C   UNL     1     129.225 131.030 117.305  1.00  0.00     0.146 A 
ATOM     11  O   UNL     1     129.686 130.672 116.110  1.00  0.00    -0.456 OA
ENDROOT
BRANCH   1  12
ATOM     12  C   UNL     1     130.112 130.923 113.738  1.00  0.00     0.021 A 
ATOM     13  C   UNL     1     129.615 131.422 112.523  1.00  0.00     0.016 A 
ATOM     14  C   UNL     1     130.125 130.966 111.305  1.00  0.00     0.051 A 
ATOM     15  C   UNL     1     131.133 129.998 111.278  1.00  0.00     0.157 A 
ATOM     16  C   UNL     1     131.118 129.937 113.706  1.00  0.00     0.062 A 
ATOM     17  C   UNL     1     131.630 129.478 112.483  1.00  0.00     0.158 A 
BRANCH  15  18
ATOM     18  O   UNL     1     131.623 129.564 110.047  1.00  0.00    -0.504 OA
ATOM     19  H   UNL     1     131.232 128.765 109.564  1.00  0.00     0.293 HD
ENDBRANCH  15  18
BRANCH  17  20
ATOM     20  O   UNL     1     132.627 128.503 112.464  1.00  0.00    -0.504 OA
ATOM     21  H   UNL     1     132.653 127.783 111.751  1.00  0.00     0.293 HD
ENDBRANCH  17  20
ENDBRANCH   1  12
BRANCH   6  22
ATOM     22  O   UNL     1     127.535 133.848 119.126  1.00  0.00    -0.507 OA
ATOM     23  H   UNL     1     127.275 134.132 120.058  1.00  0.00     0.293 HD
ENDBRANCH   6  22
BRANCH   8  24
ATOM     24  O   UNL     1     129.102 129.589 120.698  1.00  0.00    -0.508 OA
ATOM     25  H   UNL     1     130.012 129.436 121.118  1.00  0.00     0.293 HD
ENDBRANCH   8  24
TORSDOF 5
ENDMDL
MODEL 9
REMARK VINA RESULT:    -4.899      3.272      5.056
REMARK INTER + INTRA:          -6.038
REMARK INTER:                  -5.774
REMARK INTRA:                  -0.265
REMARK UNBOUND:                -0.281
REMARK SMILES O=c1cc(-c2ccc(O)c(O)c2)oc2cc(O)cc(O)c12
REMARK SMILES IDX 4 1 3 2 2 3 1 4 21 5 19 6 18 7 16 8 15 9 14 10 13 11 5 12
REMARK SMILES IDX 6 13 7 14 8 15 12 16 10 17 9 18 11 20 20 22 17 24
REMARK H PARENT 9 19 11 21 20 23 17 25
REMARK Flexibility Score: inf
ROOT
ATOM      1  C   UNL     1     129.776 130.846 112.542  1.00  0.00     0.138 A 
ATOM      2  C   UNL     1     130.513 129.691 112.250  1.00  0.00     0.100 A 
ATOM      3  C   UNL     1     130.217 128.955 111.102  1.00  0.00     0.197 A 
ATOM      4  O   UNL     1     130.854 127.888 110.899  1.00  0.00    -0.289 OA
ATOM      5  C   UNL     1     129.198 129.398 110.226  1.00  0.00     0.107 A 
ATOM      6  C   UNL     1     128.836 128.752 109.006  1.00  0.00     0.134 A 
ATOM      7  C   UNL     1     127.733 129.215 108.279  1.00  0.00     0.093 A 
ATOM      8  C   UNL     1     127.015 130.340 108.697  1.00  0.00     0.123 A 
ATOM      9  C   UNL     1     127.394 131.009 109.858  1.00  0.00     0.094 A 
ATOM     10  C   UNL     1     128.469 130.550 110.623  1.00  0.00     0.146 A 
ATOM     11  O   UNL     1     128.787 131.211 111.732  1.00  0.00    -0.456 OA
ENDROOT
BRANCH   1  12
ATOM     12  C   UNL     1     130.049 131.667 113.750  1.00  0.00     0.021 A 
ATOM     13  C   UNL     1     130.597 132.952 113.603  1.00  0.00     0.016 A 
ATOM     14  C   UNL     1     130.870 133.740 114.724  1.00  0.00     0.051 A 
ATOM     15  C   UNL     1     130.611 133.257 116.009  1.00  0.00     0.157 A 
ATOM     16  C   UNL     1     129.802 131.178 115.047  1.00  0.00     0.062 A 
ATOM     17  C   UNL     1     130.078 131.969 116.173  1.00  0.00     0.158 A 
BRANCH  15  18
ATOM     18  O   UNL     1     130.892 134.068 117.108  1.00  0.00    -0.504 OA
ATOM     19  H   UNL     1     130.666 133.788 118.054  1.00  0.00     0.293 HD
ENDBRANCH  15  18
BRANCH  17  20
ATOM     20  O   UNL     1     129.827 131.476 117.453  1.00  0.00    -0.504 OA
ATOM     21  H   UNL     1     129.166 131.924 118.077  1.00  0.00     0.293 HD
ENDBRANCH  17  20
ENDBRANCH   1  12
BRANCH   6  22
ATOM     22  O   UNL     1     129.538 127.674 108.456  1.00  0.00    -0.507 OA
ATOM     23  H   UNL     1     129.447 126.715 108.753  1.00  0.00     0.293 HD
ENDBRANCH   6  22
BRANCH   8  24
ATOM     24  O   UNL     1     125.929 130.803 107.960  1.00  0.00    -0.508 OA
ATOM     25  H   UNL     1     125.984 130.928 106.956  1.00  0.00     0.293 HD
ENDBRANCH   8  24
TORSDOF 5
ENDMDL
