MODEL 1
REMARK VINA RESULT:    -2.808      0.000      0.000
REMARK INTER + INTRA:          -3.379
REMARK INTER:                  -3.300
REMARK INTRA:                  -0.078
REMARK UNBOUND:                -0.078
REMARK SMILES O=C([O-])CCC(=O)[O-]
REMARK SMILES IDX 4 1 2 2 1 3 3 4 5 5 6 6 7 7 8 8
REMARK H PARENT
REMARK Flexibility Score: inf
ROOT
ATOM      1  C   UNL     1     -18.402  33.374 -19.629  1.00  0.00     0.059 C 
ENDROOT
BRANCH   1   2
ATOM      2  C   UNL     1     -19.456  33.667 -18.607  1.00  0.00     0.042 C 
ATOM      3  O   UNL     1     -19.136  34.125 -17.480  1.00  0.00    -0.550 OA
ATOM      4  O   UNL     1     -20.788  33.387 -18.885  1.00  0.00    -0.550 OA
ENDBRANCH   1   2
BRANCH   1   5
ATOM      5  C   UNL     1     -17.091  34.071 -19.259  1.00  0.00     0.059 C 
BRANCH   5   6
ATOM      6  C   UNL     1     -15.943  33.117 -19.367  1.00  0.00     0.042 C 
ATOM      7  O   UNL     1     -16.150  31.875 -19.387  1.00  0.00    -0.550 OA
ATOM      8  O   UNL     1     -14.640  33.598 -19.395  1.00  0.00    -0.550 OA
ENDBRANCH   5   6
ENDBRANCH   1   5
TORSDOF 3
ENDMDL
MODEL 2
REMARK VINA RESULT:    -1.589     18.888     20.339
REMARK INTER + INTRA:          -1.946
REMARK INTER:                  -1.956
REMARK INTRA:                   0.010
REMARK UNBOUND:                -0.078
REMARK SMILES O=C([O-])CCC(=O)[O-]
REMARK SMILES IDX 4 1 2 2 1 3 3 4 5 5 6 6 7 7 8 8
REMARK H PARENT
REMARK Flexibility Score: inf
ROOT
ATOM      1  C   UNL     1      -6.156  19.771 -10.667  1.00  0.00     0.059 C 
ENDROOT
BRANCH   1   2
ATOM      2  C   UNL     1      -6.137  20.779 -11.772  1.00  0.00     0.042 C 
ATOM      3  O   UNL     1      -5.600  21.904 -11.595  1.00  0.00    -0.550 OA
ATOM      4  O   UNL     1      -6.756  20.494 -12.983  1.00  0.00    -0.550 OA
ENDBRANCH   1   2
BRANCH   1   5
ATOM      5  C   UNL     1      -5.607  18.429 -11.158  1.00  0.00     0.059 C 
BRANCH   5   6
ATOM      6  C   UNL     1      -4.151  18.310 -10.835  1.00  0.00     0.042 C 
ATOM      7  O   UNL     1      -3.413  19.330 -10.848  1.00  0.00    -0.550 OA
ATOM      8  O   UNL     1      -3.599  17.063 -10.568  1.00  0.00    -0.550 OA
ENDBRANCH   5   6
ENDBRANCH   1   5
TORSDOF 3
ENDMDL
MODEL 3
REMARK VINA RESULT:    -1.570     18.819     20.303
REMARK INTER + INTRA:          -1.924
REMARK INTER:                  -2.000
REMARK INTRA:                   0.076
REMARK UNBOUND:                -0.078
REMARK SMILES O=C([O-])CCC(=O)[O-]
REMARK SMILES IDX 4 1 2 2 1 3 3 4 5 5 6 6 7 7 8 8
REMARK H PARENT
REMARK Flexibility Score: inf
ROOT
ATOM      1  C   UNL     1      -6.271  19.820 -10.653  1.00  0.00     0.059 C 
ENDROOT
BRANCH   1   2
ATOM      2  C   UNL     1      -6.187  20.798 -11.783  1.00  0.00     0.042 C 
ATOM      3  O   UNL     1      -6.709  20.528 -12.896  1.00  0.00    -0.550 OA
ATOM      4  O   UNL     1      -5.490  21.989 -11.619  1.00  0.00    -0.550 OA
ENDBRANCH   1   2
BRANCH   1   5
ATOM      5  C   UNL     1      -5.726  18.457 -11.084  1.00  0.00     0.059 C 
BRANCH   5   6
ATOM      6  C   UNL     1      -4.252  18.382 -10.836  1.00  0.00     0.042 C 
ATOM      7  O   UNL     1      -3.561  19.434 -10.795  1.00  0.00    -0.550 OA
ATOM      8  O   UNL     1      -3.633  17.145 -10.700  1.00  0.00    -0.550 OA
ENDBRANCH   5   6
ENDBRANCH   1   5
TORSDOF 3
ENDMDL
MODEL 4
REMARK VINA RESULT:    -1.559     18.822     20.458
REMARK INTER + INTRA:          -1.911
REMARK INTER:                  -1.969
REMARK INTRA:                   0.058
REMARK UNBOUND:                -0.078
REMARK SMILES O=C([O-])CCC(=O)[O-]
REMARK SMILES IDX 4 1 2 2 1 3 3 4 5 5 6 6 7 7 8 8
REMARK H PARENT
REMARK Flexibility Score: inf
ROOT
ATOM      1  C   UNL     1      -5.734  18.439 -11.109  1.00  0.00     0.059 C 
ENDROOT
BRANCH   1   2
ATOM      2  C   UNL     1      -4.262  18.359 -10.846  1.00  0.00     0.042 C 
ATOM      3  O   UNL     1      -3.568  19.408 -10.803  1.00  0.00    -0.550 OA
ATOM      4  O   UNL     1      -3.650  17.120 -10.697  1.00  0.00    -0.550 OA
ENDBRANCH   1   2
BRANCH   1   5
ATOM      5  C   UNL     1      -6.285  19.792 -10.656  1.00  0.00     0.059 C 
BRANCH   5   6
ATOM      6  C   UNL     1      -6.211  20.787 -11.771  1.00  0.00     0.042 C 
ATOM      7  O   UNL     1      -6.706  20.517 -12.896  1.00  0.00    -0.550 OA
ATOM      8  O   UNL     1      -5.549  21.994 -11.581  1.00  0.00    -0.550 OA
ENDBRANCH   5   6
ENDBRANCH   1   5
TORSDOF 3
ENDMDL
MODEL 5
REMARK VINA RESULT:    -1.546     18.990     20.659
REMARK INTER + INTRA:          -1.896
REMARK INTER:                  -1.897
REMARK INTRA:                   0.001
REMARK UNBOUND:                -0.078
REMARK SMILES O=C([O-])CCC(=O)[O-]
REMARK SMILES IDX 4 1 2 2 1 3 3 4 5 5 6 6 7 7 8 8
REMARK H PARENT
REMARK Flexibility Score: inf
ROOT
ATOM      1  C   UNL     1      -5.543  18.318 -11.147  1.00  0.00     0.059 C 
ENDROOT
BRANCH   1   2
ATOM      2  C   UNL     1      -4.090  18.232 -10.796  1.00  0.00     0.042 C 
ATOM      3  O   UNL     1      -3.371  19.265 -10.816  1.00  0.00    -0.550 OA
ATOM      4  O   UNL     1      -3.521  17.001 -10.495  1.00  0.00    -0.550 OA
ENDBRANCH   1   2
BRANCH   1   5
ATOM      5  C   UNL     1      -6.135  19.639 -10.650  1.00  0.00     0.059 C 
BRANCH   5   6
ATOM      6  C   UNL     1      -6.135  20.657 -11.746  1.00  0.00     0.042 C 
ATOM      7  O   UNL     1      -5.599  21.782 -11.566  1.00  0.00    -0.550 OA
ATOM      8  O   UNL     1      -6.772  20.382 -12.950  1.00  0.00    -0.550 OA
ENDBRANCH   5   6
ENDBRANCH   1   5
TORSDOF 3
ENDMDL
MODEL 6
REMARK VINA RESULT:    -1.344     22.069     23.690
REMARK INTER + INTRA:          -1.658
REMARK INTER:                  -1.623
REMARK INTRA:                  -0.036
REMARK UNBOUND:                -0.078
REMARK SMILES O=C([O-])CCC(=O)[O-]
REMARK SMILES IDX 4 1 2 2 1 3 3 4 5 5 6 6 7 7 8 8
REMARK H PARENT
REMARK Flexibility Score: inf
ROOT
ATOM      1  C   UNL     1      -4.239  15.897 -10.772  1.00  0.00     0.059 C 
ENDROOT
BRANCH   1   2
ATOM      2  C   UNL     1      -3.523  14.718 -10.193  1.00  0.00     0.042 C 
ATOM      3  O   UNL     1      -4.148  13.875  -9.498  1.00  0.00    -0.550 OA
ATOM      4  O   UNL     1      -2.154  14.576 -10.382  1.00  0.00    -0.550 OA
ENDBRANCH   1   2
BRANCH   1   5
ATOM      5  C   UNL     1      -3.353  17.143 -10.713  1.00  0.00     0.059 C 
BRANCH   5   6
ATOM      6  C   UNL     1      -4.187  18.383 -10.800  1.00  0.00     0.042 C 
ATOM      7  O   UNL     1      -3.641  19.517 -10.786  1.00  0.00    -0.550 OA
ATOM      8  O   UNL     1      -5.572  18.286 -10.847  1.00  0.00    -0.550 OA
ENDBRANCH   5   6
ENDBRANCH   1   5
TORSDOF 3
ENDMDL
MODEL 7
REMARK VINA RESULT:    -1.233     19.109     19.740
REMARK INTER + INTRA:          -1.527
REMARK INTER:                  -1.404
REMARK INTRA:                  -0.123
REMARK UNBOUND:                -0.078
REMARK SMILES O=C([O-])CCC(=O)[O-]
REMARK SMILES IDX 4 1 2 2 1 3 3 4 5 5 6 6 7 7 8 8
REMARK H PARENT
REMARK Flexibility Score: inf
ROOT
ATOM      1  C   UNL     1     -21.833  26.758  -0.586  1.00  0.00     0.059 C 
ENDROOT
BRANCH   1   2
ATOM      2  C   UNL     1     -21.438  28.201  -0.580  1.00  0.00     0.042 C 
ATOM      3  O   UNL     1     -22.125  29.044   0.055  1.00  0.00    -0.550 OA
ATOM      4  O   UNL     1     -20.337  28.623  -1.315  1.00  0.00    -0.550 OA
ENDBRANCH   1   2
BRANCH   1   5
ATOM      5  C   UNL     1     -20.659  25.880  -0.148  1.00  0.00     0.059 C 
BRANCH   5   6
ATOM      6  C   UNL     1     -20.231  24.984  -1.267  1.00  0.00     0.042 C 
ATOM      7  O   UNL     1     -20.238  25.403  -2.454  1.00  0.00    -0.550 OA
ATOM      8  O   UNL     1     -19.870  23.668  -1.004  1.00  0.00    -0.550 OA
ENDBRANCH   5   6
ENDBRANCH   1   5
TORSDOF 3
ENDMDL
MODEL 8
REMARK VINA RESULT:    -1.214     21.711     23.162
REMARK INTER + INTRA:          -1.505
REMARK INTER:                  -1.464
REMARK INTRA:                  -0.041
REMARK UNBOUND:                -0.078
REMARK SMILES O=C([O-])CCC(=O)[O-]
REMARK SMILES IDX 4 1 2 2 1 3 3 4 5 5 6 6 7 7 8 8
REMARK H PARENT
REMARK Flexibility Score: inf
ROOT
ATOM      1  C   UNL     1      -4.727  17.097 -10.837  1.00  0.00     0.059 C 
ENDROOT
BRANCH   1   2
ATOM      2  C   UNL     1      -4.667  18.591 -10.894  1.00  0.00     0.042 C 
ATOM      3  O   UNL     1      -3.557  19.184 -10.844  1.00  0.00    -0.550 OA
ATOM      4  O   UNL     1      -5.842  19.332 -10.952  1.00  0.00    -0.550 OA
ENDBRANCH   1   2
BRANCH   1   5
ATOM      5  C   UNL     1      -3.367  16.522 -10.436  1.00  0.00     0.059 C 
BRANCH   5   6
ATOM      6  C   UNL     1      -3.392  15.027 -10.499  1.00  0.00     0.042 C 
ATOM      7  O   UNL     1      -4.475  14.420 -10.702  1.00  0.00    -0.550 OA
ATOM      8  O   UNL     1      -2.226  14.303 -10.281  1.00  0.00    -0.550 OA
ENDBRANCH   5   6
ENDBRANCH   1   5
TORSDOF 3
ENDMDL
