MODEL 1
REMARK VINA RESULT:    -5.187      0.000      0.000
REMARK INTER + INTRA:         -11.600
REMARK INTER:                  -9.736
REMARK INTRA:                  -1.865
REMARK UNBOUND:                -1.865
REMARK SMILES CCCCCCCCC=CCCCCCCCC(=O)[O-]
REMARK SMILES IDX 10 1 9 2 11 3 12 4 13 5 14 6 15 7 16 8 17 9 18 10 19 11
REMARK SMILES IDX 20 12 8 13 7 14 6 15 5 16 4 17 3 18 2 19 1 20
REMARK H PARENT
REMARK Flexibility Score: inf
ROOT
ATOM      1  C   UNL     1      19.577  40.850   1.345  1.00  0.00    -0.031 C 
ATOM      2  C   UNL     1      20.622  40.704   2.174  1.00  0.00    -0.031 C 
ENDROOT
BRANCH   1   3
ATOM      3  C   UNL     1      18.161  40.833   1.852  1.00  0.00     0.027 C 
BRANCH   3   4
ATOM      4  C   UNL     1      17.404  42.101   1.436  1.00  0.00     0.004 C 
BRANCH   4   5
ATOM      5  C   UNL     1      17.872  43.339   2.219  1.00  0.00     0.000 C 
BRANCH   5   6
ATOM      6  C   UNL     1      17.739  43.169   3.741  1.00  0.00     0.000 C 
BRANCH   6   7
ATOM      7  C   UNL     1      19.083  43.286   4.493  1.00  0.00     0.000 C 
BRANCH   7   8
ATOM      8  C   UNL     1      19.360  42.062   5.383  1.00  0.00     0.006 C 
BRANCH   8   9
ATOM      9  C   UNL     1      18.169  41.097   5.432  1.00  0.00     0.053 C 
BRANCH   9  10
ATOM     10  C   UNL     1      18.614  39.675   5.599  1.00  0.00     0.041 C 
ATOM     11  O   UNL     1      18.565  38.878   4.626  1.00  0.00    -0.550 OA
ATOM     12  O   UNL     1      19.053  39.225   6.837  1.00  0.00    -0.550 OA
ENDBRANCH   9  10
ENDBRANCH   8   9
ENDBRANCH   7   8
ENDBRANCH   6   7
ENDBRANCH   5   6
ENDBRANCH   4   5
ENDBRANCH   3   4
ENDBRANCH   1   3
BRANCH   2  13
ATOM     13  C   UNL     1      22.039  40.795   1.678  1.00  0.00     0.027 C 
BRANCH  13  14
ATOM     14  C   UNL     1      22.341  39.674   0.671  1.00  0.00     0.004 C 
BRANCH  14  15
ATOM     15  C   UNL     1      23.672  38.963   0.962  1.00  0.00     0.000 C 
BRANCH  15  16
ATOM     16  C   UNL     1      23.578  38.000   2.158  1.00  0.00     0.000 C 
BRANCH  16  17
ATOM     17  C   UNL     1      23.368  36.540   1.726  1.00  0.00    -0.000 C 
BRANCH  17  18
ATOM     18  C   UNL     1      24.650  35.901   1.166  1.00  0.00    -0.000 C 
BRANCH  18  19
ATOM     19  C   UNL     1      24.446  35.299  -0.234  1.00  0.00    -0.003 C 
ATOM     20  C   UNL     1      22.970  35.147  -0.604  1.00  0.00     0.004 C 
ENDBRANCH  18  19
ENDBRANCH  17  18
ENDBRANCH  16  17
ENDBRANCH  15  16
ENDBRANCH  14  15
ENDBRANCH  13  14
ENDBRANCH   2  13
TORSDOF 15
ENDMDL
MODEL 2
REMARK VINA RESULT:    -5.096      1.069      1.593
REMARK INTER + INTRA:         -11.429
REMARK INTER:                 -10.066
REMARK INTRA:                  -1.363
REMARK UNBOUND:                -1.865
REMARK SMILES CCCCCCCCC=CCCCCCCCC(=O)[O-]
REMARK SMILES IDX 10 1 9 2 11 3 12 4 13 5 14 6 15 7 16 8 17 9 18 10 19 11
REMARK SMILES IDX 20 12 8 13 7 14 6 15 5 16 4 17 3 18 2 19 1 20
REMARK H PARENT
REMARK Flexibility Score: inf
ROOT
ATOM      1  C   UNL     1      19.335  41.275   1.651  1.00  0.00    -0.031 C 
ATOM      2  C   UNL     1      20.212  42.044   0.989  1.00  0.00    -0.031 C 
ENDROOT
BRANCH   1   3
ATOM      3  C   UNL     1      18.000  41.808   2.097  1.00  0.00     0.027 C 
BRANCH   3   4
ATOM      4  C   UNL     1      18.131  43.217   2.687  1.00  0.00     0.004 C 
BRANCH   4   5
ATOM      5  C   UNL     1      18.750  43.201   4.095  1.00  0.00     0.000 C 
BRANCH   5   6
ATOM      6  C   UNL     1      17.698  43.067   5.209  1.00  0.00     0.000 C 
BRANCH   6   7
ATOM      7  C   UNL     1      17.642  41.656   5.834  1.00  0.00     0.000 C 
BRANCH   7   8
ATOM      8  C   UNL     1      18.943  40.867   5.606  1.00  0.00     0.006 C 
BRANCH   8   9
ATOM      9  C   UNL     1      18.841  39.420   6.103  1.00  0.00     0.053 C 
BRANCH   9  10
ATOM     10  C   UNL     1      19.363  38.447   5.091  1.00  0.00     0.041 C 
ATOM     11  O   UNL     1      20.229  38.808   4.252  1.00  0.00    -0.550 OA
ATOM     12  O   UNL     1      18.869  37.149   5.055  1.00  0.00    -0.550 OA
ENDBRANCH   9  10
ENDBRANCH   8   9
ENDBRANCH   7   8
ENDBRANCH   6   7
ENDBRANCH   5   6
ENDBRANCH   4   5
ENDBRANCH   3   4
ENDBRANCH   1   3
BRANCH   2  13
ATOM     13  C   UNL     1      21.515  41.493   0.479  1.00  0.00     0.027 C 
BRANCH  13  14
ATOM     14  C   UNL     1      22.056  40.405   1.420  1.00  0.00     0.004 C 
BRANCH  14  15
ATOM     15  C   UNL     1      22.560  39.167   0.662  1.00  0.00     0.000 C 
BRANCH  15  16
ATOM     16  C   UNL     1      24.050  38.882   0.923  1.00  0.00     0.000 C 
BRANCH  16  17
ATOM     17  C   UNL     1      24.272  37.605   1.750  1.00  0.00    -0.000 C 
BRANCH  17  18
ATOM     18  C   UNL     1      23.439  36.418   1.236  1.00  0.00    -0.000 C 
BRANCH  18  19
ATOM     19  C   UNL     1      24.223  35.526   0.261  1.00  0.00    -0.003 C 
ATOM     20  C   UNL     1      23.328  34.854  -0.779  1.00  0.00     0.004 C 
ENDBRANCH  18  19
ENDBRANCH  17  18
ENDBRANCH  16  17
ENDBRANCH  15  16
ENDBRANCH  14  15
ENDBRANCH  13  14
ENDBRANCH   2  13
TORSDOF 15
ENDMDL
MODEL 3
REMARK VINA RESULT:    -5.040      2.521      3.401
REMARK INTER + INTRA:         -11.324
REMARK INTER:                  -9.209
REMARK INTRA:                  -2.115
REMARK UNBOUND:                -1.865
REMARK SMILES CCCCCCCCC=CCCCCCCCC(=O)[O-]
REMARK SMILES IDX 10 1 9 2 11 3 12 4 13 5 14 6 15 7 16 8 17 9 18 10 19 11
REMARK SMILES IDX 20 12 8 13 7 14 6 15 5 16 4 17 3 18 2 19 1 20
REMARK H PARENT
REMARK Flexibility Score: inf
ROOT
ATOM      1  C   UNL     1      19.711  41.122   1.883  1.00  0.00    -0.031 C 
ATOM      2  C   UNL     1      20.319  41.982   1.051  1.00  0.00    -0.031 C 
ENDROOT
BRANCH   1   3
ATOM      3  C   UNL     1      18.384  41.441   2.514  1.00  0.00     0.027 C 
BRANCH   3   4
ATOM      4  C   UNL     1      18.474  41.421   4.045  1.00  0.00     0.004 C 
BRANCH   4   5
ATOM      5  C   UNL     1      19.572  40.469   4.548  1.00  0.00     0.000 C 
BRANCH   5   6
ATOM      6  C   UNL     1      20.653  41.186   5.374  1.00  0.00     0.000 C 
BRANCH   6   7
ATOM      7  C   UNL     1      22.044  41.178   4.706  1.00  0.00     0.000 C 
BRANCH   7   8
ATOM      8  C   UNL     1      22.564  39.750   4.464  1.00  0.00     0.006 C 
BRANCH   8   9
ATOM      9  C   UNL     1      24.087  39.652   4.615  1.00  0.00     0.053 C 
BRANCH   9  10
ATOM     10  C   UNL     1      24.500  38.359   5.250  1.00  0.00     0.041 C 
ATOM     11  O   UNL     1      24.127  37.263   4.756  1.00  0.00    -0.550 OA
ATOM     12  O   UNL     1      25.271  38.367   6.405  1.00  0.00    -0.550 OA
ENDBRANCH   9  10
ENDBRANCH   8   9
ENDBRANCH   7   8
ENDBRANCH   6   7
ENDBRANCH   5   6
ENDBRANCH   4   5
ENDBRANCH   3   4
ENDBRANCH   1   3
BRANCH   2  13
ATOM     13  C   UNL     1      21.610  41.633   0.364  1.00  0.00     0.027 C 
BRANCH  13  14
ATOM     14  C   UNL     1      22.057  40.208   0.726  1.00  0.00     0.004 C 
BRANCH  14  15
ATOM     15  C   UNL     1      23.576  40.102   0.935  1.00  0.00     0.000 C 
BRANCH  15  16
ATOM     16  C   UNL     1      24.085  38.653   0.837  1.00  0.00     0.000 C 
BRANCH  16  17
ATOM     17  C   UNL     1      23.037  37.625   1.295  1.00  0.00    -0.000 C 
BRANCH  17  18
ATOM     18  C   UNL     1      23.628  36.213   1.454  1.00  0.00    -0.000 C 
BRANCH  18  19
ATOM     19  C   UNL     1      24.267  35.692   0.157  1.00  0.00    -0.003 C 
ATOM     20  C   UNL     1      23.276  34.945  -0.735  1.00  0.00     0.004 C 
ENDBRANCH  18  19
ENDBRANCH  17  18
ENDBRANCH  16  17
ENDBRANCH  15  16
ENDBRANCH  14  15
ENDBRANCH  13  14
ENDBRANCH   2  13
TORSDOF 15
ENDMDL
MODEL 4
REMARK VINA RESULT:    -5.020      1.667      2.361
REMARK INTER + INTRA:         -11.286
REMARK INTER:                  -9.479
REMARK INTRA:                  -1.807
REMARK UNBOUND:                -1.865
REMARK SMILES CCCCCCCCC=CCCCCCCCC(=O)[O-]
REMARK SMILES IDX 10 1 9 2 11 3 12 4 13 5 14 6 15 7 16 8 17 9 18 10 19 11
REMARK SMILES IDX 20 12 8 13 7 14 6 15 5 16 4 17 3 18 2 19 1 20
REMARK H PARENT
REMARK Flexibility Score: inf
ROOT
ATOM      1  C   UNL     1      21.278  43.582   1.998  1.00  0.00    -0.031 C 
ATOM      2  C   UNL     1      21.347  42.463   1.260  1.00  0.00    -0.031 C 
ENDROOT
BRANCH   1   3
ATOM      3  C   UNL     1      20.009  43.989   2.695  1.00  0.00     0.027 C 
BRANCH   3   4
ATOM      4  C   UNL     1      18.811  43.957   1.737  1.00  0.00     0.004 C 
BRANCH   4   5
ATOM      5  C   UNL     1      17.638  43.141   2.303  1.00  0.00     0.000 C 
BRANCH   5   6
ATOM      6  C   UNL     1      17.321  41.890   1.467  1.00  0.00     0.000 C 
BRANCH   6   7
ATOM      7  C   UNL     1      18.217  40.680   1.806  1.00  0.00     0.000 C 
BRANCH   7   8
ATOM      8  C   UNL     1      18.676  40.691   3.275  1.00  0.00     0.006 C 
BRANCH   8   9
ATOM      9  C   UNL     1      20.060  40.056   3.456  1.00  0.00     0.053 C 
BRANCH   9  10
ATOM     10  C   UNL     1      20.770  40.606   4.656  1.00  0.00     0.041 C 
ATOM     11  O   UNL     1      20.135  41.258   5.525  1.00  0.00    -0.550 OA
ATOM     12  O   UNL     1      22.140  40.424   4.797  1.00  0.00    -0.550 OA
ENDBRANCH   9  10
ENDBRANCH   8   9
ENDBRANCH   7   8
ENDBRANCH   6   7
ENDBRANCH   5   6
ENDBRANCH   4   5
ENDBRANCH   3   4
ENDBRANCH   1   3
BRANCH   2  13
ATOM     13  C   UNL     1      22.634  42.018   0.623  1.00  0.00     0.027 C 
BRANCH  13  14
ATOM     14  C   UNL     1      23.268  40.864   1.416  1.00  0.00     0.004 C 
BRANCH  14  15
ATOM     15  C   UNL     1      22.894  39.485   0.850  1.00  0.00     0.000 C 
BRANCH  15  16
ATOM     16  C   UNL     1      24.027  38.455   1.010  1.00  0.00     0.000 C 
BRANCH  16  17
ATOM     17  C   UNL     1      23.501  37.029   1.245  1.00  0.00    -0.000 C 
BRANCH  17  18
ATOM     18  C   UNL     1      24.614  35.970   1.165  1.00  0.00    -0.000 C 
BRANCH  18  19
ATOM     19  C   UNL     1      24.461  35.044  -0.052  1.00  0.00    -0.003 C 
ATOM     20  C   UNL     1      23.076  35.131  -0.692  1.00  0.00     0.004 C 
ENDBRANCH  18  19
ENDBRANCH  17  18
ENDBRANCH  16  17
ENDBRANCH  15  16
ENDBRANCH  14  15
ENDBRANCH  13  14
ENDBRANCH   2  13
TORSDOF 15
ENDMDL
MODEL 5
REMARK VINA RESULT:    -4.996      2.763      3.945
REMARK INTER + INTRA:         -11.242
REMARK INTER:                 -10.263
REMARK INTRA:                  -0.979
REMARK UNBOUND:                -1.865
REMARK SMILES CCCCCCCCC=CCCCCCCCC(=O)[O-]
REMARK SMILES IDX 10 1 9 2 11 3 12 4 13 5 14 6 15 7 16 8 17 9 18 10 19 11
REMARK SMILES IDX 20 12 8 13 7 14 6 15 5 16 4 17 3 18 2 19 1 20
REMARK H PARENT
REMARK Flexibility Score: inf
ROOT
ATOM      1  C   UNL     1      20.188  41.269   2.764  1.00  0.00    -0.031 C 
ATOM      2  C   UNL     1      20.428  41.377   1.449  1.00  0.00    -0.031 C 
ENDROOT
BRANCH   1   3
ATOM      3  C   UNL     1      18.852  40.815   3.286  1.00  0.00     0.027 C 
BRANCH   3   4
ATOM      4  C   UNL     1      18.780  40.934   4.813  1.00  0.00     0.004 C 
BRANCH   4   5
ATOM      5  C   UNL     1      18.411  39.600   5.483  1.00  0.00     0.000 C 
BRANCH   5   6
ATOM      6  C   UNL     1      19.431  38.485   5.195  1.00  0.00     0.000 C 
BRANCH   6   7
ATOM      7  C   UNL     1      18.803  37.076   5.140  1.00  0.00     0.000 C 
BRANCH   7   8
ATOM      8  C   UNL     1      19.866  35.969   5.034  1.00  0.00     0.006 C 
BRANCH   8   9
ATOM      9  C   UNL     1      19.526  34.751   5.901  1.00  0.00     0.053 C 
BRANCH   9  10
ATOM     10  C   UNL     1      18.322  34.021   5.387  1.00  0.00     0.041 C 
ATOM     11  O   UNL     1      17.330  33.829   6.136  1.00  0.00    -0.550 OA
ATOM     12  O   UNL     1      18.311  33.527   4.089  1.00  0.00    -0.550 OA
ENDBRANCH   9  10
ENDBRANCH   8   9
ENDBRANCH   7   8
ENDBRANCH   6   7
ENDBRANCH   5   6
ENDBRANCH   4   5
ENDBRANCH   3   4
ENDBRANCH   1   3
BRANCH   2  13
ATOM     13  C   UNL     1      21.785  41.761   0.926  1.00  0.00     0.027 C 
BRANCH  13  14
ATOM     14  C   UNL     1      22.870  40.819   1.473  1.00  0.00     0.004 C 
BRANCH  14  15
ATOM     15  C   UNL     1      22.894  39.464   0.749  1.00  0.00     0.000 C 
BRANCH  15  16
ATOM     16  C   UNL     1      24.258  38.761   0.858  1.00  0.00     0.000 C 
BRANCH  16  17
ATOM     17  C   UNL     1      24.130  37.276   1.236  1.00  0.00    -0.000 C 
BRANCH  17  18
ATOM     18  C   UNL     1      23.014  36.563   0.451  1.00  0.00    -0.000 C 
BRANCH  18  19
ATOM     19  C   UNL     1      23.468  35.211  -0.122  1.00  0.00    -0.003 C 
ATOM     20  C   UNL     1      24.981  35.009  -0.036  1.00  0.00     0.004 C 
ENDBRANCH  18  19
ENDBRANCH  17  18
ENDBRANCH  16  17
ENDBRANCH  15  16
ENDBRANCH  14  15
ENDBRANCH  13  14
ENDBRANCH   2  13
TORSDOF 15
ENDMDL
MODEL 6
REMARK VINA RESULT:    -4.978      1.227      1.704
REMARK INTER + INTRA:         -11.209
REMARK INTER:                  -9.442
REMARK INTRA:                  -1.766
REMARK UNBOUND:                -1.865
REMARK SMILES CCCCCCCCC=CCCCCCCCC(=O)[O-]
REMARK SMILES IDX 10 1 9 2 11 3 12 4 13 5 14 6 15 7 16 8 17 9 18 10 19 11
REMARK SMILES IDX 20 12 8 13 7 14 6 15 5 16 4 17 3 18 2 19 1 20
REMARK H PARENT
REMARK Flexibility Score: inf
ROOT
ATOM      1  C   UNL     1      20.698  41.135   1.363  1.00  0.00    -0.031 C 
ATOM      2  C   UNL     1      21.596  40.794   2.300  1.00  0.00    -0.031 C 
ENDROOT
BRANCH   1   3
ATOM      3  C   UNL     1      19.999  42.466   1.390  1.00  0.00     0.027 C 
BRANCH   3   4
ATOM      4  C   UNL     1      18.517  42.326   1.016  1.00  0.00     0.004 C 
BRANCH   4   5
ATOM      5  C   UNL     1      17.591  42.567   2.219  1.00  0.00     0.000 C 
BRANCH   5   6
ATOM      6  C   UNL     1      18.336  43.115   3.448  1.00  0.00     0.000 C 
BRANCH   6   7
ATOM      7  C   UNL     1      17.994  42.372   4.757  1.00  0.00     0.000 C 
BRANCH   7   8
ATOM      8  C   UNL     1      19.086  41.364   5.156  1.00  0.00     0.006 C 
BRANCH   8   9
ATOM      9  C   UNL     1      18.869  39.988   4.516  1.00  0.00     0.053 C 
BRANCH   9  10
ATOM     10  C   UNL     1      19.003  38.882   5.519  1.00  0.00     0.041 C 
ATOM     11  O   UNL     1      19.066  39.146   6.747  1.00  0.00    -0.550 OA
ATOM     12  O   UNL     1      19.091  37.563   5.091  1.00  0.00    -0.550 OA
ENDBRANCH   9  10
ENDBRANCH   8   9
ENDBRANCH   7   8
ENDBRANCH   6   7
ENDBRANCH   5   6
ENDBRANCH   4   5
ENDBRANCH   3   4
ENDBRANCH   1   3
BRANCH   2  13
ATOM     13  C   UNL     1      22.349  39.494   2.233  1.00  0.00     0.027 C 
BRANCH  13  14
ATOM     14  C   UNL     1      22.412  38.824   3.614  1.00  0.00     0.004 C 
BRANCH  14  15
ATOM     15  C   UNL     1      22.323  37.292   3.531  1.00  0.00     0.000 C 
BRANCH  15  16
ATOM     16  C   UNL     1      23.700  36.614   3.646  1.00  0.00     0.000 C 
BRANCH  16  17
ATOM     17  C   UNL     1      24.465  36.600   2.313  1.00  0.00    -0.000 C 
BRANCH  17  18
ATOM     18  C   UNL     1      23.562  36.242   1.119  1.00  0.00    -0.000 C 
BRANCH  18  19
ATOM     19  C   UNL     1      24.238  35.270   0.139  1.00  0.00    -0.003 C 
ATOM     20  C   UNL     1      23.312  34.832  -0.995  1.00  0.00     0.004 C 
ENDBRANCH  18  19
ENDBRANCH  17  18
ENDBRANCH  16  17
ENDBRANCH  15  16
ENDBRANCH  14  15
ENDBRANCH  13  14
ENDBRANCH   2  13
TORSDOF 15
ENDMDL
MODEL 7
REMARK VINA RESULT:    -4.967      1.545      2.494
REMARK INTER + INTRA:         -11.188
REMARK INTER:                  -8.976
REMARK INTRA:                  -2.212
REMARK UNBOUND:                -1.865
REMARK SMILES CCCCCCCCC=CCCCCCCCC(=O)[O-]
REMARK SMILES IDX 10 1 9 2 11 3 12 4 13 5 14 6 15 7 16 8 17 9 18 10 19 11
REMARK SMILES IDX 20 12 8 13 7 14 6 15 5 16 4 17 3 18 2 19 1 20
REMARK H PARENT
REMARK Flexibility Score: inf
ROOT
ATOM      1  C   UNL     1      21.919  39.723   1.694  1.00  0.00    -0.031 C 
ATOM      2  C   UNL     1      22.890  39.926   2.597  1.00  0.00    -0.031 C 
ENDROOT
BRANCH   1   3
ATOM      3  C   UNL     1      21.931  40.409   0.356  1.00  0.00     0.027 C 
BRANCH   3   4
ATOM      4  C   UNL     1      21.594  41.900   0.490  1.00  0.00     0.004 C 
BRANCH   4   5
ATOM      5  C   UNL     1      20.189  42.126   1.073  1.00  0.00     0.000 C 
BRANCH   5   6
ATOM      6  C   UNL     1      20.189  43.077   2.281  1.00  0.00     0.000 C 
BRANCH   6   7
ATOM      7  C   UNL     1      20.158  42.345   3.640  1.00  0.00     0.000 C 
BRANCH   7   8
ATOM      8  C   UNL     1      19.065  41.264   3.694  1.00  0.00     0.006 C 
BRANCH   8   9
ATOM      9  C   UNL     1      18.537  41.041   5.116  1.00  0.00     0.053 C 
BRANCH   9  10
ATOM     10  C   UNL     1      19.209  39.877   5.780  1.00  0.00     0.041 C 
ATOM     11  O   UNL     1      20.266  40.048   6.440  1.00  0.00    -0.550 OA
ATOM     12  O   UNL     1      18.681  38.599   5.642  1.00  0.00    -0.550 OA
ENDBRANCH   9  10
ENDBRANCH   8   9
ENDBRANCH   7   8
ENDBRANCH   6   7
ENDBRANCH   5   6
ENDBRANCH   4   5
ENDBRANCH   3   4
ENDBRANCH   1   3
BRANCH   2  13
ATOM     13  C   UNL     1      22.917  39.185   3.905  1.00  0.00     0.027 C 
BRANCH  13  14
ATOM     14  C   UNL     1      21.883  38.047   3.912  1.00  0.00     0.004 C 
BRANCH  14  15
ATOM     15  C   UNL     1      22.521  36.670   3.666  1.00  0.00     0.000 C 
BRANCH  15  16
ATOM     16  C   UNL     1      24.057  36.708   3.752  1.00  0.00     0.000 C 
BRANCH  16  17
ATOM     17  C   UNL     1      24.734  36.246   2.451  1.00  0.00    -0.000 C 
BRANCH  17  18
ATOM     18  C   UNL     1      23.809  36.376   1.228  1.00  0.00    -0.000 C 
BRANCH  18  19
ATOM     19  C   UNL     1      24.213  35.436   0.081  1.00  0.00    -0.003 C 
ATOM     20  C   UNL     1      23.026  35.007  -0.780  1.00  0.00     0.004 C 
ENDBRANCH  18  19
ENDBRANCH  17  18
ENDBRANCH  16  17
ENDBRANCH  15  16
ENDBRANCH  14  15
ENDBRANCH  13  14
ENDBRANCH   2  13
TORSDOF 15
ENDMDL
MODEL 8
REMARK VINA RESULT:    -4.859      2.264      6.225
REMARK INTER + INTRA:         -10.984
REMARK INTER:                  -8.389
REMARK INTRA:                  -2.595
REMARK UNBOUND:                -1.865
REMARK SMILES CCCCCCCCC=CCCCCCCCC(=O)[O-]
REMARK SMILES IDX 10 1 9 2 11 3 12 4 13 5 14 6 15 7 16 8 17 9 18 10 19 11
REMARK SMILES IDX 20 12 8 13 7 14 6 15 5 16 4 17 3 18 2 19 1 20
REMARK H PARENT
REMARK Flexibility Score: inf
ROOT
ATOM      1  C   UNL     1      20.407  42.184   1.648  1.00  0.00    -0.031 C 
ATOM      2  C   UNL     1      19.124  41.803   1.568  1.00  0.00    -0.031 C 
ENDROOT
BRANCH   1   3
ATOM      3  C   UNL     1      21.416  41.784   0.606  1.00  0.00     0.027 C 
BRANCH   3   4
ATOM      4  C   UNL     1      21.868  40.330   0.797  1.00  0.00     0.004 C 
BRANCH   4   5
ATOM      5  C   UNL     1      23.376  40.224   1.076  1.00  0.00     0.000 C 
BRANCH   5   6
ATOM      6  C   UNL     1      23.940  38.823   0.788  1.00  0.00     0.000 C 
BRANCH   6   7
ATOM      7  C   UNL     1      22.865  37.716   0.785  1.00  0.00     0.000 C 
BRANCH   7   8
ATOM      8  C   UNL     1      23.401  36.383   1.335  1.00  0.00     0.006 C 
BRANCH   8   9
ATOM      9  C   UNL     1      24.427  36.587   2.456  1.00  0.00     0.053 C 
BRANCH   9  10
ATOM     10  C   UNL     1      23.766  36.918   3.760  1.00  0.00     0.041 C 
ATOM     11  O   UNL     1      22.752  36.275   4.138  1.00  0.00    -0.550 OA
ATOM     12  O   UNL     1      24.253  37.958   4.541  1.00  0.00    -0.550 OA
ENDBRANCH   9  10
ENDBRANCH   8   9
ENDBRANCH   7   8
ENDBRANCH   6   7
ENDBRANCH   5   6
ENDBRANCH   4   5
ENDBRANCH   3   4
ENDBRANCH   1   3
BRANCH   2  13
ATOM     13  C   UNL     1      18.101  42.263   2.569  1.00  0.00     0.027 C 
BRANCH  13  14
ATOM     14  C   UNL     1      18.731  42.431   3.960  1.00  0.00     0.004 C 
BRANCH  14  15
ATOM     15  C   UNL     1      18.018  41.596   5.035  1.00  0.00     0.000 C 
BRANCH  15  16
ATOM     16  C   UNL     1      18.882  40.428   5.545  1.00  0.00     0.000 C 
BRANCH  16  17
ATOM     17  C   UNL     1      19.185  39.394   4.448  1.00  0.00    -0.000 C 
BRANCH  17  18
ATOM     18  C   UNL     1      20.689  39.286   4.141  1.00  0.00    -0.000 C 
BRANCH  18  19
ATOM     19  C   UNL     1      21.554  40.048   5.157  1.00  0.00    -0.003 C 
ATOM     20  C   UNL     1      22.387  41.156   4.513  1.00  0.00     0.004 C 
ENDBRANCH  18  19
ENDBRANCH  17  18
ENDBRANCH  16  17
ENDBRANCH  15  16
ENDBRANCH  14  15
ENDBRANCH  13  14
ENDBRANCH   2  13
TORSDOF 15
ENDMDL
MODEL 9
REMARK VINA RESULT:    -4.813      2.984      7.166
REMARK INTER + INTRA:         -10.898
REMARK INTER:                  -8.724
REMARK INTRA:                  -2.174
REMARK UNBOUND:                -1.865
REMARK SMILES CCCCCCCCC=CCCCCCCCC(=O)[O-]
REMARK SMILES IDX 10 1 9 2 11 3 12 4 13 5 14 6 15 7 16 8 17 9 18 10 19 11
REMARK SMILES IDX 20 12 8 13 7 14 6 15 5 16 4 17 3 18 2 19 1 20
REMARK H PARENT
REMARK Flexibility Score: inf
ROOT
ATOM      1  C   UNL     1      20.369  41.125   1.707  1.00  0.00    -0.031 C 
ATOM      2  C   UNL     1      19.071  40.791   1.774  1.00  0.00    -0.031 C 
ENDROOT
BRANCH   1   3
ATOM      3  C   UNL     1      21.456  40.108   1.922  1.00  0.00     0.027 C 
BRANCH   3   4
ATOM      4  C   UNL     1      22.291  40.438   3.166  1.00  0.00     0.004 C 
BRANCH   4   5
ATOM      5  C   UNL     1      23.076  39.219   3.678  1.00  0.00     0.000 C 
BRANCH   5   6
ATOM      6  C   UNL     1      22.237  37.931   3.694  1.00  0.00     0.000 C 
BRANCH   6   7
ATOM      7  C   UNL     1      23.082  36.645   3.564  1.00  0.00     0.000 C 
BRANCH   7   8
ATOM      8  C   UNL     1      24.052  36.705   2.371  1.00  0.00     0.006 C 
BRANCH   8   9
ATOM      9  C   UNL     1      23.325  36.603   1.024  1.00  0.00     0.053 C 
BRANCH   9  10
ATOM     10  C   UNL     1      23.845  35.466   0.198  1.00  0.00     0.041 C 
ATOM     11  O   UNL     1      25.034  35.077   0.332  1.00  0.00    -0.550 OA
ATOM     12  O   UNL     1      23.023  34.860  -0.744  1.00  0.00    -0.550 OA
ENDBRANCH   9  10
ENDBRANCH   8   9
ENDBRANCH   7   8
ENDBRANCH   6   7
ENDBRANCH   5   6
ENDBRANCH   4   5
ENDBRANCH   3   4
ENDBRANCH   1   3
BRANCH   2  13
ATOM     13  C   UNL     1      17.986  41.791   1.487  1.00  0.00     0.027 C 
BRANCH  13  14
ATOM     14  C   UNL     1      18.332  43.164   2.084  1.00  0.00     0.004 C 
BRANCH  14  15
ATOM     15  C   UNL     1      17.503  43.488   3.337  1.00  0.00     0.000 C 
BRANCH  15  16
ATOM     16  C   UNL     1      18.280  43.232   4.640  1.00  0.00     0.000 C 
BRANCH  16  17
ATOM     17  C   UNL     1      18.019  41.832   5.219  1.00  0.00    -0.000 C 
BRANCH  17  18
ATOM     18  C   UNL     1      19.308  41.003   5.360  1.00  0.00    -0.000 C 
BRANCH  18  19
ATOM     19  C   UNL     1      19.054  39.619   5.977  1.00  0.00    -0.003 C 
ATOM     20  C   UNL     1      18.777  38.543   4.927  1.00  0.00     0.004 C 
ENDBRANCH  18  19
ENDBRANCH  17  18
ENDBRANCH  16  17
ENDBRANCH  15  16
ENDBRANCH  14  15
ENDBRANCH  13  14
ENDBRANCH   2  13
TORSDOF 15
ENDMDL
