MODEL 1
REMARK VINA RESULT:    -5.401      0.000      0.000
REMARK INTER + INTRA:         -16.710
REMARK INTER:                 -12.346
REMARK INTRA:                  -4.364
REMARK UNBOUND:                -4.364
REMARK SMILES CCCCCCCCCCCCCCCCCCCCCCCC(=O)[O-]
REMARK SMILES IDX 13 1 14 2 15 3 16 4 17 5 18 6 19 7 20 8 21 9 22 10 23 11
REMARK SMILES IDX 24 12 25 13 26 14 12 15 11 16 10 17 9 18 8 19 7 20 6 21 5 22
REMARK SMILES IDX 4 23 3 24 2 25 1 26
REMARK H PARENT
REMARK Flexibility Score: inf
ROOT
ATOM      1  C   UNL     1      79.142   6.260  23.303  1.00  0.00     0.000 C 
ENDROOT
BRANCH   1   2
ATOM      2  C   UNL     1      78.348   6.633  22.037  1.00  0.00     0.000 C 
BRANCH   2   3
ATOM      3  C   UNL     1      78.517   5.592  20.909  1.00  0.00     0.000 C 
BRANCH   3   4
ATOM      4  C   UNL     1      78.892   4.186  21.407  1.00  0.00     0.000 C 
BRANCH   4   5
ATOM      5  C   UNL     1      77.698   3.219  21.428  1.00  0.00     0.000 C 
BRANCH   5   6
ATOM      6  C   UNL     1      76.824   3.359  22.690  1.00  0.00     0.000 C 
BRANCH   6   7
ATOM      7  C   UNL     1      75.416   3.942  22.458  1.00  0.00     0.000 C 
BRANCH   7   8
ATOM      8  C   UNL     1      74.994   3.937  20.980  1.00  0.00     0.000 C 
BRANCH   8   9
ATOM      9  C   UNL     1      74.760   5.363  20.470  1.00  0.00     0.000 C 
BRANCH   9  10
ATOM     10  C   UNL     1      74.827   6.378  21.620  1.00  0.00     0.006 C 
BRANCH  10  11
ATOM     11  C   UNL     1      74.158   7.711  21.259  1.00  0.00     0.053 C 
BRANCH  11  12
ATOM     12  C   UNL     1      72.748   7.520  20.789  1.00  0.00     0.041 C 
ATOM     13  O   UNL     1      72.432   7.804  19.603  1.00  0.00    -0.550 OA
ATOM     14  O   UNL     1      71.789   7.002  21.650  1.00  0.00    -0.550 OA
ENDBRANCH  11  12
ENDBRANCH  10  11
ENDBRANCH   9  10
ENDBRANCH   8   9
ENDBRANCH   7   8
ENDBRANCH   6   7
ENDBRANCH   5   6
ENDBRANCH   4   5
ENDBRANCH   3   4
ENDBRANCH   2   3
ENDBRANCH   1   2
BRANCH   1  15
ATOM     15  C   UNL     1      80.040   7.412  23.800  1.00  0.00     0.000 C 
BRANCH  15  16
ATOM     16  C   UNL     1      79.569   8.812  23.358  1.00  0.00     0.000 C 
BRANCH  16  17
ATOM     17  C   UNL     1      79.184   9.766  24.502  1.00  0.00     0.000 C 
BRANCH  17  18
ATOM     18  C   UNL     1      79.226   9.148  25.913  1.00  0.00    -0.000 C 
BRANCH  18  19
ATOM     19  C   UNL     1      78.152   9.702  26.875  1.00  0.00    -0.000 C 
BRANCH  19  20
ATOM     20  C   UNL     1      76.919   8.786  26.972  1.00  0.00    -0.000 C 
BRANCH  20  21
ATOM     21  C   UNL     1      77.000   7.566  26.036  1.00  0.00    -0.000 C 
BRANCH  21  22
ATOM     22  C   UNL     1      76.047   7.606  24.828  1.00  0.00    -0.000 C 
BRANCH  22  23
ATOM     23  C   UNL     1      75.086   8.807  24.857  1.00  0.00    -0.000 C 
BRANCH  23  24
ATOM     24  C   UNL     1      75.497   9.905  23.860  1.00  0.00    -0.000 C 
BRANCH  24  25
ATOM     25  C   UNL     1      75.085  11.306  24.336  1.00  0.00    -0.003 C 
ATOM     26  C   UNL     1      76.295  12.098  24.821  1.00  0.00     0.004 C 
ENDBRANCH  24  25
ENDBRANCH  23  24
ENDBRANCH  22  23
ENDBRANCH  21  22
ENDBRANCH  20  21
ENDBRANCH  19  20
ENDBRANCH  18  19
ENDBRANCH  17  18
ENDBRANCH  16  17
ENDBRANCH  15  16
ENDBRANCH   1  15
TORSDOF 22
ENDMDL
MODEL 2
REMARK VINA RESULT:    -5.373      1.123      2.723
REMARK INTER + INTRA:         -16.647
REMARK INTER:                 -12.786
REMARK INTRA:                  -3.861
REMARK UNBOUND:                -4.364
REMARK SMILES CCCCCCCCCCCCCCCCCCCCCCCC(=O)[O-]
REMARK SMILES IDX 13 1 14 2 15 3 16 4 17 5 18 6 19 7 20 8 21 9 22 10 23 11
REMARK SMILES IDX 24 12 25 13 26 14 12 15 11 16 10 17 9 18 8 19 7 20 6 21 5 22
REMARK SMILES IDX 4 23 3 24 2 25 1 26
REMARK H PARENT
REMARK Flexibility Score: inf
ROOT
ATOM      1  C   UNL     1      78.429   6.531  21.880  1.00  0.00     0.000 C 
ENDROOT
BRANCH   1   2
ATOM      2  C   UNL     1      78.590   5.417  20.828  1.00  0.00     0.000 C 
BRANCH   2   3
ATOM      3  C   UNL     1      78.895   4.044  21.466  1.00  0.00     0.000 C 
BRANCH   3   4
ATOM      4  C   UNL     1      77.720   3.053  21.406  1.00  0.00     0.000 C 
BRANCH   4   5
ATOM      5  C   UNL     1      76.740   3.213  22.579  1.00  0.00     0.000 C 
BRANCH   5   6
ATOM      6  C   UNL     1      75.264   3.249  22.137  1.00  0.00     0.000 C 
BRANCH   6   7
ATOM      7  C   UNL     1      74.868   4.442  21.246  1.00  0.00     0.000 C 
BRANCH   7   8
ATOM      8  C   UNL     1      74.859   5.783  21.997  1.00  0.00     0.000 C 
BRANCH   8   9
ATOM      9  C   UNL     1      74.868   6.962  21.019  1.00  0.00     0.000 C 
BRANCH   9  10
ATOM     10  C   UNL     1      73.637   6.927  20.101  1.00  0.00     0.006 C 
BRANCH  10  11
ATOM     11  C   UNL     1      72.572   7.951  20.516  1.00  0.00     0.053 C 
BRANCH  11  12
ATOM     12  C   UNL     1      71.608   7.383  21.513  1.00  0.00     0.041 C 
ATOM     13  O   UNL     1      71.744   7.635  22.740  1.00  0.00    -0.550 OA
ATOM     14  O   UNL     1      70.543   6.599  21.087  1.00  0.00    -0.550 OA
ENDBRANCH  11  12
ENDBRANCH  10  11
ENDBRANCH   9  10
ENDBRANCH   8   9
ENDBRANCH   7   8
ENDBRANCH   6   7
ENDBRANCH   5   6
ENDBRANCH   4   5
ENDBRANCH   3   4
ENDBRANCH   2   3
ENDBRANCH   1   2
BRANCH   1  15
ATOM     15  C   UNL     1      79.001   6.132  23.256  1.00  0.00     0.000 C 
BRANCH  15  16
ATOM     16  C   UNL     1      78.527   7.029  24.418  1.00  0.00     0.000 C 
BRANCH  16  17
ATOM     17  C   UNL     1      77.082   6.785  24.887  1.00  0.00     0.000 C 
BRANCH  17  18
ATOM     18  C   UNL     1      76.473   7.909  25.747  1.00  0.00    -0.000 C 
BRANCH  18  19
ATOM     19  C   UNL     1      74.992   8.214  25.428  1.00  0.00    -0.000 C 
BRANCH  19  20
ATOM     20  C   UNL     1      74.824   9.028  24.133  1.00  0.00    -0.000 C 
BRANCH  20  21
ATOM     21  C   UNL     1      76.069   9.862  23.780  1.00  0.00    -0.000 C 
BRANCH  21  22
ATOM     22  C   UNL     1      76.134  11.250  24.441  1.00  0.00    -0.000 C 
BRANCH  22  23
ATOM     23  C   UNL     1      77.455  11.502  25.189  1.00  0.00    -0.000 C 
BRANCH  23  24
ATOM     24  C   UNL     1      78.642  10.772  24.535  1.00  0.00    -0.000 C 
BRANCH  24  25
ATOM     25  C   UNL     1      79.688  10.324  25.566  1.00  0.00    -0.003 C 
ATOM     26  C   UNL     1      79.081  10.251  26.965  1.00  0.00     0.004 C 
ENDBRANCH  24  25
ENDBRANCH  23  24
ENDBRANCH  22  23
ENDBRANCH  21  22
ENDBRANCH  20  21
ENDBRANCH  19  20
ENDBRANCH  18  19
ENDBRANCH  17  18
ENDBRANCH  16  17
ENDBRANCH  15  16
ENDBRANCH   1  15
TORSDOF 22
ENDMDL
MODEL 3
REMARK VINA RESULT:    -5.361      1.429      2.732
REMARK INTER + INTRA:         -16.620
REMARK INTER:                 -12.990
REMARK INTRA:                  -3.631
REMARK UNBOUND:                -4.364
REMARK SMILES CCCCCCCCCCCCCCCCCCCCCCCC(=O)[O-]
REMARK SMILES IDX 13 1 14 2 15 3 16 4 17 5 18 6 19 7 20 8 21 9 22 10 23 11
REMARK SMILES IDX 24 12 25 13 26 14 12 15 11 16 10 17 9 18 8 19 7 20 6 21 5 22
REMARK SMILES IDX 4 23 3 24 2 25 1 26
REMARK H PARENT
REMARK Flexibility Score: inf
ROOT
ATOM      1  C   UNL     1      76.794   7.680  22.626  1.00  0.00     0.000 C 
ENDROOT
BRANCH   1   2
ATOM      2  C   UNL     1      78.193   7.240  22.155  1.00  0.00     0.000 C 
BRANCH   2   3
ATOM      3  C   UNL     1      78.130   6.194  21.021  1.00  0.00     0.000 C 
BRANCH   3   4
ATOM      4  C   UNL     1      79.227   5.119  21.102  1.00  0.00     0.000 C 
BRANCH   4   5
ATOM      5  C   UNL     1      78.881   3.981  22.075  1.00  0.00     0.000 C 
BRANCH   5   6
ATOM      6  C   UNL     1      77.686   3.126  21.611  1.00  0.00     0.000 C 
BRANCH   6   7
ATOM      7  C   UNL     1      76.385   3.317  22.413  1.00  0.00     0.000 C 
BRANCH   7   8
ATOM      8  C   UNL     1      75.119   3.228  21.546  1.00  0.00     0.000 C 
BRANCH   8   9
ATOM      9  C   UNL     1      74.240   4.470  21.725  1.00  0.00     0.000 C 
BRANCH   9  10
ATOM     10  C   UNL     1      74.483   5.486  20.599  1.00  0.00     0.006 C 
BRANCH  10  11
ATOM     11  C   UNL     1      73.759   6.816  20.848  1.00  0.00     0.053 C 
BRANCH  11  12
ATOM     12  C   UNL     1      72.361   6.801  20.309  1.00  0.00     0.041 C 
ATOM     13  O   UNL     1      71.420   6.330  21.001  1.00  0.00    -0.550 OA
ATOM     14  O   UNL     1      72.091   7.332  19.054  1.00  0.00    -0.550 OA
ENDBRANCH  11  12
ENDBRANCH  10  11
ENDBRANCH   9  10
ENDBRANCH   8   9
ENDBRANCH   7   8
ENDBRANCH   6   7
ENDBRANCH   5   6
ENDBRANCH   4   5
ENDBRANCH   3   4
ENDBRANCH   2   3
ENDBRANCH   1   2
BRANCH   1  15
ATOM     15  C   UNL     1      76.253   6.801  23.773  1.00  0.00     0.000 C 
BRANCH  15  16
ATOM     16  C   UNL     1      76.879   7.107  25.149  1.00  0.00     0.000 C 
BRANCH  16  17
ATOM     17  C   UNL     1      76.259   8.296  25.903  1.00  0.00     0.000 C 
BRANCH  17  18
ATOM     18  C   UNL     1      77.266   9.218  26.617  1.00  0.00    -0.000 C 
BRANCH  18  19
ATOM     19  C   UNL     1      77.563  10.532  25.859  1.00  0.00    -0.000 C 
BRANCH  19  20
ATOM     20  C   UNL     1      76.733  10.668  24.571  1.00  0.00    -0.000 C 
BRANCH  20  21
ATOM     21  C   UNL     1      75.733  11.838  24.619  1.00  0.00    -0.000 C 
BRANCH  21  22
ATOM     22  C   UNL     1      74.269  11.458  24.332  1.00  0.00    -0.000 C 
BRANCH  22  23
ATOM     23  C   UNL     1      74.129  10.130  23.567  1.00  0.00    -0.000 C 
BRANCH  23  24
ATOM     24  C   UNL     1      73.739  10.345  22.095  1.00  0.00    -0.000 C 
BRANCH  24  25
ATOM     25  C   UNL     1      72.332  10.943  21.948  1.00  0.00    -0.003 C 
ATOM     26  C   UNL     1      71.263   9.859  22.046  1.00  0.00     0.004 C 
ENDBRANCH  24  25
ENDBRANCH  23  24
ENDBRANCH  22  23
ENDBRANCH  21  22
ENDBRANCH  20  21
ENDBRANCH  19  20
ENDBRANCH  18  19
ENDBRANCH  17  18
ENDBRANCH  16  17
ENDBRANCH  15  16
ENDBRANCH   1  15
TORSDOF 22
ENDMDL
MODEL 4
REMARK VINA RESULT:    -5.336      7.657     12.071
REMARK INTER + INTRA:         -16.564
REMARK INTER:                 -12.830
REMARK INTRA:                  -3.733
REMARK UNBOUND:                -4.364
REMARK SMILES CCCCCCCCCCCCCCCCCCCCCCCC(=O)[O-]
REMARK SMILES IDX 13 1 14 2 15 3 16 4 17 5 18 6 19 7 20 8 21 9 22 10 23 11
REMARK SMILES IDX 24 12 25 13 26 14 12 15 11 16 10 17 9 18 8 19 7 20 6 21 5 22
REMARK SMILES IDX 4 23 3 24 2 25 1 26
REMARK H PARENT
REMARK Flexibility Score: inf
ROOT
ATOM      1  C   UNL     1      64.991   2.888  18.911  1.00  0.00     0.000 C 
ENDROOT
BRANCH   1   2
ATOM      2  C   UNL     1      64.939   4.425  19.000  1.00  0.00     0.000 C 
BRANCH   2   3
ATOM      3  C   UNL     1      65.892   4.985  20.078  1.00  0.00     0.000 C 
BRANCH   3   4
ATOM      4  C   UNL     1      65.473   6.359  20.629  1.00  0.00     0.000 C 
BRANCH   4   5
ATOM      5  C   UNL     1      66.448   7.482  20.244  1.00  0.00     0.000 C 
BRANCH   5   6
ATOM      6  C   UNL     1      66.990   8.260  21.460  1.00  0.00     0.000 C 
BRANCH   6   7
ATOM      7  C   UNL     1      68.349   7.777  22.002  1.00  0.00     0.000 C 
BRANCH   7   8
ATOM      8  C   UNL     1      69.214   7.083  20.938  1.00  0.00     0.000 C 
BRANCH   8   9
ATOM      9  C   UNL     1      69.910   5.846  21.515  1.00  0.00     0.000 C 
BRANCH   9  10
ATOM     10  C   UNL     1      70.911   5.256  20.510  1.00  0.00     0.006 C 
BRANCH  10  11
ATOM     11  C   UNL     1      72.366   5.436  20.963  1.00  0.00     0.053 C 
BRANCH  11  12
ATOM     12  C   UNL     1      73.033   6.580  20.261  1.00  0.00     0.041 C 
ATOM     13  O   UNL     1      72.398   7.258  19.411  1.00  0.00    -0.550 OA
ATOM     14  O   UNL     1      74.346   6.916  20.566  1.00  0.00    -0.550 OA
ENDBRANCH  11  12
ENDBRANCH  10  11
ENDBRANCH   9  10
ENDBRANCH   8   9
ENDBRANCH   7   8
ENDBRANCH   6   7
ENDBRANCH   5   6
ENDBRANCH   4   5
ENDBRANCH   3   4
ENDBRANCH   2   3
ENDBRANCH   1   2
BRANCH   1  15
ATOM     15  C   UNL     1      63.719   2.219  19.471  1.00  0.00     0.000 C 
BRANCH  15  16
ATOM     16  C   UNL     1      62.516   3.175  19.614  1.00  0.00     0.000 C 
BRANCH  16  17
ATOM     17  C   UNL     1      61.807   3.136  20.979  1.00  0.00     0.000 C 
BRANCH  17  18
ATOM     18  C   UNL     1      62.141   4.307  21.925  1.00  0.00    -0.000 C 
BRANCH  18  19
ATOM     19  C   UNL     1      63.480   4.146  22.677  1.00  0.00    -0.000 C 
BRANCH  19  20
ATOM     20  C   UNL     1      63.653   2.739  23.277  1.00  0.00    -0.000 C 
BRANCH  20  21
ATOM     21  C   UNL     1      64.991   2.081  22.895  1.00  0.00    -0.000 C 
BRANCH  21  22
ATOM     22  C   UNL     1      66.184   2.460  23.791  1.00  0.00    -0.000 C 
BRANCH  22  23
ATOM     23  C   UNL     1      67.141   3.466  23.128  1.00  0.00    -0.000 C 
BRANCH  23  24
ATOM     24  C   UNL     1      67.051   4.862  23.768  1.00  0.00    -0.000 C 
BRANCH  24  25
ATOM     25  C   UNL     1      66.373   4.828  25.145  1.00  0.00    -0.003 C 
ATOM     26  C   UNL     1      67.407   4.868  26.267  1.00  0.00     0.004 C 
ENDBRANCH  24  25
ENDBRANCH  23  24
ENDBRANCH  22  23
ENDBRANCH  21  22
ENDBRANCH  20  21
ENDBRANCH  19  20
ENDBRANCH  18  19
ENDBRANCH  17  18
ENDBRANCH  16  17
ENDBRANCH  15  16
ENDBRANCH   1  15
TORSDOF 22
ENDMDL
MODEL 5
REMARK VINA RESULT:    -5.328      8.235     12.689
REMARK INTER + INTRA:         -16.544
REMARK INTER:                 -13.254
REMARK INTRA:                  -3.290
REMARK UNBOUND:                -4.364
REMARK SMILES CCCCCCCCCCCCCCCCCCCCCCCC(=O)[O-]
REMARK SMILES IDX 13 1 14 2 15 3 16 4 17 5 18 6 19 7 20 8 21 9 22 10 23 11
REMARK SMILES IDX 24 12 25 13 26 14 12 15 11 16 10 17 9 18 8 19 7 20 6 21 5 22
REMARK SMILES IDX 4 23 3 24 2 25 1 26
REMARK H PARENT
REMARK Flexibility Score: inf
ROOT
ATOM      1  C   UNL     1      63.301   4.122  22.891  1.00  0.00     0.000 C 
ENDROOT
BRANCH   1   2
ATOM      2  C   UNL     1      63.546   2.621  23.133  1.00  0.00     0.000 C 
BRANCH   2   3
ATOM      3  C   UNL     1      65.048   2.261  23.119  1.00  0.00     0.000 C 
BRANCH   3   4
ATOM      4  C   UNL     1      65.754   2.476  24.468  1.00  0.00     0.000 C 
BRANCH   4   5
ATOM      5  C   UNL     1      66.415   3.859  24.585  1.00  0.00     0.000 C 
BRANCH   5   6
ATOM      6  C   UNL     1      67.298   4.214  23.373  1.00  0.00     0.000 C 
BRANCH   6   7
ATOM      7  C   UNL     1      68.590   3.386  23.231  1.00  0.00     0.000 C 
BRANCH   7   8
ATOM      8  C   UNL     1      69.863   4.248  23.199  1.00  0.00     0.000 C 
BRANCH   8   9
ATOM      9  C   UNL     1      69.646   5.578  23.928  1.00  0.00     0.000 C 
BRANCH   9  10
ATOM     10  C   UNL     1      70.658   6.635  23.462  1.00  0.00     0.006 C 
BRANCH  10  11
ATOM     11  C   UNL     1      70.632   6.834  21.940  1.00  0.00     0.053 C 
BRANCH  11  12
ATOM     12  C   UNL     1      70.846   8.267  21.560  1.00  0.00     0.041 C 
ATOM     13  O   UNL     1      70.269   9.185  22.201  1.00  0.00    -0.550 OA
ATOM     14  O   UNL     1      71.704   8.592  20.517  1.00  0.00    -0.550 OA
ENDBRANCH  11  12
ENDBRANCH  10  11
ENDBRANCH   9  10
ENDBRANCH   8   9
ENDBRANCH   7   8
ENDBRANCH   6   7
ENDBRANCH   5   6
ENDBRANCH   4   5
ENDBRANCH   3   4
ENDBRANCH   2   3
ENDBRANCH   1   2
BRANCH   1  15
ATOM     15  C   UNL     1      62.053   4.385  22.021  1.00  0.00     0.000 C 
BRANCH  15  16
ATOM     16  C   UNL     1      61.456   3.117  21.379  1.00  0.00     0.000 C 
BRANCH  16  17
ATOM     17  C   UNL     1      61.818   2.897  19.900  1.00  0.00     0.000 C 
BRANCH  17  18
ATOM     18  C   UNL     1      62.072   1.431  19.498  1.00  0.00    -0.000 C 
BRANCH  18  19
ATOM     19  C   UNL     1      63.540   1.126  19.126  1.00  0.00    -0.000 C 
BRANCH  19  20
ATOM     20  C   UNL     1      64.514   2.201  19.641  1.00  0.00    -0.000 C 
BRANCH  20  21
ATOM     21  C   UNL     1      65.044   3.119  18.524  1.00  0.00    -0.000 C 
BRANCH  21  22
ATOM     22  C   UNL     1      64.996   4.625  18.838  1.00  0.00    -0.000 C 
BRANCH  22  23
ATOM     23  C   UNL     1      65.563   4.970  20.226  1.00  0.00    -0.000 C 
BRANCH  23  24
ATOM     24  C   UNL     1      65.569   6.486  20.491  1.00  0.00    -0.000 C 
BRANCH  24  25
ATOM     25  C   UNL     1      66.943   6.988  20.958  1.00  0.00    -0.003 C 
ATOM     26  C   UNL     1      67.099   8.483  20.693  1.00  0.00     0.004 C 
ENDBRANCH  24  25
ENDBRANCH  23  24
ENDBRANCH  22  23
ENDBRANCH  21  22
ENDBRANCH  20  21
ENDBRANCH  19  20
ENDBRANCH  18  19
ENDBRANCH  17  18
ENDBRANCH  16  17
ENDBRANCH  15  16
ENDBRANCH   1  15
TORSDOF 22
ENDMDL
MODEL 6
REMARK VINA RESULT:    -5.306      8.551     12.423
REMARK INTER + INTRA:         -16.495
REMARK INTER:                 -13.246
REMARK INTRA:                  -3.249
REMARK UNBOUND:                -4.364
REMARK SMILES CCCCCCCCCCCCCCCCCCCCCCCC(=O)[O-]
REMARK SMILES IDX 13 1 14 2 15 3 16 4 17 5 18 6 19 7 20 8 21 9 22 10 23 11
REMARK SMILES IDX 24 12 25 13 26 14 12 15 11 16 10 17 9 18 8 19 7 20 6 21 5 22
REMARK SMILES IDX 4 23 3 24 2 25 1 26
REMARK H PARENT
REMARK Flexibility Score: inf
ROOT
ATOM      1  C   UNL     1      62.013   4.119  21.974  1.00  0.00     0.000 C 
ENDROOT
BRANCH   1   2
ATOM      2  C   UNL     1      61.027   2.936  21.998  1.00  0.00     0.000 C 
BRANCH   2   3
ATOM      3  C   UNL     1      61.047   2.126  20.684  1.00  0.00     0.000 C 
BRANCH   3   4
ATOM      4  C   UNL     1      62.083   2.621  19.662  1.00  0.00     0.000 C 
BRANCH   4   5
ATOM      5  C   UNL     1      63.252   1.642  19.470  1.00  0.00     0.000 C 
BRANCH   5   6
ATOM      6  C   UNL     1      64.634   2.313  19.591  1.00  0.00     0.000 C 
BRANCH   6   7
ATOM      7  C   UNL     1      64.678   3.808  19.219  1.00  0.00     0.000 C 
BRANCH   7   8
ATOM      8  C   UNL     1      65.757   4.591  19.984  1.00  0.00     0.000 C 
BRANCH   8   9
ATOM      9  C   UNL     1      65.168   5.845  20.638  1.00  0.00     0.000 C 
BRANCH   9  10
ATOM     10  C   UNL     1      66.086   7.059  20.431  1.00  0.00     0.006 C 
BRANCH  10  11
ATOM     11  C   UNL     1      65.443   8.130  19.540  1.00  0.00     0.053 C 
BRANCH  11  12
ATOM     12  C   UNL     1      65.988   9.497  19.825  1.00  0.00     0.041 C 
ATOM     13  O   UNL     1      66.300   9.821  21.001  1.00  0.00    -0.550 OA
ATOM     14  O   UNL     1      66.179  10.402  18.788  1.00  0.00    -0.550 OA
ENDBRANCH  11  12
ENDBRANCH  10  11
ENDBRANCH   9  10
ENDBRANCH   8   9
ENDBRANCH   7   8
ENDBRANCH   6   7
ENDBRANCH   5   6
ENDBRANCH   4   5
ENDBRANCH   3   4
ENDBRANCH   2   3
ENDBRANCH   1   2
BRANCH   1  15
ATOM     15  C   UNL     1      63.250   3.877  22.865  1.00  0.00     0.000 C 
BRANCH  15  16
ATOM     16  C   UNL     1      63.395   2.423  23.357  1.00  0.00     0.000 C 
BRANCH  16  17
ATOM     17  C   UNL     1      64.837   1.889  23.407  1.00  0.00     0.000 C 
BRANCH  17  18
ATOM     18  C   UNL     1      65.938   2.955  23.241  1.00  0.00    -0.000 C 
BRANCH  18  19
ATOM     19  C   UNL     1      66.405   3.589  24.570  1.00  0.00    -0.000 C 
BRANCH  19  20
ATOM     20  C   UNL     1      66.600   5.112  24.459  1.00  0.00    -0.000 C 
BRANCH  20  21
ATOM     21  C   UNL     1      67.851   5.502  23.650  1.00  0.00    -0.000 C 
BRANCH  21  22
ATOM     22  C   UNL     1      69.133   4.735  24.019  1.00  0.00    -0.000 C 
BRANCH  22  23
ATOM     23  C   UNL     1      70.175   4.723  22.888  1.00  0.00    -0.000 C 
BRANCH  23  24
ATOM     24  C   UNL     1      70.912   3.375  22.791  1.00  0.00    -0.000 C 
BRANCH  24  25
ATOM     25  C   UNL     1      72.104   3.433  21.825  1.00  0.00    -0.003 C 
ATOM     26  C   UNL     1      72.411   4.872  21.419  1.00  0.00     0.004 C 
ENDBRANCH  24  25
ENDBRANCH  23  24
ENDBRANCH  22  23
ENDBRANCH  21  22
ENDBRANCH  20  21
ENDBRANCH  19  20
ENDBRANCH  18  19
ENDBRANCH  17  18
ENDBRANCH  16  17
ENDBRANCH  15  16
ENDBRANCH   1  15
TORSDOF 22
ENDMDL
MODEL 7
REMARK VINA RESULT:    -5.302      1.366      3.093
REMARK INTER + INTRA:         -16.484
REMARK INTER:                 -12.863
REMARK INTRA:                  -3.621
REMARK UNBOUND:                -4.364
REMARK SMILES CCCCCCCCCCCCCCCCCCCCCCCC(=O)[O-]
REMARK SMILES IDX 13 1 14 2 15 3 16 4 17 5 18 6 19 7 20 8 21 9 22 10 23 11
REMARK SMILES IDX 24 12 25 13 26 14 12 15 11 16 10 17 9 18 8 19 7 20 6 21 5 22
REMARK SMILES IDX 4 23 3 24 2 25 1 26
REMARK H PARENT
REMARK Flexibility Score: inf
ROOT
ATOM      1  C   UNL     1      76.874   7.408  22.057  1.00  0.00     0.000 C 
ENDROOT
BRANCH   1   2
ATOM      2  C   UNL     1      77.228   6.193  21.179  1.00  0.00     0.000 C 
BRANCH   2   3
ATOM      3  C   UNL     1      78.662   5.681  21.433  1.00  0.00     0.000 C 
BRANCH   3   4
ATOM      4  C   UNL     1      78.721   4.284  22.074  1.00  0.00     0.000 C 
BRANCH   4   5
ATOM      5  C   UNL     1      77.833   3.256  21.355  1.00  0.00     0.000 C 
BRANCH   5   6
ATOM      6  C   UNL     1      76.555   2.903  22.139  1.00  0.00     0.000 C 
BRANCH   6   7
ATOM      7  C   UNL     1      75.481   2.135  21.343  1.00  0.00     0.000 C 
BRANCH   7   8
ATOM      8  C   UNL     1      74.234   2.980  21.036  1.00  0.00     0.000 C 
BRANCH   8   9
ATOM      9  C   UNL     1      74.301   4.338  21.743  1.00  0.00     0.000 C 
BRANCH   9  10
ATOM     10  C   UNL     1      73.119   5.230  21.337  1.00  0.00     0.006 C 
BRANCH  10  11
ATOM     11  C   UNL     1      73.557   6.419  20.472  1.00  0.00     0.053 C 
BRANCH  11  12
ATOM     12  C   UNL     1      72.444   7.401  20.263  1.00  0.00     0.041 C 
ATOM     13  O   UNL     1      72.072   7.697  19.097  1.00  0.00    -0.550 OA
ATOM     14  O   UNL     1      71.798   7.966  21.355  1.00  0.00    -0.550 OA
ENDBRANCH  11  12
ENDBRANCH  10  11
ENDBRANCH   9  10
ENDBRANCH   8   9
ENDBRANCH   7   8
ENDBRANCH   6   7
ENDBRANCH   5   6
ENDBRANCH   4   5
ENDBRANCH   3   4
ENDBRANCH   2   3
ENDBRANCH   1   2
BRANCH   1  15
ATOM     15  C   UNL     1      76.139   7.008  23.354  1.00  0.00     0.000 C 
BRANCH  15  16
ATOM     16  C   UNL     1      77.075   6.567  24.497  1.00  0.00     0.000 C 
BRANCH  16  17
ATOM     17  C   UNL     1      76.917   7.349  25.812  1.00  0.00     0.000 C 
BRANCH  17  18
ATOM     18  C   UNL     1      75.967   8.561  25.745  1.00  0.00    -0.000 C 
BRANCH  18  19
ATOM     19  C   UNL     1      76.683   9.927  25.838  1.00  0.00    -0.000 C 
BRANCH  19  20
ATOM     20  C   UNL     1      77.014  10.513  24.455  1.00  0.00    -0.000 C 
BRANCH  20  21
ATOM     21  C   UNL     1      78.525  10.712  24.231  1.00  0.00    -0.000 C 
BRANCH  21  22
ATOM     22  C   UNL     1      79.283   9.464  23.746  1.00  0.00    -0.000 C 
BRANCH  22  23
ATOM     23  C   UNL     1      80.202   8.860  24.822  1.00  0.00    -0.000 C 
BRANCH  23  24
ATOM     24  C   UNL     1      80.923   9.942  25.645  1.00  0.00    -0.000 C 
BRANCH  24  25
ATOM     25  C   UNL     1      80.767   9.722  27.157  1.00  0.00    -0.003 C 
ATOM     26  C   UNL     1      79.810  10.744  27.763  1.00  0.00     0.004 C 
ENDBRANCH  24  25
ENDBRANCH  23  24
ENDBRANCH  22  23
ENDBRANCH  21  22
ENDBRANCH  20  21
ENDBRANCH  19  20
ENDBRANCH  18  19
ENDBRANCH  17  18
ENDBRANCH  16  17
ENDBRANCH  15  16
ENDBRANCH   1  15
TORSDOF 22
ENDMDL
MODEL 8
REMARK VINA RESULT:    -5.295      8.399     12.923
REMARK INTER + INTRA:         -16.468
REMARK INTER:                 -13.113
REMARK INTRA:                  -3.355
REMARK UNBOUND:                -4.364
REMARK SMILES CCCCCCCCCCCCCCCCCCCCCCCC(=O)[O-]
REMARK SMILES IDX 13 1 14 2 15 3 16 4 17 5 18 6 19 7 20 8 21 9 22 10 23 11
REMARK SMILES IDX 24 12 25 13 26 14 12 15 11 16 10 17 9 18 8 19 7 20 6 21 5 22
REMARK SMILES IDX 4 23 3 24 2 25 1 26
REMARK H PARENT
REMARK Flexibility Score: inf
ROOT
ATOM      1  C   UNL     1      64.847   2.561  19.569  1.00  0.00     0.000 C 
ENDROOT
BRANCH   1   2
ATOM      2  C   UNL     1      64.767   4.066  19.251  1.00  0.00     0.000 C 
BRANCH   2   3
ATOM      3  C   UNL     1      65.774   4.896  20.075  1.00  0.00     0.000 C 
BRANCH   3   4
ATOM      4  C   UNL     1      65.183   6.188  20.665  1.00  0.00     0.000 C 
BRANCH   4   5
ATOM      5  C   UNL     1      65.548   7.440  19.853  1.00  0.00     0.000 C 
BRANCH   5   6
ATOM      6  C   UNL     1      66.454   8.421  20.623  1.00  0.00     0.000 C 
BRANCH   6   7
ATOM      7  C   UNL     1      67.869   7.901  20.945  1.00  0.00     0.000 C 
BRANCH   7   8
ATOM      8  C   UNL     1      68.296   8.165  22.398  1.00  0.00     0.000 C 
BRANCH   8   9
ATOM      9  C   UNL     1      69.723   8.720  22.460  1.00  0.00     0.000 C 
BRANCH   9  10
ATOM     10  C   UNL     1      70.743   7.594  22.686  1.00  0.00     0.006 C 
BRANCH  10  11
ATOM     11  C   UNL     1      70.138   6.403  23.439  1.00  0.00     0.053 C 
BRANCH  11  12
ATOM     12  C   UNL     1      70.349   5.112  22.707  1.00  0.00     0.041 C 
ATOM     13  O   UNL     1      70.423   4.028  23.343  1.00  0.00    -0.550 OA
ATOM     14  O   UNL     1      70.437   5.102  21.320  1.00  0.00    -0.550 OA
ENDBRANCH  11  12
ENDBRANCH  10  11
ENDBRANCH   9  10
ENDBRANCH   8   9
ENDBRANCH   7   8
ENDBRANCH   6   7
ENDBRANCH   5   6
ENDBRANCH   4   5
ENDBRANCH   3   4
ENDBRANCH   2   3
ENDBRANCH   1   2
BRANCH   1  15
ATOM     15  C   UNL     1      63.607   1.784  19.079  1.00  0.00     0.000 C 
BRANCH  15  16
ATOM     16  C   UNL     1      62.823   1.077  20.203  1.00  0.00     0.000 C 
BRANCH  16  17
ATOM     17  C   UNL     1      61.383   1.576  20.412  1.00  0.00     0.000 C 
BRANCH  17  18
ATOM     18  C   UNL     1      61.138   3.049  20.030  1.00  0.00    -0.000 C 
BRANCH  18  19
ATOM     19  C   UNL     1      61.192   4.027  21.225  1.00  0.00    -0.000 C 
BRANCH  19  20
ATOM     20  C   UNL     1      61.805   3.386  22.483  1.00  0.00    -0.000 C 
BRANCH  20  21
ATOM     21  C   UNL     1      63.235   3.877  22.774  1.00  0.00    -0.000 C 
BRANCH  21  22
ATOM     22  C   UNL     1      64.219   2.786  23.231  1.00  0.00    -0.000 C 
BRANCH  22  23
ATOM     23  C   UNL     1      65.653   3.308  23.423  1.00  0.00    -0.000 C 
BRANCH  23  24
ATOM     24  C   UNL     1      65.681   4.724  24.027  1.00  0.00    -0.000 C 
BRANCH  24  25
ATOM     25  C   UNL     1      67.020   5.038  24.711  1.00  0.00    -0.003 C 
ATOM     26  C   UNL     1      66.943   4.773  26.212  1.00  0.00     0.004 C 
ENDBRANCH  24  25
ENDBRANCH  23  24
ENDBRANCH  22  23
ENDBRANCH  21  22
ENDBRANCH  20  21
ENDBRANCH  19  20
ENDBRANCH  18  19
ENDBRANCH  17  18
ENDBRANCH  16  17
ENDBRANCH  15  16
ENDBRANCH   1  15
TORSDOF 22
ENDMDL
MODEL 9
REMARK VINA RESULT:    -5.277      2.608      6.514
REMARK INTER + INTRA:         -16.428
REMARK INTER:                 -12.818
REMARK INTRA:                  -3.610
REMARK UNBOUND:                -4.364
REMARK SMILES CCCCCCCCCCCCCCCCCCCCCCCC(=O)[O-]
REMARK SMILES IDX 13 1 14 2 15 3 16 4 17 5 18 6 19 7 20 8 21 9 22 10 23 11
REMARK SMILES IDX 24 12 25 13 26 14 12 15 11 16 10 17 9 18 8 19 7 20 6 21 5 22
REMARK SMILES IDX 4 23 3 24 2 25 1 26
REMARK H PARENT
REMARK Flexibility Score: inf
ROOT
ATOM      1  C   UNL     1      77.110   6.991  24.873  1.00  0.00     0.000 C 
ENDROOT
BRANCH   1   2
ATOM      2  C   UNL     1      76.705   7.479  26.277  1.00  0.00     0.000 C 
BRANCH   2   3
ATOM      3  C   UNL     1      77.308   8.859  26.616  1.00  0.00     0.000 C 
BRANCH   3   4
ATOM      4  C   UNL     1      78.789   9.006  26.230  1.00  0.00     0.000 C 
BRANCH   4   5
ATOM      5  C   UNL     1      79.090  10.322  25.496  1.00  0.00     0.000 C 
BRANCH   5   6
ATOM      6  C   UNL     1      78.140  10.589  24.312  1.00  0.00     0.000 C 
BRANCH   6   7
ATOM      7  C   UNL     1      77.261  11.848  24.441  1.00  0.00     0.000 C 
BRANCH   7   8
ATOM      8  C   UNL     1      75.897  11.571  25.093  1.00  0.00     0.000 C 
BRANCH   8   9
ATOM      9  C   UNL     1      74.995  10.758  24.160  1.00  0.00     0.000 C 
BRANCH   9  10
ATOM     10  C   UNL     1      73.904  11.642  23.538  1.00  0.00     0.006 C 
BRANCH  10  11
ATOM     11  C   UNL     1      73.236  12.557  24.573  1.00  0.00     0.053 C 
BRANCH  11  12
ATOM     12  C   UNL     1      73.432  14.007  24.247  1.00  0.00     0.041 C 
ATOM     13  O   UNL     1      72.449  14.718  23.909  1.00  0.00    -0.550 OA
ATOM     14  O   UNL     1      74.694  14.580  24.343  1.00  0.00    -0.550 OA
ENDBRANCH  11  12
ENDBRANCH  10  11
ENDBRANCH   9  10
ENDBRANCH   8   9
ENDBRANCH   7   8
ENDBRANCH   6   7
ENDBRANCH   5   6
ENDBRANCH   4   5
ENDBRANCH   3   4
ENDBRANCH   2   3
ENDBRANCH   1   2
BRANCH   1  15
ATOM     15  C   UNL     1      76.046   7.313  23.804  1.00  0.00     0.000 C 
BRANCH  15  16
ATOM     16  C   UNL     1      76.629   7.811  22.465  1.00  0.00     0.000 C 
BRANCH  16  17
ATOM     17  C   UNL     1      78.079   7.380  22.181  1.00  0.00     0.000 C 
BRANCH  17  18
ATOM     18  C   UNL     1      78.243   6.324  21.071  1.00  0.00    -0.000 C 
BRANCH  18  19
ATOM     19  C   UNL     1      78.989   5.048  21.521  1.00  0.00    -0.000 C 
BRANCH  19  20
ATOM     20  C   UNL     1      78.132   4.159  22.440  1.00  0.00    -0.000 C 
BRANCH  20  21
ATOM     21  C   UNL     1      77.587   2.906  21.730  1.00  0.00    -0.000 C 
BRANCH  21  22
ATOM     22  C   UNL     1      76.053   2.798  21.683  1.00  0.00    -0.000 C 
BRANCH  22  23
ATOM     23  C   UNL     1      75.343   4.074  22.169  1.00  0.00    -0.000 C 
BRANCH  23  24
ATOM     24  C   UNL     1      74.245   4.536  21.195  1.00  0.00    -0.000 C 
BRANCH  24  25
ATOM     25  C   UNL     1      74.689   5.738  20.348  1.00  0.00    -0.003 C 
ATOM     26  C   UNL     1      73.644   6.850  20.385  1.00  0.00     0.004 C 
ENDBRANCH  24  25
ENDBRANCH  23  24
ENDBRANCH  22  23
ENDBRANCH  21  22
ENDBRANCH  20  21
ENDBRANCH  19  20
ENDBRANCH  18  19
ENDBRANCH  17  18
ENDBRANCH  16  17
ENDBRANCH  15  16
ENDBRANCH   1  15
TORSDOF 22
ENDMDL
