MODEL 1
REMARK VINA RESULT:    -2.947      0.000      0.000
REMARK INTER + INTRA:          -5.375
REMARK INTER:                  -4.326
REMARK INTRA:                  -1.049
REMARK UNBOUND:                -1.049
REMARK SMILES CCCCCCCCCC=O
REMARK SMILES IDX 6 1 5 2 4 3 3 4 2 5 1 6 7 7 8 8 9 9 10 10 11 11
REMARK H PARENT
REMARK Flexibility Score: inf
ROOT
ATOM      1  C   UNL     1     116.821 119.047 112.354  1.00  0.00     0.000 C 
ENDROOT
BRANCH   1   2
ATOM      2  C   UNL     1     115.375 119.349 111.924  1.00  0.00     0.000 C 
BRANCH   2   3
ATOM      3  C   UNL     1     114.404 119.404 113.116  1.00  0.00    -0.000 C 
BRANCH   3   4
ATOM      4  C   UNL     1     115.121 119.687 114.448  1.00  0.00    -0.000 C 
BRANCH   4   5
ATOM      5  C   UNL     1     114.812 118.628 115.517  1.00  0.00    -0.003 C 
ATOM      6  C   UNL     1     114.588 117.236 114.927  1.00  0.00     0.004 C 
ENDBRANCH   4   5
ENDBRANCH   3   4
ENDBRANCH   2   3
ENDBRANCH   1   2
BRANCH   1   7
ATOM      7  C   UNL     1     117.219 117.583 112.102  1.00  0.00     0.000 C 
BRANCH   7   8
ATOM      8  C   UNL     1     117.918 116.942 113.311  1.00  0.00     0.008 C 
BRANCH   8   9
ATOM      9  C   UNL     1     118.315 118.004 114.343  1.00  0.00     0.072 C 
BRANCH   9  10
ATOM     10  C   UNL     1     119.800 118.214 114.365  1.00  0.00     0.224 C 
ATOM     11  O   UNL     1     120.362 118.690 113.392  1.00  0.00    -0.303 OA
ENDBRANCH   9  10
ENDBRANCH   8   9
ENDBRANCH   7   8
ENDBRANCH   1   7
TORSDOF 8
ENDMDL
MODEL 2
REMARK VINA RESULT:    -2.896      2.209      4.788
REMARK INTER + INTRA:          -5.300
REMARK INTER:                  -4.460
REMARK INTRA:                  -0.840
REMARK UNBOUND:                -1.049
REMARK SMILES CCCCCCCCCC=O
REMARK SMILES IDX 6 1 5 2 4 3 3 4 2 5 1 6 7 7 8 8 9 9 10 10 11 11
REMARK H PARENT
REMARK Flexibility Score: inf
ROOT
ATOM      1  C   UNL     1     117.085 117.934 115.251  1.00  0.00     0.000 C 
ENDROOT
BRANCH   1   2
ATOM      2  C   UNL     1     118.533 118.374 115.526  1.00  0.00     0.000 C 
BRANCH   2   3
ATOM      3  C   UNL     1     119.543 117.709 114.575  1.00  0.00    -0.000 C 
BRANCH   3   4
ATOM      4  C   UNL     1     119.904 118.606 113.377  1.00  0.00    -0.000 C 
BRANCH   4   5
ATOM      5  C   UNL     1     119.747 117.880 112.032  1.00  0.00    -0.003 C 
ATOM      6  C   UNL     1     118.969 116.570 112.152  1.00  0.00     0.004 C 
ENDBRANCH   4   5
ENDBRANCH   3   4
ENDBRANCH   2   3
ENDBRANCH   1   2
BRANCH   1   7
ATOM      7  C   UNL     1     116.233 119.057 114.636  1.00  0.00     0.000 C 
BRANCH   7   8
ATOM      8  C   UNL     1     116.162 118.976 113.103  1.00  0.00     0.008 C 
BRANCH   8   9
ATOM      9  C   UNL     1     114.727 118.709 112.634  1.00  0.00     0.072 C 
BRANCH   9  10
ATOM     10  C   UNL     1     114.605 117.356 111.999  1.00  0.00     0.224 C 
ATOM     11  O   UNL     1     115.358 116.456 112.333  1.00  0.00    -0.303 OA
ENDBRANCH   9  10
ENDBRANCH   8   9
ENDBRANCH   7   8
ENDBRANCH   1   7
TORSDOF 8
ENDMDL
MODEL 3
REMARK VINA RESULT:    -2.890      1.967      3.044
REMARK INTER + INTRA:          -5.291
REMARK INTER:                  -4.366
REMARK INTRA:                  -0.925
REMARK UNBOUND:                -1.049
REMARK SMILES CCCCCCCCCC=O
REMARK SMILES IDX 6 1 5 2 4 3 3 4 2 5 1 6 7 7 8 8 9 9 10 10 11 11
REMARK H PARENT
REMARK Flexibility Score: inf
ROOT
ATOM      1  C   UNL     1     117.532 118.006 114.924  1.00  0.00     0.000 C 
ENDROOT
BRANCH   1   2
ATOM      2  C   UNL     1     116.373 118.958 115.269  1.00  0.00     0.000 C 
BRANCH   2   3
ATOM      3  C   UNL     1     115.109 118.673 114.439  1.00  0.00    -0.000 C 
BRANCH   3   4
ATOM      4  C   UNL     1     114.881 119.720 113.334  1.00  0.00    -0.000 C 
BRANCH   4   5
ATOM      5  C   UNL     1     115.123 119.150 111.928  1.00  0.00    -0.003 C 
ATOM      6  C   UNL     1     115.001 117.628 111.875  1.00  0.00     0.004 C 
ENDBRANCH   4   5
ENDBRANCH   3   4
ENDBRANCH   2   3
ENDBRANCH   1   2
BRANCH   1   7
ATOM      7  C   UNL     1     118.367 118.500 113.731  1.00  0.00     0.000 C 
BRANCH   7   8
ATOM      8  C   UNL     1     118.758 117.367 112.770  1.00  0.00     0.008 C 
BRANCH   8   9
ATOM      9  C   UNL     1     118.206 116.022 113.254  1.00  0.00     0.072 C 
BRANCH   9  10
ATOM     10  C   UNL     1     118.440 114.940 112.242  1.00  0.00     0.224 C 
ATOM     11  O   UNL     1     118.871 113.855 112.598  1.00  0.00    -0.303 OA
ENDBRANCH   9  10
ENDBRANCH   8   9
ENDBRANCH   7   8
ENDBRANCH   1   7
TORSDOF 8
ENDMDL
MODEL 4
REMARK VINA RESULT:    -2.889      4.520      6.057
REMARK INTER + INTRA:          -5.288
REMARK INTER:                  -4.684
REMARK INTRA:                  -0.604
REMARK UNBOUND:                -1.049
REMARK SMILES CCCCCCCCCC=O
REMARK SMILES IDX 6 1 5 2 4 3 3 4 2 5 1 6 7 7 8 8 9 9 10 10 11 11
REMARK H PARENT
REMARK Flexibility Score: inf
ROOT
ATOM      1  C   UNL     1     115.971 114.628 112.730  1.00  0.00     0.000 C 
ENDROOT
BRANCH   1   2
ATOM      2  C   UNL     1     116.972 113.830 111.879  1.00  0.00     0.000 C 
BRANCH   2   3
ATOM      3  C   UNL     1     118.264 113.495 112.646  1.00  0.00    -0.000 C 
BRANCH   3   4
ATOM      4  C   UNL     1     118.331 114.189 114.017  1.00  0.00    -0.000 C 
BRANCH   4   5
ATOM      5  C   UNL     1     118.200 113.198 115.184  1.00  0.00    -0.003 C 
ATOM      6  C   UNL     1     117.099 113.586 116.171  1.00  0.00     0.004 C 
ENDBRANCH   4   5
ENDBRANCH   3   4
ENDBRANCH   2   3
ENDBRANCH   1   2
BRANCH   1   7
ATOM      7  C   UNL     1     114.532 114.529 112.197  1.00  0.00     0.000 C 
BRANCH   7   8
ATOM      8  C   UNL     1     113.478 114.588 113.314  1.00  0.00     0.008 C 
BRANCH   8   9
ATOM      9  C   UNL     1     114.006 115.367 114.525  1.00  0.00     0.072 C 
BRANCH   9  10
ATOM     10  C   UNL     1     113.192 115.082 115.752  1.00  0.00     0.224 C 
ATOM     11  O   UNL     1     113.640 114.357 116.625  1.00  0.00    -0.303 OA
ENDBRANCH   9  10
ENDBRANCH   8   9
ENDBRANCH   7   8
ENDBRANCH   1   7
TORSDOF 8
ENDMDL
MODEL 5
REMARK VINA RESULT:    -2.866      2.525      3.072
REMARK INTER + INTRA:          -5.255
REMARK INTER:                  -4.539
REMARK INTRA:                  -0.716
REMARK UNBOUND:                -1.049
REMARK SMILES CCCCCCCCCC=O
REMARK SMILES IDX 6 1 5 2 4 3 3 4 2 5 1 6 7 7 8 8 9 9 10 10 11 11
REMARK H PARENT
REMARK Flexibility Score: inf
ROOT
ATOM      1  C   UNL     1     117.054 118.428 113.309  1.00  0.00     0.000 C 
ENDROOT
BRANCH   1   2
ATOM      2  C   UNL     1     115.904 119.294 112.764  1.00  0.00     0.000 C 
BRANCH   2   3
ATOM      3  C   UNL     1     114.784 118.454 112.126  1.00  0.00    -0.000 C 
BRANCH   3   4
ATOM      4  C   UNL     1     114.569 117.112 112.848  1.00  0.00    -0.000 C 
BRANCH   4   5
ATOM      5  C   UNL     1     114.518 115.924 111.875  1.00  0.00    -0.003 C 
ATOM      6  C   UNL     1     114.229 114.596 112.575  1.00  0.00     0.004 C 
ENDBRANCH   4   5
ENDBRANCH   3   4
ENDBRANCH   2   3
ENDBRANCH   1   2
BRANCH   1   7
ATOM      7  C   UNL     1     118.343 118.571 112.483  1.00  0.00     0.000 C 
BRANCH   7   8
ATOM      8  C   UNL     1     118.895 117.219 112.005  1.00  0.00     0.008 C 
BRANCH   8   9
ATOM      9  C   UNL     1     118.249 116.060 112.772  1.00  0.00     0.072 C 
BRANCH   9  10
ATOM     10  C   UNL     1     118.545 114.743 112.120  1.00  0.00     0.224 C 
ATOM     11  O   UNL     1     118.875 113.786 112.802  1.00  0.00    -0.303 OA
ENDBRANCH   9  10
ENDBRANCH   8   9
ENDBRANCH   7   8
ENDBRANCH   1   7
TORSDOF 8
ENDMDL
MODEL 6
REMARK VINA RESULT:    -2.858      1.807      4.199
REMARK INTER + INTRA:          -5.244
REMARK INTER:                  -4.548
REMARK INTRA:                  -0.696
REMARK UNBOUND:                -1.049
REMARK SMILES CCCCCCCCCC=O
REMARK SMILES IDX 6 1 5 2 4 3 3 4 2 5 1 6 7 7 8 8 9 9 10 10 11 11
REMARK H PARENT
REMARK Flexibility Score: inf
ROOT
ATOM      1  C   UNL     1     116.761 119.144 112.247  1.00  0.00     0.000 C 
ENDROOT
BRANCH   1   2
ATOM      2  C   UNL     1     117.087 117.687 111.875  1.00  0.00     0.000 C 
BRANCH   2   3
ATOM      3  C   UNL     1     118.484 117.254 112.353  1.00  0.00    -0.000 C 
BRANCH   3   4
ATOM      4  C   UNL     1     119.426 118.450 112.581  1.00  0.00    -0.000 C 
BRANCH   4   5
ATOM      5  C   UNL     1     119.971 118.502 114.017  1.00  0.00    -0.003 C 
ATOM      6  C   UNL     1     119.362 117.431 114.922  1.00  0.00     0.004 C 
ENDBRANCH   4   5
ENDBRANCH   3   4
ENDBRANCH   2   3
ENDBRANCH   1   2
BRANCH   1   7
ATOM      7  C   UNL     1     115.257 119.452 112.163  1.00  0.00     0.000 C 
BRANCH   7   8
ATOM      8  C   UNL     1     114.697 120.039 113.468  1.00  0.00     0.008 C 
BRANCH   8   9
ATOM      9  C   UNL     1     115.502 119.554 114.678  1.00  0.00     0.072 C 
BRANCH   9  10
ATOM     10  C   UNL     1     114.915 118.301 115.256  1.00  0.00     0.224 C 
ATOM     11  O   UNL     1     115.522 117.246 115.168  1.00  0.00    -0.303 OA
ENDBRANCH   9  10
ENDBRANCH   8   9
ENDBRANCH   7   8
ENDBRANCH   1   7
TORSDOF 8
ENDMDL
MODEL 7
REMARK VINA RESULT:    -2.856      2.846      4.704
REMARK INTER + INTRA:          -5.241
REMARK INTER:                  -4.578
REMARK INTRA:                  -0.662
REMARK UNBOUND:                -1.049
REMARK SMILES CCCCCCCCCC=O
REMARK SMILES IDX 6 1 5 2 4 3 3 4 2 5 1 6 7 7 8 8 9 9 10 10 11 11
REMARK H PARENT
REMARK Flexibility Score: inf
ROOT
ATOM      1  C   UNL     1     118.932 116.824 113.102  1.00  0.00     0.000 C 
ENDROOT
BRANCH   1   2
ATOM      2  C   UNL     1     118.873 115.703 112.050  1.00  0.00     0.000 C 
BRANCH   2   3
ATOM      3  C   UNL     1     118.565 114.329 112.669  1.00  0.00    -0.000 C 
BRANCH   3   4
ATOM      4  C   UNL     1     117.379 113.627 111.985  1.00  0.00    -0.000 C 
BRANCH   4   5
ATOM      5  C   UNL     1     116.102 114.481 112.003  1.00  0.00    -0.003 C 
ATOM      6  C   UNL     1     115.575 114.733 113.415  1.00  0.00     0.004 C 
ENDBRANCH   4   5
ENDBRANCH   3   4
ENDBRANCH   2   3
ENDBRANCH   1   2
BRANCH   1   7
ATOM      7  C   UNL     1     118.826 118.225 112.478  1.00  0.00     0.000 C 
BRANCH   7   8
ATOM      8  C   UNL     1     117.437 118.505 111.881  1.00  0.00     0.008 C 
BRANCH   8   9
ATOM      9  C   UNL     1     116.388 118.667 112.986  1.00  0.00     0.072 C 
BRANCH   9  10
ATOM     10  C   UNL     1     115.389 119.730 112.639  1.00  0.00     0.224 C 
ATOM     11  O   UNL     1     114.351 119.823 113.273  1.00  0.00    -0.303 OA
ENDBRANCH   9  10
ENDBRANCH   8   9
ENDBRANCH   7   8
ENDBRANCH   1   7
TORSDOF 8
ENDMDL
MODEL 8
REMARK VINA RESULT:    -2.843      2.607      4.096
REMARK INTER + INTRA:          -5.221
REMARK INTER:                  -4.369
REMARK INTRA:                  -0.852
REMARK UNBOUND:                -1.049
REMARK SMILES CCCCCCCCCC=O
REMARK SMILES IDX 6 1 5 2 4 3 3 4 2 5 1 6 7 7 8 8 9 9 10 10 11 11
REMARK H PARENT
REMARK Flexibility Score: inf
ROOT
ATOM      1  C   UNL     1     118.880 115.839 112.040  1.00  0.00     0.000 C 
ENDROOT
BRANCH   1   2
ATOM      2  C   UNL     1     118.230 114.454 111.875  1.00  0.00     0.000 C 
BRANCH   2   3
ATOM      3  C   UNL     1     118.631 113.477 112.994  1.00  0.00    -0.000 C 
BRANCH   3   4
ATOM      4  C   UNL     1     118.197 113.967 114.387  1.00  0.00    -0.000 C 
BRANCH   4   5
ATOM      5  C   UNL     1     116.701 114.314 114.448  1.00  0.00    -0.003 C 
ATOM      6  C   UNL     1     116.433 115.675 115.090  1.00  0.00     0.004 C 
ENDBRANCH   4   5
ENDBRANCH   3   4
ENDBRANCH   2   3
ENDBRANCH   1   2
BRANCH   1   7
ATOM      7  C   UNL     1     117.871 116.987 111.877  1.00  0.00     0.000 C 
BRANCH   7   8
ATOM      8  C   UNL     1     118.314 118.273 112.593  1.00  0.00     0.008 C 
BRANCH   8   9
ATOM      9  C   UNL     1     119.711 118.109 113.201  1.00  0.00     0.072 C 
BRANCH   9  10
ATOM     10  C   UNL     1     119.659 118.124 114.699  1.00  0.00     0.224 C 
ATOM     11  O   UNL     1     119.705 117.075 115.321  1.00  0.00    -0.303 OA
ENDBRANCH   9  10
ENDBRANCH   8   9
ENDBRANCH   7   8
ENDBRANCH   1   7
TORSDOF 8
ENDMDL
MODEL 9
REMARK VINA RESULT:    -2.817      3.082      4.475
REMARK INTER + INTRA:          -5.184
REMARK INTER:                  -4.601
REMARK INTRA:                  -0.583
REMARK UNBOUND:                -1.049
REMARK SMILES CCCCCCCCCC=O
REMARK SMILES IDX 6 1 5 2 4 3 3 4 2 5 1 6 7 7 8 8 9 9 10 10 11 11
REMARK H PARENT
REMARK Flexibility Score: inf
ROOT
ATOM      1  C   UNL     1     118.602 116.100 113.079  1.00  0.00     0.000 C 
ENDROOT
BRANCH   1   2
ATOM      2  C   UNL     1     119.397 117.212 112.373  1.00  0.00     0.000 C 
BRANCH   2   3
ATOM      3  C   UNL     1     118.564 118.488 112.159  1.00  0.00    -0.000 C 
BRANCH   3   4
ATOM      4  C   UNL     1     117.165 118.392 112.794  1.00  0.00    -0.000 C 
BRANCH   4   5
ATOM      5  C   UNL     1     116.092 119.109 111.960  1.00  0.00    -0.003 C 
ATOM      6  C   UNL     1     114.890 119.552 112.794  1.00  0.00     0.004 C 
ENDBRANCH   4   5
ENDBRANCH   3   4
ENDBRANCH   2   3
ENDBRANCH   1   2
BRANCH   1   7
ATOM      7  C   UNL     1     118.649 114.766 112.315  1.00  0.00     0.000 C 
BRANCH   7   8
ATOM      8  C   UNL     1     117.262 114.122 112.159  1.00  0.00     0.008 C 
BRANCH   8   9
ATOM      9  C   UNL     1     116.250 114.759 113.117  1.00  0.00     0.072 C 
BRANCH   9  10
ATOM     10  C   UNL     1     114.929 114.983 112.444  1.00  0.00     0.224 C 
ATOM     11  O   UNL     1     113.993 114.235 112.676  1.00  0.00    -0.303 OA
ENDBRANCH   9  10
ENDBRANCH   8   9
ENDBRANCH   7   8
ENDBRANCH   1   7
TORSDOF 8
ENDMDL
