MODEL 1
REMARK VINA RESULT:    -3.044      0.000      0.000
REMARK INTER + INTRA:          -3.133
REMARK INTER:                  -3.133
REMARK INTRA:                   0.000
REMARK UNBOUND:                 0.000
REMARK SMILES Oc1ccc2[nH]ccc2c1
REMARK SMILES IDX 3 1 4 2 5 3 9 4 8 5 7 6 6 7 10 8 2 9 1 11
REMARK H PARENT 6 10 1 12
REMARK Flexibility Score: inf
ROOT
ATOM      1  C   UNL     1     -40.543  23.113   8.071  1.00  0.00     0.048 A 
ATOM      2  C   UNL     1     -40.051  23.125   9.391  1.00  0.00     0.030 A 
ATOM      3  C   UNL     1     -40.615  22.235  10.302  1.00  0.00     0.046 A 
ATOM      4  C   UNL     1     -41.616  21.373   9.942  1.00  0.00     0.003 A 
ATOM      5  C   UNL     1     -41.949  20.639  11.059  1.00  0.00     0.028 A 
ATOM      6  C   UNL     1     -41.110  21.107  12.065  1.00  0.00     0.083 A 
ATOM      7  N   UNL     1     -40.298  22.083  11.598  1.00  0.00    -0.361 N 
ATOM      8  C   UNL     1     -42.125  21.335   8.646  1.00  0.00     0.056 A 
ATOM      9  C   UNL     1     -41.578  22.221   7.698  1.00  0.00     0.116 A 
ATOM     10  H   UNL     1     -39.572  22.606  12.138  1.00  0.00     0.166 HD
ENDROOT
BRANCH   9  11
ATOM     11  O   UNL     1     -42.064  22.211   6.392  1.00  0.00    -0.508 OA
ATOM     12  H   UNL     1     -42.436  23.047   5.960  1.00  0.00     0.293 HD
ENDBRANCH   9  11
TORSDOF 1
ENDMDL
MODEL 2
REMARK VINA RESULT:    -2.517     22.359     23.286
REMARK INTER + INTRA:          -2.591
REMARK INTER:                  -2.591
REMARK INTRA:                   0.000
REMARK UNBOUND:                 0.000
REMARK SMILES Oc1ccc2[nH]ccc2c1
REMARK SMILES IDX 3 1 4 2 5 3 9 4 8 5 7 6 6 7 10 8 2 9 1 11
REMARK H PARENT 6 10 1 12
REMARK Flexibility Score: inf
ROOT
ATOM      1  C   UNL     1     -41.903   4.736  -3.378  1.00  0.00     0.048 A 
ATOM      2  C   UNL     1     -42.125   4.615  -4.763  1.00  0.00     0.030 A 
ATOM      3  C   UNL     1     -41.156   3.961  -5.522  1.00  0.00     0.046 A 
ATOM      4  C   UNL     1     -40.020   3.450  -4.953  1.00  0.00     0.003 A 
ATOM      5  C   UNL     1     -39.277   2.875  -5.961  1.00  0.00     0.028 A 
ATOM      6  C   UNL     1     -40.022   3.074  -7.119  1.00  0.00     0.083 A 
ATOM      7  N   UNL     1     -41.168   3.738  -6.846  1.00  0.00    -0.361 N 
ATOM      8  C   UNL     1     -39.770   3.552  -3.586  1.00  0.00     0.056 A 
ATOM      9  C   UNL     1     -40.728   4.207  -2.789  1.00  0.00     0.116 A 
ATOM     10  H   UNL     1     -41.909   4.017  -7.528  1.00  0.00     0.166 HD
ENDROOT
BRANCH   9  11
ATOM     11  O   UNL     1     -40.511   4.328  -1.418  1.00  0.00    -0.508 OA
ATOM     12  H   UNL     1     -41.279   4.444  -0.769  1.00  0.00     0.293 HD
ENDBRANCH   9  11
TORSDOF 1
ENDMDL
MODEL 3
REMARK VINA RESULT:    -2.505     21.685     22.426
REMARK INTER + INTRA:          -2.578
REMARK INTER:                  -2.578
REMARK INTRA:                   0.000
REMARK UNBOUND:                 0.000
REMARK SMILES Oc1ccc2[nH]ccc2c1
REMARK SMILES IDX 3 1 4 2 5 3 9 4 8 5 7 6 6 7 10 8 2 9 1 11
REMARK H PARENT 6 10 1 12
REMARK Flexibility Score: inf
ROOT
ATOM      1  C   UNL     1     -39.893   4.099  -4.994  1.00  0.00     0.048 A 
ATOM      2  C   UNL     1     -39.574   4.500  -3.682  1.00  0.00     0.030 A 
ATOM      3  C   UNL     1     -40.413   4.082  -2.652  1.00  0.00     0.046 A 
ATOM      4  C   UNL     1     -41.516   3.307  -2.892  1.00  0.00     0.003 A 
ATOM      5  C   UNL     1     -42.125   3.070  -1.678  1.00  0.00     0.028 A 
ATOM      6  C   UNL     1     -41.338   3.733  -0.742  1.00  0.00     0.083 A 
ATOM      7  N   UNL     1     -40.294   4.350  -1.342  1.00  0.00    -0.361 N 
ATOM      8  C   UNL     1     -41.860   2.892  -4.176  1.00  0.00     0.056 A 
ATOM      9  C   UNL     1     -41.034   3.296  -5.242  1.00  0.00     0.116 A 
ATOM     10  H   UNL     1     -39.549   4.916  -0.877  1.00  0.00     0.166 HD
ENDROOT
BRANCH   9  11
ATOM     11  O   UNL     1     -41.349   2.899  -6.540  1.00  0.00    -0.508 OA
ATOM     12  H   UNL     1     -41.478   3.575  -7.283  1.00  0.00     0.293 HD
ENDBRANCH   9  11
TORSDOF 1
ENDMDL
MODEL 4
REMARK VINA RESULT:    -2.429     21.976     22.908
REMARK INTER + INTRA:          -2.500
REMARK INTER:                  -2.500
REMARK INTRA:                   0.000
REMARK UNBOUND:                 0.000
REMARK SMILES Oc1ccc2[nH]ccc2c1
REMARK SMILES IDX 3 1 4 2 5 3 9 4 8 5 7 6 6 7 10 8 2 9 1 11
REMARK H PARENT 6 10 1 12
REMARK Flexibility Score: inf
ROOT
ATOM      1  C   UNL     1     -40.044   3.920  -2.731  1.00  0.00     0.048 A 
ATOM      2  C   UNL     1     -39.503   3.598  -3.990  1.00  0.00     0.030 A 
ATOM      3  C   UNL     1     -40.295   3.822  -5.114  1.00  0.00     0.046 A 
ATOM      4  C   UNL     1     -41.560   4.336  -5.013  1.00  0.00     0.003 A 
ATOM      5  C   UNL     1     -42.069   4.433  -6.290  1.00  0.00     0.028 A 
ATOM      6  C   UNL     1     -41.058   3.959  -7.120  1.00  0.00     0.083 A 
ATOM      7  N   UNL     1     -39.977   3.586  -6.397  1.00  0.00    -0.361 N 
ATOM      8  C   UNL     1     -42.125   4.666  -3.783  1.00  0.00     0.056 A 
ATOM      9  C   UNL     1     -41.353   4.452  -2.625  1.00  0.00     0.116 A 
ATOM     10  H   UNL     1     -39.080   3.197  -6.766  1.00  0.00     0.166 HD
ENDROOT
BRANCH   9  11
ATOM     11  O   UNL     1     -41.887   4.771  -1.379  1.00  0.00    -0.508 OA
ATOM     12  H   UNL     1     -41.777   5.693  -0.976  1.00  0.00     0.293 HD
ENDBRANCH   9  11
TORSDOF 1
ENDMDL
MODEL 5
REMARK VINA RESULT:    -2.004     17.715     18.864
REMARK INTER + INTRA:          -2.063
REMARK INTER:                  -2.063
REMARK INTRA:                   0.000
REMARK UNBOUND:                 0.000
REMARK SMILES Oc1ccc2[nH]ccc2c1
REMARK SMILES IDX 3 1 4 2 5 3 9 4 8 5 7 6 6 7 10 8 2 9 1 11
REMARK H PARENT 6 10 1 12
REMARK Flexibility Score: inf
ROOT
ATOM      1  C   UNL     1     -41.722  13.181  -4.962  1.00  0.00     0.048 A 
ATOM      2  C   UNL     1     -42.026  11.912  -4.434  1.00  0.00     0.030 A 
ATOM      3  C   UNL     1     -41.888  10.808  -5.272  1.00  0.00     0.046 A 
ATOM      4  C   UNL     1     -41.472  10.938  -6.570  1.00  0.00     0.003 A 
ATOM      5  C   UNL     1     -41.441   9.676  -7.122  1.00  0.00     0.028 A 
ATOM      6  C   UNL     1     -41.852   8.824  -6.101  1.00  0.00     0.083 A 
ATOM      7  N   UNL     1     -42.125   9.521  -4.974  1.00  0.00    -0.361 N 
ATOM      8  C   UNL     1     -41.162  12.178  -7.124  1.00  0.00     0.056 A 
ATOM      9  C   UNL     1     -41.290  13.316  -6.305  1.00  0.00     0.116 A 
ATOM     10  H   UNL     1     -42.451   9.133  -4.060  1.00  0.00     0.166 HD
ENDROOT
BRANCH   9  11
ATOM     11  O   UNL     1     -40.988  14.572  -6.826  1.00  0.00    -0.508 OA
ATOM     12  H   UNL     1     -41.220  15.421  -6.327  1.00  0.00     0.293 HD
ENDBRANCH   9  11
TORSDOF 1
ENDMDL
MODEL 6
REMARK VINA RESULT:    -1.667      2.593      3.639
REMARK INTER + INTRA:          -1.716
REMARK INTER:                  -1.716
REMARK INTRA:                   0.000
REMARK UNBOUND:                 0.000
REMARK SMILES Oc1ccc2[nH]ccc2c1
REMARK SMILES IDX 3 1 4 2 5 3 9 4 8 5 7 6 6 7 10 8 2 9 1 11
REMARK H PARENT 6 10 1 12
REMARK Flexibility Score: inf
ROOT
ATOM      1  C   UNL     1     -40.928  22.494  11.778  1.00  0.00     0.048 A 
ATOM      2  C   UNL     1     -40.709  23.108  10.530  1.00  0.00     0.030 A 
ATOM      3  C   UNL     1     -41.166  22.449   9.392  1.00  0.00     0.046 A 
ATOM      4  C   UNL     1     -41.807  21.241   9.468  1.00  0.00     0.003 A 
ATOM      5  C   UNL     1     -42.125  20.862   8.182  1.00  0.00     0.028 A 
ATOM      6  C   UNL     1     -41.646  21.887   7.372  1.00  0.00     0.083 A 
ATOM      7  N   UNL     1     -41.061  22.853   8.116  1.00  0.00    -0.361 N 
ATOM      8  C   UNL     1     -42.040  20.606  10.685  1.00  0.00     0.056 A 
ATOM      9  C   UNL     1     -41.592  21.245  11.858  1.00  0.00     0.116 A 
ATOM     10  H   UNL     1     -40.620  23.733   7.765  1.00  0.00     0.166 HD
ENDROOT
BRANCH   9  11
ATOM     11  O   UNL     1     -41.809  20.638  13.093  1.00  0.00    -0.508 OA
ATOM     12  H   UNL     1     -41.567  21.103  13.959  1.00  0.00     0.293 HD
ENDBRANCH   9  11
TORSDOF 1
ENDMDL
MODEL 7
REMARK VINA RESULT:    -1.287     17.857     19.043
REMARK INTER + INTRA:          -1.325
REMARK INTER:                  -1.325
REMARK INTRA:                   0.000
REMARK UNBOUND:                 0.000
REMARK SMILES Oc1ccc2[nH]ccc2c1
REMARK SMILES IDX 3 1 4 2 5 3 9 4 8 5 7 6 6 7 10 8 2 9 1 11
REMARK H PARENT 6 10 1 12
REMARK Flexibility Score: inf
ROOT
ATOM      1  C   UNL     1     -41.971   8.954  -6.054  1.00  0.00     0.048 A 
ATOM      2  C   UNL     1     -41.919  10.030  -6.959  1.00  0.00     0.030 A 
ATOM      3  C   UNL     1     -41.972  11.321  -6.438  1.00  0.00     0.046 A 
ATOM      4  C   UNL     1     -42.072  11.550  -5.092  1.00  0.00     0.003 A 
ATOM      5  C   UNL     1     -42.102  12.916  -4.907  1.00  0.00     0.028 A 
ATOM      6  C   UNL     1     -42.017  13.457  -6.186  1.00  0.00     0.083 A 
ATOM      7  N   UNL     1     -41.938  12.479  -7.118  1.00  0.00    -0.361 N 
ATOM      8  C   UNL     1     -42.125  10.508  -4.169  1.00  0.00     0.056 A 
ATOM      9  C   UNL     1     -42.074   9.190  -4.661  1.00  0.00     0.116 A 
ATOM     10  H   UNL     1     -41.864  12.603  -8.153  1.00  0.00     0.166 HD
ENDROOT
BRANCH   9  11
ATOM     11  O   UNL     1     -42.125   8.123  -3.766  1.00  0.00    -0.508 OA
ATOM     12  H   UNL     1     -42.784   8.109  -2.997  1.00  0.00     0.293 HD
ENDBRANCH   9  11
TORSDOF 1
ENDMDL
MODEL 8
REMARK VINA RESULT:    -0.738      2.979      3.985
REMARK INTER + INTRA:          -0.759
REMARK INTER:                  -0.759
REMARK INTRA:                   0.000
REMARK UNBOUND:                 0.000
REMARK SMILES Oc1ccc2[nH]ccc2c1
REMARK SMILES IDX 3 1 4 2 5 3 9 4 8 5 7 6 6 7 10 8 2 9 1 11
REMARK H PARENT 6 10 1 12
REMARK Flexibility Score: inf
ROOT
ATOM      1  C   UNL     1     -42.087  22.869   8.391  1.00  0.00     0.048 A 
ATOM      2  C   UNL     1     -42.102  22.414   7.059  1.00  0.00     0.030 A 
ATOM      3  C   UNL     1     -42.110  21.038   6.843  1.00  0.00     0.046 A 
ATOM      4  C   UNL     1     -42.101  20.145   7.881  1.00  0.00     0.003 A 
ATOM      5  C   UNL     1     -42.111  18.879   7.337  1.00  0.00     0.028 A 
ATOM      6  C   UNL     1     -42.125  19.076   5.960  1.00  0.00     0.083 A 
ATOM      7  N   UNL     1     -42.123  20.396   5.663  1.00  0.00    -0.361 N 
ATOM      8  C   UNL     1     -42.086  20.562   9.210  1.00  0.00     0.056 A 
ATOM      9  C   UNL     1     -42.078  21.947   9.467  1.00  0.00     0.116 A 
ATOM     10  H   UNL     1     -42.133  20.824   4.710  1.00  0.00     0.166 HD
ENDROOT
BRANCH   9  11
ATOM     11  O   UNL     1     -42.063  22.399  10.784  1.00  0.00    -0.508 OA
ATOM     12  H   UNL     1     -42.652  23.165  11.087  1.00  0.00     0.293 HD
ENDBRANCH   9  11
TORSDOF 1
ENDMDL
