MODEL 1
REMARK VINA RESULT:    -3.406      0.000      0.000
REMARK INTER + INTRA:          -4.684
REMARK INTER:                  -4.600
REMARK INTRA:                  -0.084
REMARK UNBOUND:                -0.084
REMARK SMILES C=C1C(=O)O[C@@H]2[C@H]3O[C@@]3(C)CCC=C(C)CC[C@@H]12
REMARK SMILES IDX 6 1 18 2 2 3 1 4 3 5 4 6 5 7 17 8 16 9 14 10 15 11 13 12
REMARK SMILES IDX 7 14 9 15 8 16 10 17 11 18 12 19
REMARK H PARENT
REMARK Flexibility Score: 70.00
ROOT
ATOM      1  C   UNL     1      -5.422  92.522 -14.233  1.00  0.00     0.216 C 
ATOM      2  C   UNL     1      -4.582  91.218 -14.452  1.00  0.00     0.070 C 
ATOM      3  C   UNL     1      -3.702  91.583 -15.613  1.00  0.00     0.037 C 
ATOM      4  C   UNL     1      -2.641  90.900 -16.042  1.00  0.00     0.021 C 
ATOM      5  C   UNL     1      -4.193  92.817 -16.170  1.00  0.00     0.334 C 
ATOM      6  O   UNL     1      -3.758  93.381 -17.209  1.00  0.00    -0.247 OA
ATOM      7  O   UNL     1      -5.223  93.312 -15.405  1.00  0.00    -0.455 OA
ENDROOT
BRANCH   2   8
ATOM      8  C   UNL     1      -5.456  89.995 -14.832  1.00  0.00     0.017 C 
BRANCH   8   9
ATOM      9  C   UNL     1      -5.773  89.059 -13.649  1.00  0.00     0.031 C 
BRANCH   9  10
ATOM     10  C   UNL     1      -7.162  89.282 -13.078  1.00  0.00    -0.077 C 
ATOM     11  C   UNL     1      -8.320  88.574 -13.738  1.00  0.00     0.039 C 
ATOM     12  C   UNL     1      -7.432  90.068 -12.010  1.00  0.00    -0.028 CG0
ATOM     13  G   UNL     1      -6.446  90.935 -11.266  1.00  0.00     0.000 G0
ENDBRANCH   9  10
ENDBRANCH   8   9
ENDBRANCH   2   8
BRANCH   1  14
ATOM     14  C   UNL     1      -4.872  93.313 -13.031  1.00  0.00     0.192 C 
ATOM     15  C   UNL     1      -5.543  93.282 -11.698  1.00  0.00     0.096 C 
ATOM     16  O   UNL     1      -5.782  94.316 -12.625  1.00  0.00    -0.362 OA
ATOM     17  C   UNL     1      -4.734  93.765 -10.495  1.00  0.00     0.045 C 
BRANCH  15  18
ATOM     18  C   UNL     1      -6.798  92.432 -11.441  1.00  0.00     0.042 C 
BRANCH  18  19
ATOM     19  C   UNL     1      -6.441  90.943 -11.265  1.00  0.00     0.030 CG0
ATOM     20  G   UNL     1      -7.418  90.073 -12.016  1.00  0.00     0.000 G0
ENDBRANCH  18  19
ENDBRANCH  15  18
ENDBRANCH   1  14
TORSDOF 0
ENDMDL
MODEL 2
REMARK VINA RESULT:    -3.311      2.011      4.046
REMARK INTER + INTRA:          -4.556
REMARK INTER:                  -4.462
REMARK INTRA:                  -0.095
REMARK UNBOUND:                -0.084
REMARK SMILES C=C1C(=O)O[C@@H]2[C@H]3O[C@@]3(C)CCC=C(C)CC[C@@H]12
REMARK SMILES IDX 6 1 18 2 2 3 1 4 3 5 4 6 5 7 17 8 16 9 14 10 15 11 13 12
REMARK SMILES IDX 7 14 9 15 8 16 10 17 11 18 12 19
REMARK H PARENT
REMARK Flexibility Score: 70.00
ROOT
ATOM      1  C   UNL     1      -4.803  90.786 -12.935  1.00  0.00     0.216 C 
ATOM      2  C   UNL     1      -5.061  92.260 -13.400  1.00  0.00     0.070 C 
ATOM      3  C   UNL     1      -4.534  92.259 -14.806  1.00  0.00     0.037 C 
ATOM      4  C   UNL     1      -4.729  93.211 -15.719  1.00  0.00     0.021 C 
ATOM      5  C   UNL     1      -3.799  91.037 -15.004  1.00  0.00     0.334 C 
ATOM      6  O   UNL     1      -3.142  90.731 -16.034  1.00  0.00    -0.247 OA
ATOM      7  O   UNL     1      -3.908  90.228 -13.897  1.00  0.00    -0.455 OA
ENDROOT
BRANCH   2   8
ATOM      8  C   UNL     1      -4.282  93.302 -12.558  1.00  0.00     0.017 C 
BRANCH   8   9
ATOM      9  C   UNL     1      -5.144  94.031 -11.508  1.00  0.00     0.031 C 
BRANCH   9  10
ATOM     10  C   UNL     1      -4.963  93.473 -10.107  1.00  0.00    -0.077 C 
ATOM     11  C   UNL     1      -3.836  94.022  -9.267  1.00  0.00     0.039 C 
ATOM     12  C   UNL     1      -5.750  92.520  -9.557  1.00  0.00    -0.028 CG0
ATOM     13  G   UNL     1      -6.865  91.773 -10.247  1.00  0.00     0.000 G0
ENDBRANCH   9  10
ENDBRANCH   8   9
ENDBRANCH   2   8
BRANCH   1  14
ATOM     14  C   UNL     1      -6.112  89.977 -12.983  1.00  0.00     0.192 C 
ATOM     15  C   UNL     1      -6.917  89.714 -11.753  1.00  0.00     0.096 C 
ATOM     16  O   UNL     1      -5.992  88.774 -12.248  1.00  0.00    -0.362 OA
ATOM     17  C   UNL     1      -8.362  89.255 -11.947  1.00  0.00     0.045 C 
BRANCH  15  18
ATOM     18  C   UNL     1      -6.505  90.267 -10.379  1.00  0.00     0.042 C 
BRANCH  18  19
ATOM     19  C   UNL     1      -6.864  91.759 -10.244  1.00  0.00     0.030 CG0
ATOM     20  G   UNL     1      -5.750  92.511  -9.559  1.00  0.00     0.000 G0
ENDBRANCH  18  19
ENDBRANCH  15  18
ENDBRANCH   1  14
TORSDOF 0
ENDMDL
MODEL 3
REMARK VINA RESULT:    -3.166      2.264      2.604
REMARK INTER + INTRA:          -4.361
REMARK INTER:                  -4.265
REMARK INTRA:                  -0.096
REMARK UNBOUND:                -0.084
REMARK SMILES C=C1C(=O)O[C@@H]2[C@H]3O[C@@]3(C)CCC=C(C)CC[C@@H]12
REMARK SMILES IDX 6 1 18 2 2 3 1 4 3 5 4 6 5 7 17 8 16 9 14 10 15 11 13 12
REMARK SMILES IDX 7 14 9 15 8 16 10 17 11 18 12 19
REMARK H PARENT
REMARK Flexibility Score: 70.00
ROOT
ATOM      1  C   UNL     1      -6.469  92.230 -16.581  1.00  0.00     0.216 C 
ATOM      2  C   UNL     1      -5.192  91.439 -16.136  1.00  0.00     0.070 C 
ATOM      3  C   UNL     1      -4.367  91.412 -17.390  1.00  0.00     0.037 C 
ATOM      4  C   UNL     1      -3.085  91.058 -17.480  1.00  0.00     0.021 C 
ATOM      5  C   UNL     1      -5.197  91.860 -18.477  1.00  0.00     0.334 C 
ATOM      6  O   UNL     1      -4.870  91.884 -19.693  1.00  0.00    -0.247 OA
ATOM      7  O   UNL     1      -6.425  92.265 -18.007  1.00  0.00    -0.455 OA
ENDROOT
BRANCH   2   8
ATOM      8  C   UNL     1      -5.507  89.987 -15.694  1.00  0.00     0.017 C 
BRANCH   8   9
ATOM      9  C   UNL     1      -5.715  89.824 -14.176  1.00  0.00     0.031 C 
BRANCH   9  10
ATOM     10  C   UNL     1      -7.182  89.788 -13.783  1.00  0.00    -0.077 C 
ATOM     11  C   UNL     1      -7.916  88.477 -13.912  1.00  0.00     0.039 C 
ATOM     12  C   UNL     1      -7.874  90.853 -13.316  1.00  0.00    -0.028 CG0
ATOM     13  G   UNL     1      -7.365  92.269 -13.200  1.00  0.00     0.000 G0
ENDBRANCH   9  10
ENDBRANCH   8   9
ENDBRANCH   2   8
BRANCH   1  14
ATOM     14  C   UNL     1      -6.399  93.682 -16.070  1.00  0.00     0.192 C 
ATOM     15  C   UNL     1      -7.224  94.147 -14.915  1.00  0.00     0.096 C 
ATOM     16  O   UNL     1      -7.638  94.342 -16.248  1.00  0.00    -0.362 OA
ATOM     17  C   UNL     1      -6.813  95.458 -14.245  1.00  0.00     0.045 C 
BRANCH  15  18
ATOM     18  C   UNL     1      -8.159  93.197 -14.151  1.00  0.00     0.042 C 
BRANCH  18  19
ATOM     19  C   UNL     1      -7.368  92.279 -13.197  1.00  0.00     0.030 CG0
ATOM     20  G   UNL     1      -7.857  90.856 -13.308  1.00  0.00     0.000 G0
ENDBRANCH  18  19
ENDBRANCH  15  18
ENDBRANCH   1  14
TORSDOF 0
ENDMDL
MODEL 4
REMARK VINA RESULT:    -3.133      8.628     10.419
REMARK INTER + INTRA:          -4.315
REMARK INTER:                  -4.292
REMARK INTRA:                  -0.024
REMARK UNBOUND:                -0.084
REMARK SMILES C=C1C(=O)O[C@@H]2[C@H]3O[C@@]3(C)CCC=C(C)CC[C@@H]12
REMARK SMILES IDX 6 1 18 2 2 3 1 4 3 5 4 6 5 7 17 8 16 9 14 10 15 11 13 12
REMARK SMILES IDX 7 14 9 15 8 16 10 17 11 18 12 19
REMARK H PARENT
REMARK Flexibility Score: 70.00
ROOT
ATOM      1  C   UNL     1      -5.413  83.624  -6.855  1.00  0.00     0.216 C 
ATOM      2  C   UNL     1      -4.184  83.664  -7.826  1.00  0.00     0.070 C 
ATOM      3  C   UNL     1      -3.579  82.301  -7.647  1.00  0.00     0.037 C 
ATOM      4  C   UNL     1      -2.645  81.748  -8.421  1.00  0.00     0.021 C 
ATOM      5  C   UNL     1      -4.202  81.685  -6.505  1.00  0.00     0.334 C 
ATOM      6  O   UNL     1      -3.885  80.575  -6.002  1.00  0.00    -0.247 OA
ATOM      7  O   UNL     1      -5.210  82.485  -6.020  1.00  0.00    -0.455 OA
ENDROOT
BRANCH   2   8
ATOM      8  C   UNL     1      -3.144  84.745  -7.435  1.00  0.00     0.017 C 
BRANCH   8   9
ATOM      9  C   UNL     1      -3.361  86.104  -8.128  1.00  0.00     0.031 C 
BRANCH   9  10
ATOM     10  C   UNL     1      -4.089  87.105  -7.248  1.00  0.00    -0.077 C 
ATOM     11  C   UNL     1      -3.284  87.856  -6.217  1.00  0.00     0.039 C 
ATOM     12  C   UNL     1      -5.412  87.375  -7.330  1.00  0.00    -0.028 CG0
ATOM     13  G   UNL     1      -6.413  86.676  -8.218  1.00  0.00     0.000 G0
ENDBRANCH   9  10
ENDBRANCH   8   9
ENDBRANCH   2   8
BRANCH   1  14
ATOM     14  C   UNL     1      -6.712  83.400  -7.652  1.00  0.00     0.192 C 
ATOM     15  C   UNL     1      -7.695  84.501  -7.876  1.00  0.00     0.096 C 
ATOM     16  O   UNL     1      -7.849  83.572  -6.829  1.00  0.00    -0.362 OA
ATOM     17  C   UNL     1      -8.733  84.299  -8.979  1.00  0.00     0.045 C 
BRANCH  15  18
ATOM     18  C   UNL     1      -7.449  85.926  -7.356  1.00  0.00     0.042 C 
BRANCH  18  19
ATOM     19  C   UNL     1      -6.396  86.661  -8.208  1.00  0.00     0.030 CG0
ATOM     20  G   UNL     1      -5.410  87.384  -7.323  1.00  0.00     0.000 G0
ENDBRANCH  18  19
ENDBRANCH  15  18
ENDBRANCH   1  14
TORSDOF 0
ENDMDL
MODEL 5
REMARK VINA RESULT:    -3.122      2.488      4.062
REMARK INTER + INTRA:          -4.301
REMARK INTER:                  -4.199
REMARK INTRA:                  -0.101
REMARK UNBOUND:                -0.084
REMARK SMILES C=C1C(=O)O[C@@H]2[C@H]3O[C@@]3(C)CCC=C(C)CC[C@@H]12
REMARK SMILES IDX 6 1 18 2 2 3 1 4 3 5 4 6 5 7 17 8 16 9 14 10 15 11 13 12
REMARK SMILES IDX 7 14 9 15 8 16 10 17 11 18 12 19
REMARK H PARENT
REMARK Flexibility Score: 70.00
ROOT
ATOM      1  C   UNL     1      -5.500  91.172 -15.095  1.00  0.00     0.216 C 
ATOM      2  C   UNL     1      -6.210  91.882 -16.297  1.00  0.00     0.070 C 
ATOM      3  C   UNL     1      -5.310  91.554 -17.453  1.00  0.00     0.037 C 
ATOM      4  C   UNL     1      -5.592  91.730 -18.744  1.00  0.00     0.021 C 
ATOM      5  C   UNL     1      -4.094  90.993 -16.924  1.00  0.00     0.334 C 
ATOM      6  O   UNL     1      -3.074  90.682 -17.593  1.00  0.00    -0.247 OA
ATOM      7  O   UNL     1      -4.191  90.840 -15.561  1.00  0.00    -0.455 OA
ENDROOT
BRANCH   2   8
ATOM      8  C   UNL     1      -6.289  93.421 -16.126  1.00  0.00     0.017 C 
BRANCH   8   9
ATOM      9  C   UNL     1      -7.660  93.928 -15.637  1.00  0.00     0.031 C 
BRANCH   9  10
ATOM     10  C   UNL     1      -7.680  94.230 -14.149  1.00  0.00    -0.077 C 
ATOM     11  C   UNL     1      -7.214  95.592 -13.697  1.00  0.00     0.039 C 
ATOM     12  C   UNL     1      -8.096  93.361 -13.198  1.00  0.00    -0.028 CG0
ATOM     13  G   UNL     1      -8.510  91.926 -13.418  1.00  0.00     0.000 G0
ENDBRANCH   9  10
ENDBRANCH   8   9
ENDBRANCH   2   8
BRANCH   1  14
ATOM     14  C   UNL     1      -6.226  89.858 -14.750  1.00  0.00     0.192 C 
ATOM     15  C   UNL     1      -7.169  89.763 -13.596  1.00  0.00     0.096 C 
ATOM     16  O   UNL     1      -5.820  89.372 -13.485  1.00  0.00    -0.362 OA
ATOM     17  C   UNL     1      -8.119  88.566 -13.565  1.00  0.00     0.045 C 
BRANCH  15  18
ATOM     18  C   UNL     1      -7.495  90.978 -12.713  1.00  0.00     0.042 C 
BRANCH  18  19
ATOM     19  C   UNL     1      -8.500  91.921 -13.403  1.00  0.00     0.030 CG0
ATOM     20  G   UNL     1      -8.113  93.362 -13.179  1.00  0.00     0.000 G0
ENDBRANCH  18  19
ENDBRANCH  15  18
ENDBRANCH   1  14
TORSDOF 0
ENDMDL
MODEL 6
REMARK VINA RESULT:    -3.107      2.510      4.237
REMARK INTER + INTRA:          -4.280
REMARK INTER:                  -4.199
REMARK INTRA:                  -0.080
REMARK UNBOUND:                -0.084
REMARK SMILES C=C1C(=O)O[C@@H]2[C@H]3O[C@@]3(C)CCC=C(C)CC[C@@H]12
REMARK SMILES IDX 6 1 18 2 2 3 1 4 3 5 4 6 5 7 17 8 16 9 14 10 15 11 13 12
REMARK SMILES IDX 7 14 9 15 8 16 10 17 11 18 12 19
REMARK H PARENT
REMARK Flexibility Score: 70.00
ROOT
ATOM      1  C   UNL     1      -6.152  89.701 -12.878  1.00  0.00     0.216 C 
ATOM      2  C   UNL     1      -5.738  91.061 -12.218  1.00  0.00     0.070 C 
ATOM      3  C   UNL     1      -4.645  91.548 -13.125  1.00  0.00     0.037 C 
ATOM      4  C   UNL     1      -4.117  92.772 -13.133  1.00  0.00     0.021 C 
ATOM      5  C   UNL     1      -4.281  90.466 -14.003  1.00  0.00     0.334 C 
ATOM      6  O   UNL     1      -3.339  90.480 -14.838  1.00  0.00    -0.247 OA
ATOM      7  O   UNL     1      -5.112  89.388 -13.805  1.00  0.00    -0.455 OA
ENDROOT
BRANCH   2   8
ATOM      8  C   UNL     1      -5.178  90.887 -10.783  1.00  0.00     0.017 C 
BRANCH   8   9
ATOM      9  C   UNL     1      -6.161  91.304  -9.672  1.00  0.00     0.031 C 
BRANCH   9  10
ATOM     10  C   UNL     1      -6.856  90.119  -9.024  1.00  0.00    -0.077 C 
ATOM     11  C   UNL     1      -6.181  89.461  -7.845  1.00  0.00     0.039 C 
ATOM     12  C   UNL     1      -8.044  89.615  -9.429  1.00  0.00    -0.028 CG0
ATOM     13  G   UNL     1      -8.838  90.055 -10.635  1.00  0.00     0.000 G0
ENDBRANCH   9  10
ENDBRANCH   8   9
ENDBRANCH   2   8
BRANCH   1  14
ATOM     14  C   UNL     1      -7.459  89.874 -13.675  1.00  0.00     0.192 C 
ATOM     15  C   UNL     1      -8.783  89.489 -13.102  1.00  0.00     0.096 C 
ATOM     16  O   UNL     1      -8.059  88.622 -13.943  1.00  0.00    -0.362 OA
ATOM     17  C   UNL     1     -10.030  90.044 -13.788  1.00  0.00     0.045 C 
BRANCH  15  18
ATOM     18  C   UNL     1      -8.920  88.934 -11.675  1.00  0.00     0.042 C 
BRANCH  18  19
ATOM     19  C   UNL     1      -8.855  90.061 -10.626  1.00  0.00     0.030 CG0
ATOM     20  G   UNL     1      -8.048  89.623  -9.429  1.00  0.00     0.000 G0
ENDBRANCH  18  19
ENDBRANCH  15  18
ENDBRANCH   1  14
TORSDOF 0
ENDMDL
MODEL 7
REMARK VINA RESULT:    -3.104      2.533      3.668
REMARK INTER + INTRA:          -4.277
REMARK INTER:                  -4.221
REMARK INTRA:                  -0.056
REMARK UNBOUND:                -0.084
REMARK SMILES C=C1C(=O)O[C@@H]2[C@H]3O[C@@]3(C)CCC=C(C)CC[C@@H]12
REMARK SMILES IDX 6 1 18 2 2 3 1 4 3 5 4 6 5 7 17 8 16 9 14 10 15 11 13 12
REMARK SMILES IDX 7 14 9 15 8 16 10 17 11 18 12 19
REMARK H PARENT
REMARK Flexibility Score: 70.00
ROOT
ATOM      1  C   UNL     1      -5.825  92.468 -11.977  1.00  0.00     0.216 C 
ATOM      2  C   UNL     1      -5.205  91.032 -11.883  1.00  0.00     0.070 C 
ATOM      3  C   UNL     1      -5.447  90.479 -13.258  1.00  0.00     0.037 C 
ATOM      4  C   UNL     1      -4.905  89.373 -13.767  1.00  0.00     0.021 C 
ATOM      5  C   UNL     1      -6.352  91.366 -13.941  1.00  0.00     0.334 C 
ATOM      6  O   UNL     1      -6.850  91.176 -15.082  1.00  0.00    -0.247 OA
ATOM      7  O   UNL     1      -6.613  92.473 -13.167  1.00  0.00    -0.455 OA
ENDROOT
BRANCH   2   8
ATOM      8  C   UNL     1      -5.915  90.138 -10.835  1.00  0.00     0.017 C 
BRANCH   8   9
ATOM      9  C   UNL     1      -5.319  90.240  -9.417  1.00  0.00     0.031 C 
BRANCH   9  10
ATOM     10  C   UNL     1      -6.097  91.185  -8.518  1.00  0.00    -0.077 C 
ATOM     11  C   UNL     1      -7.363  90.670  -7.879  1.00  0.00     0.039 C 
ATOM     12  C   UNL     1      -5.727  92.457  -8.243  1.00  0.00    -0.028 CG0
ATOM     13  G   UNL     1      -4.557  93.197  -8.845  1.00  0.00     0.000 G0
ENDBRANCH   9  10
ENDBRANCH   8   9
ENDBRANCH   2   8
BRANCH   1  14
ATOM     14  C   UNL     1      -4.711  93.518 -12.143  1.00  0.00     0.192 C 
ATOM     15  C   UNL     1      -4.348  94.458 -11.041  1.00  0.00     0.096 C 
ATOM     16  O   UNL     1      -5.235  94.830 -12.070  1.00  0.00    -0.362 OA
ATOM     17  C   UNL     1      -3.006  95.181 -11.151  1.00  0.00     0.045 C 
BRANCH  15  18
ATOM     18  C   UNL     1      -5.039  94.406  -9.669  1.00  0.00     0.042 C 
BRANCH  18  19
ATOM     19  C   UNL     1      -4.550  93.203  -8.840  1.00  0.00     0.030 CG0
ATOM     20  G   UNL     1      -5.722  92.455  -8.251  1.00  0.00     0.000 G0
ENDBRANCH  18  19
ENDBRANCH  15  18
ENDBRANCH   1  14
TORSDOF 0
ENDMDL
MODEL 8
REMARK VINA RESULT:    -3.063      3.192      6.334
REMARK INTER + INTRA:          -4.221
REMARK INTER:                  -4.168
REMARK INTRA:                  -0.054
REMARK UNBOUND:                -0.084
REMARK SMILES C=C1C(=O)O[C@@H]2[C@H]3O[C@@]3(C)CCC=C(C)CC[C@@H]12
REMARK SMILES IDX 6 1 18 2 2 3 1 4 3 5 4 6 5 7 17 8 16 9 14 10 15 11 13 12
REMARK SMILES IDX 7 14 9 15 8 16 10 17 11 18 12 19
REMARK H PARENT
REMARK Flexibility Score: 70.00
ROOT
ATOM      1  C   UNL     1      -5.602  91.555 -10.029  1.00  0.00     0.216 C 
ATOM      2  C   UNL     1      -4.420  91.957  -9.082  1.00  0.00     0.070 C 
ATOM      3  C   UNL     1      -4.615  91.045  -7.906  1.00  0.00     0.037 C 
ATOM      4  C   UNL     1      -3.738  90.828  -6.925  1.00  0.00     0.021 C 
ATOM      5  C   UNL     1      -5.907  90.424  -8.034  1.00  0.00     0.334 C 
ATOM      6  O   UNL     1      -6.448  89.666  -7.186  1.00  0.00    -0.247 OA
ATOM      7  O   UNL     1      -6.492  90.778  -9.227  1.00  0.00    -0.455 OA
ENDROOT
BRANCH   2   8
ATOM      8  C   UNL     1      -4.503  93.432  -8.610  1.00  0.00     0.017 C 
BRANCH   8   9
ATOM      9  C   UNL     1      -3.825  94.435  -9.564  1.00  0.00     0.031 C 
BRANCH   9  10
ATOM     10  C   UNL     1      -4.808  95.111 -10.503  1.00  0.00    -0.077 C 
ATOM     11  C   UNL     1      -5.628  96.257  -9.962  1.00  0.00     0.039 C 
ATOM     12  C   UNL     1      -4.994  94.762 -11.797  1.00  0.00    -0.028 CG0
ATOM     13  G   UNL     1      -4.353  93.594 -12.508  1.00  0.00     0.000 G0
ENDBRANCH   9  10
ENDBRANCH   8   9
ENDBRANCH   2   8
BRANCH   1  14
ATOM     14  C   UNL     1      -5.087  90.657 -11.169  1.00  0.00     0.192 C 
ATOM     15  C   UNL     1      -5.017  91.143 -12.579  1.00  0.00     0.096 C 
ATOM     16  O   UNL     1      -6.111  90.391 -12.107  1.00  0.00    -0.362 OA
ATOM     17  C   UNL     1      -4.150  90.345 -13.552  1.00  0.00     0.045 C 
BRANCH  15  18
ATOM     18  C   UNL     1      -5.421  92.575 -12.965  1.00  0.00     0.042 C 
BRANCH  18  19
ATOM     19  C   UNL     1      -4.352  93.596 -12.530  1.00  0.00     0.030 CG0
ATOM     20  G   UNL     1      -4.993  94.755 -11.806  1.00  0.00     0.000 G0
ENDBRANCH  18  19
ENDBRANCH  15  18
ENDBRANCH   1  14
TORSDOF 0
ENDMDL
MODEL 9
REMARK VINA RESULT:    -3.032      5.529      7.024
REMARK INTER + INTRA:          -4.180
REMARK INTER:                  -4.075
REMARK INTRA:                  -0.105
REMARK UNBOUND:                -0.084
REMARK SMILES C=C1C(=O)O[C@@H]2[C@H]3O[C@@]3(C)CCC=C(C)CC[C@@H]12
REMARK SMILES IDX 6 1 18 2 2 3 1 4 3 5 4 6 5 7 17 8 16 9 14 10 15 11 13 12
REMARK SMILES IDX 7 14 9 15 8 16 10 17 11 18 12 19
REMARK H PARENT
REMARK Flexibility Score: 70.00
ROOT
ATOM      1  C   UNL     1      -6.816  88.086  -8.612  1.00  0.00     0.216 C 
ATOM      2  C   UNL     1      -6.406  87.684 -10.069  1.00  0.00     0.070 C 
ATOM      3  C   UNL     1      -7.452  88.364 -10.905  1.00  0.00     0.037 C 
ATOM      4  C   UNL     1      -7.419  88.525 -12.228  1.00  0.00     0.021 C 
ATOM      5  C   UNL     1      -8.489  88.833 -10.024  1.00  0.00     0.334 C 
ATOM      6  O   UNL     1      -9.570  89.373 -10.379  1.00  0.00    -0.247 OA
ATOM      7  O   UNL     1      -8.141  88.609  -8.712  1.00  0.00    -0.455 OA
ENDROOT
BRANCH   2   8
ATOM      8  C   UNL     1      -6.467  86.154 -10.311  1.00  0.00     0.017 C 
BRANCH   8   9
ATOM      9  C   UNL     1      -5.105  85.444 -10.181  1.00  0.00     0.031 C 
BRANCH   9  10
ATOM     10  C   UNL     1      -4.922  84.761  -8.837  1.00  0.00    -0.077 C 
ATOM     11  C   UNL     1      -5.494  83.376  -8.664  1.00  0.00     0.039 C 
ATOM     12  C   UNL     1      -4.274  85.309  -7.784  1.00  0.00    -0.028 CG0
ATOM     13  G   UNL     1      -3.713  86.708  -7.708  1.00  0.00     0.000 G0
ENDBRANCH   9  10
ENDBRANCH   8   9
ENDBRANCH   2   8
BRANCH   1  14
ATOM     14  C   UNL     1      -5.902  89.213  -8.095  1.00  0.00     0.192 C 
ATOM     15  C   UNL     1      -4.791  88.944  -7.134  1.00  0.00     0.096 C 
ATOM     16  O   UNL     1      -6.054  89.391  -6.700  1.00  0.00    -0.362 OA
ATOM     17  C   UNL     1      -3.718  90.022  -6.984  1.00  0.00     0.045 C 
BRANCH  15  18
ATOM     18  C   UNL     1      -4.475  87.524  -6.636  1.00  0.00     0.042 C 
BRANCH  18  19
ATOM     19  C   UNL     1      -3.708  86.715  -7.699  1.00  0.00     0.030 CG0
ATOM     20  G   UNL     1      -4.255  85.311  -7.792  1.00  0.00     0.000 G0
ENDBRANCH  18  19
ENDBRANCH  15  18
ENDBRANCH   1  14
TORSDOF 0
ENDMDL
