MODEL 1
REMARK VINA RESULT:    -5.866      0.000      0.000
REMARK INTER + INTRA:          -7.506
REMARK INTER:                  -7.237
REMARK INTRA:                  -0.269
REMARK UNBOUND:                -0.269
REMARK SMILES Oc1cc(O)c2cc(O)c(-c3cc(O)c(O)c(O)c3)[o+]c2c1
REMARK SMILES IDX 10 1 20 2 21 3 22 4 2 5 3 6 4 7 6 8 7 9 8 10 11 11 12 12
REMARK SMILES IDX 13 13 19 14 15 15 17 16 14 17 16 19 18 21 9 23 1 25 5 27
REMARK H PARENT 14 18 16 20 18 22 9 24 1 26 5 28
REMARK Flexibility Score: inf
ROOT
ATOM      1  C   UNL     1     -13.360 -33.817  32.694  1.00  0.00     0.402 A 
ATOM      2  O   UNL     1     -12.291 -33.609  33.457  1.00  0.00    -0.202 OA
ATOM      3  C   UNL     1     -12.264 -32.724  34.448  1.00  0.00     0.368 A 
ATOM      4  C   UNL     1     -11.094 -32.579  35.198  1.00  0.00     0.162 A 
ATOM      5  C   UNL     1     -11.039 -31.657  36.248  1.00  0.00     0.128 A 
ATOM      6  C   UNL     1     -12.159 -30.879  36.550  1.00  0.00     0.093 A 
ATOM      7  C   UNL     1     -13.344 -31.007  35.814  1.00  0.00     0.136 A 
ATOM      8  C   UNL     1     -13.403 -31.938  34.746  1.00  0.00     0.125 A 
ATOM      9  C   UNL     1     -14.544 -32.124  33.946  1.00  0.00     0.078 A 
ATOM     10  C   UNL     1     -14.526 -33.058  32.906  1.00  0.00     0.223 A 
ENDROOT
BRANCH   1  11
ATOM     11  C   UNL     1     -13.270 -34.840  31.626  1.00  0.00     0.091 A 
ATOM     12  C   UNL     1     -13.249 -36.200  31.975  1.00  0.00     0.068 A 
ATOM     13  C   UNL     1     -13.184 -37.188  30.983  1.00  0.00     0.162 A 
ATOM     14  C   UNL     1     -13.262 -34.483  30.267  1.00  0.00     0.068 A 
ATOM     15  C   UNL     1     -13.155 -36.824  29.631  1.00  0.00     0.200 A 
ATOM     16  C   UNL     1     -13.200 -35.467  29.271  1.00  0.00     0.162 A 
BRANCH  13  17
ATOM     17  O   UNL     1     -13.148 -38.537  31.335  1.00  0.00    -0.504 OA
ATOM     18  H   UNL     1     -12.273 -39.041  31.412  1.00  0.00     0.293 HD
ENDBRANCH  13  17
BRANCH  15  19
ATOM     19  O   UNL     1     -13.088 -37.823  28.659  1.00  0.00    -0.502 OA
ATOM     20  H   UNL     1     -13.862 -38.451  28.478  1.00  0.00     0.293 HD
ENDBRANCH  15  19
BRANCH  16  21
ATOM     21  O   UNL     1     -13.186 -35.101  27.926  1.00  0.00    -0.504 OA
ATOM     22  H   UNL     1     -12.378 -35.272  27.338  1.00  0.00     0.293 HD
ENDBRANCH  16  21
ENDBRANCH   1  11
BRANCH  10  23
ATOM     23  O   UNL     1     -15.641 -33.208  32.081  1.00  0.00    -0.500 OA
ATOM     24  H   UNL     1     -16.521 -33.564  32.434  1.00  0.00     0.294 HD
ENDBRANCH  10  23
BRANCH   5  25
ATOM     25  O   UNL     1      -9.876 -31.506  36.999  1.00  0.00    -0.507 OA
ATOM     26  H   UNL     1      -9.906 -31.220  37.972  1.00  0.00     0.293 HD
ENDBRANCH   5  25
BRANCH   7  27
ATOM     27  O   UNL     1     -14.420 -30.194  36.182  1.00  0.00    -0.507 OA
ATOM     28  H   UNL     1     -15.218 -30.004  35.593  1.00  0.00     0.293 HD
ENDBRANCH   7  27
TORSDOF 7
ENDMDL
MODEL 2
REMARK VINA RESULT:    -5.388      1.221      3.177
REMARK INTER + INTRA:          -6.917
REMARK INTER:                  -6.592
REMARK INTRA:                  -0.326
REMARK UNBOUND:                -0.269
REMARK SMILES Oc1cc(O)c2cc(O)c(-c3cc(O)c(O)c(O)c3)[o+]c2c1
REMARK SMILES IDX 10 1 20 2 21 3 22 4 2 5 3 6 4 7 6 8 7 9 8 10 11 11 12 12
REMARK SMILES IDX 13 13 19 14 15 15 17 16 14 17 16 19 18 21 9 23 1 25 5 27
REMARK H PARENT 14 18 16 20 18 22 9 24 1 26 5 28
REMARK Flexibility Score: inf
ROOT
ATOM      1  C   UNL     1     -12.200 -34.559  32.359  1.00  0.00     0.402 A 
ATOM      2  O   UNL     1     -13.110 -33.815  32.982  1.00  0.00    -0.202 OA
ATOM      3  C   UNL     1     -12.806 -32.932  33.929  1.00  0.00     0.368 A 
ATOM      4  C   UNL     1     -13.832 -32.194  34.524  1.00  0.00     0.162 A 
ATOM      5  C   UNL     1     -13.540 -31.257  35.520  1.00  0.00     0.128 A 
ATOM      6  C   UNL     1     -12.217 -31.058  35.922  1.00  0.00     0.093 A 
ATOM      7  C   UNL     1     -11.171 -31.785  35.340  1.00  0.00     0.136 A 
ATOM      8  C   UNL     1     -11.462 -32.739  34.331  1.00  0.00     0.125 A 
ATOM      9  C   UNL     1     -10.480 -33.522  33.702  1.00  0.00     0.078 A 
ATOM     10  C   UNL     1     -10.844 -34.446  32.718  1.00  0.00     0.223 A 
ENDROOT
BRANCH   1  11
ATOM     11  C   UNL     1     -12.662 -35.500  31.312  1.00  0.00     0.091 A 
ATOM     12  C   UNL     1     -12.966 -35.010  30.032  1.00  0.00     0.068 A 
ATOM     13  C   UNL     1     -13.386 -35.882  29.019  1.00  0.00     0.162 A 
ATOM     14  C   UNL     1     -12.751 -36.880  31.555  1.00  0.00     0.068 A 
ATOM     15  C   UNL     1     -13.492 -37.255  29.273  1.00  0.00     0.200 A 
ATOM     16  C   UNL     1     -13.168 -37.757  30.545  1.00  0.00     0.162 A 
BRANCH  13  17
ATOM     17  O   UNL     1     -13.701 -35.389  27.753  1.00  0.00    -0.504 OA
ATOM     18  H   UNL     1     -13.691 -34.396  27.553  1.00  0.00     0.293 HD
ENDBRANCH  13  17
BRANCH  15  19
ATOM     19  O   UNL     1     -13.915 -38.106  28.252  1.00  0.00    -0.502 OA
ATOM     20  H   UNL     1     -14.336 -37.757  27.399  1.00  0.00     0.293 HD
ENDBRANCH  15  19
BRANCH  16  21
ATOM     21  O   UNL     1     -13.258 -39.125  30.798  1.00  0.00    -0.504 OA
ATOM     22  H   UNL     1     -12.431 -39.702  30.898  1.00  0.00     0.293 HD
ENDBRANCH  16  21
ENDBRANCH   1  11
BRANCH  10  23
ATOM     23  O   UNL     1      -9.875 -35.259  32.129  1.00  0.00    -0.500 OA
ATOM     24  H   UNL     1      -9.067 -35.583  32.645  1.00  0.00     0.294 HD
ENDBRANCH  10  23
BRANCH   5  25
ATOM     25  O   UNL     1     -14.557 -30.518  36.119  1.00  0.00    -0.507 OA
ATOM     26  H   UNL     1     -15.345 -30.169  35.583  1.00  0.00     0.293 HD
ENDBRANCH   5  25
BRANCH   7  27
ATOM     27  O   UNL     1      -9.875 -31.525  35.795  1.00  0.00    -0.507 OA
ATOM     28  H   UNL     1      -9.324 -30.725  35.520  1.00  0.00     0.293 HD
ENDBRANCH   7  27
TORSDOF 7
ENDMDL
MODEL 3
REMARK VINA RESULT:    -5.273      1.136      2.588
REMARK INTER + INTRA:          -6.776
REMARK INTER:                  -6.413
REMARK INTRA:                  -0.363
REMARK UNBOUND:                -0.269
REMARK SMILES Oc1cc(O)c2cc(O)c(-c3cc(O)c(O)c(O)c3)[o+]c2c1
REMARK SMILES IDX 10 1 20 2 21 3 22 4 2 5 3 6 4 7 6 8 7 9 8 10 11 11 12 12
REMARK SMILES IDX 13 13 19 14 15 15 17 16 14 17 16 19 18 21 9 23 1 25 5 27
REMARK H PARENT 14 18 16 20 18 22 9 24 1 26 5 28
REMARK Flexibility Score: inf
ROOT
ATOM      1  C   UNL     1     -12.184 -34.317  32.402  1.00  0.00     0.402 A 
ATOM      2  O   UNL     1     -13.089 -33.573  33.031  1.00  0.00    -0.202 OA
ATOM      3  C   UNL     1     -12.788 -32.745  34.027  1.00  0.00     0.368 A 
ATOM      4  C   UNL     1     -13.809 -32.001  34.624  1.00  0.00     0.162 A 
ATOM      5  C   UNL     1     -13.520 -31.121  35.671  1.00  0.00     0.128 A 
ATOM      6  C   UNL     1     -12.205 -30.982  36.120  1.00  0.00     0.093 A 
ATOM      7  C   UNL     1     -11.163 -31.715  35.537  1.00  0.00     0.136 A 
ATOM      8  C   UNL     1     -11.452 -32.613  34.477  1.00  0.00     0.125 A 
ATOM      9  C   UNL     1     -10.475 -33.397  33.842  1.00  0.00     0.078 A 
ATOM     10  C   UNL     1     -10.837 -34.264  32.806  1.00  0.00     0.223 A 
ENDROOT
BRANCH   1  11
ATOM     11  C   UNL     1     -12.642 -35.195  31.300  1.00  0.00     0.091 A 
ATOM     12  C   UNL     1     -12.940 -36.540  31.569  1.00  0.00     0.068 A 
ATOM     13  C   UNL     1     -13.393 -37.386  30.548  1.00  0.00     0.162 A 
ATOM     14  C   UNL     1     -12.838 -34.698  30.001  1.00  0.00     0.068 A 
ATOM     15  C   UNL     1     -13.568 -36.890  29.251  1.00  0.00     0.200 A 
ATOM     16  C   UNL     1     -13.294 -35.539  28.977  1.00  0.00     0.162 A 
BRANCH  13  17
ATOM     17  O   UNL     1     -13.674 -38.725  30.818  1.00  0.00    -0.504 OA
ATOM     18  H   UNL     1     -14.608 -39.104  30.710  1.00  0.00     0.293 HD
ENDBRANCH  13  17
BRANCH  15  19
ATOM     19  O   UNL     1     -14.017 -37.749  28.248  1.00  0.00    -0.502 OA
ATOM     20  H   UNL     1     -15.002 -37.854  28.031  1.00  0.00     0.293 HD
ENDBRANCH  15  19
BRANCH  16  21
ATOM     21  O   UNL     1     -13.480 -35.037  27.690  1.00  0.00    -0.504 OA
ATOM     22  H   UNL     1     -14.247 -35.348  27.104  1.00  0.00     0.293 HD
ENDBRANCH  16  21
ENDBRANCH   1  11
BRANCH  10  23
ATOM     23  O   UNL     1      -9.875 -35.080  32.209  1.00  0.00    -0.500 OA
ATOM     24  H   UNL     1      -8.904 -35.053  32.494  1.00  0.00     0.294 HD
ENDBRANCH  10  23
BRANCH   5  25
ATOM     25  O   UNL     1     -14.532 -30.377  36.273  1.00  0.00    -0.507 OA
ATOM     26  H   UNL     1     -14.770 -29.446  35.949  1.00  0.00     0.293 HD
ENDBRANCH   5  25
BRANCH   7  27
ATOM     27  O   UNL     1      -9.875 -31.517  36.042  1.00  0.00    -0.507 OA
ATOM     28  H   UNL     1      -9.026 -31.741  35.544  1.00  0.00     0.293 HD
ENDBRANCH   7  27
TORSDOF 7
ENDMDL
MODEL 4
REMARK VINA RESULT:    -4.288      2.043      7.440
REMARK INTER + INTRA:          -5.560
REMARK INTER:                  -5.190
REMARK INTRA:                  -0.370
REMARK UNBOUND:                -0.269
REMARK SMILES Oc1cc(O)c2cc(O)c(-c3cc(O)c(O)c(O)c3)[o+]c2c1
REMARK SMILES IDX 10 1 20 2 21 3 22 4 2 5 3 6 4 7 6 8 7 9 8 10 11 11 12 12
REMARK SMILES IDX 13 13 19 14 15 15 17 16 14 17 16 19 18 21 9 23 1 25 5 27
REMARK H PARENT 14 18 16 20 18 22 9 24 1 26 5 28
REMARK Flexibility Score: inf
ROOT
ATOM      1  C   UNL     1     -11.902 -32.636  34.452  1.00  0.00     0.402 A 
ATOM      2  O   UNL     1     -11.053 -33.379  33.748  1.00  0.00    -0.202 OA
ATOM      3  C   UNL     1     -11.431 -34.168  32.748  1.00  0.00     0.368 A 
ATOM      4  C   UNL     1     -10.464 -34.909  32.064  1.00  0.00     0.162 A 
ATOM      5  C   UNL     1     -10.834 -35.745  31.006  1.00  0.00     0.128 A 
ATOM      6  C   UNL     1     -12.175 -35.838  30.629  1.00  0.00     0.093 A 
ATOM      7  C   UNL     1     -13.164 -35.105  31.298  1.00  0.00     0.136 A 
ATOM      8  C   UNL     1     -12.794 -34.258  32.374  1.00  0.00     0.125 A 
ATOM      9  C   UNL     1     -13.717 -33.496  33.110  1.00  0.00     0.078 A 
ATOM     10  C   UNL     1     -13.278 -32.687  34.162  1.00  0.00     0.223 A 
ENDROOT
BRANCH   1  11
ATOM     11  C   UNL     1     -11.357 -31.788  35.538  1.00  0.00     0.091 A 
ATOM     12  C   UNL     1     -11.104 -30.429  35.289  1.00  0.00     0.068 A 
ATOM     13  C   UNL     1     -10.608 -29.601  36.305  1.00  0.00     0.162 A 
ATOM     14  C   UNL     1     -11.139 -32.299  36.828  1.00  0.00     0.068 A 
ATOM     15  C   UNL     1     -10.373 -30.121  37.583  1.00  0.00     0.200 A 
ATOM     16  C   UNL     1     -10.644 -31.475  37.848  1.00  0.00     0.162 A 
BRANCH  13  17
ATOM     17  O   UNL     1     -10.344 -28.255  36.049  1.00  0.00    -0.504 OA
ATOM     18  H   UNL     1     -10.903 -27.518  36.462  1.00  0.00     0.293 HD
ENDBRANCH  13  17
BRANCH  15  19
ATOM     19  O   UNL     1      -9.875 -29.281  38.580  1.00  0.00    -0.502 OA
ATOM     20  H   UNL     1     -10.100 -29.415  39.559  1.00  0.00     0.293 HD
ENDBRANCH  15  19
BRANCH  16  21
ATOM     21  O   UNL     1     -10.425 -31.993  39.123  1.00  0.00    -0.504 OA
ATOM     22  H   UNL     1     -11.139 -32.524  39.610  1.00  0.00     0.293 HD
ENDBRANCH  16  21
ENDBRANCH   1  11
BRANCH  10  23
ATOM     23  O   UNL     1     -14.200 -31.969  34.924  1.00  0.00    -0.500 OA
ATOM     24  H   UNL     1     -14.463 -32.263  35.857  1.00  0.00     0.294 HD
ENDBRANCH  10  23
BRANCH   5  25
ATOM     25  O   UNL     1      -9.875 -36.488  30.320  1.00  0.00    -0.507 OA
ATOM     26  H   UNL     1      -9.695 -37.459  30.549  1.00  0.00     0.293 HD
ENDBRANCH   5  25
BRANCH   7  27
ATOM     27  O   UNL     1     -14.482 -35.251  30.858  1.00  0.00    -0.507 OA
ATOM     28  H   UNL     1     -14.804 -35.997  30.258  1.00  0.00     0.293 HD
ENDBRANCH   7  27
TORSDOF 7
ENDMDL
MODEL 5
REMARK VINA RESULT:    -3.716      1.436      7.095
REMARK INTER + INTRA:          -4.854
REMARK INTER:                  -4.595
REMARK INTRA:                  -0.260
REMARK UNBOUND:                -0.269
REMARK SMILES Oc1cc(O)c2cc(O)c(-c3cc(O)c(O)c(O)c3)[o+]c2c1
REMARK SMILES IDX 10 1 20 2 21 3 22 4 2 5 3 6 4 7 6 8 7 9 8 10 11 11 12 12
REMARK SMILES IDX 13 13 19 14 15 15 17 16 14 17 16 19 18 21 9 23 1 25 5 27
REMARK H PARENT 14 18 16 20 18 22 9 24 1 26 5 28
REMARK Flexibility Score: inf
ROOT
ATOM      1  C   UNL     1     -12.793 -34.407  32.342  1.00  0.00     0.402 A 
ATOM      2  O   UNL     1     -12.582 -35.686  32.638  1.00  0.00    -0.202 OA
ATOM      3  C   UNL     1     -12.723 -36.672  31.756  1.00  0.00     0.368 A 
ATOM      4  C   UNL     1     -12.474 -37.986  32.161  1.00  0.00     0.162 A 
ATOM      5  C   UNL     1     -12.612 -39.041  31.254  1.00  0.00     0.128 A 
ATOM      6  C   UNL     1     -12.998 -38.780  29.937  1.00  0.00     0.093 A 
ATOM      7  C   UNL     1     -13.252 -37.471  29.507  1.00  0.00     0.136 A 
ATOM      8  C   UNL     1     -13.116 -36.398  30.424  1.00  0.00     0.125 A 
ATOM      9  C   UNL     1     -13.362 -35.057  30.085  1.00  0.00     0.078 A 
ATOM     10  C   UNL     1     -13.213 -34.052  31.046  1.00  0.00     0.223 A 
ENDROOT
BRANCH   1  11
ATOM     11  C   UNL     1     -12.592 -33.399  33.408  1.00  0.00     0.091 A 
ATOM     12  C   UNL     1     -13.707 -32.746  33.958  1.00  0.00     0.068 A 
ATOM     13  C   UNL     1     -13.546 -31.803  34.981  1.00  0.00     0.162 A 
ATOM     14  C   UNL     1     -11.315 -33.120  33.922  1.00  0.00     0.068 A 
ATOM     15  C   UNL     1     -12.268 -31.514  35.475  1.00  0.00     0.200 A 
ATOM     16  C   UNL     1     -11.148 -32.179  34.947  1.00  0.00     0.162 A 
BRANCH  13  17
ATOM     17  O   UNL     1     -14.656 -31.146  35.514  1.00  0.00    -0.504 OA
ATOM     18  H   UNL     1     -14.567 -30.258  35.992  1.00  0.00     0.293 HD
ENDBRANCH  13  17
BRANCH  15  19
ATOM     19  O   UNL     1     -12.128 -30.569  36.493  1.00  0.00    -0.502 OA
ATOM     20  H   UNL     1     -12.902 -29.993  36.802  1.00  0.00     0.293 HD
ENDBRANCH  15  19
BRANCH  16  21
ATOM     21  O   UNL     1      -9.876 -31.905  35.446  1.00  0.00    -0.504 OA
ATOM     22  H   UNL     1      -9.047 -32.004  34.871  1.00  0.00     0.293 HD
ENDBRANCH  16  21
ENDBRANCH   1  11
BRANCH  10  23
ATOM     23  O   UNL     1     -13.505 -32.726  30.723  1.00  0.00    -0.500 OA
ATOM     24  H   UNL     1     -13.596 -32.013  31.436  1.00  0.00     0.294 HD
ENDBRANCH  10  23
BRANCH   5  25
ATOM     25  O   UNL     1     -12.368 -40.354  31.650  1.00  0.00    -0.507 OA
ATOM     26  H   UNL     1     -11.424 -40.706  31.763  1.00  0.00     0.293 HD
ENDBRANCH   5  25
BRANCH   7  27
ATOM     27  O   UNL     1     -13.630 -37.294  28.173  1.00  0.00    -0.507 OA
ATOM     28  H   UNL     1     -14.582 -37.343  27.839  1.00  0.00     0.293 HD
ENDBRANCH   7  27
TORSDOF 7
ENDMDL
MODEL 6
REMARK VINA RESULT:    -3.297      1.729      7.162
REMARK INTER + INTRA:          -4.338
REMARK INTER:                  -4.034
REMARK INTRA:                  -0.304
REMARK UNBOUND:                -0.269
REMARK SMILES Oc1cc(O)c2cc(O)c(-c3cc(O)c(O)c(O)c3)[o+]c2c1
REMARK SMILES IDX 10 1 20 2 21 3 22 4 2 5 3 6 4 7 6 8 7 9 8 10 11 11 12 12
REMARK SMILES IDX 13 13 19 14 15 15 17 16 14 17 16 19 18 21 9 23 1 25 5 27
REMARK H PARENT 14 18 16 20 18 22 9 24 1 26 5 28
REMARK Flexibility Score: inf
ROOT
ATOM      1  C   UNL     1     -12.776 -34.272  31.869  1.00  0.00     0.402 A 
ATOM      2  O   UNL     1     -12.213 -33.823  30.751  1.00  0.00    -0.202 OA
ATOM      3  C   UNL     1     -12.308 -34.452  29.583  1.00  0.00     0.368 A 
ATOM      4  C   UNL     1     -11.683 -33.900  28.461  1.00  0.00     0.162 A 
ATOM      5  C   UNL     1     -11.770 -34.540  27.221  1.00  0.00     0.128 A 
ATOM      6  C   UNL     1     -12.484 -35.734  27.102  1.00  0.00     0.093 A 
ATOM      7  C   UNL     1     -13.120 -36.306  28.211  1.00  0.00     0.136 A 
ATOM      8  C   UNL     1     -13.032 -35.663  29.473  1.00  0.00     0.125 A 
ATOM      9  C   UNL     1     -13.626 -36.171  30.640  1.00  0.00     0.078 A 
ATOM     10  C   UNL     1     -13.492 -35.483  31.851  1.00  0.00     0.223 A 
ENDROOT
BRANCH   1  11
ATOM     11  C   UNL     1     -12.607 -33.475  33.107  1.00  0.00     0.091 A 
ATOM     12  C   UNL     1     -11.332 -33.357  33.681  1.00  0.00     0.068 A 
ATOM     13  C   UNL     1     -11.142 -32.593  34.841  1.00  0.00     0.162 A 
ATOM     14  C   UNL     1     -13.686 -32.788  33.688  1.00  0.00     0.068 A 
ATOM     15  C   UNL     1     -12.225 -31.928  35.428  1.00  0.00     0.200 A 
ATOM     16  C   UNL     1     -13.501 -32.021  34.847  1.00  0.00     0.162 A 
BRANCH  13  17
ATOM     17  O   UNL     1      -9.876 -32.491  35.417  1.00  0.00    -0.504 OA
ATOM     18  H   UNL     1      -9.631 -33.008  36.253  1.00  0.00     0.293 HD
ENDBRANCH  13  17
BRANCH  15  19
ATOM     19  O   UNL     1     -12.016 -31.174  36.584  1.00  0.00    -0.502 OA
ATOM     20  H   UNL     1     -12.776 -30.710  37.068  1.00  0.00     0.293 HD
ENDBRANCH  15  19
BRANCH  16  21
ATOM     21  O   UNL     1     -14.579 -31.348  35.420  1.00  0.00    -0.504 OA
ATOM     22  H   UNL     1     -15.463 -31.812  35.593  1.00  0.00     0.293 HD
ENDBRANCH  16  21
ENDBRANCH   1  11
BRANCH  10  23
ATOM     23  O   UNL     1     -14.039 -36.012  33.020  1.00  0.00    -0.500 OA
ATOM     24  H   UNL     1     -15.001 -36.326  33.063  1.00  0.00     0.294 HD
ENDBRANCH  10  23
BRANCH   5  25
ATOM     25  O   UNL     1     -11.149 -33.996  26.098  1.00  0.00    -0.507 OA
ATOM     26  H   UNL     1     -10.353 -33.375  26.182  1.00  0.00     0.293 HD
ENDBRANCH   5  25
BRANCH   7  27
ATOM     27  O   UNL     1     -13.817 -37.500  28.008  1.00  0.00    -0.507 OA
ATOM     28  H   UNL     1     -14.707 -37.721  28.432  1.00  0.00     0.293 HD
ENDBRANCH   7  27
TORSDOF 7
ENDMDL
MODEL 7
REMARK VINA RESULT:    -3.296      2.390      7.486
REMARK INTER + INTRA:          -4.336
REMARK INTER:                  -4.598
REMARK INTRA:                   0.262
REMARK UNBOUND:                -0.269
REMARK SMILES Oc1cc(O)c2cc(O)c(-c3cc(O)c(O)c(O)c3)[o+]c2c1
REMARK SMILES IDX 10 1 20 2 21 3 22 4 2 5 3 6 4 7 6 8 7 9 8 10 11 11 12 12
REMARK SMILES IDX 13 13 19 14 15 15 17 16 14 17 16 19 18 21 9 23 1 25 5 27
REMARK H PARENT 14 18 16 20 18 22 9 24 1 26 5 28
REMARK Flexibility Score: inf
ROOT
ATOM      1  C   UNL     1     -11.991 -33.841  31.104  1.00  0.00     0.402 A 
ATOM      2  O   UNL     1     -12.849 -33.533  30.136  1.00  0.00    -0.202 OA
ATOM      3  C   UNL     1     -12.682 -33.900  28.869  1.00  0.00     0.368 A 
ATOM      4  C   UNL     1     -13.641 -33.531  27.922  1.00  0.00     0.162 A 
ATOM      5  C   UNL     1     -13.491 -33.907  26.584  1.00  0.00     0.128 A 
ATOM      6  C   UNL     1     -12.380 -34.657  26.192  1.00  0.00     0.093 A 
ATOM      7  C   UNL     1     -11.406 -35.040  27.122  1.00  0.00     0.136 A 
ATOM      8  C   UNL     1     -11.551 -34.658  28.480  1.00  0.00     0.125 A 
ATOM      9  C   UNL     1     -10.618 -34.986  29.478  1.00  0.00     0.078 A 
ATOM     10  C   UNL     1     -10.827 -34.570  30.797  1.00  0.00     0.223 A 
ENDROOT
BRANCH   1  11
ATOM     11  C   UNL     1     -12.293 -33.382  32.480  1.00  0.00     0.091 A 
ATOM     12  C   UNL     1     -11.235 -33.082  33.353  1.00  0.00     0.068 A 
ATOM     13  C   UNL     1     -11.494 -32.628  34.653  1.00  0.00     0.162 A 
ATOM     14  C   UNL     1     -13.614 -33.186  32.914  1.00  0.00     0.068 A 
ATOM     15  C   UNL     1     -12.814 -32.454  35.087  1.00  0.00     0.200 A 
ATOM     16  C   UNL     1     -13.879 -32.729  34.212  1.00  0.00     0.162 A 
BRANCH  13  17
ATOM     17  O   UNL     1     -10.440 -32.346  35.522  1.00  0.00    -0.504 OA
ATOM     18  H   UNL     1     -10.572 -32.326  36.527  1.00  0.00     0.293 HD
ENDBRANCH  13  17
BRANCH  15  19
ATOM     19  O   UNL     1     -13.051 -32.003  36.386  1.00  0.00    -0.502 OA
ATOM     20  H   UNL     1     -13.347 -31.054  36.581  1.00  0.00     0.293 HD
ENDBRANCH  15  19
BRANCH  16  21
ATOM     21  O   UNL     1     -15.194 -32.544  34.635  1.00  0.00    -0.504 OA
ATOM     22  H   UNL     1     -15.892 -33.272  34.532  1.00  0.00     0.293 HD
ENDBRANCH  16  21
ENDBRANCH   1  11
BRANCH  10  23
ATOM     23  O   UNL     1      -9.876 -34.853  31.779  1.00  0.00    -0.500 OA
ATOM     24  H   UNL     1      -9.279 -35.668  31.721  1.00  0.00     0.294 HD
ENDBRANCH  10  23
BRANCH   5  25
ATOM     25  O   UNL     1     -14.442 -33.542  25.634  1.00  0.00    -0.507 OA
ATOM     26  H   UNL     1     -14.270 -32.793  24.972  1.00  0.00     0.293 HD
ENDBRANCH   5  25
BRANCH   7  27
ATOM     27  O   UNL     1     -10.326 -35.792  26.650  1.00  0.00    -0.507 OA
ATOM     28  H   UNL     1     -10.217 -36.786  26.791  1.00  0.00     0.293 HD
ENDBRANCH   7  27
TORSDOF 7
ENDMDL
MODEL 8
REMARK VINA RESULT:    -3.286      1.647      7.450
REMARK INTER + INTRA:          -4.323
REMARK INTER:                  -3.968
REMARK INTRA:                  -0.355
REMARK UNBOUND:                -0.269
REMARK SMILES Oc1cc(O)c2cc(O)c(-c3cc(O)c(O)c(O)c3)[o+]c2c1
REMARK SMILES IDX 10 1 20 2 21 3 22 4 2 5 3 6 4 7 6 8 7 9 8 10 11 11 12 12
REMARK SMILES IDX 13 13 19 14 15 15 17 16 14 17 16 19 18 21 9 23 1 25 5 27
REMARK H PARENT 14 18 16 20 18 22 9 24 1 26 5 28
REMARK Flexibility Score: inf
ROOT
ATOM      1  C   UNL     1     -11.547 -33.166  33.448  1.00  0.00     0.402 A 
ATOM      2  O   UNL     1     -12.329 -34.224  33.247  1.00  0.00    -0.202 OA
ATOM      3  C   UNL     1     -12.308 -34.944  32.130  1.00  0.00     0.368 A 
ATOM      4  C   UNL     1     -13.165 -36.041  32.012  1.00  0.00     0.162 A 
ATOM      5  C   UNL     1     -13.161 -36.817  30.849  1.00  0.00     0.128 A 
ATOM      6  C   UNL     1     -12.296 -36.496  29.801  1.00  0.00     0.093 A 
ATOM      7  C   UNL     1     -11.426 -35.402  29.895  1.00  0.00     0.136 A 
ATOM      8  C   UNL     1     -11.428 -34.609  31.072  1.00  0.00     0.125 A 
ATOM      9  C   UNL     1     -10.601 -33.488  31.248  1.00  0.00     0.078 A 
ATOM     10  C   UNL     1     -10.663 -32.751  32.435  1.00  0.00     0.223 A 
ENDROOT
BRANCH   1  11
ATOM     11  C   UNL     1     -11.656 -32.451  34.741  1.00  0.00     0.091 A 
ATOM     12  C   UNL     1     -12.767 -31.626  34.980  1.00  0.00     0.068 A 
ATOM     13  C   UNL     1     -12.903 -30.954  36.202  1.00  0.00     0.162 A 
ATOM     14  C   UNL     1     -10.700 -32.622  35.756  1.00  0.00     0.068 A 
ATOM     15  C   UNL     1     -11.936 -31.112  37.202  1.00  0.00     0.200 A 
ATOM     16  C   UNL     1     -10.833 -31.954  36.981  1.00  0.00     0.162 A 
BRANCH  13  17
ATOM     17  O   UNL     1     -14.001 -30.124  36.430  1.00  0.00    -0.504 OA
ATOM     18  H   UNL     1     -14.574 -29.782  35.668  1.00  0.00     0.293 HD
ENDBRANCH  13  17
BRANCH  15  19
ATOM     19  O   UNL     1     -12.089 -30.432  38.411  1.00  0.00    -0.502 OA
ATOM     20  H   UNL     1     -12.961 -29.989  38.673  1.00  0.00     0.293 HD
ENDBRANCH  15  19
BRANCH  16  21
ATOM     21  O   UNL     1      -9.875 -32.125  37.979  1.00  0.00    -0.504 OA
ATOM     22  H   UNL     1     -10.034 -32.744  38.766  1.00  0.00     0.293 HD
ENDBRANCH  16  21
ENDBRANCH   1  11
BRANCH  10  23
ATOM     23  O   UNL     1      -9.878 -31.608  32.591  1.00  0.00    -0.500 OA
ATOM     24  H   UNL     1      -9.522 -31.326  33.496  1.00  0.00     0.294 HD
ENDBRANCH  10  23
BRANCH   5  25
ATOM     25  O   UNL     1     -14.014 -37.912  30.724  1.00  0.00    -0.507 OA
ATOM     26  H   UNL     1     -14.664 -37.991  29.950  1.00  0.00     0.293 HD
ENDBRANCH   5  25
BRANCH   7  27
ATOM     27  O   UNL     1     -10.589 -35.149  28.804  1.00  0.00    -0.507 OA
ATOM     28  H   UNL     1      -9.590 -35.292  28.806  1.00  0.00     0.293 HD
ENDBRANCH   7  27
TORSDOF 7
ENDMDL
MODEL 9
REMARK VINA RESULT:    -3.146      2.387      7.496
REMARK INTER + INTRA:          -4.151
REMARK INTER:                  -4.372
REMARK INTRA:                   0.222
REMARK UNBOUND:                -0.269
REMARK SMILES Oc1cc(O)c2cc(O)c(-c3cc(O)c(O)c(O)c3)[o+]c2c1
REMARK SMILES IDX 10 1 20 2 21 3 22 4 2 5 3 6 4 7 6 8 7 9 8 10 11 11 12 12
REMARK SMILES IDX 13 13 19 14 15 15 17 16 14 17 16 19 18 21 9 23 1 25 5 27
REMARK H PARENT 14 18 16 20 18 22 9 24 1 26 5 28
REMARK Flexibility Score: inf
ROOT
ATOM      1  C   UNL     1     -11.988 -33.767  31.144  1.00  0.00     0.402 A 
ATOM      2  O   UNL     1     -12.849 -33.471  30.175  1.00  0.00    -0.202 OA
ATOM      3  C   UNL     1     -12.691 -33.863  28.915  1.00  0.00     0.368 A 
ATOM      4  C   UNL     1     -13.653 -33.505  27.966  1.00  0.00     0.162 A 
ATOM      5  C   UNL     1     -13.512 -33.907  26.634  1.00  0.00     0.128 A 
ATOM      6  C   UNL     1     -12.406 -34.669  26.250  1.00  0.00     0.093 A 
ATOM      7  C   UNL     1     -11.429 -35.041  27.182  1.00  0.00     0.136 A 
ATOM      8  C   UNL     1     -11.566 -34.634  28.534  1.00  0.00     0.125 A 
ATOM      9  C   UNL     1     -10.630 -34.949  29.533  1.00  0.00     0.078 A 
ATOM     10  C   UNL     1     -10.830 -34.507  30.845  1.00  0.00     0.223 A 
ENDROOT
BRANCH   1  11
ATOM     11  C   UNL     1     -12.280 -33.281  32.513  1.00  0.00     0.091 A 
ATOM     12  C   UNL     1     -13.616 -33.156  32.929  1.00  0.00     0.068 A 
ATOM     13  C   UNL     1     -13.919 -32.718  34.225  1.00  0.00     0.162 A 
ATOM     14  C   UNL     1     -11.251 -32.997  33.426  1.00  0.00     0.068 A 
ATOM     15  C   UNL     1     -12.888 -32.416  35.123  1.00  0.00     0.200 A 
ATOM     16  C   UNL     1     -11.548 -32.561  34.724  1.00  0.00     0.162 A 
BRANCH  13  17
ATOM     17  O   UNL     1     -15.247 -32.580  34.628  1.00  0.00    -0.504 OA
ATOM     18  H   UNL     1     -15.805 -33.381  34.898  1.00  0.00     0.293 HD
ENDBRANCH  13  17
BRANCH  15  19
ATOM     19  O   UNL     1     -13.211 -31.979  36.408  1.00  0.00    -0.502 OA
ATOM     20  H   UNL     1     -12.801 -31.144  36.812  1.00  0.00     0.293 HD
ENDBRANCH  15  19
BRANCH  16  21
ATOM     21  O   UNL     1     -10.519 -32.275  35.620  1.00  0.00    -0.504 OA
ATOM     22  H   UNL     1      -9.546 -32.300  35.336  1.00  0.00     0.293 HD
ENDBRANCH  16  21
ENDBRANCH   1  11
BRANCH  10  23
ATOM     23  O   UNL     1      -9.876 -34.778  31.827  1.00  0.00    -0.500 OA
ATOM     24  H   UNL     1      -9.496 -35.707  31.958  1.00  0.00     0.294 HD
ENDBRANCH  10  23
BRANCH   5  25
ATOM     25  O   UNL     1     -14.466 -33.553  25.682  1.00  0.00    -0.507 OA
ATOM     26  H   UNL     1     -14.314 -33.718  24.694  1.00  0.00     0.293 HD
ENDBRANCH   5  25
BRANCH   7  27
ATOM     27  O   UNL     1     -10.356 -35.806  26.718  1.00  0.00    -0.507 OA
ATOM     28  H   UNL     1      -9.991 -35.767  25.778  1.00  0.00     0.293 HD
ENDBRANCH   7  27
TORSDOF 7
ENDMDL
