MODEL 1
REMARK VINA RESULT:    -4.491      0.000      0.000
REMARK INTER + INTRA:          -9.889
REMARK INTER:                  -8.166
REMARK INTRA:                  -1.722
REMARK UNBOUND:                -1.722
REMARK SMILES CCCCCCCCCCCCCCCC(=O)[O-]
REMARK SMILES IDX 9 1 10 2 11 3 12 4 13 5 14 6 15 7 16 8 17 9 18 10 8 11 7 12
REMARK SMILES IDX 6 13 5 14 4 15 3 16 2 17 1 18
REMARK H PARENT
REMARK Flexibility Score: inf
ROOT
ATOM      1  C   UNL     1      37.586  -9.266  25.469  1.00  0.00     0.000 C 
ENDROOT
BRANCH   1   2
ATOM      2  C   UNL     1      38.894  -9.299  26.278  1.00  0.00     0.000 C 
BRANCH   2   3
ATOM      3  C   UNL     1      40.141  -9.294  25.379  1.00  0.00     0.000 C 
BRANCH   3   4
ATOM      4  C   UNL     1      41.112 -10.445  25.707  1.00  0.00     0.000 C 
BRANCH   4   5
ATOM      5  C   UNL     1      40.705 -11.216  26.972  1.00  0.00     0.000 C 
BRANCH   5   6
ATOM      6  C   UNL     1      41.017 -12.719  26.875  1.00  0.00     0.006 C 
BRANCH   6   7
ATOM      7  C   UNL     1      42.164 -13.133  27.805  1.00  0.00     0.053 C 
BRANCH   7   8
ATOM      8  C   UNL     1      43.459 -13.267  27.064  1.00  0.00     0.041 C 
ATOM      9  O   UNL     1      43.508 -13.044  25.826  1.00  0.00    -0.550 OA
ATOM     10  O   UNL     1      44.619 -13.603  27.750  1.00  0.00    -0.550 OA
ENDBRANCH   7   8
ENDBRANCH   6   7
ENDBRANCH   5   6
ENDBRANCH   4   5
ENDBRANCH   3   4
ENDBRANCH   2   3
ENDBRANCH   1   2
BRANCH   1  11
ATOM     11  C   UNL     1      36.461 -10.087  26.121  1.00  0.00     0.000 C 
BRANCH  11  12
ATOM     12  C   UNL     1      36.979 -11.351  26.828  1.00  0.00    -0.000 C 
BRANCH  12  13
ATOM     13  C   UNL     1      36.745 -11.321  28.349  1.00  0.00    -0.000 C 
BRANCH  13  14
ATOM     14  C   UNL     1      37.726 -12.175  29.179  1.00  0.00    -0.000 C 
BRANCH  14  15
ATOM     15  C   UNL     1      37.463 -12.188  30.700  1.00  0.00    -0.000 C 
BRANCH  15  16
ATOM     16  C   UNL     1      38.718 -12.355  31.574  1.00  0.00    -0.000 C 
BRANCH  16  17
ATOM     17  C   UNL     1      39.976 -12.668  30.752  1.00  0.00    -0.003 C 
ATOM     18  C   UNL     1      41.065 -11.626  30.994  1.00  0.00     0.004 C 
ENDBRANCH  16  17
ENDBRANCH  15  16
ENDBRANCH  14  15
ENDBRANCH  13  14
ENDBRANCH  12  13
ENDBRANCH  11  12
ENDBRANCH   1  11
TORSDOF 14
ENDMDL
MODEL 2
REMARK VINA RESULT:    -4.480      2.211      5.235
REMARK INTER + INTRA:          -9.869
REMARK INTER:                  -8.165
REMARK INTRA:                  -1.704
REMARK UNBOUND:                -1.722
REMARK SMILES CCCCCCCCCCCCCCCC(=O)[O-]
REMARK SMILES IDX 9 1 10 2 11 3 12 4 13 5 14 6 15 7 16 8 17 9 18 10 8 11 7 12
REMARK SMILES IDX 6 13 5 14 4 15 3 16 2 17 1 18
REMARK H PARENT
REMARK Flexibility Score: inf
ROOT
ATOM      1  C   UNL     1      37.643 -12.264  31.255  1.00  0.00     0.000 C 
ENDROOT
BRANCH   1   2
ATOM      2  C   UNL     1      37.477 -12.603  29.763  1.00  0.00     0.000 C 
BRANCH   2   3
ATOM      3  C   UNL     1      36.795 -11.472  28.976  1.00  0.00     0.000 C 
BRANCH   3   4
ATOM      4  C   UNL     1      37.303 -11.372  27.525  1.00  0.00     0.000 C 
BRANCH   4   5
ATOM      5  C   UNL     1      38.719 -11.943  27.355  1.00  0.00     0.000 C 
BRANCH   5   6
ATOM      6  C   UNL     1      39.812 -10.875  27.529  1.00  0.00     0.006 C 
BRANCH   6   7
ATOM      7  C   UNL     1      40.702 -10.751  26.285  1.00  0.00     0.053 C 
BRANCH   7   8
ATOM      8  C   UNL     1      40.429  -9.486  25.532  1.00  0.00     0.041 C 
ATOM      9  O   UNL     1      41.369  -8.866  24.969  1.00  0.00    -0.550 OA
ATOM     10  O   UNL     1      39.128  -9.013  25.418  1.00  0.00    -0.550 OA
ENDBRANCH   7   8
ENDBRANCH   6   7
ENDBRANCH   5   6
ENDBRANCH   4   5
ENDBRANCH   3   4
ENDBRANCH   2   3
ENDBRANCH   1   2
BRANCH   1  11
ATOM     11  C   UNL     1      39.012 -12.687  31.813  1.00  0.00     0.000 C 
BRANCH  11  12
ATOM     12  C   UNL     1      39.917 -13.326  30.747  1.00  0.00    -0.000 C 
BRANCH  12  13
ATOM     13  C   UNL     1      41.179 -12.493  30.459  1.00  0.00    -0.000 C 
BRANCH  13  14
ATOM     14  C   UNL     1      42.510 -13.269  30.543  1.00  0.00    -0.000 C 
BRANCH  14  15
ATOM     15  C   UNL     1      42.863 -14.106  29.296  1.00  0.00    -0.000 C 
BRANCH  15  16
ATOM     16  C   UNL     1      42.406 -13.500  27.957  1.00  0.00    -0.000 C 
BRANCH  16  17
ATOM     17  C   UNL     1      43.580 -13.032  27.086  1.00  0.00    -0.003 C 
ATOM     18  C   UNL     1      43.629 -13.803  25.770  1.00  0.00     0.004 C 
ENDBRANCH  16  17
ENDBRANCH  15  16
ENDBRANCH  14  15
ENDBRANCH  13  14
ENDBRANCH  12  13
ENDBRANCH  11  12
ENDBRANCH   1  11
TORSDOF 14
ENDMDL
MODEL 3
REMARK VINA RESULT:    -4.384     13.055     16.288
REMARK INTER + INTRA:          -9.695
REMARK INTER:                  -8.682
REMARK INTRA:                  -1.013
REMARK UNBOUND:                -1.722
REMARK SMILES CCCCCCCCCCCCCCCC(=O)[O-]
REMARK SMILES IDX 9 1 10 2 11 3 12 4 13 5 14 6 15 7 16 8 17 9 18 10 8 11 7 12
REMARK SMILES IDX 6 13 5 14 4 15 3 16 2 17 1 18
REMARK H PARENT
REMARK Flexibility Score: inf
ROOT
ATOM      1  C   UNL     1      45.804   1.774  22.120  1.00  0.00     0.000 C 
ENDROOT
BRANCH   1   2
ATOM      2  C   UNL     1      45.099   1.636  23.481  1.00  0.00     0.000 C 
BRANCH   2   3
ATOM      3  C   UNL     1      45.318   0.255  24.118  1.00  0.00     0.000 C 
BRANCH   3   4
ATOM      4  C   UNL     1      44.004  -0.530  24.295  1.00  0.00     0.000 C 
BRANCH   4   5
ATOM      5  C   UNL     1      42.873   0.008  23.405  1.00  0.00     0.000 C 
BRANCH   5   6
ATOM      6  C   UNL     1      42.832  -0.670  22.025  1.00  0.00     0.006 C 
BRANCH   6   7
ATOM      7  C   UNL     1      42.129   0.199  20.975  1.00  0.00     0.053 C 
BRANCH   7   8
ATOM      8  C   UNL     1      41.506  -0.631  19.894  1.00  0.00     0.041 C 
ATOM      9  O   UNL     1      40.744  -1.588  20.189  1.00  0.00    -0.550 OA
ATOM     10  O   UNL     1      41.739  -0.321  18.561  1.00  0.00    -0.550 OA
ENDBRANCH   7   8
ENDBRANCH   6   7
ENDBRANCH   5   6
ENDBRANCH   4   5
ENDBRANCH   3   4
ENDBRANCH   2   3
ENDBRANCH   1   2
BRANCH   1  11
ATOM     11  C   UNL     1      46.796   0.632  21.844  1.00  0.00     0.000 C 
BRANCH  11  12
ATOM     12  C   UNL     1      48.201   1.139  21.477  1.00  0.00    -0.000 C 
BRANCH  12  13
ATOM     13  C   UNL     1      49.005   0.119  20.650  1.00  0.00    -0.000 C 
BRANCH  13  14
ATOM     14  C   UNL     1      50.156  -0.576  21.407  1.00  0.00    -0.000 C 
BRANCH  14  15
ATOM     15  C   UNL     1      51.233  -1.226  20.514  1.00  0.00    -0.000 C 
BRANCH  15  16
ATOM     16  C   UNL     1      52.366  -0.282  20.075  1.00  0.00    -0.000 C 
BRANCH  16  17
ATOM     17  C   UNL     1      52.242   0.151  18.607  1.00  0.00    -0.003 C 
ATOM     18  C   UNL     1      51.874  -1.031  17.715  1.00  0.00     0.004 C 
ENDBRANCH  16  17
ENDBRANCH  15  16
ENDBRANCH  14  15
ENDBRANCH  13  14
ENDBRANCH  12  13
ENDBRANCH  11  12
ENDBRANCH   1  11
TORSDOF 14
ENDMDL
MODEL 4
REMARK VINA RESULT:    -4.376     12.883     15.112
REMARK INTER + INTRA:          -9.680
REMARK INTER:                  -7.654
REMARK INTRA:                  -2.026
REMARK UNBOUND:                -1.722
REMARK SMILES CCCCCCCCCCCCCCCC(=O)[O-]
REMARK SMILES IDX 9 1 10 2 11 3 12 4 13 5 14 6 15 7 16 8 17 9 18 10 8 11 7 12
REMARK SMILES IDX 6 13 5 14 4 15 3 16 2 17 1 18
REMARK H PARENT
REMARK Flexibility Score: inf
ROOT
ATOM      1  C   UNL     1      44.122   3.330  23.647  1.00  0.00     0.000 C 
ENDROOT
BRANCH   1   2
ATOM      2  C   UNL     1      43.908   3.076  22.145  1.00  0.00     0.000 C 
BRANCH   2   3
ATOM      3  C   UNL     1      45.188   2.595  21.442  1.00  0.00     0.000 C 
BRANCH   3   4
ATOM      4  C   UNL     1      46.469   3.068  22.154  1.00  0.00     0.000 C 
BRANCH   4   5
ATOM      5  C   UNL     1      47.696   2.222  21.784  1.00  0.00     0.000 C 
BRANCH   5   6
ATOM      6  C   UNL     1      47.376   0.719  21.709  1.00  0.00     0.006 C 
BRANCH   6   7
ATOM      7  C   UNL     1      48.307  -0.022  20.740  1.00  0.00     0.053 C 
BRANCH   7   8
ATOM      8  C   UNL     1      49.700  -0.128  21.280  1.00  0.00     0.041 C 
ATOM      9  O   UNL     1      50.671   0.335  20.627  1.00  0.00    -0.550 OA
ATOM     10  O   UNL     1      49.919  -0.704  22.525  1.00  0.00    -0.550 OA
ENDBRANCH   7   8
ENDBRANCH   6   7
ENDBRANCH   5   6
ENDBRANCH   4   5
ENDBRANCH   3   4
ENDBRANCH   2   3
ENDBRANCH   1   2
BRANCH   1  11
ATOM     11  C   UNL     1      43.623   2.170  24.524  1.00  0.00     0.000 C 
BRANCH  11  12
ATOM     12  C   UNL     1      44.767   1.300  25.069  1.00  0.00    -0.000 C 
BRANCH  12  13
ATOM     13  C   UNL     1      44.947  -0.010  24.281  1.00  0.00    -0.000 C 
BRANCH  13  14
ATOM     14  C   UNL     1      43.661  -0.568  23.637  1.00  0.00    -0.000 C 
BRANCH  14  15
ATOM     15  C   UNL     1      43.675  -0.639  22.096  1.00  0.00    -0.000 C 
BRANCH  15  16
ATOM     16  C   UNL     1      42.313  -0.392  21.423  1.00  0.00    -0.000 C 
BRANCH  16  17
ATOM     17  C   UNL     1      42.114  -1.239  20.158  1.00  0.00    -0.003 C 
ATOM     18  C   UNL     1      40.637  -1.549  19.931  1.00  0.00     0.004 C 
ENDBRANCH  16  17
ENDBRANCH  15  16
ENDBRANCH  14  15
ENDBRANCH  13  14
ENDBRANCH  12  13
ENDBRANCH  11  12
ENDBRANCH   1  11
TORSDOF 14
ENDMDL
MODEL 5
REMARK VINA RESULT:    -4.340     12.721     15.825
REMARK INTER + INTRA:          -9.614
REMARK INTER:                  -8.158
REMARK INTRA:                  -1.456
REMARK UNBOUND:                -1.722
REMARK SMILES CCCCCCCCCCCCCCCC(=O)[O-]
REMARK SMILES IDX 9 1 10 2 11 3 12 4 13 5 14 6 15 7 16 8 17 9 18 10 8 11 7 12
REMARK SMILES IDX 6 13 5 14 4 15 3 16 2 17 1 18
REMARK H PARENT
REMARK Flexibility Score: inf
ROOT
ATOM      1  C   UNL     1      45.623   1.948  23.489  1.00  0.00     0.000 C 
ENDROOT
BRANCH   1   2
ATOM      2  C   UNL     1      44.391   2.116  24.395  1.00  0.00     0.000 C 
BRANCH   2   3
ATOM      3  C   UNL     1      44.072   0.844  25.196  1.00  0.00     0.000 C 
BRANCH   3   4
ATOM      4  C   UNL     1      44.236  -0.439  24.358  1.00  0.00     0.000 C 
BRANCH   4   5
ATOM      5  C   UNL     1      43.037  -0.695  23.433  1.00  0.00     0.000 C 
BRANCH   5   6
ATOM      6  C   UNL     1      43.413  -0.622  21.943  1.00  0.00     0.006 C 
BRANCH   6   7
ATOM      7  C   UNL     1      42.443   0.256  21.144  1.00  0.00     0.053 C 
BRANCH   7   8
ATOM      8  C   UNL     1      41.701  -0.535  20.110  1.00  0.00     0.041 C 
ATOM      9  O   UNL     1      41.027  -1.544  20.445  1.00  0.00    -0.550 OA
ATOM     10  O   UNL     1      41.724  -0.133  18.781  1.00  0.00    -0.550 OA
ENDBRANCH   7   8
ENDBRANCH   6   7
ENDBRANCH   5   6
ENDBRANCH   4   5
ENDBRANCH   3   4
ENDBRANCH   2   3
ENDBRANCH   1   2
BRANCH   1  11
ATOM     11  C   UNL     1      45.421   2.554  22.090  1.00  0.00     0.000 C 
BRANCH  11  12
ATOM     12  C   UNL     1      46.272   1.862  21.013  1.00  0.00    -0.000 C 
BRANCH  12  13
ATOM     13  C   UNL     1      47.145   0.728  21.580  1.00  0.00    -0.000 C 
BRANCH  13  14
ATOM     14  C   UNL     1      48.253   0.219  20.635  1.00  0.00    -0.000 C 
BRANCH  14  15
ATOM     15  C   UNL     1      49.697   0.512  21.095  1.00  0.00    -0.000 C 
BRANCH  15  16
ATOM     16  C   UNL     1      50.594  -0.729  21.246  1.00  0.00    -0.000 C 
BRANCH  16  17
ATOM     17  C   UNL     1      51.308  -1.107  19.941  1.00  0.00    -0.003 C 
ATOM     18  C   UNL     1      52.604  -0.318  19.776  1.00  0.00     0.004 C 
ENDBRANCH  16  17
ENDBRANCH  15  16
ENDBRANCH  14  15
ENDBRANCH  13  14
ENDBRANCH  12  13
ENDBRANCH  11  12
ENDBRANCH   1  11
TORSDOF 14
ENDMDL
MODEL 6
REMARK VINA RESULT:    -4.306     13.343     16.502
REMARK INTER + INTRA:          -9.552
REMARK INTER:                  -8.645
REMARK INTRA:                  -0.907
REMARK UNBOUND:                -1.722
REMARK SMILES CCCCCCCCCCCCCCCC(=O)[O-]
REMARK SMILES IDX 9 1 10 2 11 3 12 4 13 5 14 6 15 7 16 8 17 9 18 10 8 11 7 12
REMARK SMILES IDX 6 13 5 14 4 15 3 16 2 17 1 18
REMARK H PARENT
REMARK Flexibility Score: inf
ROOT
ATOM      1  C   UNL     1      47.432   1.773  21.786  1.00  0.00     0.000 C 
ENDROOT
BRANCH   1   2
ATOM      2  C   UNL     1      46.045   1.894  22.441  1.00  0.00     0.000 C 
BRANCH   2   3
ATOM      3  C   UNL     1      44.961   2.336  21.445  1.00  0.00     0.000 C 
BRANCH   3   4
ATOM      4  C   UNL     1      43.740   1.397  21.444  1.00  0.00     0.000 C 
BRANCH   4   5
ATOM      5  C   UNL     1      44.072  -0.001  21.987  1.00  0.00     0.000 C 
BRANCH   5   6
ATOM      6  C   UNL     1      42.912  -0.615  22.790  1.00  0.00     0.006 C 
BRANCH   6   7
ATOM      7  C   UNL     1      43.038  -0.335  24.293  1.00  0.00     0.053 C 
BRANCH   7   8
ATOM      8  C   UNL     1      43.898  -1.352  24.977  1.00  0.00     0.041 C 
ATOM      9  O   UNL     1      43.405  -2.446  25.360  1.00  0.00    -0.550 OA
ATOM     10  O   UNL     1      45.253  -1.107  25.157  1.00  0.00    -0.550 OA
ENDBRANCH   7   8
ENDBRANCH   6   7
ENDBRANCH   5   6
ENDBRANCH   4   5
ENDBRANCH   3   4
ENDBRANCH   2   3
ENDBRANCH   1   2
BRANCH   1  11
ATOM     11  C   UNL     1      47.682   0.384  21.174  1.00  0.00     0.000 C 
BRANCH  11  12
ATOM     12  C   UNL     1      49.008   0.305  20.399  1.00  0.00    -0.000 C 
BRANCH  12  13
ATOM     13  C   UNL     1      50.163  -0.252  21.251  1.00  0.00    -0.000 C 
BRANCH  13  14
ATOM     14  C   UNL     1      51.125  -1.202  20.509  1.00  0.00    -0.000 C 
BRANCH  14  15
ATOM     15  C   UNL     1      52.540  -0.640  20.256  1.00  0.00    -0.000 C 
BRANCH  15  16
ATOM     16  C   UNL     1      52.772  -0.082  18.840  1.00  0.00    -0.000 C 
BRANCH  16  17
ATOM     17  C   UNL     1      52.189  -0.984  17.744  1.00  0.00    -0.003 C 
ATOM     18  C   UNL     1      53.125  -1.063  16.541  1.00  0.00     0.004 C 
ENDBRANCH  16  17
ENDBRANCH  15  16
ENDBRANCH  14  15
ENDBRANCH  13  14
ENDBRANCH  12  13
ENDBRANCH  11  12
ENDBRANCH   1  11
TORSDOF 14
ENDMDL
MODEL 7
REMARK VINA RESULT:    -4.237     13.097     15.487
REMARK INTER + INTRA:          -9.427
REMARK INTER:                  -8.000
REMARK INTRA:                  -1.428
REMARK UNBOUND:                -1.722
REMARK SMILES CCCCCCCCCCCCCCCC(=O)[O-]
REMARK SMILES IDX 9 1 10 2 11 3 12 4 13 5 14 6 15 7 16 8 17 9 18 10 8 11 7 12
REMARK SMILES IDX 6 13 5 14 4 15 3 16 2 17 1 18
REMARK H PARENT
REMARK Flexibility Score: inf
ROOT
ATOM      1  C   UNL     1      45.306   0.264  22.959  1.00  0.00     0.000 C 
ENDROOT
BRANCH   1   2
ATOM      2  C   UNL     1      45.398   1.772  23.250  1.00  0.00     0.000 C 
BRANCH   2   3
ATOM      3  C   UNL     1      46.389   2.491  22.320  1.00  0.00     0.000 C 
BRANCH   3   4
ATOM      4  C   UNL     1      46.515   1.805  20.946  1.00  0.00     0.000 C 
BRANCH   4   5
ATOM      5  C   UNL     1      47.972   1.475  20.585  1.00  0.00     0.000 C 
BRANCH   5   6
ATOM      6  C   UNL     1      48.335   0.008  20.874  1.00  0.00     0.006 C 
BRANCH   6   7
ATOM      7  C   UNL     1      49.760  -0.137  21.423  1.00  0.00     0.053 C 
BRANCH   7   8
ATOM      8  C   UNL     1      50.767  -0.276  20.323  1.00  0.00     0.041 C 
ATOM      9  O   UNL     1      51.611   0.635  20.115  1.00  0.00    -0.550 OA
ATOM     10  O   UNL     1      50.798  -1.431  19.553  1.00  0.00    -0.550 OA
ENDBRANCH   7   8
ENDBRANCH   6   7
ENDBRANCH   5   6
ENDBRANCH   4   5
ENDBRANCH   3   4
ENDBRANCH   2   3
ENDBRANCH   1   2
BRANCH   1  11
ATOM     11  C   UNL     1      43.901  -0.171  22.512  1.00  0.00     0.000 C 
BRANCH  11  12
ATOM     12  C   UNL     1      42.809   0.832  22.918  1.00  0.00    -0.000 C 
BRANCH  12  13
ATOM     13  C   UNL     1      42.102   1.467  21.706  1.00  0.00    -0.000 C 
BRANCH  13  14
ATOM     14  C   UNL     1      42.849   1.322  20.363  1.00  0.00    -0.000 C 
BRANCH  14  15
ATOM     15  C   UNL     1      41.946   1.255  19.113  1.00  0.00    -0.000 C 
BRANCH  15  16
ATOM     16  C   UNL     1      41.623  -0.168  18.624  1.00  0.00    -0.000 C 
BRANCH  16  17
ATOM     17  C   UNL     1      41.777  -1.224  19.727  1.00  0.00    -0.003 C 
ATOM     18  C   UNL     1      40.439  -1.883  20.049  1.00  0.00     0.004 C 
ENDBRANCH  16  17
ENDBRANCH  15  16
ENDBRANCH  14  15
ENDBRANCH  13  14
ENDBRANCH  12  13
ENDBRANCH  11  12
ENDBRANCH   1  11
TORSDOF 14
ENDMDL
MODEL 8
REMARK VINA RESULT:    -4.161     14.825     17.987
REMARK INTER + INTRA:          -9.289
REMARK INTER:                  -7.437
REMARK INTRA:                  -1.851
REMARK UNBOUND:                -1.722
REMARK SMILES CCCCCCCCCCCCCCCC(=O)[O-]
REMARK SMILES IDX 9 1 10 2 11 3 12 4 13 5 14 6 15 7 16 8 17 9 18 10 8 11 7 12
REMARK SMILES IDX 6 13 5 14 4 15 3 16 2 17 1 18
REMARK H PARENT
REMARK Flexibility Score: inf
ROOT
ATOM      1  C   UNL     1      51.041  -0.666  21.157  1.00  0.00     0.000 C 
ENDROOT
BRANCH   1   2
ATOM      2  C   UNL     1      49.712  -0.346  21.863  1.00  0.00     0.000 C 
BRANCH   2   3
ATOM      3  C   UNL     1      48.642   0.179  20.893  1.00  0.00     0.000 C 
BRANCH   3   4
ATOM      4  C   UNL     1      47.265   0.344  21.563  1.00  0.00     0.000 C 
BRANCH   4   5
ATOM      5  C   UNL     1      46.995   1.790  22.007  1.00  0.00     0.000 C 
BRANCH   5   6
ATOM      6  C   UNL     1      45.656   1.941  22.748  1.00  0.00     0.006 C 
BRANCH   6   7
ATOM      7  C   UNL     1      45.067   0.586  23.161  1.00  0.00     0.053 C 
BRANCH   7   8
ATOM      8  C   UNL     1      45.158   0.368  24.640  1.00  0.00     0.041 C 
ATOM      9  O   UNL     1      45.678  -0.684  25.096  1.00  0.00    -0.550 OA
ATOM     10  O   UNL     1      44.703   1.346  25.514  1.00  0.00    -0.550 OA
ENDBRANCH   7   8
ENDBRANCH   6   7
ENDBRANCH   5   6
ENDBRANCH   4   5
ENDBRANCH   3   4
ENDBRANCH   2   3
ENDBRANCH   1   2
BRANCH   1  11
ATOM     11  C   UNL     1      50.844  -1.168  19.717  1.00  0.00     0.000 C 
BRANCH  11  12
ATOM     12  C   UNL     1      52.077  -0.931  18.830  1.00  0.00    -0.000 C 
BRANCH  12  13
ATOM     13  C   UNL     1      53.086   0.047  19.461  1.00  0.00    -0.000 C 
BRANCH  13  14
ATOM     14  C   UNL     1      53.048   1.482  18.895  1.00  0.00    -0.000 C 
BRANCH  14  15
ATOM     15  C   UNL     1      52.128   2.463  19.652  1.00  0.00    -0.000 C 
BRANCH  15  16
ATOM     16  C   UNL     1      50.707   2.593  19.077  1.00  0.00    -0.000 C 
BRANCH  16  17
ATOM     17  C   UNL     1      49.847   3.607  19.845  1.00  0.00    -0.003 C 
ATOM     18  C   UNL     1      50.163   3.575  21.338  1.00  0.00     0.004 C 
ENDBRANCH  16  17
ENDBRANCH  15  16
ENDBRANCH  14  15
ENDBRANCH  13  14
ENDBRANCH  12  13
ENDBRANCH  11  12
ENDBRANCH   1  11
TORSDOF 14
ENDMDL
MODEL 9
REMARK VINA RESULT:    -4.138     13.355     15.786
REMARK INTER + INTRA:          -9.247
REMARK INTER:                  -7.209
REMARK INTRA:                  -2.039
REMARK UNBOUND:                -1.722
REMARK SMILES CCCCCCCCCCCCCCCC(=O)[O-]
REMARK SMILES IDX 9 1 10 2 11 3 12 4 13 5 14 6 15 7 16 8 17 9 18 10 8 11 7 12
REMARK SMILES IDX 6 13 5 14 4 15 3 16 2 17 1 18
REMARK H PARENT
REMARK Flexibility Score: inf
ROOT
ATOM      1  C   UNL     1      43.927   1.924  24.362  1.00  0.00     0.000 C 
ENDROOT
BRANCH   1   2
ATOM      2  C   UNL     1      44.868   0.735  24.625  1.00  0.00     0.000 C 
BRANCH   2   3
ATOM      3  C   UNL     1      44.360  -0.568  23.989  1.00  0.00     0.000 C 
BRANCH   3   4
ATOM      4  C   UNL     1      42.996  -0.395  23.293  1.00  0.00     0.000 C 
BRANCH   4   5
ATOM      5  C   UNL     1      43.089  -0.553  21.768  1.00  0.00     0.000 C 
BRANCH   5   6
ATOM      6  C   UNL     1      41.897   0.084  21.033  1.00  0.00     0.006 C 
BRANCH   6   7
ATOM      7  C   UNL     1      41.900  -0.243  19.535  1.00  0.00     0.053 C 
BRANCH   7   8
ATOM      8  C   UNL     1      41.703   0.984  18.698  1.00  0.00     0.041 C 
ATOM      9  O   UNL     1      41.215   0.892  17.541  1.00  0.00    -0.550 OA
ATOM     10  O   UNL     1      42.022   2.233  19.213  1.00  0.00    -0.550 OA
ENDBRANCH   7   8
ENDBRANCH   6   7
ENDBRANCH   5   6
ENDBRANCH   4   5
ENDBRANCH   3   4
ENDBRANCH   2   3
ENDBRANCH   1   2
BRANCH   1  11
ATOM     11  C   UNL     1      44.663   3.275  24.350  1.00  0.00     0.000 C 
BRANCH  11  12
ATOM     12  C   UNL     1      44.856   3.834  22.931  1.00  0.00    -0.000 C 
BRANCH  12  13
ATOM     13  C   UNL     1      44.300   2.899  21.841  1.00  0.00    -0.000 C 
BRANCH  13  14
ATOM     14  C   UNL     1      45.362   2.270  20.914  1.00  0.00    -0.000 C 
BRANCH  14  15
ATOM     15  C   UNL     1      46.734   2.007  21.569  1.00  0.00    -0.000 C 
BRANCH  15  16
ATOM     16  C   UNL     1      47.126   0.523  21.678  1.00  0.00    -0.000 C 
BRANCH  16  17
ATOM     17  C   UNL     1      48.396   0.186  20.884  1.00  0.00    -0.003 C 
ATOM     18  C   UNL     1      49.538  -0.210  21.815  1.00  0.00     0.004 C 
ENDBRANCH  16  17
ENDBRANCH  15  16
ENDBRANCH  14  15
ENDBRANCH  13  14
ENDBRANCH  12  13
ENDBRANCH  11  12
ENDBRANCH   1  11
TORSDOF 14
ENDMDL
