MODEL 1
REMARK VINA RESULT:    -3.040      0.000      0.000
REMARK INTER + INTRA:          -3.676
REMARK INTER:                  -3.573
REMARK INTRA:                  -0.103
REMARK UNBOUND:                -0.103
REMARK SMILES CCCCC(=O)[O-]
REMARK SMILES IDX 4 1 5 2 6 3 7 4 3 5 2 6 1 7
REMARK H PARENT
REMARK Flexibility Score: inf
ROOT
ATOM      1  C   UNL     1       5.735   3.456  48.144  1.00  0.00     0.053 C 
ENDROOT
BRANCH   1   2
ATOM      2  C   UNL     1       6.685   4.420  48.786  1.00  0.00     0.041 C 
ATOM      3  O   UNL     1       7.246   5.312  48.096  1.00  0.00    -0.550 OA
ATOM      4  O   UNL     1       6.973   4.315  50.140  1.00  0.00    -0.550 OA
ENDBRANCH   1   2
BRANCH   1   5
ATOM      5  C   UNL     1       6.470   2.266  47.505  1.00  0.00     0.006 C 
BRANCH   5   6
ATOM      6  C   UNL     1       6.958   1.212  48.514  1.00  0.00    -0.003 C 
ATOM      7  C   UNL     1       5.833   0.669  49.395  1.00  0.00     0.004 C 
ENDBRANCH   5   6
ENDBRANCH   1   5
TORSDOF 3
ENDMDL
MODEL 2
REMARK VINA RESULT:    -3.018      0.094      1.227
REMARK INTER + INTRA:          -3.650
REMARK INTER:                  -3.557
REMARK INTRA:                  -0.093
REMARK UNBOUND:                -0.103
REMARK SMILES CCCCC(=O)[O-]
REMARK SMILES IDX 4 1 5 2 6 3 7 4 3 5 2 6 1 7
REMARK H PARENT
REMARK Flexibility Score: inf
ROOT
ATOM      1  C   UNL     1       5.738   3.443  48.207  1.00  0.00     0.053 C 
ENDROOT
BRANCH   1   2
ATOM      2  C   UNL     1       6.704   4.392  48.846  1.00  0.00     0.041 C 
ATOM      3  O   UNL     1       6.975   4.292  50.072  1.00  0.00    -0.550 OA
ATOM      4  O   UNL     1       7.284   5.406  48.095  1.00  0.00    -0.550 OA
ENDBRANCH   1   2
BRANCH   1   5
ATOM      5  C   UNL     1       6.458   2.289  47.490  1.00  0.00     0.006 C 
BRANCH   5   6
ATOM      6  C   UNL     1       6.997   1.200  48.435  1.00  0.00    -0.003 C 
ATOM      7  C   UNL     1       5.903   0.560  49.289  1.00  0.00     0.004 C 
ENDBRANCH   5   6
ENDBRANCH   1   5
TORSDOF 3
ENDMDL
MODEL 3
REMARK VINA RESULT:    -2.878      2.180      3.500
REMARK INTER + INTRA:          -3.486
REMARK INTER:                  -3.381
REMARK INTRA:                  -0.105
REMARK UNBOUND:                -0.103
REMARK SMILES CCCCC(=O)[O-]
REMARK SMILES IDX 4 1 5 2 6 3 7 4 3 5 2 6 1 7
REMARK H PARENT
REMARK Flexibility Score: inf
ROOT
ATOM      1  C   UNL     1       6.645   1.894  47.804  1.00  0.00     0.053 C 
ENDROOT
BRANCH   1   2
ATOM      2  C   UNL     1       6.530   0.985  48.989  1.00  0.00     0.041 C 
ATOM      3  O   UNL     1       5.934  -0.120  48.885  1.00  0.00    -0.550 OA
ATOM      4  O   UNL     1       7.056   1.370  50.215  1.00  0.00    -0.550 OA
ENDBRANCH   1   2
BRANCH   1   5
ATOM      5  C   UNL     1       5.828   3.183  47.990  1.00  0.00     0.006 C 
BRANCH   5   6
ATOM      6  C   UNL     1       6.676   4.422  48.328  1.00  0.00    -0.003 C 
ATOM      7  C   UNL     1       6.570   4.831  49.796  1.00  0.00     0.004 C 
ENDBRANCH   5   6
ENDBRANCH   1   5
TORSDOF 3
ENDMDL
MODEL 4
REMARK VINA RESULT:    -2.813      1.463      2.088
REMARK INTER + INTRA:          -3.410
REMARK INTER:                  -3.356
REMARK INTRA:                  -0.053
REMARK UNBOUND:                -0.103
REMARK SMILES CCCCC(=O)[O-]
REMARK SMILES IDX 4 1 5 2 6 3 7 4 3 5 2 6 1 7
REMARK H PARENT
REMARK Flexibility Score: inf
ROOT
ATOM      1  C   UNL     1       6.649   1.875  47.669  1.00  0.00     0.053 C 
ENDROOT
BRANCH   1   2
ATOM      2  C   UNL     1       6.003   3.185  48.003  1.00  0.00     0.041 C 
ATOM      3  O   UNL     1       4.755   3.257  48.151  1.00  0.00    -0.550 OA
ATOM      4  O   UNL     1       6.778   4.331  48.123  1.00  0.00    -0.550 OA
ENDBRANCH   1   2
BRANCH   1   5
ATOM      5  C   UNL     1       7.000   1.070  48.931  1.00  0.00     0.006 C 
BRANCH   5   6
ATOM      6  C   UNL     1       5.882   0.125  49.407  1.00  0.00    -0.003 C 
ATOM      7  C   UNL     1       5.912  -0.119  50.915  1.00  0.00     0.004 C 
ENDBRANCH   5   6
ENDBRANCH   1   5
TORSDOF 3
ENDMDL
MODEL 5
REMARK VINA RESULT:    -2.784      2.354      3.812
REMARK INTER + INTRA:          -3.375
REMARK INTER:                  -3.353
REMARK INTRA:                  -0.022
REMARK UNBOUND:                -0.103
REMARK SMILES CCCCC(=O)[O-]
REMARK SMILES IDX 4 1 5 2 6 3 7 4 3 5 2 6 1 7
REMARK H PARENT
REMARK Flexibility Score: inf
ROOT
ATOM      1  C   UNL     1       6.475   3.030  49.168  1.00  0.00     0.053 C 
ENDROOT
BRANCH   1   2
ATOM      2  C   UNL     1       6.666   1.790  48.349  1.00  0.00     0.041 C 
ATOM      3  O   UNL     1       6.805   1.870  47.100  1.00  0.00    -0.550 OA
ATOM      4  O   UNL     1       6.662   0.544  48.962  1.00  0.00    -0.550 OA
ENDBRANCH   1   2
BRANCH   1   5
ATOM      5  C   UNL     1       6.581   4.303  48.314  1.00  0.00     0.006 C 
BRANCH   5   6
ATOM      6  C   UNL     1       6.979   5.562  49.105  1.00  0.00    -0.003 C 
ATOM      7  C   UNL     1       7.685   6.607  48.243  1.00  0.00     0.004 C 
ENDBRANCH   5   6
ENDBRANCH   1   5
TORSDOF 3
ENDMDL
MODEL 6
REMARK VINA RESULT:    -2.729      1.696      2.485
REMARK INTER + INTRA:          -3.310
REMARK INTER:                  -3.291
REMARK INTRA:                  -0.020
REMARK UNBOUND:                -0.103
REMARK SMILES CCCCC(=O)[O-]
REMARK SMILES IDX 4 1 5 2 6 3 7 4 3 5 2 6 1 7
REMARK H PARENT
REMARK Flexibility Score: inf
ROOT
ATOM      1  C   UNL     1       7.166   5.633  48.327  1.00  0.00     0.053 C 
ENDROOT
BRANCH   1   2
ATOM      2  C   UNL     1       7.682   6.546  49.397  1.00  0.00     0.041 C 
ATOM      3  O   UNL     1       8.157   7.672  49.095  1.00  0.00    -0.550 OA
ATOM      4  O   UNL     1       7.664   6.141  50.725  1.00  0.00    -0.550 OA
ENDBRANCH   1   2
BRANCH   1   5
ATOM      5  C   UNL     1       6.707   4.282  48.899  1.00  0.00     0.006 C 
BRANCH   5   6
ATOM      6  C   UNL     1       5.855   3.445  47.929  1.00  0.00    -0.003 C 
ATOM      7  C   UNL     1       6.549   2.156  47.490  1.00  0.00     0.004 C 
ENDBRANCH   5   6
ENDBRANCH   1   5
TORSDOF 3
ENDMDL
MODEL 7
REMARK VINA RESULT:    -2.675      2.024      2.767
REMARK INTER + INTRA:          -3.247
REMARK INTER:                  -3.136
REMARK INTRA:                  -0.111
REMARK UNBOUND:                -0.103
REMARK SMILES CCCCC(=O)[O-]
REMARK SMILES IDX 4 1 5 2 6 3 7 4 3 5 2 6 1 7
REMARK H PARENT
REMARK Flexibility Score: inf
ROOT
ATOM      1  C   UNL     1       6.178   3.996  50.334  1.00  0.00     0.053 C 
ENDROOT
BRANCH   1   2
ATOM      2  C   UNL     1       7.192   3.148  51.039  1.00  0.00     0.041 C 
ATOM      3  O   UNL     1       8.146   3.685  51.662  1.00  0.00    -0.550 OA
ATOM      4  O   UNL     1       7.100   1.763  50.984  1.00  0.00    -0.550 OA
ENDBRANCH   1   2
BRANCH   1   5
ATOM      5  C   UNL     1       6.538   4.208  48.855  1.00  0.00     0.006 C 
BRANCH   5   6
ATOM      6  C   UNL     1       5.776   3.289  47.884  1.00  0.00    -0.003 C 
ATOM      7  C   UNL     1       6.586   2.062  47.468  1.00  0.00     0.004 C 
ENDBRANCH   5   6
ENDBRANCH   1   5
TORSDOF 3
ENDMDL
MODEL 8
REMARK VINA RESULT:    -2.627      1.653      2.189
REMARK INTER + INTRA:          -3.191
REMARK INTER:                  -3.096
REMARK INTRA:                  -0.095
REMARK UNBOUND:                -0.103
REMARK SMILES CCCCC(=O)[O-]
REMARK SMILES IDX 4 1 5 2 6 3 7 4 3 5 2 6 1 7
REMARK H PARENT
REMARK Flexibility Score: inf
ROOT
ATOM      1  C   UNL     1       4.663   2.959  48.993  1.00  0.00     0.053 C 
ENDROOT
BRANCH   1   2
ATOM      2  C   UNL     1       4.840   3.995  50.061  1.00  0.00     0.041 C 
ATOM      3  O   UNL     1       5.847   3.960  50.817  1.00  0.00    -0.550 OA
ATOM      4  O   UNL     1       3.879   4.982  50.240  1.00  0.00    -0.550 OA
ENDBRANCH   1   2
BRANCH   1   5
ATOM      5  C   UNL     1       5.612   3.191  47.807  1.00  0.00     0.006 C 
BRANCH   5   6
ATOM      6  C   UNL     1       6.577   2.024  47.535  1.00  0.00    -0.003 C 
ATOM      7  C   UNL     1       6.789   1.132  48.758  1.00  0.00     0.004 C 
ENDBRANCH   5   6
ENDBRANCH   1   5
TORSDOF 3
ENDMDL
MODEL 9
REMARK VINA RESULT:    -2.583      2.423      2.983
REMARK INTER + INTRA:          -3.139
REMARK INTER:                  -3.079
REMARK INTRA:                  -0.060
REMARK UNBOUND:                -0.103
REMARK SMILES CCCCC(=O)[O-]
REMARK SMILES IDX 4 1 5 2 6 3 7 4 3 5 2 6 1 7
REMARK H PARENT
REMARK Flexibility Score: inf
ROOT
ATOM      1  C   UNL     1       6.731   4.447  48.471  1.00  0.00     0.053 C 
ENDROOT
BRANCH   1   2
ATOM      2  C   UNL     1       5.969   3.286  47.910  1.00  0.00     0.041 C 
ATOM      3  O   UNL     1       4.729   3.185  48.110  1.00  0.00    -0.550 OA
ATOM      4  O   UNL     1       6.632   2.300  47.192  1.00  0.00    -0.550 OA
ENDBRANCH   1   2
BRANCH   1   5
ATOM      5  C   UNL     1       6.761   4.424  50.008  1.00  0.00     0.006 C 
BRANCH   5   6
ATOM      6  C   UNL     1       7.102   3.050  50.611  1.00  0.00    -0.003 C 
ATOM      7  C   UNL     1       7.171   3.072  52.138  1.00  0.00     0.004 C 
ENDBRANCH   5   6
ENDBRANCH   1   5
TORSDOF 3
ENDMDL
