MODEL 1
REMARK VINA RESULT:    -4.716      0.000      0.000
REMARK INTER + INTRA:          -4.854
REMARK INTER:                  -4.854
REMARK INTRA:                   0.000
REMARK UNBOUND:                 0.000
REMARK SMILES Nc1ncnc2nc[nH]c12
REMARK SMILES IDX 8 1 7 2 6 3 5 4 4 5 3 6 2 7 10 8 9 9 1 11
REMARK H PARENT 9 10 1 12 1 13
REMARK Flexibility Score: inf
ROOT
ATOM      1  C   UNL     1     111.954 108.373 107.427  1.00  0.00     0.199 A 
ATOM      2  N   UNL     1     112.756 109.367 107.898  1.00  0.00    -0.217 NA
ATOM      3  C   UNL     1     112.486 109.353 109.213  1.00  0.00     0.182 A 
ATOM      4  N   UNL     1     113.028 110.160 110.157  1.00  0.00    -0.215 NA
ATOM      5  C   UNL     1     112.625 109.996 111.454  1.00  0.00     0.226 A 
ATOM      6  N   UNL     1     111.698 109.038 111.780  1.00  0.00    -0.217 NA
ATOM      7  C   UNL     1     111.151 108.224 110.828  1.00  0.00     0.152 A 
ATOM      8  C   UNL     1     111.571 108.403 109.513  1.00  0.00     0.127 A 
ATOM      9  N   UNL     1     111.217 107.765 108.392  1.00  0.00    -0.340 N 
ATOM     10  H   UNL     1     110.535 106.983 108.272  1.00  0.00     0.168 HD
ENDROOT
BRANCH   7  11
ATOM     11  N   UNL     1     110.188 107.234 111.190  1.00  0.00    -0.382 N 
ATOM     12  H   UNL     1     109.695 107.295 112.110  1.00  0.00     0.158 HD
ATOM     13  H   UNL     1     109.958 106.439 110.555  1.00  0.00     0.158 HD
ENDBRANCH   7  11
TORSDOF 1
ENDMDL
MODEL 2
REMARK VINA RESULT:    -4.401      1.079      3.086
REMARK INTER + INTRA:          -4.530
REMARK INTER:                  -4.530
REMARK INTRA:                   0.000
REMARK UNBOUND:                 0.000
REMARK SMILES Nc1ncnc2nc[nH]c12
REMARK SMILES IDX 8 1 7 2 6 3 5 4 4 5 3 6 2 7 10 8 9 9 1 11
REMARK H PARENT 9 10 1 12 1 13
REMARK Flexibility Score: inf
ROOT
ATOM      1  C   UNL     1     110.134 107.994 112.389  1.00  0.00     0.199 A 
ATOM      2  N   UNL     1     110.992 108.999 112.715  1.00  0.00    -0.217 NA
ATOM      3  C   UNL     1     111.625 109.221 111.551  1.00  0.00     0.182 A 
ATOM      4  N   UNL     1     112.596 110.138 111.322  1.00  0.00    -0.215 NA
ATOM      5  C   UNL     1     113.125 110.216 110.063  1.00  0.00     0.226 A 
ATOM      6  N   UNL     1     112.679 109.386 109.067  1.00  0.00    -0.217 NA
ATOM      7  C   UNL     1     111.699 108.461 109.296  1.00  0.00     0.152 A 
ATOM      8  C   UNL     1     111.171 108.394 110.583  1.00  0.00     0.127 A 
ATOM      9  N   UNL     1     110.220 107.602 111.093  1.00  0.00    -0.340 N 
ATOM     10  H   UNL     1     109.667 106.855 110.617  1.00  0.00     0.168 HD
ENDROOT
BRANCH   7  11
ATOM     11  N   UNL     1     111.249 107.607 108.244  1.00  0.00    -0.382 N 
ATOM     12  H   UNL     1     111.318 107.921 107.250  1.00  0.00     0.158 HD
ATOM     13  H   UNL     1     110.848 106.664 108.442  1.00  0.00     0.158 HD
ENDBRANCH   7  11
TORSDOF 1
ENDMDL
MODEL 3
REMARK VINA RESULT:    -4.393     20.525     21.720
REMARK INTER + INTRA:          -4.522
REMARK INTER:                  -4.522
REMARK INTRA:                   0.000
REMARK UNBOUND:                 0.000
REMARK SMILES Nc1ncnc2nc[nH]c12
REMARK SMILES IDX 8 1 7 2 6 3 5 4 4 5 3 6 2 7 10 8 9 9 1 11
REMARK H PARENT 9 10 1 12 1 13
REMARK Flexibility Score: inf
ROOT
ATOM      1  C   UNL     1      92.949  99.259  99.703  1.00  0.00     0.199 A 
ATOM      2  N   UNL     1      93.242 100.338  98.927  1.00  0.00    -0.217 NA
ATOM      3  C   UNL     1      93.595 101.258  99.839  1.00  0.00     0.182 A 
ATOM      4  N   UNL     1      93.984 102.532  99.592  1.00  0.00    -0.215 NA
ATOM      5  C   UNL     1      94.306 103.326 100.658  1.00  0.00     0.226 A 
ATOM      6  N   UNL     1      94.233 102.838 101.938  1.00  0.00    -0.217 NA
ATOM      7  C   UNL     1      93.840 101.553 102.189  1.00  0.00     0.152 A 
ATOM      8  C   UNL     1      93.516 100.757 101.093  1.00  0.00     0.127 A 
ATOM      9  N   UNL     1      93.107  99.484 101.032  1.00  0.00    -0.340 N 
ATOM     10  H   UNL     1      92.943  98.812 101.815  1.00  0.00     0.168 HD
ENDROOT
BRANCH   7  11
ATOM     11  N   UNL     1      93.771 101.065 103.529  1.00  0.00    -0.382 N 
ATOM     12  H   UNL     1      93.087 101.480 104.202  1.00  0.00     0.158 HD
ATOM     13  H   UNL     1      94.393 100.297 103.861  1.00  0.00     0.158 HD
ENDBRANCH   7  11
TORSDOF 1
ENDMDL
MODEL 4
REMARK VINA RESULT:    -4.328      1.810      2.518
REMARK INTER + INTRA:          -4.455
REMARK INTER:                  -4.455
REMARK INTRA:                   0.000
REMARK UNBOUND:                 0.000
REMARK SMILES Nc1ncnc2nc[nH]c12
REMARK SMILES IDX 8 1 7 2 6 3 5 4 4 5 3 6 2 7 10 8 9 9 1 11
REMARK H PARENT 9 10 1 12 1 13
REMARK Flexibility Score: inf
ROOT
ATOM      1  C   UNL     1     110.875 108.024 109.806  1.00  0.00     0.199 A 
ATOM      2  N   UNL     1     111.773 108.987 110.150  1.00  0.00    -0.217 NA
ATOM      3  C   UNL     1     111.615 109.062 111.482  1.00  0.00     0.182 A 
ATOM      4  N   UNL     1     112.282 109.881 112.330  1.00  0.00    -0.215 NA
ATOM      5  C   UNL     1     111.980 109.813 113.662  1.00  0.00     0.226 A 
ATOM      6  N   UNL     1     111.029 108.937 114.118  1.00  0.00    -0.217 NA
ATOM      7  C   UNL     1     110.355 108.110 113.263  1.00  0.00     0.152 A 
ATOM      8  C   UNL     1     110.673 108.191 111.910  1.00  0.00     0.127 A 
ATOM      9  N   UNL     1     110.187 107.518 110.860  1.00  0.00    -0.340 N 
ATOM     10  H   UNL     1     109.452 106.777 110.843  1.00  0.00     0.168 HD
ENDROOT
BRANCH   7  11
ATOM     11  N   UNL     1     109.368 107.206 113.760  1.00  0.00    -0.382 N 
ATOM     12  H   UNL     1     109.606 106.198 113.903  1.00  0.00     0.158 HD
ATOM     13  H   UNL     1     108.401 107.526 113.987  1.00  0.00     0.158 HD
ENDBRANCH   7  11
TORSDOF 1
ENDMDL
MODEL 5
REMARK VINA RESULT:    -4.236     23.974     24.673
REMARK INTER + INTRA:          -4.360
REMARK INTER:                  -4.360
REMARK INTRA:                   0.000
REMARK UNBOUND:                 0.000
REMARK SMILES Nc1ncnc2nc[nH]c12
REMARK SMILES IDX 8 1 7 2 6 3 5 4 4 5 3 6 2 7 10 8 9 9 1 11
REMARK H PARENT 9 10 1 12 1 13
REMARK Flexibility Score: inf
ROOT
ATOM      1  C   UNL     1      95.114  98.617  95.802  1.00  0.00     0.199 A 
ATOM      2  N   UNL     1      95.258  97.308  95.458  1.00  0.00    -0.217 NA
ATOM      3  C   UNL     1      94.697  96.676  96.501  1.00  0.00     0.182 A 
ATOM      4  N   UNL     1      94.577  95.336  96.663  1.00  0.00    -0.215 NA
ATOM      5  C   UNL     1      93.973  94.876  97.800  1.00  0.00     0.226 A 
ATOM      6  N   UNL     1      93.504  95.753  98.745  1.00  0.00    -0.217 NA
ATOM      7  C   UNL     1      93.625  97.105  98.583  1.00  0.00     0.152 A 
ATOM      8  C   UNL     1      94.243  97.558  97.420  1.00  0.00     0.127 A 
ATOM      9  N   UNL     1      94.496  98.802  96.997  1.00  0.00    -0.340 N 
ATOM     10  H   UNL     1      94.277  99.709  97.466  1.00  0.00     0.168 HD
ENDROOT
BRANCH   7  11
ATOM     11  N   UNL     1      93.130  98.000  99.579  1.00  0.00    -0.382 N 
ATOM     12  H   UNL     1      92.130  97.949  99.877  1.00  0.00     0.158 HD
ATOM     13  H   UNL     1      93.747  98.714 100.024  1.00  0.00     0.158 HD
ENDBRANCH   7  11
TORSDOF 1
ENDMDL
MODEL 6
REMARK VINA RESULT:    -4.199      1.046      3.151
REMARK INTER + INTRA:          -4.322
REMARK INTER:                  -4.322
REMARK INTRA:                   0.000
REMARK UNBOUND:                 0.000
REMARK SMILES Nc1ncnc2nc[nH]c12
REMARK SMILES IDX 8 1 7 2 6 3 5 4 4 5 3 6 2 7 10 8 9 9 1 11
REMARK H PARENT 9 10 1 12 1 13
REMARK Flexibility Score: inf
ROOT
ATOM      1  C   UNL     1     112.477 110.314 113.070  1.00  0.00     0.199 A 
ATOM      2  N   UNL     1     113.125 110.774 111.964  1.00  0.00    -0.217 NA
ATOM      3  C   UNL     1     112.628 109.989 110.995  1.00  0.00     0.182 A 
ATOM      4  N   UNL     1     112.947 110.031 109.679  1.00  0.00    -0.215 NA
ATOM      5  C   UNL     1     112.333 109.144 108.838  1.00  0.00     0.226 A 
ATOM      6  N   UNL     1     111.421 108.241 109.322  1.00  0.00    -0.217 NA
ATOM      7  C   UNL     1     111.099 108.197 110.650  1.00  0.00     0.152 A 
ATOM      8  C   UNL     1     111.733 109.106 111.493  1.00  0.00     0.127 A 
ATOM      9  N   UNL     1     111.619 109.294 112.813  1.00  0.00    -0.340 N 
ATOM     10  H   UNL     1     111.017 108.783 113.497  1.00  0.00     0.168 HD
ENDROOT
BRANCH   7  11
ATOM     11  N   UNL     1     110.147 107.248 111.133  1.00  0.00    -0.382 N 
ATOM     12  H   UNL     1     109.919 106.401 110.564  1.00  0.00     0.158 HD
ATOM     13  H   UNL     1     109.666 107.378 112.049  1.00  0.00     0.158 HD
ENDBRANCH   7  11
TORSDOF 1
ENDMDL
MODEL 7
REMARK VINA RESULT:    -4.118     23.269     24.989
REMARK INTER + INTRA:          -4.238
REMARK INTER:                  -4.238
REMARK INTRA:                   0.000
REMARK UNBOUND:                 0.000
REMARK SMILES Nc1ncnc2nc[nH]c12
REMARK SMILES IDX 8 1 7 2 6 3 5 4 4 5 3 6 2 7 10 8 9 9 1 11
REMARK H PARENT 9 10 1 12 1 13
REMARK Flexibility Score: inf
ROOT
ATOM      1  C   UNL     1      94.738  98.989  97.258  1.00  0.00     0.199 A 
ATOM      2  N   UNL     1      93.671  98.599  96.507  1.00  0.00    -0.217 NA
ATOM      3  C   UNL     1      94.230  97.736  95.643  1.00  0.00     0.182 A 
ATOM      4  N   UNL     1      93.596  97.050  94.662  1.00  0.00    -0.215 NA
ATOM      5  C   UNL     1      94.339  96.213  93.877  1.00  0.00     0.226 A 
ATOM      6  N   UNL     1      95.688  96.076  94.085  1.00  0.00    -0.217 NA
ATOM      7  C   UNL     1      96.329  96.767  95.074  1.00  0.00     0.152 A 
ATOM      8  C   UNL     1      95.559  97.616  95.865  1.00  0.00     0.127 A 
ATOM      9  N   UNL     1      95.906  98.405  96.889  1.00  0.00    -0.340 N 
ATOM     10  H   UNL     1      96.850  98.547  97.314  1.00  0.00     0.168 HD
ENDROOT
BRANCH   7  11
ATOM     11  N   UNL     1      97.735  96.610  95.273  1.00  0.00    -0.382 N 
ATOM     12  H   UNL     1      98.371  97.434  95.178  1.00  0.00     0.158 HD
ATOM     13  H   UNL     1      98.150  95.684  95.513  1.00  0.00     0.158 HD
ENDBRANCH   7  11
TORSDOF 1
ENDMDL
MODEL 8
REMARK VINA RESULT:    -4.068     23.358     24.758
REMARK INTER + INTRA:          -4.187
REMARK INTER:                  -4.187
REMARK INTRA:                   0.000
REMARK UNBOUND:                 0.000
REMARK SMILES Nc1ncnc2nc[nH]c12
REMARK SMILES IDX 8 1 7 2 6 3 5 4 4 5 3 6 2 7 10 8 9 9 1 11
REMARK H PARENT 9 10 1 12 1 13
REMARK Flexibility Score: inf
ROOT
ATOM      1  C   UNL     1      93.903  94.959  96.099  1.00  0.00     0.199 A 
ATOM      2  N   UNL     1      94.544  96.032  95.558  1.00  0.00    -0.217 NA
ATOM      3  C   UNL     1      94.446  96.946  96.537  1.00  0.00     0.182 A 
ATOM      4  N   UNL     1      94.929  98.211  96.512  1.00  0.00    -0.215 NA
ATOM      5  C   UNL     1      94.729  99.000  97.611  1.00  0.00     0.226 A 
ATOM      6  N   UNL     1      94.058  98.514  98.705  1.00  0.00    -0.217 NA
ATOM      7  C   UNL     1      93.571  97.237  98.732  1.00  0.00     0.152 A 
ATOM      8  C   UNL     1      93.782  96.448  97.605  1.00  0.00     0.127 A 
ATOM      9  N   UNL     1      93.426  95.183  97.350  1.00  0.00    -0.340 N 
ATOM     10  H   UNL     1      92.904  94.515  97.959  1.00  0.00     0.168 HD
ENDROOT
BRANCH   7  11
ATOM     11  N   UNL     1      92.875  96.753  99.881  1.00  0.00    -0.382 N 
ATOM     12  H   UNL     1      92.070  96.097  99.766  1.00  0.00     0.158 HD
ATOM     13  H   UNL     1      93.151  97.039 100.845  1.00  0.00     0.158 HD
ENDBRANCH   7  11
TORSDOF 1
ENDMDL
