MODEL 1
REMARK VINA RESULT:     0.679      0.000      0.000
REMARK INTER + INTRA:           0.433
REMARK INTER:                   0.718
REMARK INTRA:                  -0.285
REMARK UNBOUND:                -0.285
REMARK SMILES CC1=C[C@@H]2C(=C(C)CC[C@H]2C(C)C)CC1
REMARK SMILES IDX 1 1 2 2 3 3 4 4 10 5 9 6 8 7 6 8 5 9 14 10 15 11 7 12 11 13
REMARK SMILES IDX 12 14 13 15
REMARK H PARENT
REMARK Flexibility Score: inf
ROOT
ATOM      1  C   UNL     1       3.138   8.646  17.012  1.00  0.00     0.039 C 
ATOM      2  C   UNL     1       3.631   9.011  15.638  1.00  0.00    -0.076 C 
ATOM      3  C   UNL     1       4.591   8.250  15.062  1.00  0.00    -0.020 C 
ATOM      4  C   UNL     1       5.193   8.548  13.693  1.00  0.00     0.041 C 
ATOM      5  C   UNL     1       5.565   7.230  12.946  1.00  0.00     0.003 C 
ATOM      6  C   UNL     1       5.705   7.496  11.436  1.00  0.00     0.009 C 
ATOM      7  C   UNL     1       4.387   8.016  10.875  1.00  0.00     0.031 C 
ATOM      8  C   UNL     1       3.909   9.247  11.611  1.00  0.00    -0.073 C 
ATOM      9  C   UNL     1       4.261   9.471  12.910  1.00  0.00    -0.064 C 
ATOM     10  C   UNL     1       3.761  10.653  13.709  1.00  0.00     0.036 C 
ATOM     11  C   UNL     1       2.941  10.137  14.891  1.00  0.00     0.035 C 
ATOM     12  C   UNL     1       2.944  10.151  10.882  1.00  0.00     0.039 C 
ENDROOT
BRANCH   5  13
ATOM     13  C   UNL     1       6.835   6.528  13.544  1.00  0.00    -0.013 C 
ATOM     14  C   UNL     1       7.987   7.494  13.877  1.00  0.00     0.007 C 
ATOM     15  C   UNL     1       7.342   5.408  12.625  1.00  0.00     0.007 C 
ENDBRANCH   5  13
TORSDOF 1
ENDMDL
MODEL 2
REMARK VINA RESULT:     1.152      1.337      4.937
REMARK INTER + INTRA:           0.934
REMARK INTER:                   1.205
REMARK INTRA:                  -0.271
REMARK UNBOUND:                -0.285
REMARK SMILES CC1=C[C@@H]2C(=C(C)CC[C@H]2C(C)C)CC1
REMARK SMILES IDX 1 1 2 2 3 3 4 4 10 5 9 6 8 7 6 8 5 9 14 10 15 11 7 12 11 13
REMARK SMILES IDX 12 14 13 15
REMARK H PARENT
REMARK Flexibility Score: inf
ROOT
ATOM      1  C   UNL     1       4.476   4.882  11.567  1.00  0.00     0.039 C 
ATOM      2  C   UNL     1       4.738   6.116  12.387  1.00  0.00    -0.076 C 
ATOM      3  C   UNL     1       4.223   7.298  11.977  1.00  0.00    -0.020 C 
ATOM      4  C   UNL     1       4.457   8.617  12.704  1.00  0.00     0.041 C 
ATOM      5  C   UNL     1       3.210   9.549  12.591  1.00  0.00     0.003 C 
ATOM      6  C   UNL     1       3.249  10.626  13.691  1.00  0.00     0.009 C 
ATOM      7  C   UNL     1       3.238   9.967  15.064  1.00  0.00     0.031 C 
ATOM      8  C   UNL     1       4.368   8.975  15.222  1.00  0.00    -0.073 C 
ATOM      9  C   UNL     1       4.904   8.341  14.139  1.00  0.00    -0.064 C 
ATOM     10  C   UNL     1       5.993   7.297  14.249  1.00  0.00     0.036 C 
ATOM     11  C   UNL     1       5.456   5.970  13.716  1.00  0.00     0.035 C 
ATOM     12  C   UNL     1       4.797   8.641  16.631  1.00  0.00     0.039 C 
ENDROOT
BRANCH   5  13
ATOM     13  C   UNL     1       3.043  10.169  11.159  1.00  0.00    -0.013 C 
ATOM     14  C   UNL     1       3.972  11.366  10.881  1.00  0.00     0.007 C 
ATOM     15  C   UNL     1       1.585  10.567  10.887  1.00  0.00     0.007 C 
ENDBRANCH   5  13
TORSDOF 1
ENDMDL
MODEL 3
REMARK VINA RESULT:     1.757      1.192      3.535
REMARK INTER + INTRA:           1.574
REMARK INTER:                   1.845
REMARK INTRA:                  -0.271
REMARK UNBOUND:                -0.285
REMARK SMILES CC1=C[C@@H]2C(=C(C)CC[C@H]2C(C)C)CC1
REMARK SMILES IDX 1 1 2 2 3 3 4 4 10 5 9 6 8 7 6 8 5 9 14 10 15 11 7 12 11 13
REMARK SMILES IDX 12 14 13 15
REMARK H PARENT
REMARK Flexibility Score: inf
ROOT
ATOM      1  C   UNL     1       3.201  10.639  10.875  1.00  0.00     0.039 C 
ATOM      2  C   UNL     1       3.498   9.783  12.076  1.00  0.00    -0.076 C 
ATOM      3  C   UNL     1       4.392   8.774  11.959  1.00  0.00    -0.020 C 
ATOM      4  C   UNL     1       4.740   7.820  13.095  1.00  0.00     0.041 C 
ATOM      5  C   UNL     1       6.235   7.379  13.020  1.00  0.00     0.003 C 
ATOM      6  C   UNL     1       6.699   6.836  14.384  1.00  0.00     0.009 C 
ATOM      7  C   UNL     1       6.566   7.920  15.447  1.00  0.00     0.031 C 
ATOM      8  C   UNL     1       5.159   8.467  15.520  1.00  0.00    -0.073 C 
ATOM      9  C   UNL     1       4.337   8.442  14.432  1.00  0.00    -0.064 C 
ATOM     10  C   UNL     1       2.943   9.030  14.435  1.00  0.00     0.036 C 
ATOM     11  C   UNL     1       2.887  10.164  13.412  1.00  0.00     0.035 C 
ATOM     12  C   UNL     1       4.748   9.136  16.810  1.00  0.00     0.039 C 
ENDROOT
BRANCH   5  13
ATOM     13  C   UNL     1       6.512   6.367  11.854  1.00  0.00    -0.013 C 
ATOM     14  C   UNL     1       6.159   4.907  12.192  1.00  0.00     0.007 C 
ATOM     15  C   UNL     1       7.968   6.453  11.371  1.00  0.00     0.007 C 
ENDBRANCH   5  13
TORSDOF 1
ENDMDL
MODEL 4
REMARK VINA RESULT:     2.558      1.679      4.944
REMARK INTER + INTRA:           2.422
REMARK INTER:                   2.483
REMARK INTRA:                  -0.061
REMARK UNBOUND:                -0.285
REMARK SMILES CC1=C[C@@H]2C(=C(C)CC[C@H]2C(C)C)CC1
REMARK SMILES IDX 1 1 2 2 3 3 4 4 10 5 9 6 8 7 6 8 5 9 14 10 15 11 7 12 11 13
REMARK SMILES IDX 12 14 13 15
REMARK H PARENT
REMARK Flexibility Score: inf
ROOT
ATOM      1  C   UNL     1       3.069   4.876  12.095  1.00  0.00     0.039 C 
ATOM      2  C   UNL     1       4.185   5.853  12.348  1.00  0.00    -0.076 C 
ATOM      3  C   UNL     1       3.879   7.130  12.674  1.00  0.00    -0.020 C 
ATOM      4  C   UNL     1       4.925   8.214  12.912  1.00  0.00     0.041 C 
ATOM      5  C   UNL     1       4.449   9.222  14.004  1.00  0.00     0.003 C 
ATOM      6  C   UNL     1       5.653   9.993  14.577  1.00  0.00     0.009 C 
ATOM      7  C   UNL     1       6.638   9.020  15.212  1.00  0.00     0.031 C 
ATOM      8  C   UNL     1       7.080   7.950  14.239  1.00  0.00    -0.073 C 
ATOM      9  C   UNL     1       6.278   7.567  13.203  1.00  0.00    -0.064 C 
ATOM     10  C   UNL     1       6.646   6.461  12.239  1.00  0.00     0.036 C 
ATOM     11  C   UNL     1       5.614   5.341  12.359  1.00  0.00     0.035 C 
ATOM     12  C   UNL     1       8.388   7.255  14.530  1.00  0.00     0.039 C 
ENDROOT
BRANCH   5  13
ATOM     13  C   UNL     1       3.319  10.183  13.493  1.00  0.00    -0.013 C 
ATOM     14  C   UNL     1       1.905   9.575  13.551  1.00  0.00     0.007 C 
ATOM     15  C   UNL     1       3.611  10.688  12.072  1.00  0.00     0.007 C 
ENDBRANCH   5  13
TORSDOF 1
ENDMDL
MODEL 5
REMARK VINA RESULT:     3.025      1.510      4.579
REMARK INTER + INTRA:           2.916
REMARK INTER:                   3.182
REMARK INTRA:                  -0.266
REMARK UNBOUND:                -0.285
REMARK SMILES CC1=C[C@@H]2C(=C(C)CC[C@H]2C(C)C)CC1
REMARK SMILES IDX 1 1 2 2 3 3 4 4 10 5 9 6 8 7 6 8 5 9 14 10 15 11 7 12 11 13
REMARK SMILES IDX 12 14 13 15
REMARK H PARENT
REMARK Flexibility Score: inf
ROOT
ATOM      1  C   UNL     1       9.148   8.613  14.444  1.00  0.00     0.039 C 
ATOM      2  C   UNL     1       7.804   7.960  14.267  1.00  0.00    -0.076 C 
ATOM      3  C   UNL     1       6.699   8.738  14.202  1.00  0.00    -0.020 C 
ATOM      4  C   UNL     1       5.286   8.185  14.065  1.00  0.00     0.041 C 
ATOM      5  C   UNL     1       4.389   9.141  13.217  1.00  0.00     0.003 C 
ATOM      6  C   UNL     1       3.160   8.382  12.683  1.00  0.00     0.009 C 
ATOM      7  C   UNL     1       3.608   7.226  11.798  1.00  0.00     0.031 C 
ATOM      8  C   UNL     1       4.558   6.298  12.521  1.00  0.00    -0.073 C 
ATOM      9  C   UNL     1       5.342   6.751  13.541  1.00  0.00    -0.064 C 
ATOM     10  C   UNL     1       6.351   5.880  14.256  1.00  0.00     0.036 C 
ATOM     11  C   UNL     1       7.747   6.462  14.034  1.00  0.00     0.035 C 
ATOM     12  C   UNL     1       4.676   4.888  11.993  1.00  0.00     0.039 C 
ENDROOT
BRANCH   5  13
ATOM     13  C   UNL     1       3.990  10.446  13.992  1.00  0.00    -0.013 C 
ATOM     14  C   UNL     1       2.659  10.338  14.760  1.00  0.00     0.007 C 
ATOM     15  C   UNL     1       3.955  11.664  13.057  1.00  0.00     0.007 C 
ENDBRANCH   5  13
TORSDOF 1
ENDMDL
MODEL 6
REMARK VINA RESULT:     3.199      1.777      3.782
REMARK INTER + INTRA:           3.101
REMARK INTER:                   3.047
REMARK INTRA:                   0.054
REMARK UNBOUND:                -0.285
REMARK SMILES CC1=C[C@@H]2C(=C(C)CC[C@H]2C(C)C)CC1
REMARK SMILES IDX 1 1 2 2 3 3 4 4 10 5 9 6 8 7 6 8 5 9 14 10 15 11 7 12 11 13
REMARK SMILES IDX 12 14 13 15
REMARK H PARENT
REMARK Flexibility Score: inf
ROOT
ATOM      1  C   UNL     1       2.866  10.082  13.479  1.00  0.00     0.039 C 
ATOM      2  C   UNL     1       4.010   9.157  13.793  1.00  0.00    -0.076 C 
ATOM      3  C   UNL     1       3.983   7.892  13.314  1.00  0.00    -0.020 C 
ATOM      4  C   UNL     1       5.065   6.858  13.602  1.00  0.00     0.041 C 
ATOM      5  C   UNL     1       5.262   5.899  12.387  1.00  0.00     0.003 C 
ATOM      6  C   UNL     1       6.632   5.201  12.477  1.00  0.00     0.009 C 
ATOM      7  C   UNL     1       7.746   6.239  12.461  1.00  0.00     0.031 C 
ATOM      8  C   UNL     1       7.576   7.265  13.558  1.00  0.00    -0.073 C 
ATOM      9  C   UNL     1       6.342   7.562  14.058  1.00  0.00    -0.064 C 
ATOM     10  C   UNL     1       6.110   8.622  15.112  1.00  0.00     0.036 C 
ATOM     11  C   UNL     1       5.218   9.714  14.523  1.00  0.00     0.035 C 
ATOM     12  C   UNL     1       8.811   8.017  13.993  1.00  0.00     0.039 C 
ENDROOT
BRANCH   5  13
ATOM     13  C   UNL     1       4.084   4.875  12.223  1.00  0.00    -0.013 C 
ATOM     14  C   UNL     1       3.247   5.080  10.947  1.00  0.00     0.007 C 
ATOM     15  C   UNL     1       3.166   4.875  13.454  1.00  0.00     0.007 C 
ENDBRANCH   5  13
TORSDOF 1
ENDMDL
