MODEL 1
REMARK VINA RESULT:    -4.419      0.000      0.000
REMARK INTER + INTRA:          -7.015
REMARK INTER:                  -6.743
REMARK INTRA:                  -0.271
REMARK UNBOUND:                -0.271
REMARK SMILES CC1=CCC[C@@H](C)C(=O)C[C@H](C(C)C)C(=O)C1
REMARK SMILES IDX 8 1 9 2 6 3 7 4 5 5 4 6 3 7 2 8 1 9 10 11 11 12 15 13 16 14
REMARK SMILES IDX 17 15 12 17 13 18 14 19
REMARK H PARENT
REMARK Flexibility Score: 70.00
ROOT
ATOM      1  C   UNL     1      16.773 -30.135  22.421  1.00  0.00     0.136 C 
ATOM      2  O   UNL     1      16.741 -29.040  21.876  1.00  0.00    -0.299 OA
ENDROOT
BRANCH   1   3
ATOM      3  C   UNL     1      17.873 -31.105  22.023  1.00  0.00     0.053 C 
ATOM      4  C   UNL     1      19.260 -30.497  22.269  1.00  0.00     0.016 C 
BRANCH   3   5
ATOM      5  C   UNL     1      17.736 -31.592  20.566  1.00  0.00     0.015 C 
BRANCH   5   6
ATOM      6  C   UNL     1      17.307 -33.076  20.465  1.00  0.00     0.028 C 
BRANCH   6   7
ATOM      7  C   UNL     1      17.530 -33.792  21.777  1.00  0.00    -0.028 C 
ATOM      8  C   UNL     1      16.553 -34.188  22.629  1.00  0.00    -0.070 CG0
ATOM      9  C   UNL     1      16.950 -35.005  23.831  1.00  0.00     0.039 C 
ATOM     10  G   UNL     1      15.084 -33.842  22.431  1.00  0.00     0.000 G0
ENDBRANCH   6   7
ENDBRANCH   5   6
ENDBRANCH   3   5
ENDBRANCH   1   3
BRANCH   1  11
ATOM     11  C   UNL     1      15.714 -30.455  23.459  1.00  0.00     0.087 C 
BRANCH  11  12
ATOM     12  C   UNL     1      14.510 -31.249  22.882  1.00  0.00     0.066 C 
BRANCH  12  13
ATOM     13  C   UNL     1      14.532 -32.715  23.307  1.00  0.00     0.140 C 
ATOM     14  O   UNL     1      14.090 -33.014  24.406  1.00  0.00    -0.299 OA
BRANCH  13  15
ATOM     15  C   UNL     1      15.077 -33.838  22.444  1.00  0.00     0.106 CG0
ATOM     16  G   UNL     1      16.550 -34.166  22.636  1.00  0.00     0.000 G0
ENDBRANCH  13  15
ENDBRANCH  12  13
BRANCH  12  17
ATOM     17  C   UNL     1      13.121 -30.600  23.181  1.00  0.00    -0.006 C 
ATOM     18  C   UNL     1      13.187 -29.139  23.660  1.00  0.00     0.008 C 
ATOM     19  C   UNL     1      12.172 -30.710  21.977  1.00  0.00     0.008 C 
ENDBRANCH  12  17
ENDBRANCH  11  12
ENDBRANCH   1  11
TORSDOF 1
ENDMDL
MODEL 2
REMARK VINA RESULT:    -4.050      2.425      4.943
REMARK INTER + INTRA:          -6.451
REMARK INTER:                  -6.202
REMARK INTRA:                  -0.250
REMARK UNBOUND:                -0.271
REMARK SMILES CC1=CCC[C@@H](C)C(=O)C[C@H](C(C)C)C(=O)C1
REMARK SMILES IDX 8 1 9 2 6 3 7 4 5 5 4 6 3 7 2 8 1 9 10 11 11 12 15 13 16 14
REMARK SMILES IDX 17 15 12 17 13 18 14 19
REMARK H PARENT
REMARK Flexibility Score: 70.00
ROOT
ATOM      1  C   UNL     1      15.165 -33.189  22.141  1.00  0.00     0.136 C 
ATOM      2  O   UNL     1      14.364 -32.931  21.253  1.00  0.00    -0.299 OA
ENDROOT
BRANCH   1   3
ATOM      3  C   UNL     1      15.184 -32.300  23.374  1.00  0.00     0.053 C 
ATOM      4  C   UNL     1      13.917 -32.498  24.215  1.00  0.00     0.016 C 
BRANCH   3   5
ATOM      5  C   UNL     1      15.389 -30.811  23.029  1.00  0.00     0.015 C 
BRANCH   5   6
ATOM      6  C   UNL     1      16.881 -30.401  22.996  1.00  0.00     0.028 C 
BRANCH   6   7
ATOM      7  C   UNL     1      17.649 -31.069  24.112  1.00  0.00    -0.028 C 
ATOM      8  C   UNL     1      18.679 -31.935  23.946  1.00  0.00    -0.070 CG0
ATOM      9  C   UNL     1      19.414 -32.405  25.175  1.00  0.00     0.039 C 
ATOM     10  G   UNL     1      19.120 -32.454  22.585  1.00  0.00     0.000 G0
ENDBRANCH   6   7
ENDBRANCH   5   6
ENDBRANCH   3   5
ENDBRANCH   1   3
BRANCH   1  11
ATOM     11  C   UNL     1      16.089 -34.378  21.955  1.00  0.00     0.087 C 
BRANCH  11  12
ATOM     12  C   UNL     1      17.409 -34.020  21.219  1.00  0.00     0.066 C 
BRANCH  12  13
ATOM     13  C   UNL     1      18.571 -33.822  22.188  1.00  0.00     0.140 C 
ATOM     14  O   UNL     1      19.097 -34.808  22.684  1.00  0.00    -0.299 OA
BRANCH  13  15
ATOM     15  C   UNL     1      19.121 -32.465  22.584  1.00  0.00     0.106 CG0
ATOM     16  G   UNL     1      18.667 -31.934  23.935  1.00  0.00     0.000 G0
ENDBRANCH  13  15
ENDBRANCH  12  13
BRANCH  12  17
ATOM     17  C   UNL     1      17.792 -35.020  20.082  1.00  0.00    -0.006 C 
ATOM     18  C   UNL     1      16.805 -36.185  19.896  1.00  0.00     0.008 C 
ATOM     19  C   UNL     1      18.006 -34.300  18.741  1.00  0.00     0.008 C 
ENDBRANCH  12  17
ENDBRANCH  11  12
ENDBRANCH   1  11
TORSDOF 1
ENDMDL
MODEL 3
REMARK VINA RESULT:    -4.029      2.006      4.517
REMARK INTER + INTRA:          -6.420
REMARK INTER:                  -6.135
REMARK INTRA:                  -0.286
REMARK UNBOUND:                -0.271
REMARK SMILES CC1=CCC[C@@H](C)C(=O)C[C@H](C(C)C)C(=O)C1
REMARK SMILES IDX 8 1 9 2 6 3 7 4 5 5 4 6 3 7 2 8 1 9 10 11 11 12 15 13 16 14
REMARK SMILES IDX 17 15 12 17 13 18 14 19
REMARK H PARENT
REMARK Flexibility Score: 70.00
ROOT
ATOM      1  C   UNL     1      18.520 -31.914  20.945  1.00  0.00     0.136 C 
ATOM      2  O   UNL     1      19.736 -31.907  21.081  1.00  0.00    -0.299 OA
ENDROOT
BRANCH   1   3
ATOM      3  C   UNL     1      17.733 -30.710  21.438  1.00  0.00     0.053 C 
ATOM      4  C   UNL     1      18.312 -29.406  20.877  1.00  0.00     0.016 C 
BRANCH   3   5
ATOM      5  C   UNL     1      17.639 -30.654  22.977  1.00  0.00     0.015 C 
BRANCH   5   6
ATOM      6  C   UNL     1      16.236 -31.033  23.508  1.00  0.00     0.028 C 
BRANCH   6   7
ATOM      7  C   UNL     1      15.170 -30.723  22.483  1.00  0.00    -0.028 C 
ATOM      8  C   UNL     1      14.390 -31.641  21.862  1.00  0.00    -0.070 CG0
ATOM      9  C   UNL     1      13.288 -31.142  20.963  1.00  0.00     0.039 C 
ATOM     10  G   UNL     1      14.579 -33.142  22.024  1.00  0.00     0.000 G0
ENDBRANCH   6   7
ENDBRANCH   5   6
ENDBRANCH   3   5
ENDBRANCH   1   3
BRANCH   1  11
ATOM     11  C   UNL     1      17.874 -33.121  20.292  1.00  0.00     0.087 C 
BRANCH  11  12
ATOM     12  C   UNL     1      17.028 -33.973  21.279  1.00  0.00     0.066 C 
BRANCH  12  13
ATOM     13  C   UNL     1      15.530 -33.805  21.042  1.00  0.00     0.140 C 
ATOM     14  O   UNL     1      15.050 -34.222  19.998  1.00  0.00    -0.299 OA
BRANCH  13  15
ATOM     15  C   UNL     1      14.586 -33.144  22.029  1.00  0.00     0.106 CG0
ATOM     16  G   UNL     1      14.389 -31.646  21.856  1.00  0.00     0.000 G0
ENDBRANCH  13  15
ENDBRANCH  12  13
BRANCH  12  17
ATOM     17  C   UNL     1      17.425 -35.483  21.314  1.00  0.00    -0.006 C 
ATOM     18  C   UNL     1      18.481 -35.892  20.273  1.00  0.00     0.008 C 
ATOM     19  C   UNL     1      17.881 -35.917  22.716  1.00  0.00     0.008 C 
ENDBRANCH  12  17
ENDBRANCH  11  12
ENDBRANCH   1  11
TORSDOF 1
ENDMDL
MODEL 4
REMARK VINA RESULT:    -3.965      2.443      4.902
REMARK INTER + INTRA:          -6.322
REMARK INTER:                  -5.982
REMARK INTRA:                  -0.340
REMARK UNBOUND:                -0.271
REMARK SMILES CC1=CCC[C@@H](C)C(=O)C[C@H](C(C)C)C(=O)C1
REMARK SMILES IDX 8 1 9 2 6 3 7 4 5 5 4 6 3 7 2 8 1 9 10 11 11 12 15 13 16 14
REMARK SMILES IDX 17 15 12 17 13 18 14 19
REMARK H PARENT
REMARK Flexibility Score: 70.00
ROOT
ATOM      1  C   UNL     1      15.321 -33.404  22.135  1.00  0.00     0.136 C 
ATOM      2  O   UNL     1      14.776 -32.786  21.231  1.00  0.00    -0.299 OA
ENDROOT
BRANCH   1   3
ATOM      3  C   UNL     1      15.353 -32.776  23.520  1.00  0.00     0.053 C 
ATOM      4  C   UNL     1      13.978 -32.212  23.900  1.00  0.00     0.016 C 
BRANCH   3   5
ATOM      5  C   UNL     1      16.448 -31.698  23.656  1.00  0.00     0.015 C 
BRANCH   5   6
ATOM      6  C   UNL     1      17.765 -32.250  24.249  1.00  0.00     0.028 C 
BRANCH   6   7
ATOM      7  C   UNL     1      17.498 -33.441  25.141  1.00  0.00    -0.028 C 
ATOM      8  C   UNL     1      18.062 -34.666  25.002  1.00  0.00    -0.070 CG0
ATOM      9  C   UNL     1      17.779 -35.699  26.062  1.00  0.00     0.039 C 
ATOM     10  G   UNL     1      18.957 -35.043  23.831  1.00  0.00     0.000 G0
ENDBRANCH   6   7
ENDBRANCH   5   6
ENDBRANCH   3   5
ENDBRANCH   1   3
BRANCH   1  11
ATOM     11  C   UNL     1      15.931 -34.756  21.820  1.00  0.00     0.087 C 
BRANCH  11  12
ATOM     12  C   UNL     1      17.469 -34.702  21.607  1.00  0.00     0.066 C 
BRANCH  12  13
ATOM     13  C   UNL     1      18.217 -35.589  22.597  1.00  0.00     0.140 C 
ATOM     14  O   UNL     1      18.236 -36.796  22.406  1.00  0.00    -0.299 OA
BRANCH  13  15
ATOM     15  C   UNL     1      18.946 -35.065  23.820  1.00  0.00     0.106 CG0
ATOM     16  G   UNL     1      18.065 -34.653  24.990  1.00  0.00     0.000 G0
ENDBRANCH  13  15
ENDBRANCH  12  13
BRANCH  12  17
ATOM     17  C   UNL     1      17.916 -34.997  20.140  1.00  0.00    -0.006 C 
ATOM     18  C   UNL     1      16.974 -35.930  19.359  1.00  0.00     0.008 C 
ATOM     19  C   UNL     1      18.144 -33.702  19.344  1.00  0.00     0.008 C 
ENDBRANCH  12  17
ENDBRANCH  11  12
ENDBRANCH   1  11
TORSDOF 1
ENDMDL
MODEL 5
REMARK VINA RESULT:    -3.909      2.109      3.987
REMARK INTER + INTRA:          -6.237
REMARK INTER:                  -5.874
REMARK INTRA:                  -0.363
REMARK UNBOUND:                -0.271
REMARK SMILES CC1=CCC[C@@H](C)C(=O)C[C@H](C(C)C)C(=O)C1
REMARK SMILES IDX 8 1 9 2 6 3 7 4 5 5 4 6 3 7 2 8 1 9 10 11 11 12 15 13 16 14
REMARK SMILES IDX 17 15 12 17 13 18 14 19
REMARK H PARENT
REMARK Flexibility Score: 70.00
ROOT
ATOM      1  C   UNL     1      16.328 -34.175  21.767  1.00  0.00     0.136 C 
ATOM      2  O   UNL     1      15.372 -34.836  21.384  1.00  0.00    -0.299 OA
ENDROOT
BRANCH   1   3
ATOM      3  C   UNL     1      17.484 -34.902  22.436  1.00  0.00     0.053 C 
ATOM      4  C   UNL     1      17.885 -36.149  21.639  1.00  0.00     0.016 C 
BRANCH   3   5
ATOM      5  C   UNL     1      17.189 -35.258  23.907  1.00  0.00     0.015 C 
BRANCH   5   6
ATOM      6  C   UNL     1      17.885 -34.306  24.909  1.00  0.00     0.028 C 
BRANCH   6   7
ATOM      7  C   UNL     1      19.004 -33.544  24.239  1.00  0.00    -0.028 C 
ATOM      8  C   UNL     1      19.047 -32.199  24.076  1.00  0.00    -0.070 CG0
ATOM      9  C   UNL     1      20.304 -31.596  23.501  1.00  0.00     0.039 C 
ATOM     10  G   UNL     1      17.893 -31.277  24.439  1.00  0.00     0.000 G0
ENDBRANCH   6   7
ENDBRANCH   5   6
ENDBRANCH   3   5
ENDBRANCH   1   3
BRANCH   1  11
ATOM     11  C   UNL     1      16.300 -32.674  21.552  1.00  0.00     0.087 C 
BRANCH  11  12
ATOM     12  C   UNL     1      15.848 -31.882  22.810  1.00  0.00     0.066 C 
BRANCH  12  13
ATOM     13  C   UNL     1      16.934 -30.934  23.311  1.00  0.00     0.140 C 
ATOM     14  O   UNL     1      17.050 -29.840  22.779  1.00  0.00    -0.299 OA
BRANCH  13  15
ATOM     15  C   UNL     1      17.893 -31.266  24.439  1.00  0.00     0.106 CG0
ATOM     16  G   UNL     1      19.048 -32.188  24.076  1.00  0.00     0.000 G0
ENDBRANCH  13  15
ENDBRANCH  12  13
BRANCH  12  17
ATOM     17  C   UNL     1      14.489 -31.134  22.634  1.00  0.00    -0.006 C 
ATOM     18  C   UNL     1      13.711 -31.510  21.361  1.00  0.00     0.008 C 
ATOM     19  C   UNL     1      13.584 -31.304  23.865  1.00  0.00     0.008 C 
ENDBRANCH  12  17
ENDBRANCH  11  12
ENDBRANCH   1  11
TORSDOF 1
ENDMDL
MODEL 6
REMARK VINA RESULT:    -3.841      2.579      5.233
REMARK INTER + INTRA:          -6.134
REMARK INTER:                  -5.768
REMARK INTRA:                  -0.366
REMARK UNBOUND:                -0.271
REMARK SMILES CC1=CCC[C@@H](C)C(=O)C[C@H](C(C)C)C(=O)C1
REMARK SMILES IDX 8 1 9 2 6 3 7 4 5 5 4 6 3 7 2 8 1 9 10 11 11 12 15 13 16 14
REMARK SMILES IDX 17 15 12 17 13 18 14 19
REMARK H PARENT
REMARK Flexibility Score: 70.00
ROOT
ATOM      1  C   UNL     1      17.621 -36.114  21.484  1.00  0.00     0.136 C 
ATOM      2  O   UNL     1      18.522 -36.941  21.514  1.00  0.00    -0.299 OA
ENDROOT
BRANCH   1   3
ATOM      3  C   UNL     1      16.910 -35.872  20.162  1.00  0.00     0.053 C 
ATOM      4  C   UNL     1      17.766 -35.010  19.226  1.00  0.00     0.016 C 
BRANCH   3   5
ATOM      5  C   UNL     1      15.507 -35.259  20.347  1.00  0.00     0.015 C 
BRANCH   5   6
ATOM      6  C   UNL     1      15.509 -33.714  20.262  1.00  0.00     0.028 C 
BRANCH   6   7
ATOM      7  C   UNL     1      14.615 -33.113  21.321  1.00  0.00    -0.028 C 
ATOM      8  C   UNL     1      15.024 -32.296  22.322  1.00  0.00    -0.070 CG0
ATOM      9  C   UNL     1      13.973 -31.685  23.212  1.00  0.00     0.039 C 
ATOM     10  G   UNL     1      16.487 -31.974  22.588  1.00  0.00     0.000 G0
ENDBRANCH   6   7
ENDBRANCH   5   6
ENDBRANCH   3   5
ENDBRANCH   1   3
BRANCH   1  11
ATOM     11  C   UNL     1      17.270 -35.382  22.765  1.00  0.00     0.087 C 
BRANCH  11  12
ATOM     12  C   UNL     1      18.101 -34.087  22.980  1.00  0.00     0.066 C 
BRANCH  12  13
ATOM     13  C   UNL     1      17.243 -32.933  23.491  1.00  0.00     0.140 C 
ATOM     14  O   UNL     1      17.138 -32.769  24.697  1.00  0.00    -0.299 OA
BRANCH  13  15
ATOM     15  C   UNL     1      16.501 -31.966  22.588  1.00  0.00     0.106 CG0
ATOM     16  G   UNL     1      15.044 -32.304  22.311  1.00  0.00     0.000 G0
ENDBRANCH  13  15
ENDBRANCH  12  13
BRANCH  12  17
ATOM     17  C   UNL     1      19.364 -34.286  23.876  1.00  0.00    -0.006 C 
ATOM     18  C   UNL     1      19.334 -35.550  24.754  1.00  0.00     0.008 C 
ATOM     19  C   UNL     1      20.658 -34.260  23.047  1.00  0.00     0.008 C 
ENDBRANCH  12  17
ENDBRANCH  11  12
ENDBRANCH   1  11
TORSDOF 1
ENDMDL
MODEL 7
REMARK VINA RESULT:    -3.824      2.104      4.511
REMARK INTER + INTRA:          -6.106
REMARK INTER:                  -5.764
REMARK INTRA:                  -0.342
REMARK UNBOUND:                -0.271
REMARK SMILES CC1=CCC[C@@H](C)C(=O)C[C@H](C(C)C)C(=O)C1
REMARK SMILES IDX 8 1 9 2 6 3 7 4 5 5 4 6 3 7 2 8 1 9 10 11 11 12 15 13 16 14
REMARK SMILES IDX 17 15 12 17 13 18 14 19
REMARK H PARENT
REMARK Flexibility Score: 70.00
ROOT
ATOM      1  C   UNL     1      17.843 -34.791  21.395  1.00  0.00     0.136 C 
ATOM      2  O   UNL     1      18.873 -35.439  21.271  1.00  0.00    -0.299 OA
ENDROOT
BRANCH   1   3
ATOM      3  C   UNL     1      17.527 -33.733  20.349  1.00  0.00     0.053 C 
ATOM      4  C   UNL     1      17.603 -34.319  18.934  1.00  0.00     0.016 C 
BRANCH   3   5
ATOM      5  C   UNL     1      18.426 -32.486  20.478  1.00  0.00     0.015 C 
BRANCH   5   6
ATOM      6  C   UNL     1      17.710 -31.298  21.165  1.00  0.00     0.028 C 
BRANCH   6   7
ATOM      7  C   UNL     1      16.234 -31.300  20.845  1.00  0.00    -0.028 C 
ATOM      8  C   UNL     1      15.235 -31.413  21.754  1.00  0.00    -0.070 CG0
ATOM      9  C   UNL     1      13.816 -31.264  21.269  1.00  0.00     0.039 C 
ATOM     10  G   UNL     1      15.479 -31.687  23.230  1.00  0.00     0.000 G0
ENDBRANCH   6   7
ENDBRANCH   5   6
ENDBRANCH   3   5
ENDBRANCH   1   3
BRANCH   1  11
ATOM     11  C   UNL     1      16.946 -35.081  22.583  1.00  0.00     0.087 C 
BRANCH  11  12
ATOM     12  C   UNL     1      16.925 -33.935  23.632  1.00  0.00     0.066 C 
BRANCH  12  13
ATOM     13  C   UNL     1      15.603 -33.172  23.622  1.00  0.00     0.140 C 
ATOM     14  O   UNL     1      14.581 -33.765  23.934  1.00  0.00    -0.299 OA
BRANCH  13  15
ATOM     15  C   UNL     1      15.473 -31.709  23.242  1.00  0.00     0.106 CG0
ATOM     16  G   UNL     1      15.233 -31.426  21.767  1.00  0.00     0.000 G0
ENDBRANCH  13  15
ENDBRANCH  12  13
BRANCH  12  17
ATOM     17  C   UNL     1      17.298 -34.391  25.078  1.00  0.00    -0.006 C 
ATOM     18  C   UNL     1      17.732 -35.863  25.192  1.00  0.00     0.008 C 
ATOM     19  C   UNL     1      18.370 -33.483  25.701  1.00  0.00     0.008 C 
ENDBRANCH  12  17
ENDBRANCH  11  12
ENDBRANCH   1  11
TORSDOF 1
ENDMDL
MODEL 8
REMARK VINA RESULT:    -3.793      1.447      2.030
REMARK INTER + INTRA:          -6.059
REMARK INTER:                  -5.668
REMARK INTRA:                  -0.391
REMARK UNBOUND:                -0.271
REMARK SMILES CC1=CCC[C@@H](C)C(=O)C[C@H](C(C)C)C(=O)C1
REMARK SMILES IDX 8 1 9 2 6 3 7 4 5 5 4 6 3 7 2 8 1 9 10 11 11 12 15 13 16 14
REMARK SMILES IDX 17 15 12 17 13 18 14 19
REMARK H PARENT
REMARK Flexibility Score: 70.00
ROOT
ATOM      1  C   UNL     1      17.579 -30.628  22.576  1.00  0.00     0.136 C 
ATOM      2  O   UNL     1      17.156 -29.631  22.008  1.00  0.00    -0.299 OA
ENDROOT
BRANCH   1   3
ATOM      3  C   UNL     1      18.990 -31.096  22.255  1.00  0.00     0.053 C 
ATOM      4  C   UNL     1      19.042 -31.794  20.891  1.00  0.00     0.016 C 
BRANCH   3   5
ATOM      5  C   UNL     1      19.581 -31.997  23.359  1.00  0.00     0.015 C 
BRANCH   5   6
ATOM      6  C   UNL     1      19.590 -33.495  22.970  1.00  0.00     0.028 C 
BRANCH   6   7
ATOM      7  C   UNL     1      19.129 -34.355  24.124  1.00  0.00    -0.028 C 
ATOM      8  C   UNL     1      17.922 -34.964  24.214  1.00  0.00    -0.070 CG0
ATOM      9  C   UNL     1      17.681 -35.890  25.379  1.00  0.00     0.039 C 
ATOM     10  G   UNL     1      16.804 -34.752  23.203  1.00  0.00     0.000 G0
ENDBRANCH   6   7
ENDBRANCH   5   6
ENDBRANCH   3   5
ENDBRANCH   1   3
BRANCH   1  11
ATOM     11  C   UNL     1      16.671 -31.336  23.564  1.00  0.00     0.087 C 
BRANCH  11  12
ATOM     12  C   UNL     1      15.696 -32.341  22.890  1.00  0.00     0.066 C 
BRANCH  12  13
ATOM     13  C   UNL     1      15.753 -33.720  23.541  1.00  0.00     0.140 C 
ATOM     14  O   UNL     1      14.922 -34.003  24.391  1.00  0.00    -0.299 OA
BRANCH  13  15
ATOM     15  C   UNL     1      16.790 -34.774  23.201  1.00  0.00     0.106 CG0
ATOM     16  G   UNL     1      17.911 -34.952  24.213  1.00  0.00     0.000 G0
ENDBRANCH  13  15
ENDBRANCH  12  13
BRANCH  12  17
ATOM     17  C   UNL     1      14.225 -31.827  22.793  1.00  0.00    -0.006 C 
ATOM     18  C   UNL     1      13.862 -30.726  23.804  1.00  0.00     0.008 C 
ATOM     19  C   UNL     1      13.879 -31.360  21.370  1.00  0.00     0.008 C 
ENDBRANCH  12  17
ENDBRANCH  11  12
ENDBRANCH   1  11
TORSDOF 1
ENDMDL
MODEL 9
REMARK VINA RESULT:    -3.729      2.636      5.300
REMARK INTER + INTRA:          -5.962
REMARK INTER:                  -5.749
REMARK INTRA:                  -0.213
REMARK UNBOUND:                -0.271
REMARK SMILES CC1=CCC[C@@H](C)C(=O)C[C@H](C(C)C)C(=O)C1
REMARK SMILES IDX 8 1 9 2 6 3 7 4 5 5 4 6 3 7 2 8 1 9 10 11 11 12 15 13 16 14
REMARK SMILES IDX 17 15 12 17 13 18 14 19
REMARK H PARENT
REMARK Flexibility Score: 70.00
ROOT
ATOM      1  C   UNL     1      17.332 -35.438  21.964  1.00  0.00     0.136 C 
ATOM      2  O   UNL     1      18.004 -36.437  21.744  1.00  0.00    -0.299 OA
ENDROOT
BRANCH   1   3
ATOM      3  C   UNL     1      16.831 -34.632  20.776  1.00  0.00     0.053 C 
ATOM      4  C   UNL     1      15.923 -35.482  19.877  1.00  0.00     0.016 C 
BRANCH   3   5
ATOM      5  C   UNL     1      17.979 -34.002  19.961  1.00  0.00     0.015 C 
BRANCH   5   6
ATOM      6  C   UNL     1      18.412 -32.619  20.502  1.00  0.00     0.028 C 
BRANCH   6   7
ATOM      7  C   UNL     1      17.294 -31.973  21.286  1.00  0.00    -0.028 C 
ATOM      8  C   UNL     1      17.345 -31.649  22.602  1.00  0.00    -0.070 CG0
ATOM      9  C   UNL     1      16.182 -30.891  23.190  1.00  0.00     0.039 C 
ATOM     10  G   UNL     1      18.511 -32.019  23.506  1.00  0.00     0.000 G0
ENDBRANCH   6   7
ENDBRANCH   5   6
ENDBRANCH   3   5
ENDBRANCH   1   3
BRANCH   1  11
ATOM     11  C   UNL     1      17.040 -35.067  23.405  1.00  0.00     0.087 C 
BRANCH  11  12
ATOM     12  C   UNL     1      18.301 -34.607  24.187  1.00  0.00     0.066 C 
BRANCH  12  13
ATOM     13  C   UNL     1      18.254 -33.120  24.526  1.00  0.00     0.140 C 
ATOM     14  O   UNL     1      17.993 -32.787  25.673  1.00  0.00    -0.299 OA
BRANCH  13  15
ATOM     15  C   UNL     1      18.512 -32.014  23.520  1.00  0.00     0.106 CG0
ATOM     16  G   UNL     1      17.345 -31.661  22.610  1.00  0.00     0.000 G0
ENDBRANCH  13  15
ENDBRANCH  12  13
BRANCH  12  17
ATOM     17  C   UNL     1      18.607 -35.462  25.457  1.00  0.00    -0.006 C 
ATOM     18  C   UNL     1      17.398 -36.232  26.017  1.00  0.00     0.008 C 
ATOM     19  C   UNL     1      19.776 -36.431  25.222  1.00  0.00     0.008 C 
ENDBRANCH  12  17
ENDBRANCH  11  12
ENDBRANCH   1  11
TORSDOF 1
ENDMDL
