MODEL 1
REMARK VINA RESULT:    -4.162      0.000      0.000
REMARK INTER + INTRA:         -14.939
REMARK INTER:                 -10.487
REMARK INTRA:                  -4.453
REMARK UNBOUND:                -4.453
REMARK SMILES CCCCCCCCCCCCCCCCCCCCCCCCCCCC(=O)[O-]
REMARK SMILES IDX 15 1 16 2 17 3 18 4 19 5 20 6 21 7 22 8 23 9 24 10 25 11
REMARK SMILES IDX 26 12 27 13 28 14 29 15 30 16 14 17 13 18 12 19 11 20 10 21
REMARK SMILES IDX 9 22 8 23 7 24 6 25 5 26 4 27 3 28 2 29 1 30
REMARK H PARENT
REMARK Flexibility Score: inf
ROOT
ATOM      1  C   UNL     1       8.347  -4.806  33.388  1.00  0.00     0.000 C 
ENDROOT
BRANCH   1   2
ATOM      2  C   UNL     1       8.144  -3.611  34.334  1.00  0.00     0.000 C 
BRANCH   2   3
ATOM      3  C   UNL     1       7.783  -4.098  35.744  1.00  0.00     0.000 C 
BRANCH   3   4
ATOM      4  C   UNL     1       6.453  -4.869  35.755  1.00  0.00     0.000 C 
BRANCH   4   5
ATOM      5  C   UNL     1       6.575  -6.231  36.463  1.00  0.00     0.000 C 
BRANCH   5   6
ATOM      6  C   UNL     1       7.790  -6.358  37.406  1.00  0.00     0.000 C 
BRANCH   6   7
ATOM      7  C   UNL     1       8.159  -7.798  37.820  1.00  0.00     0.000 C 
BRANCH   7   8
ATOM      8  C   UNL     1       9.204  -7.899  38.944  1.00  0.00     0.000 C 
BRANCH   8   9
ATOM      9  C   UNL     1      10.361  -6.900  38.764  1.00  0.00     0.000 C 
BRANCH   9  10
ATOM     10  C   UNL     1      11.336  -7.329  37.655  1.00  0.00     0.000 C 
BRANCH  10  11
ATOM     11  C   UNL     1      11.545  -6.228  36.603  1.00  0.00     0.000 C 
BRANCH  11  12
ATOM     12  C   UNL     1      11.413  -4.840  37.236  1.00  0.00     0.006 C 
BRANCH  12  13
ATOM     13  C   UNL     1      11.415  -3.738  36.171  1.00  0.00     0.053 C 
BRANCH  13  14
ATOM     14  C   UNL     1      12.737  -3.039  36.151  1.00  0.00     0.041 C 
ATOM     15  O   UNL     1      12.818  -1.821  36.461  1.00  0.00    -0.550 OA
ATOM     16  O   UNL     1      13.869  -3.712  35.709  1.00  0.00    -0.550 OA
ENDBRANCH  13  14
ENDBRANCH  12  13
ENDBRANCH  11  12
ENDBRANCH  10  11
ENDBRANCH   9  10
ENDBRANCH   8   9
ENDBRANCH   7   8
ENDBRANCH   6   7
ENDBRANCH   5   6
ENDBRANCH   4   5
ENDBRANCH   3   4
ENDBRANCH   2   3
ENDBRANCH   1   2
BRANCH   1  17
ATOM     17  C   UNL     1       9.344  -5.839  33.933  1.00  0.00     0.000 C 
BRANCH  17  18
ATOM     18  C   UNL     1       8.857  -7.286  33.773  1.00  0.00     0.000 C 
BRANCH  18  19
ATOM     19  C   UNL     1       9.980  -8.274  34.127  1.00  0.00     0.000 C 
BRANCH  19  20
ATOM     20  C   UNL     1       9.516  -9.381  35.086  1.00  0.00     0.000 C 
BRANCH  20  21
ATOM     21  C   UNL     1      10.583 -10.469  35.302  1.00  0.00     0.000 C 
BRANCH  21  22
ATOM     22  C   UNL     1      10.272 -11.367  36.511  1.00  0.00    -0.000 C 
BRANCH  22  23
ATOM     23  C   UNL     1      11.513 -11.638  37.378  1.00  0.00    -0.000 C 
BRANCH  23  24
ATOM     24  C   UNL     1      11.617 -10.693  38.590  1.00  0.00    -0.000 C 
BRANCH  24  25
ATOM     25  C   UNL     1      13.054 -10.371  39.042  1.00  0.00    -0.000 C 
BRANCH  25  26
ATOM     26  C   UNL     1      13.997 -11.582  38.956  1.00  0.00    -0.000 C 
BRANCH  26  27
ATOM     27  C   UNL     1      15.461 -11.132  38.863  1.00  0.00    -0.000 C 
BRANCH  27  28
ATOM     28  C   UNL     1      15.555  -9.675  38.386  1.00  0.00    -0.000 C 
BRANCH  28  29
ATOM     29  C   UNL     1      16.871  -9.378  37.654  1.00  0.00    -0.003 C 
ATOM     30  C   UNL     1      17.269 -10.488  36.681  1.00  0.00     0.004 C 
ENDBRANCH  28  29
ENDBRANCH  27  28
ENDBRANCH  26  27
ENDBRANCH  25  26
ENDBRANCH  24  25
ENDBRANCH  23  24
ENDBRANCH  22  23
ENDBRANCH  21  22
ENDBRANCH  20  21
ENDBRANCH  19  20
ENDBRANCH  18  19
ENDBRANCH  17  18
ENDBRANCH   1  17
TORSDOF 26
ENDMDL
MODEL 2
REMARK VINA RESULT:    -4.160      2.886      4.098
REMARK INTER + INTRA:         -14.936
REMARK INTER:                 -10.274
REMARK INTRA:                  -4.662
REMARK UNBOUND:                -4.453
REMARK SMILES CCCCCCCCCCCCCCCCCCCCCCCCCCCC(=O)[O-]
REMARK SMILES IDX 15 1 16 2 17 3 18 4 19 5 20 6 21 7 22 8 23 9 24 10 25 11
REMARK SMILES IDX 26 12 27 13 28 14 29 15 30 16 14 17 13 18 12 19 11 20 10 21
REMARK SMILES IDX 9 22 8 23 7 24 6 25 5 26 4 27 3 28 2 29 1 30
REMARK H PARENT
REMARK Flexibility Score: inf
ROOT
ATOM      1  C   UNL     1       8.314  -4.371  33.879  1.00  0.00     0.000 C 
ENDROOT
BRANCH   1   2
ATOM      2  C   UNL     1       7.494  -4.522  35.170  1.00  0.00     0.000 C 
BRANCH   2   3
ATOM      3  C   UNL     1       7.791  -3.366  36.134  1.00  0.00     0.000 C 
BRANCH   3   4
ATOM      4  C   UNL     1       8.495  -3.856  37.409  1.00  0.00     0.000 C 
BRANCH   4   5
ATOM      5  C   UNL     1       9.992  -3.499  37.423  1.00  0.00     0.000 C 
BRANCH   5   6
ATOM      6  C   UNL     1      10.853  -4.299  36.422  1.00  0.00     0.000 C 
BRANCH   6   7
ATOM      7  C   UNL     1      11.193  -5.742  36.847  1.00  0.00     0.000 C 
BRANCH   7   8
ATOM      8  C   UNL     1      11.271  -5.966  38.367  1.00  0.00     0.000 C 
BRANCH   8   9
ATOM      9  C   UNL     1      10.089  -6.793  38.903  1.00  0.00     0.000 C 
BRANCH   9  10
ATOM     10  C   UNL     1       9.131  -7.236  37.784  1.00  0.00     0.000 C 
BRANCH  10  11
ATOM     11  C   UNL     1       7.685  -7.392  38.279  1.00  0.00     0.000 C 
BRANCH  11  12
ATOM     12  C   UNL     1       6.753  -7.766  37.122  1.00  0.00     0.006 C 
BRANCH  12  13
ATOM     13  C   UNL     1       5.294  -7.846  37.584  1.00  0.00     0.053 C 
BRANCH  13  14
ATOM     14  C   UNL     1       4.390  -7.242  36.556  1.00  0.00     0.041 C 
ATOM     15  O   UNL     1       3.176  -7.035  36.819  1.00  0.00    -0.550 OA
ATOM     16  O   UNL     1       4.870  -6.985  35.278  1.00  0.00    -0.550 OA
ENDBRANCH  13  14
ENDBRANCH  12  13
ENDBRANCH  11  12
ENDBRANCH  10  11
ENDBRANCH   9  10
ENDBRANCH   8   9
ENDBRANCH   7   8
ENDBRANCH   6   7
ENDBRANCH   5   6
ENDBRANCH   4   5
ENDBRANCH   3   4
ENDBRANCH   2   3
ENDBRANCH   1   2
BRANCH   1  17
ATOM     17  C   UNL     1       8.945  -5.691  33.413  1.00  0.00     0.000 C 
BRANCH  17  18
ATOM     18  C   UNL     1       8.347  -6.922  34.108  1.00  0.00     0.000 C 
BRANCH  18  19
ATOM     19  C   UNL     1       9.064  -8.201  33.650  1.00  0.00     0.000 C 
BRANCH  19  20
ATOM     20  C   UNL     1      10.397  -8.427  34.379  1.00  0.00     0.000 C 
BRANCH  20  21
ATOM     21  C   UNL     1      10.534  -9.854  34.942  1.00  0.00     0.000 C 
BRANCH  21  22
ATOM     22  C   UNL     1       9.350 -10.248  35.839  1.00  0.00    -0.000 C 
BRANCH  22  23
ATOM     23  C   UNL     1       9.801 -10.777  37.212  1.00  0.00    -0.000 C 
BRANCH  23  24
ATOM     24  C   UNL     1      11.318 -10.644  37.437  1.00  0.00    -0.000 C 
BRANCH  24  25
ATOM     25  C   UNL     1      11.724 -10.061  38.804  1.00  0.00    -0.000 C 
BRANCH  25  26
ATOM     26  C   UNL     1      12.979  -9.178  38.733  1.00  0.00    -0.000 C 
BRANCH  26  27
ATOM     27  C   UNL     1      14.250 -10.033  38.663  1.00  0.00    -0.000 C 
BRANCH  27  28
ATOM     28  C   UNL     1      15.477  -9.162  38.350  1.00  0.00    -0.000 C 
BRANCH  28  29
ATOM     29  C   UNL     1      16.779  -9.974  38.305  1.00  0.00    -0.003 C 
ATOM     30  C   UNL     1      17.292 -10.189  36.881  1.00  0.00     0.004 C 
ENDBRANCH  28  29
ENDBRANCH  27  28
ENDBRANCH  26  27
ENDBRANCH  25  26
ENDBRANCH  24  25
ENDBRANCH  23  24
ENDBRANCH  22  23
ENDBRANCH  21  22
ENDBRANCH  20  21
ENDBRANCH  19  20
ENDBRANCH  18  19
ENDBRANCH  17  18
ENDBRANCH   1  17
TORSDOF 26
ENDMDL
MODEL 3
REMARK VINA RESULT:    -4.137      3.047      6.372
REMARK INTER + INTRA:         -14.878
REMARK INTER:                  -9.616
REMARK INTRA:                  -5.262
REMARK UNBOUND:                -4.453
REMARK SMILES CCCCCCCCCCCCCCCCCCCCCCCCCCCC(=O)[O-]
REMARK SMILES IDX 15 1 16 2 17 3 18 4 19 5 20 6 21 7 22 8 23 9 24 10 25 11
REMARK SMILES IDX 26 12 27 13 28 14 29 15 30 16 14 17 13 18 12 19 11 20 10 21
REMARK SMILES IDX 9 22 8 23 7 24 6 25 5 26 4 27 3 28 2 29 1 30
REMARK H PARENT
REMARK Flexibility Score: inf
ROOT
ATOM      1  C   UNL     1      10.429  -8.718  33.935  1.00  0.00     0.000 C 
ENDROOT
BRANCH   1   2
ATOM      2  C   UNL     1       9.435  -7.833  33.165  1.00  0.00     0.000 C 
BRANCH   2   3
ATOM      3  C   UNL     1       9.096  -6.575  33.976  1.00  0.00     0.000 C 
BRANCH   3   4
ATOM      4  C   UNL     1       8.858  -5.360  33.065  1.00  0.00     0.000 C 
BRANCH   4   5
ATOM      5  C   UNL     1       8.330  -4.142  33.844  1.00  0.00     0.000 C 
BRANCH   5   6
ATOM      6  C   UNL     1       7.626  -4.486  35.174  1.00  0.00     0.000 C 
BRANCH   6   7
ATOM      7  C   UNL     1       7.779  -3.436  36.295  1.00  0.00     0.000 C 
BRANCH   7   8
ATOM      8  C   UNL     1       8.495  -3.942  37.558  1.00  0.00     0.000 C 
BRANCH   8   9
ATOM      9  C   UNL     1       8.567  -5.478  37.621  1.00  0.00     0.000 C 
BRANCH   9  10
ATOM     10  C   UNL     1       9.963  -5.981  38.024  1.00  0.00     0.000 C 
BRANCH  10  11
ATOM     11  C   UNL     1      11.080  -5.016  37.596  1.00  0.00     0.000 C 
BRANCH  11  12
ATOM     12  C   UNL     1      11.517  -5.297  36.155  1.00  0.00     0.006 C 
BRANCH  12  13
ATOM     13  C   UNL     1      11.714  -3.997  35.368  1.00  0.00     0.053 C 
BRANCH  13  14
ATOM     14  C   UNL     1      12.815  -3.187  35.975  1.00  0.00     0.041 C 
ATOM     15  O   UNL     1      12.602  -2.005  36.353  1.00  0.00    -0.550 OA
ATOM     16  O   UNL     1      14.101  -3.708  36.045  1.00  0.00    -0.550 OA
ENDBRANCH  13  14
ENDBRANCH  12  13
ENDBRANCH  11  12
ENDBRANCH  10  11
ENDBRANCH   9  10
ENDBRANCH   8   9
ENDBRANCH   7   8
ENDBRANCH   6   7
ENDBRANCH   5   6
ENDBRANCH   4   5
ENDBRANCH   3   4
ENDBRANCH   2   3
ENDBRANCH   1   2
BRANCH   1  17
ATOM     17  C   UNL     1      10.175  -8.727  35.449  1.00  0.00     0.000 C 
BRANCH  17  18
ATOM     18  C   UNL     1       9.807 -10.117  35.988  1.00  0.00     0.000 C 
BRANCH  18  19
ATOM     19  C   UNL     1       8.292 -10.221  36.217  1.00  0.00     0.000 C 
BRANCH  19  20
ATOM     20  C   UNL     1       7.616  -8.848  36.354  1.00  0.00     0.000 C 
BRANCH  20  21
ATOM     21  C   UNL     1       6.480  -8.639  35.336  1.00  0.00     0.000 C 
BRANCH  21  22
ATOM     22  C   UNL     1       5.593  -7.433  35.684  1.00  0.00    -0.000 C 
BRANCH  22  23
ATOM     23  C   UNL     1       4.152  -7.593  35.170  1.00  0.00    -0.000 C 
BRANCH  23  24
ATOM     24  C   UNL     1       3.102  -7.525  36.295  1.00  0.00    -0.000 C 
BRANCH  24  25
ATOM     25  C   UNL     1       3.493  -8.255  37.593  1.00  0.00    -0.000 C 
BRANCH  25  26
ATOM     26  C   UNL     1       2.908  -9.673  37.686  1.00  0.00    -0.000 C 
BRANCH  26  27
ATOM     27  C   UNL     1       3.876 -10.621  38.406  1.00  0.00    -0.000 C 
BRANCH  27  28
ATOM     28  C   UNL     1       4.902 -11.203  37.422  1.00  0.00    -0.000 C 
BRANCH  28  29
ATOM     29  C   UNL     1       4.255 -12.099  36.357  1.00  0.00    -0.003 C 
ATOM     30  C   UNL     1       4.551 -11.630  34.932  1.00  0.00     0.004 C 
ENDBRANCH  28  29
ENDBRANCH  27  28
ENDBRANCH  26  27
ENDBRANCH  25  26
ENDBRANCH  24  25
ENDBRANCH  23  24
ENDBRANCH  22  23
ENDBRANCH  21  22
ENDBRANCH  20  21
ENDBRANCH  19  20
ENDBRANCH  18  19
ENDBRANCH  17  18
ENDBRANCH   1  17
TORSDOF 26
ENDMDL
MODEL 4
REMARK VINA RESULT:    -4.115      2.254      3.705
REMARK INTER + INTRA:         -14.822
REMARK INTER:                 -11.053
REMARK INTRA:                  -3.769
REMARK UNBOUND:                -4.453
REMARK SMILES CCCCCCCCCCCCCCCCCCCCCCCCCCCC(=O)[O-]
REMARK SMILES IDX 15 1 16 2 17 3 18 4 19 5 20 6 21 7 22 8 23 9 24 10 25 11
REMARK SMILES IDX 26 12 27 13 28 14 29 15 30 16 14 17 13 18 12 19 11 20 10 21
REMARK SMILES IDX 9 22 8 23 7 24 6 25 5 26 4 27 3 28 2 29 1 30
REMARK H PARENT
REMARK Flexibility Score: inf
ROOT
ATOM      1  C   UNL     1       8.712  -7.026  33.816  1.00  0.00     0.000 C 
ENDROOT
BRANCH   1   2
ATOM      2  C   UNL     1       9.116  -5.596  33.422  1.00  0.00     0.000 C 
BRANCH   2   3
ATOM      3  C   UNL     1       9.739  -4.865  34.619  1.00  0.00     0.000 C 
BRANCH   3   4
ATOM      4  C   UNL     1      11.265  -5.037  34.658  1.00  0.00     0.000 C 
BRANCH   4   5
ATOM      5  C   UNL     1      11.985  -3.754  35.114  1.00  0.00     0.000 C 
BRANCH   5   6
ATOM      6  C   UNL     1      12.448  -3.767  36.586  1.00  0.00     0.000 C 
BRANCH   6   7
ATOM      7  C   UNL     1      13.944  -4.075  36.807  1.00  0.00     0.000 C 
BRANCH   7   8
ATOM      8  C   UNL     1      14.232  -5.125  37.894  1.00  0.00     0.000 C 
BRANCH   8   9
ATOM      9  C   UNL     1      12.959  -5.574  38.633  1.00  0.00     0.000 C 
BRANCH   9  10
ATOM     10  C   UNL     1      12.621  -7.051  38.369  1.00  0.00     0.000 C 
BRANCH  10  11
ATOM     11  C   UNL     1      11.366  -7.218  37.498  1.00  0.00     0.000 C 
BRANCH  11  12
ATOM     12  C   UNL     1      10.152  -7.579  38.360  1.00  0.00     0.006 C 
BRANCH  12  13
ATOM     13  C   UNL     1       9.126  -6.442  38.382  1.00  0.00     0.053 C 
BRANCH  13  14
ATOM     14  C   UNL     1       7.993  -6.748  37.454  1.00  0.00     0.041 C 
ATOM     15  O   UNL     1       7.304  -5.816  36.961  1.00  0.00    -0.550 OA
ATOM     16  O   UNL     1       7.645  -8.069  37.199  1.00  0.00    -0.550 OA
ENDBRANCH  13  14
ENDBRANCH  12  13
ENDBRANCH  11  12
ENDBRANCH  10  11
ENDBRANCH   9  10
ENDBRANCH   8   9
ENDBRANCH   7   8
ENDBRANCH   6   7
ENDBRANCH   5   6
ENDBRANCH   4   5
ENDBRANCH   3   4
ENDBRANCH   2   3
ENDBRANCH   1   2
BRANCH   1  17
ATOM     17  C   UNL     1       9.574  -8.101  33.137  1.00  0.00     0.000 C 
BRANCH  17  18
ATOM     18  C   UNL     1      10.538  -8.798  34.107  1.00  0.00     0.000 C 
BRANCH  18  19
ATOM     19  C   UNL     1       9.787  -9.825  34.968  1.00  0.00     0.000 C 
BRANCH  19  20
ATOM     20  C   UNL     1      10.689 -10.495  36.015  1.00  0.00     0.000 C 
BRANCH  20  21
ATOM     21  C   UNL     1      11.192 -11.880  35.569  1.00  0.00     0.000 C 
BRANCH  21  22
ATOM     22  C   UNL     1      11.303 -12.871  36.740  1.00  0.00    -0.000 C 
BRANCH  22  23
ATOM     23  C   UNL     1      12.757 -13.084  37.196  1.00  0.00    -0.000 C 
BRANCH  23  24
ATOM     24  C   UNL     1      13.024 -12.548  38.615  1.00  0.00    -0.000 C 
BRANCH  24  25
ATOM     25  C   UNL     1      12.846 -11.027  38.780  1.00  0.00    -0.000 C 
BRANCH  25  26
ATOM     26  C   UNL     1      14.163 -10.248  38.640  1.00  0.00    -0.000 C 
BRANCH  26  27
ATOM     27  C   UNL     1      15.366 -11.138  38.976  1.00  0.00    -0.000 C 
BRANCH  27  28
ATOM     28  C   UNL     1      16.675 -10.336  38.904  1.00  0.00    -0.000 C 
BRANCH  28  29
ATOM     29  C   UNL     1      16.848  -9.611  37.562  1.00  0.00    -0.003 C 
ATOM     30  C   UNL     1      17.474 -10.499  36.487  1.00  0.00     0.004 C 
ENDBRANCH  28  29
ENDBRANCH  27  28
ENDBRANCH  26  27
ENDBRANCH  25  26
ENDBRANCH  24  25
ENDBRANCH  23  24
ENDBRANCH  22  23
ENDBRANCH  21  22
ENDBRANCH  20  21
ENDBRANCH  19  20
ENDBRANCH  18  19
ENDBRANCH  17  18
ENDBRANCH   1  17
TORSDOF 26
ENDMDL
MODEL 5
REMARK VINA RESULT:    -4.093      2.487      5.299
REMARK INTER + INTRA:         -14.767
REMARK INTER:                  -8.920
REMARK INTRA:                  -5.847
REMARK UNBOUND:                -4.453
REMARK SMILES CCCCCCCCCCCCCCCCCCCCCCCCCCCC(=O)[O-]
REMARK SMILES IDX 15 1 16 2 17 3 18 4 19 5 20 6 21 7 22 8 23 9 24 10 25 11
REMARK SMILES IDX 26 12 27 13 28 14 29 15 30 16 14 17 13 18 12 19 11 20 10 21
REMARK SMILES IDX 9 22 8 23 7 24 6 25 5 26 4 27 3 28 2 29 1 30
REMARK H PARENT
REMARK Flexibility Score: inf
ROOT
ATOM      1  C   UNL     1       9.012  -6.985  33.651  1.00  0.00     0.000 C 
ENDROOT
BRANCH   1   2
ATOM      2  C   UNL     1      10.057  -6.070  34.309  1.00  0.00     0.000 C 
BRANCH   2   3
ATOM      3  C   UNL     1       9.550  -4.623  34.357  1.00  0.00     0.000 C 
BRANCH   3   4
ATOM      4  C   UNL     1       8.029  -4.547  34.150  1.00  0.00     0.000 C 
BRANCH   4   5
ATOM      5  C   UNL     1       7.269  -4.352  35.474  1.00  0.00     0.000 C 
BRANCH   5   6
ATOM      6  C   UNL     1       8.075  -3.633  36.577  1.00  0.00     0.000 C 
BRANCH   6   7
ATOM      7  C   UNL     1       8.352  -4.467  37.845  1.00  0.00     0.000 C 
BRANCH   7   8
ATOM      8  C   UNL     1       7.961  -5.951  37.739  1.00  0.00     0.000 C 
BRANCH   8   9
ATOM      9  C   UNL     1       9.184  -6.876  37.613  1.00  0.00     0.000 C 
BRANCH   9  10
ATOM     10  C   UNL     1      10.391  -6.362  38.416  1.00  0.00     0.000 C 
BRANCH  10  11
ATOM     11  C   UNL     1      11.722  -6.595  37.686  1.00  0.00     0.000 C 
BRANCH  11  12
ATOM     12  C   UNL     1      12.553  -5.308  37.648  1.00  0.00     0.006 C 
BRANCH  12  13
ATOM     13  C   UNL     1      11.745  -4.139  37.074  1.00  0.00     0.053 C 
BRANCH  13  14
ATOM     14  C   UNL     1      12.575  -3.366  36.098  1.00  0.00     0.041 C 
ATOM     15  O   UNL     1      13.095  -3.943  35.107  1.00  0.00    -0.550 OA
ATOM     16  O   UNL     1      12.844  -2.023  36.329  1.00  0.00    -0.550 OA
ENDBRANCH  13  14
ENDBRANCH  12  13
ENDBRANCH  11  12
ENDBRANCH  10  11
ENDBRANCH   9  10
ENDBRANCH   8   9
ENDBRANCH   7   8
ENDBRANCH   6   7
ENDBRANCH   5   6
ENDBRANCH   4   5
ENDBRANCH   3   4
ENDBRANCH   2   3
ENDBRANCH   1   2
BRANCH   1  17
ATOM     17  C   UNL     1       9.612  -8.294  33.118  1.00  0.00     0.000 C 
BRANCH  17  18
ATOM     18  C   UNL     1      10.537  -8.986  34.129  1.00  0.00     0.000 C 
BRANCH  18  19
ATOM     19  C   UNL     1       9.716  -9.623  35.260  1.00  0.00     0.000 C 
BRANCH  19  20
ATOM     20  C   UNL     1      10.518 -10.655  36.067  1.00  0.00     0.000 C 
BRANCH  20  21
ATOM     21  C   UNL     1      10.306 -10.519  37.586  1.00  0.00     0.000 C 
BRANCH  21  22
ATOM     22  C   UNL     1       9.015 -11.204  38.064  1.00  0.00    -0.000 C 
BRANCH  22  23
ATOM     23  C   UNL     1       8.125 -10.267  38.898  1.00  0.00    -0.000 C 
BRANCH  23  24
ATOM     24  C   UNL     1       6.942  -9.692  38.096  1.00  0.00    -0.000 C 
BRANCH  24  25
ATOM     25  C   UNL     1       6.269 -10.684  37.129  1.00  0.00    -0.000 C 
BRANCH  25  26
ATOM     26  C   UNL     1       5.855 -10.039  35.797  1.00  0.00    -0.000 C 
BRANCH  26  27
ATOM     27  C   UNL     1       6.359  -8.593  35.707  1.00  0.00    -0.000 C 
BRANCH  27  28
ATOM     28  C   UNL     1       5.537  -7.792  34.685  1.00  0.00    -0.000 C 
BRANCH  28  29
ATOM     29  C   UNL     1       4.188  -7.325  35.250  1.00  0.00    -0.003 C 
ATOM     30  C   UNL     1       4.318  -6.674  36.627  1.00  0.00     0.004 C 
ENDBRANCH  28  29
ENDBRANCH  27  28
ENDBRANCH  26  27
ENDBRANCH  25  26
ENDBRANCH  24  25
ENDBRANCH  23  24
ENDBRANCH  22  23
ENDBRANCH  21  22
ENDBRANCH  20  21
ENDBRANCH  19  20
ENDBRANCH  18  19
ENDBRANCH  17  18
ENDBRANCH   1  17
TORSDOF 26
ENDMDL
MODEL 6
REMARK VINA RESULT:    -4.066      2.663      6.840
REMARK INTER + INTRA:         -14.700
REMARK INTER:                  -9.108
REMARK INTRA:                  -5.591
REMARK UNBOUND:                -4.453
REMARK SMILES CCCCCCCCCCCCCCCCCCCCCCCCCCCC(=O)[O-]
REMARK SMILES IDX 15 1 16 2 17 3 18 4 19 5 20 6 21 7 22 8 23 9 24 10 25 11
REMARK SMILES IDX 26 12 27 13 28 14 29 15 30 16 14 17 13 18 12 19 11 20 10 21
REMARK SMILES IDX 9 22 8 23 7 24 6 25 5 26 4 27 3 28 2 29 1 30
REMARK H PARENT
REMARK Flexibility Score: inf
ROOT
ATOM      1  C   UNL     1       7.745  -5.800  35.085  1.00  0.00     0.000 C 
ENDROOT
BRANCH   1   2
ATOM      2  C   UNL     1       8.372  -6.204  33.741  1.00  0.00     0.000 C 
BRANCH   2   3
ATOM      3  C   UNL     1       8.320  -7.728  33.561  1.00  0.00     0.000 C 
BRANCH   3   4
ATOM      4  C   UNL     1       9.658  -8.284  33.048  1.00  0.00     0.000 C 
BRANCH   4   5
ATOM      5  C   UNL     1      10.642  -8.585  34.193  1.00  0.00     0.000 C 
BRANCH   5   6
ATOM      6  C   UNL     1      10.284  -9.826  35.038  1.00  0.00     0.000 C 
BRANCH   6   7
ATOM      7  C   UNL     1      10.172  -9.582  36.557  1.00  0.00     0.000 C 
BRANCH   7   8
ATOM      8  C   UNL     1      11.145 -10.407  37.416  1.00  0.00     0.000 C 
BRANCH   8   9
ATOM      9  C   UNL     1      12.102  -9.524  38.236  1.00  0.00     0.000 C 
BRANCH   9  10
ATOM     10  C   UNL     1      11.466  -8.180  38.629  1.00  0.00     0.000 C 
BRANCH  10  11
ATOM     11  C   UNL     1      12.443  -7.004  38.478  1.00  0.00     0.000 C 
BRANCH  11  12
ATOM     12  C   UNL     1      11.717  -5.759  37.959  1.00  0.00     0.006 C 
BRANCH  12  13
ATOM     13  C   UNL     1      11.339  -5.909  36.481  1.00  0.00     0.053 C 
BRANCH  13  14
ATOM     14  C   UNL     1      11.079  -4.567  35.874  1.00  0.00     0.041 C 
ATOM     15  O   UNL     1      11.495  -4.301  34.715  1.00  0.00    -0.550 OA
ATOM     16  O   UNL     1      10.450  -3.579  36.621  1.00  0.00    -0.550 OA
ENDBRANCH  13  14
ENDBRANCH  12  13
ENDBRANCH  11  12
ENDBRANCH  10  11
ENDBRANCH   9  10
ENDBRANCH   8   9
ENDBRANCH   7   8
ENDBRANCH   6   7
ENDBRANCH   5   6
ENDBRANCH   4   5
ENDBRANCH   3   4
ENDBRANCH   2   3
ENDBRANCH   1   2
BRANCH   1  17
ATOM     17  C   UNL     1       7.849  -6.902  36.150  1.00  0.00     0.000 C 
BRANCH  17  18
ATOM     18  C   UNL     1       7.950  -6.349  37.579  1.00  0.00     0.000 C 
BRANCH  18  19
ATOM     19  C   UNL     1       7.610  -7.441  38.604  1.00  0.00     0.000 C 
BRANCH  19  20
ATOM     20  C   UNL     1       6.944  -8.669  37.964  1.00  0.00     0.000 C 
BRANCH  20  21
ATOM     21  C   UNL     1       5.574  -8.995  38.585  1.00  0.00     0.000 C 
BRANCH  21  22
ATOM     22  C   UNL     1       4.659  -7.763  38.672  1.00  0.00    -0.000 C 
BRANCH  22  23
ATOM     23  C   UNL     1       3.217  -8.067  38.229  1.00  0.00    -0.000 C 
BRANCH  23  24
ATOM     24  C   UNL     1       2.863  -7.442  36.867  1.00  0.00    -0.000 C 
BRANCH  24  25
ATOM     25  C   UNL     1       4.054  -6.838  36.099  1.00  0.00    -0.000 C 
BRANCH  25  26
ATOM     26  C   UNL     1       4.290  -7.502  34.734  1.00  0.00    -0.000 C 
BRANCH  26  27
ATOM     27  C   UNL     1       5.145  -8.767  34.879  1.00  0.00    -0.000 C 
BRANCH  27  28
ATOM     28  C   UNL     1       4.383 -10.001  34.372  1.00  0.00    -0.000 C 
BRANCH  28  29
ATOM     29  C   UNL     1       3.943 -10.931  35.511  1.00  0.00    -0.003 C 
ATOM     30  C   UNL     1       2.441 -10.856  35.788  1.00  0.00     0.004 C 
ENDBRANCH  28  29
ENDBRANCH  27  28
ENDBRANCH  26  27
ENDBRANCH  25  26
ENDBRANCH  24  25
ENDBRANCH  23  24
ENDBRANCH  22  23
ENDBRANCH  21  22
ENDBRANCH  20  21
ENDBRANCH  19  20
ENDBRANCH  18  19
ENDBRANCH  17  18
ENDBRANCH   1  17
TORSDOF 26
ENDMDL
MODEL 7
REMARK VINA RESULT:    -4.045      2.315      6.336
REMARK INTER + INTRA:         -14.647
REMARK INTER:                  -9.080
REMARK INTRA:                  -5.567
REMARK UNBOUND:                -4.453
REMARK SMILES CCCCCCCCCCCCCCCCCCCCCCCCCCCC(=O)[O-]
REMARK SMILES IDX 15 1 16 2 17 3 18 4 19 5 20 6 21 7 22 8 23 9 24 10 25 11
REMARK SMILES IDX 26 12 27 13 28 14 29 15 30 16 14 17 13 18 12 19 11 20 10 21
REMARK SMILES IDX 9 22 8 23 7 24 6 25 5 26 4 27 3 28 2 29 1 30
REMARK H PARENT
REMARK Flexibility Score: inf
ROOT
ATOM      1  C   UNL     1       8.231  -5.268  34.620  1.00  0.00     0.000 C 
ENDROOT
BRANCH   1   2
ATOM      2  C   UNL     1       8.786  -6.035  33.408  1.00  0.00     0.000 C 
BRANCH   2   3
ATOM      3  C   UNL     1       8.364  -7.509  33.468  1.00  0.00     0.000 C 
BRANCH   3   4
ATOM      4  C   UNL     1       9.436  -8.430  32.865  1.00  0.00     0.000 C 
BRANCH   4   5
ATOM      5  C   UNL     1      10.645  -8.610  33.802  1.00  0.00     0.000 C 
BRANCH   5   6
ATOM      6  C   UNL     1      10.386  -9.528  35.015  1.00  0.00     0.000 C 
BRANCH   6   7
ATOM      7  C   UNL     1      10.452  -8.836  36.393  1.00  0.00     0.000 C 
BRANCH   7   8
ATOM      8  C   UNL     1      11.143  -9.658  37.495  1.00  0.00     0.000 C 
BRANCH   8   9
ATOM      9  C   UNL     1      11.710  -8.776  38.621  1.00  0.00     0.000 C 
BRANCH   9  10
ATOM     10  C   UNL     1      12.164  -7.398  38.112  1.00  0.00     0.000 C 
BRANCH  10  11
ATOM     11  C   UNL     1      11.458  -6.244  38.840  1.00  0.00     0.000 C 
BRANCH  11  12
ATOM     12  C   UNL     1      11.457  -4.978  37.976  1.00  0.00     0.006 C 
BRANCH  12  13
ATOM     13  C   UNL     1      11.607  -5.317  36.489  1.00  0.00     0.053 C 
BRANCH  13  14
ATOM     14  C   UNL     1      11.913  -4.081  35.704  1.00  0.00     0.041 C 
ATOM     15  O   UNL     1      12.367  -3.057  36.281  1.00  0.00    -0.550 OA
ATOM     16  O   UNL     1      11.618  -4.031  34.348  1.00  0.00    -0.550 OA
ENDBRANCH  13  14
ENDBRANCH  12  13
ENDBRANCH  11  12
ENDBRANCH  10  11
ENDBRANCH   9  10
ENDBRANCH   8   9
ENDBRANCH   7   8
ENDBRANCH   6   7
ENDBRANCH   5   6
ENDBRANCH   4   5
ENDBRANCH   3   4
ENDBRANCH   2   3
ENDBRANCH   1   2
BRANCH   1  17
ATOM     17  C   UNL     1       8.166  -6.124  35.892  1.00  0.00     0.000 C 
BRANCH  17  18
ATOM     18  C   UNL     1       7.964  -5.292  37.167  1.00  0.00     0.000 C 
BRANCH  18  19
ATOM     19  C   UNL     1       7.566  -6.197  38.343  1.00  0.00     0.000 C 
BRANCH  19  20
ATOM     20  C   UNL     1       8.026  -7.651  38.155  1.00  0.00     0.000 C 
BRANCH  20  21
ATOM     21  C   UNL     1       6.855  -8.649  38.140  1.00  0.00     0.000 C 
BRANCH  21  22
ATOM     22  C   UNL     1       7.306 -10.080  37.802  1.00  0.00    -0.000 C 
BRANCH  22  23
ATOM     23  C   UNL     1       6.926 -10.496  36.370  1.00  0.00    -0.000 C 
BRANCH  23  24
ATOM     24  C   UNL     1       6.029  -9.462  35.664  1.00  0.00    -0.000 C 
BRANCH  24  25
ATOM     25  C   UNL     1       4.970 -10.059  34.718  1.00  0.00    -0.000 C 
BRANCH  25  26
ATOM     26  C   UNL     1       3.536  -9.915  35.253  1.00  0.00    -0.000 C 
BRANCH  26  27
ATOM     27  C   UNL     1       3.528  -9.236  36.628  1.00  0.00    -0.000 C 
BRANCH  27  28
ATOM     28  C   UNL     1       2.844  -7.862  36.554  1.00  0.00    -0.000 C 
BRANCH  28  29
ATOM     29  C   UNL     1       3.798  -6.710  36.900  1.00  0.00    -0.003 C 
ATOM     30  C   UNL     1       4.586  -6.213  35.688  1.00  0.00     0.004 C 
ENDBRANCH  28  29
ENDBRANCH  27  28
ENDBRANCH  26  27
ENDBRANCH  25  26
ENDBRANCH  24  25
ENDBRANCH  23  24
ENDBRANCH  22  23
ENDBRANCH  21  22
ENDBRANCH  20  21
ENDBRANCH  19  20
ENDBRANCH  18  19
ENDBRANCH  17  18
ENDBRANCH   1  17
TORSDOF 26
ENDMDL
MODEL 8
REMARK VINA RESULT:    -4.028      3.541      6.032
REMARK INTER + INTRA:         -14.604
REMARK INTER:                  -9.203
REMARK INTRA:                  -5.401
REMARK UNBOUND:                -4.453
REMARK SMILES CCCCCCCCCCCCCCCCCCCCCCCCCCCC(=O)[O-]
REMARK SMILES IDX 15 1 16 2 17 3 18 4 19 5 20 6 21 7 22 8 23 9 24 10 25 11
REMARK SMILES IDX 26 12 27 13 28 14 29 15 30 16 14 17 13 18 12 19 11 20 10 21
REMARK SMILES IDX 9 22 8 23 7 24 6 25 5 26 4 27 3 28 2 29 1 30
REMARK H PARENT
REMARK Flexibility Score: inf
ROOT
ATOM      1  C   UNL     1       8.748  -5.593  33.171  1.00  0.00     0.000 C 
ENDROOT
BRANCH   1   2
ATOM      2  C   UNL     1       8.541  -6.993  33.772  1.00  0.00     0.000 C 
BRANCH   2   3
ATOM      3  C   UNL     1       9.386  -8.030  33.022  1.00  0.00     0.000 C 
BRANCH   3   4
ATOM      4  C   UNL     1      10.544  -8.552  33.887  1.00  0.00     0.000 C 
BRANCH   4   5
ATOM      5  C   UNL     1      10.061  -9.077  35.252  1.00  0.00     0.000 C 
BRANCH   5   6
ATOM      6  C   UNL     1      10.163 -10.607  35.423  1.00  0.00     0.000 C 
BRANCH   6   7
ATOM      7  C   UNL     1       9.410 -11.188  36.639  1.00  0.00     0.000 C 
BRANCH   7   8
ATOM      8  C   UNL     1       9.708 -10.488  37.976  1.00  0.00     0.000 C 
BRANCH   8   9
ATOM      9  C   UNL     1       8.431 -10.187  38.781  1.00  0.00     0.000 C 
BRANCH   9  10
ATOM     10  C   UNL     1       7.167 -10.225  37.907  1.00  0.00     0.000 C 
BRANCH  10  11
ATOM     11  C   UNL     1       6.471  -8.857  37.824  1.00  0.00     0.000 C 
BRANCH  11  12
ATOM     12  C   UNL     1       6.511  -8.315  36.392  1.00  0.00     0.006 C 
BRANCH  12  13
ATOM     13  C   UNL     1       6.064  -9.376  35.381  1.00  0.00     0.053 C 
BRANCH  13  14
ATOM     14  C   UNL     1       5.134  -8.774  34.374  1.00  0.00     0.041 C 
ATOM     15  O   UNL     1       5.293  -9.000  33.146  1.00  0.00    -0.550 OA
ATOM     16  O   UNL     1       4.142  -7.894  34.788  1.00  0.00    -0.550 OA
ENDBRANCH  13  14
ENDBRANCH  12  13
ENDBRANCH  11  12
ENDBRANCH  10  11
ENDBRANCH   9  10
ENDBRANCH   8   9
ENDBRANCH   7   8
ENDBRANCH   6   7
ENDBRANCH   5   6
ENDBRANCH   4   5
ENDBRANCH   3   4
ENDBRANCH   2   3
ENDBRANCH   1   2
BRANCH   1  17
ATOM     17  C   UNL     1       8.499  -4.464  34.182  1.00  0.00     0.000 C 
BRANCH  17  18
ATOM     18  C   UNL     1       7.938  -4.968  35.519  1.00  0.00     0.000 C 
BRANCH  18  19
ATOM     19  C   UNL     1       8.923  -4.673  36.660  1.00  0.00     0.000 C 
BRANCH  19  20
ATOM     20  C   UNL     1       8.646  -5.512  37.917  1.00  0.00     0.000 C 
BRANCH  20  21
ATOM     21  C   UNL     1       9.579  -6.730  38.038  1.00  0.00     0.000 C 
BRANCH  21  22
ATOM     22  C   UNL     1      11.008  -6.427  37.559  1.00  0.00    -0.000 C 
BRANCH  22  23
ATOM     23  C   UNL     1      12.026  -7.475  38.040  1.00  0.00    -0.000 C 
BRANCH  23  24
ATOM     24  C   UNL     1      13.373  -6.855  38.459  1.00  0.00    -0.000 C 
BRANCH  24  25
ATOM     25  C   UNL     1      13.417  -5.316  38.432  1.00  0.00    -0.000 C 
BRANCH  25  26
ATOM     26  C   UNL     1      14.691  -4.762  37.775  1.00  0.00    -0.000 C 
BRANCH  26  27
ATOM     27  C   UNL     1      14.419  -4.324  36.330  1.00  0.00    -0.000 C 
BRANCH  27  28
ATOM     28  C   UNL     1      13.505  -3.090  36.298  1.00  0.00    -0.000 C 
BRANCH  28  29
ATOM     29  C   UNL     1      12.132  -3.390  35.680  1.00  0.00    -0.003 C 
ATOM     30  C   UNL     1      12.197  -4.456  34.586  1.00  0.00     0.004 C 
ENDBRANCH  28  29
ENDBRANCH  27  28
ENDBRANCH  26  27
ENDBRANCH  25  26
ENDBRANCH  24  25
ENDBRANCH  23  24
ENDBRANCH  22  23
ENDBRANCH  21  22
ENDBRANCH  20  21
ENDBRANCH  19  20
ENDBRANCH  18  19
ENDBRANCH  17  18
ENDBRANCH   1  17
TORSDOF 26
ENDMDL
MODEL 9
REMARK VINA RESULT:    -4.016      2.750      5.353
REMARK INTER + INTRA:         -14.572
REMARK INTER:                  -8.681
REMARK INTRA:                  -5.891
REMARK UNBOUND:                -4.453
REMARK SMILES CCCCCCCCCCCCCCCCCCCCCCCCCCCC(=O)[O-]
REMARK SMILES IDX 15 1 16 2 17 3 18 4 19 5 20 6 21 7 22 8 23 9 24 10 25 11
REMARK SMILES IDX 26 12 27 13 28 14 29 15 30 16 14 17 13 18 12 19 11 20 10 21
REMARK SMILES IDX 9 22 8 23 7 24 6 25 5 26 4 27 3 28 2 29 1 30
REMARK H PARENT
REMARK Flexibility Score: inf
ROOT
ATOM      1  C   UNL     1       7.391  -7.544  37.454  1.00  0.00     0.000 C 
ENDROOT
BRANCH   1   2
ATOM      2  C   UNL     1       7.871  -6.167  37.941  1.00  0.00     0.000 C 
BRANCH   2   3
ATOM      3  C   UNL     1       7.746  -5.126  36.820  1.00  0.00     0.000 C 
BRANCH   3   4
ATOM      4  C   UNL     1       7.421  -5.784  35.469  1.00  0.00     0.000 C 
BRANCH   4   5
ATOM      5  C   UNL     1       8.246  -5.185  34.316  1.00  0.00     0.000 C 
BRANCH   5   6
ATOM      6  C   UNL     1       8.760  -6.217  33.290  1.00  0.00     0.000 C 
BRANCH   6   7
ATOM      7  C   UNL     1       8.311  -7.673  33.535  1.00  0.00     0.000 C 
BRANCH   7   8
ATOM      8  C   UNL     1       9.446  -8.644  33.905  1.00  0.00     0.000 C 
BRANCH   8   9
ATOM      9  C   UNL     1      10.618  -7.940  34.610  1.00  0.00     0.000 C 
BRANCH   9  10
ATOM     10  C   UNL     1      10.630  -8.200  36.126  1.00  0.00     0.000 C 
BRANCH  10  11
ATOM     11  C   UNL     1      11.190  -7.010  36.920  1.00  0.00     0.000 C 
BRANCH  11  12
ATOM     12  C   UNL     1      11.319  -5.773  36.025  1.00  0.00     0.006 C 
BRANCH  12  13
ATOM     13  C   UNL     1      11.792  -4.554  36.823  1.00  0.00     0.053 C 
BRANCH  13  14
ATOM     14  C   UNL     1      12.109  -3.421  35.898  1.00  0.00     0.041 C 
ATOM     15  O   UNL     1      12.488  -2.311  36.358  1.00  0.00    -0.550 OA
ATOM     16  O   UNL     1      11.905  -3.564  34.532  1.00  0.00    -0.550 OA
ENDBRANCH  13  14
ENDBRANCH  12  13
ENDBRANCH  11  12
ENDBRANCH  10  11
ENDBRANCH   9  10
ENDBRANCH   8   9
ENDBRANCH   7   8
ENDBRANCH   6   7
ENDBRANCH   5   6
ENDBRANCH   4   5
ENDBRANCH   3   4
ENDBRANCH   2   3
ENDBRANCH   1   2
BRANCH   1  17
ATOM     17  C   UNL     1       6.458  -8.241  38.454  1.00  0.00     0.000 C 
BRANCH  17  18
ATOM     18  C   UNL     1       5.118  -7.513  38.634  1.00  0.00     0.000 C 
BRANCH  18  19
ATOM     19  C   UNL     1       4.123  -7.941  37.546  1.00  0.00     0.000 C 
BRANCH  19  20
ATOM     20  C   UNL     1       3.977  -6.895  36.430  1.00  0.00     0.000 C 
BRANCH  20  21
ATOM     21  C   UNL     1       4.117  -7.502  35.022  1.00  0.00     0.000 C 
BRANCH  21  22
ATOM     22  C   UNL     1       5.099  -8.685  34.986  1.00  0.00    -0.000 C 
BRANCH  22  23
ATOM     23  C   UNL     1       4.514  -9.916  34.272  1.00  0.00    -0.000 C 
BRANCH  23  24
ATOM     24  C   UNL     1       4.790 -11.232  35.023  1.00  0.00    -0.000 C 
BRANCH  24  25
ATOM     25  C   UNL     1       5.251 -11.064  36.483  1.00  0.00    -0.000 C 
BRANCH  25  26
ATOM     26  C   UNL     1       6.562 -11.805  36.789  1.00  0.00    -0.000 C 
BRANCH  26  27
ATOM     27  C   UNL     1       7.766 -11.059  36.199  1.00  0.00    -0.000 C 
BRANCH  27  28
ATOM     28  C   UNL     1       9.050 -11.401  36.968  1.00  0.00    -0.000 C 
BRANCH  28  29
ATOM     29  C   UNL     1       9.930 -12.416  36.225  1.00  0.00    -0.003 C 
ATOM     30  C   UNL     1      11.082 -11.757  35.468  1.00  0.00     0.004 C 
ENDBRANCH  28  29
ENDBRANCH  27  28
ENDBRANCH  26  27
ENDBRANCH  25  26
ENDBRANCH  24  25
ENDBRANCH  23  24
ENDBRANCH  22  23
ENDBRANCH  21  22
ENDBRANCH  20  21
ENDBRANCH  19  20
ENDBRANCH  18  19
ENDBRANCH  17  18
ENDBRANCH   1  17
TORSDOF 26
ENDMDL
