MODEL 1
REMARK VINA RESULT:    -6.617      0.000      0.000
REMARK INTER + INTRA:          -8.462
REMARK INTER:                  -7.777
REMARK INTRA:                  -0.685
REMARK UNBOUND:                -0.685
REMARK SMILES C=C(C)[C@@H]1CC[C@]2(C(=O)[O-])CC[C@@]3(C)[C@H](CC[C@H]4[C@@]5(C)C[C@@H](O)[C@@H](O)C(C)(C)[C@@H]5CC[C@]43C)[C@H]12
REMARK SMILES IDX 7 1 6 2 34 3 11 4 5 5 15 6 4 7 12 8 16 9 13 10 17 11 32 12
REMARK SMILES IDX 14 13 18 14 31 15 33 16 19 17 30 18 29 19 21 20 20 21 26 22
REMARK SMILES IDX 22 23 24 24 27 25 28 26 8 27 9 28 10 29 2 30 3 31 1 32 23 33
REMARK SMILES IDX 25 35
REMARK H PARENT 23 34 25 36
REMARK Flexibility Score: inf
ROOT
ATOM      1  C   UNL     1     -16.653 -19.486  12.636  1.00  0.00     0.014 C 
ATOM      2  C   UNL     1     -17.983 -18.672  12.515  1.00  0.00     0.014 C 
ATOM      3  C   UNL     1     -15.676 -18.798  11.640  1.00  0.00     0.012 C 
ATOM      4  C   UNL     1     -16.110 -19.469  14.105  1.00  0.00     0.014 C 
ATOM      5  C   UNL     1     -17.772 -17.557  11.499  1.00  0.00     0.009 C 
ATOM      6  C   UNL     1     -14.112 -19.064  11.828  1.00  0.00     0.000 C 
ATOM      7  C   UNL     1     -16.263 -17.375  11.350  1.00  0.00     0.018 C 
ATOM      8  C   UNL     1     -14.654 -18.992  14.298  1.00  0.00     0.008 C 
ATOM      9  C   UNL     1     -13.278 -17.973  11.141  1.00  0.00     0.005 C 
ATOM     10  C   UNL     1     -13.596 -19.525  13.273  1.00  0.00    -0.024 C 
ATOM     11  C   UNL     1     -12.556 -17.067  12.130  1.00  0.00     0.005 C 
ATOM     12  C   UNL     1     -12.027 -19.068  13.660  1.00  0.00    -0.024 C 
ATOM     13  C   UNL     1     -13.704 -21.089  13.361  1.00  0.00     0.012 C 
ATOM     14  C   UNL     1     -11.422 -17.858  12.791  1.00  0.00     0.002 C 
ATOM     15  C   UNL     1     -11.948 -18.727  15.191  1.00  0.00     0.008 C 
ATOM     16  C   UNL     1     -11.035 -20.261  13.436  1.00  0.00     0.012 C 
ATOM     17  C   UNL     1     -10.204 -16.981  13.420  1.00  0.00    -0.023 C 
ATOM     18  C   UNL     1     -10.648 -18.104  15.676  1.00  0.00     0.005 C 
ATOM     19  C   UNL     1     -10.435 -16.757  14.956  1.00  0.00     0.004 C 
ATOM     20  C   UNL     1     -10.114 -15.558  12.766  1.00  0.00     0.042 C 
ATOM     21  C   UNL     1      -8.844 -17.721  13.115  1.00  0.00     0.012 C 
ATOM     22  C   UNL     1      -9.437 -15.770  15.692  1.00  0.00    -0.003 C 
ATOM     23  C   UNL     1      -9.083 -14.604  13.411  1.00  0.00     0.144 C 
ATOM     24  C   UNL     1      -9.371 -14.416  14.912  1.00  0.00     0.149 C 
ATOM     25  C   UNL     1      -9.959 -15.455  17.125  1.00  0.00     0.014 C 
ATOM     26  C   UNL     1      -8.010 -16.354  15.872  1.00  0.00     0.014 C 
ENDROOT
BRANCH   1  27
ATOM     27  C   UNL     1     -16.967 -20.929  12.230  1.00  0.00     0.048 C 
ATOM     28  O   UNL     1     -17.355 -21.753  13.102  1.00  0.00    -0.550 OA
ATOM     29  O   UNL     1     -16.823 -21.370  10.918  1.00  0.00    -0.550 OA
ENDBRANCH   1  27
BRANCH   7  30
ATOM     30  C   UNL     1     -15.768 -16.162  12.148  1.00  0.00    -0.077 C 
ATOM     31  C   UNL     1     -15.350 -14.908  11.413  1.00  0.00     0.039 C 
ATOM     32  C   UNL     1     -15.900 -16.070  13.482  1.00  0.00     0.008 C 
ENDBRANCH   7  30
BRANCH  23  33
ATOM     33  O   UNL     1      -9.148 -13.352  12.774  1.00  0.00    -0.390 OA
ATOM     34  H   UNL     1      -9.345 -13.525  11.816  1.00  0.00     0.211 HD
ENDBRANCH  23  33
BRANCH  24  35
ATOM     35  O   UNL     1     -10.585 -13.715  15.066  1.00  0.00    -0.390 OA
ATOM     36  H   UNL     1     -11.319 -14.338  14.823  1.00  0.00     0.211 HD
ENDBRANCH  24  35
TORSDOF 4
ENDMDL
MODEL 2
REMARK VINA RESULT:    -6.478      1.910      4.534
REMARK INTER + INTRA:          -8.299
REMARK INTER:                  -7.594
REMARK INTRA:                  -0.705
REMARK UNBOUND:                -0.685
REMARK SMILES C=C(C)[C@@H]1CC[C@]2(C(=O)[O-])CC[C@@]3(C)[C@H](CC[C@H]4[C@@]5(C)C[C@@H](O)[C@@H](O)C(C)(C)[C@@H]5CC[C@]43C)[C@H]12
REMARK SMILES IDX 7 1 6 2 34 3 11 4 5 5 15 6 4 7 12 8 16 9 13 10 17 11 32 12
REMARK SMILES IDX 14 13 18 14 31 15 33 16 19 17 30 18 29 19 21 20 20 21 26 22
REMARK SMILES IDX 22 23 24 24 27 25 28 26 8 27 9 28 10 29 2 30 3 31 1 32 23 33
REMARK SMILES IDX 25 35
REMARK H PARENT 23 34 25 36
REMARK Flexibility Score: inf
ROOT
ATOM      1  C   UNL     1     -15.246 -21.180  11.838  1.00  0.00     0.014 C 
ATOM      2  C   UNL     1     -14.405 -22.452  11.493  1.00  0.00     0.014 C 
ATOM      3  C   UNL     1     -14.590 -20.609  13.127  1.00  0.00     0.012 C 
ATOM      4  C   UNL     1     -15.226 -20.151  10.658  1.00  0.00     0.014 C 
ATOM      5  C   UNL     1     -13.305 -22.597  12.536  1.00  0.00     0.009 C 
ATOM      6  C   UNL     1     -14.888 -19.084  13.502  1.00  0.00     0.000 C 
ATOM      7  C   UNL     1     -13.157 -21.237  13.214  1.00  0.00     0.018 C 
ATOM      8  C   UNL     1     -14.779 -18.713  11.002  1.00  0.00     0.008 C 
ATOM      9  C   UNL     1     -13.822 -18.531  14.458  1.00  0.00     0.005 C 
ATOM     10  C   UNL     1     -15.345 -18.097  12.327  1.00  0.00    -0.024 C 
ATOM     11  C   UNL     1     -12.922 -17.489  13.805  1.00  0.00     0.005 C 
ATOM     12  C   UNL     1     -14.919 -16.485  12.529  1.00  0.00    -0.024 C 
ATOM     13  C   UNL     1     -16.906 -18.193  12.179  1.00  0.00     0.012 C 
ATOM     14  C   UNL     1     -13.731 -16.208  13.577  1.00  0.00     0.002 C 
ATOM     15  C   UNL     1     -14.565 -15.862  11.132  1.00  0.00     0.008 C 
ATOM     16  C   UNL     1     -16.136 -15.658  13.070  1.00  0.00     0.012 C 
ATOM     17  C   UNL     1     -12.875 -14.832  13.435  1.00  0.00    -0.023 C 
ATOM     18  C   UNL     1     -13.965 -14.465  11.149  1.00  0.00     0.005 C 
ATOM     19  C   UNL     1     -12.630 -14.498  11.921  1.00  0.00     0.004 C 
ATOM     20  C   UNL     1     -11.461 -14.956  14.103  1.00  0.00     0.042 C 
ATOM     21  C   UNL     1     -13.647 -13.682  14.191  1.00  0.00     0.012 C 
ATOM     22  C   UNL     1     -11.658 -13.287  11.604  1.00  0.00    -0.003 C 
ATOM     23  C   UNL     1     -10.522 -13.747  13.882  1.00  0.00     0.144 C 
ATOM     24  C   UNL     1     -10.313 -13.480  12.380  1.00  0.00     0.149 C 
ATOM     25  C   UNL     1     -11.317 -13.261  10.085  1.00  0.00     0.014 C 
ATOM     26  C   UNL     1     -12.271 -11.900  11.932  1.00  0.00     0.014 C 
ENDROOT
BRANCH   1  27
ATOM     27  C   UNL     1     -16.686 -21.642  12.082  1.00  0.00     0.048 C 
ATOM     28  O   UNL     1     -17.030 -22.037  13.228  1.00  0.00    -0.550 OA
ATOM     29  O   UNL     1     -17.635 -21.652  11.064  1.00  0.00    -0.550 OA
ENDBRANCH   1  27
BRANCH   7  30
ATOM     30  C   UNL     1     -11.947 -20.470  12.664  1.00  0.00    -0.077 C 
ATOM     31  C   UNL     1     -10.737 -20.260  13.546  1.00  0.00     0.039 C 
ATOM     32  C   UNL     1     -11.811 -20.170  11.362  1.00  0.00     0.008 C 
ENDBRANCH   7  30
BRANCH  23  33
ATOM     33  O   UNL     1      -9.276 -14.013  14.475  1.00  0.00    -0.390 OA
ATOM     34  H   UNL     1      -9.406 -13.960  15.459  1.00  0.00     0.211 HD
ENDBRANCH  23  33
BRANCH  24  35
ATOM     35  O   UNL     1      -9.585 -14.548  11.817  1.00  0.00    -0.390 OA
ATOM     36  H   UNL     1      -9.070 -14.976  12.550  1.00  0.00     0.211 HD
ENDBRANCH  24  35
TORSDOF 4
ENDMDL
MODEL 3
REMARK VINA RESULT:    -6.174      3.720      7.392
REMARK INTER + INTRA:          -7.942
REMARK INTER:                  -7.308
REMARK INTRA:                  -0.634
REMARK UNBOUND:                -0.685
REMARK SMILES C=C(C)[C@@H]1CC[C@]2(C(=O)[O-])CC[C@@]3(C)[C@H](CC[C@H]4[C@@]5(C)C[C@@H](O)[C@@H](O)C(C)(C)[C@@H]5CC[C@]43C)[C@H]12
REMARK SMILES IDX 7 1 6 2 34 3 11 4 5 5 15 6 4 7 12 8 16 9 13 10 17 11 32 12
REMARK SMILES IDX 14 13 18 14 31 15 33 16 19 17 30 18 29 19 21 20 20 21 26 22
REMARK SMILES IDX 22 23 24 24 27 25 28 26 8 27 9 28 10 29 2 30 3 31 1 32 23 33
REMARK SMILES IDX 25 35
REMARK H PARENT 23 34 25 36
REMARK Flexibility Score: inf
ROOT
ATOM      1  C   UNL     1      -9.394 -22.932   9.868  1.00  0.00     0.014 C 
ATOM      2  C   UNL     1      -7.946 -22.833  10.449  1.00  0.00     0.014 C 
ATOM      3  C   UNL     1     -10.294 -23.243  11.097  1.00  0.00     0.012 C 
ATOM      4  C   UNL     1      -9.809 -21.602   9.152  1.00  0.00     0.014 C 
ATOM      5  C   UNL     1      -8.016 -23.067  11.953  1.00  0.00     0.009 C 
ATOM      6  C   UNL     1     -11.862 -22.961  10.964  1.00  0.00     0.000 C 
ATOM      7  C   UNL     1      -9.468 -22.844  12.367  1.00  0.00     0.018 C 
ATOM      8  C   UNL     1     -11.127 -20.947   9.620  1.00  0.00     0.008 C 
ATOM      9  C   UNL     1     -12.520 -22.828  12.344  1.00  0.00     0.005 C 
ATOM     10  C   UNL     1     -12.343 -21.905   9.860  1.00  0.00    -0.024 C 
ATOM     11  C   UNL     1     -12.976 -21.406  12.650  1.00  0.00     0.005 C 
ATOM     12  C   UNL     1     -13.761 -21.079  10.220  1.00  0.00    -0.024 C 
ATOM     13  C   UNL     1     -12.532 -22.663   8.498  1.00  0.00     0.012 C 
ATOM     14  C   UNL     1     -14.187 -21.075  11.771  1.00  0.00     0.002 C 
ATOM     15  C   UNL     1     -13.655 -19.607   9.684  1.00  0.00     0.008 C 
ATOM     16  C   UNL     1     -14.978 -21.721   9.469  1.00  0.00     0.012 C 
ATOM     17  C   UNL     1     -15.161 -19.887  12.306  1.00  0.00    -0.023 C 
ATOM     18  C   UNL     1     -14.769 -18.657  10.097  1.00  0.00     0.005 C 
ATOM     19  C   UNL     1     -14.774 -18.523  11.633  1.00  0.00     0.004 C 
ATOM     20  C   UNL     1     -15.026 -19.678  13.855  1.00  0.00     0.042 C 
ATOM     21  C   UNL     1     -16.657 -20.299  12.021  1.00  0.00     0.012 C 
ATOM     22  C   UNL     1     -15.504 -17.225  12.176  1.00  0.00    -0.003 C 
ATOM     23  C   UNL     1     -15.802 -18.468  14.425  1.00  0.00     0.144 C 
ATOM     24  C   UNL     1     -15.368 -17.162  13.733  1.00  0.00     0.149 C 
ATOM     25  C   UNL     1     -14.823 -15.949  11.599  1.00  0.00     0.014 C 
ATOM     26  C   UNL     1     -16.998 -17.139  11.765  1.00  0.00     0.014 C 
ENDROOT
BRANCH   1  27
ATOM     27  C   UNL     1      -9.396 -24.076   8.849  1.00  0.00     0.048 C 
ATOM     28  O   UNL     1     -10.053 -25.125   9.088  1.00  0.00    -0.550 OA
ATOM     29  O   UNL     1      -8.677 -24.000   7.661  1.00  0.00    -0.550 OA
ENDBRANCH   1  27
BRANCH   7  30
ATOM     30  C   UNL     1      -9.658 -21.460  13.004  1.00  0.00    -0.077 C 
ATOM     31  C   UNL     1      -9.949 -21.357  14.484  1.00  0.00     0.039 C 
ATOM     32  C   UNL     1      -9.355 -20.320  12.362  1.00  0.00     0.008 C 
ENDBRANCH   7  30
BRANCH  23  33
ATOM     33  O   UNL     1     -15.546 -18.361  15.803  1.00  0.00    -0.390 OA
ATOM     34  H   UNL     1     -16.267 -17.796  16.188  1.00  0.00     0.211 HD
ENDBRANCH  23  33
BRANCH  24  35
ATOM     35  O   UNL     1     -14.034 -16.872  14.085  1.00  0.00    -0.390 OA
ATOM     36  H   UNL     1     -13.776 -17.499  14.811  1.00  0.00     0.211 HD
ENDBRANCH  24  35
TORSDOF 4
ENDMDL
MODEL 4
REMARK VINA RESULT:    -6.129      2.724      8.187
REMARK INTER + INTRA:          -7.889
REMARK INTER:                  -7.188
REMARK INTRA:                  -0.702
REMARK UNBOUND:                -0.685
REMARK SMILES C=C(C)[C@@H]1CC[C@]2(C(=O)[O-])CC[C@@]3(C)[C@H](CC[C@H]4[C@@]5(C)C[C@@H](O)[C@@H](O)C(C)(C)[C@@H]5CC[C@]43C)[C@H]12
REMARK SMILES IDX 7 1 6 2 34 3 11 4 5 5 15 6 4 7 12 8 16 9 13 10 17 11 32 12
REMARK SMILES IDX 14 13 18 14 31 15 33 16 19 17 30 18 29 19 21 20 20 21 26 22
REMARK SMILES IDX 22 23 24 24 27 25 28 26 8 27 9 28 10 29 2 30 3 31 1 32 23 33
REMARK SMILES IDX 25 35
REMARK H PARENT 23 34 25 36
REMARK Flexibility Score: inf
ROOT
ATOM      1  C   UNL     1      -6.182 -15.735  15.242  1.00  0.00     0.014 C 
ATOM      2  C   UNL     1      -6.102 -14.184  15.428  1.00  0.00     0.014 C 
ATOM      3  C   UNL     1      -7.235 -16.205  16.285  1.00  0.00     0.012 C 
ATOM      4  C   UNL     1      -6.592 -16.109  13.778  1.00  0.00     0.014 C 
ATOM      5  C   UNL     1      -7.078 -13.782  16.526  1.00  0.00     0.009 C 
ATOM      6  C   UNL     1      -7.903 -17.641  16.075  1.00  0.00     0.000 C 
ATOM      7  C   UNL     1      -8.063 -14.937  16.686  1.00  0.00     0.018 C 
ATOM      8  C   UNL     1      -7.814 -17.041  13.619  1.00  0.00     0.008 C 
ATOM      9  C   UNL     1      -9.228 -17.754  16.842  1.00  0.00     0.005 C 
ATOM     10  C   UNL     1      -7.902 -18.260  14.598  1.00  0.00    -0.024 C 
ATOM     11  C   UNL     1     -10.443 -17.801  15.924  1.00  0.00     0.005 C 
ATOM     12  C   UNL     1      -9.182 -19.288  14.244  1.00  0.00    -0.024 C 
ATOM     13  C   UNL     1      -6.555 -19.040  14.390  1.00  0.00     0.012 C 
ATOM     14  C   UNL     1     -10.466 -19.153  15.202  1.00  0.00     0.002 C 
ATOM     15  C   UNL     1      -9.603 -19.095  12.743  1.00  0.00     0.008 C 
ATOM     16  C   UNL     1      -8.738 -20.787  14.373  1.00  0.00     0.012 C 
ATOM     17  C   UNL     1     -11.911 -19.644  14.640  1.00  0.00    -0.023 C 
ATOM     18  C   UNL     1     -10.877 -19.802  12.305  1.00  0.00     0.005 C 
ATOM     19  C   UNL     1     -12.064 -19.259  13.126  1.00  0.00     0.004 C 
ATOM     20  C   UNL     1     -13.097 -18.954  15.401  1.00  0.00     0.042 C 
ATOM     21  C   UNL     1     -12.043 -21.198  14.884  1.00  0.00     0.012 C 
ATOM     22  C   UNL     1     -13.484 -19.503  12.466  1.00  0.00    -0.003 C 
ATOM     23  C   UNL     1     -14.503 -19.247  14.830  1.00  0.00     0.144 C 
ATOM     24  C   UNL     1     -14.591 -18.836  13.348  1.00  0.00     0.149 C 
ATOM     25  C   UNL     1     -13.542 -18.830  11.063  1.00  0.00     0.014 C 
ATOM     26  C   UNL     1     -13.812 -21.002  12.239  1.00  0.00     0.014 C 
ENDROOT
BRANCH   1  27
ATOM     27  C   UNL     1      -4.789 -16.298  15.536  1.00  0.00     0.048 C 
ATOM     28  O   UNL     1      -4.444 -16.523  16.728  1.00  0.00    -0.550 OA
ATOM     29  O   UNL     1      -3.875 -16.561  14.521  1.00  0.00    -0.550 OA
ENDBRANCH   1  27
BRANCH   7  30
ATOM     30  C   UNL     1      -9.393 -14.634  15.982  1.00  0.00    -0.077 C 
ATOM     31  C   UNL     1     -10.641 -14.423  16.810  1.00  0.00     0.039 C 
ATOM     32  C   UNL     1      -9.468 -14.321  14.678  1.00  0.00     0.008 C 
ENDBRANCH   7  30
BRANCH  23  33
ATOM     33  O   UNL     1     -15.460 -18.523  15.561  1.00  0.00    -0.390 OA
ATOM     34  H   UNL     1     -15.865 -17.865  14.937  1.00  0.00     0.211 HD
ENDBRANCH  23  33
BRANCH  24  35
ATOM     35  O   UNL     1     -14.500 -17.433  13.251  1.00  0.00    -0.390 OA
ATOM     36  H   UNL     1     -15.282 -17.120  12.725  1.00  0.00     0.211 HD
ENDBRANCH  24  35
TORSDOF 4
ENDMDL
MODEL 5
REMARK VINA RESULT:    -6.039      4.212      8.197
REMARK INTER + INTRA:          -7.783
REMARK INTER:                  -7.107
REMARK INTRA:                  -0.676
REMARK UNBOUND:                -0.685
REMARK SMILES C=C(C)[C@@H]1CC[C@]2(C(=O)[O-])CC[C@@]3(C)[C@H](CC[C@H]4[C@@]5(C)C[C@@H](O)[C@@H](O)C(C)(C)[C@@H]5CC[C@]43C)[C@H]12
REMARK SMILES IDX 7 1 6 2 34 3 11 4 5 5 15 6 4 7 12 8 16 9 13 10 17 11 32 12
REMARK SMILES IDX 14 13 18 14 31 15 33 16 19 17 30 18 29 19 21 20 20 21 26 22
REMARK SMILES IDX 22 23 24 24 27 25 28 26 8 27 9 28 10 29 2 30 3 31 1 32 23 33
REMARK SMILES IDX 25 35
REMARK H PARENT 23 34 25 36
REMARK Flexibility Score: inf
ROOT
ATOM      1  C   UNL     1     -13.832 -18.692  13.581  1.00  0.00     0.014 C 
ATOM      2  C   UNL     1     -15.112 -18.116  14.271  1.00  0.00     0.014 C 
ATOM      3  C   UNL     1     -14.108 -20.216  13.442  1.00  0.00     0.012 C 
ATOM      4  C   UNL     1     -13.580 -18.008  12.195  1.00  0.00     0.014 C 
ATOM      5  C   UNL     1     -16.086 -19.264  14.508  1.00  0.00     0.009 C 
ATOM      6  C   UNL     1     -13.234 -21.038  12.387  1.00  0.00     0.000 C 
ATOM      7  C   UNL     1     -15.656 -20.404  13.588  1.00  0.00     0.018 C 
ATOM      8  C   UNL     1     -13.430 -18.947  10.978  1.00  0.00     0.008 C 
ATOM      9  C   UNL     1     -13.926 -22.353  12.000  1.00  0.00     0.005 C 
ATOM     10  C   UNL     1     -12.556 -20.231  11.182  1.00  0.00    -0.024 C 
ATOM     11  C   UNL     1     -14.434 -22.356  10.564  1.00  0.00     0.005 C 
ATOM     12  C   UNL     1     -12.336 -21.100   9.762  1.00  0.00    -0.024 C 
ATOM     13  C   UNL     1     -11.162 -19.695  11.668  1.00  0.00     0.012 C 
ATOM     14  C   UNL     1     -13.234 -22.426   9.613  1.00  0.00     0.002 C 
ATOM     15  C   UNL     1     -12.563 -20.152   8.531  1.00  0.00     0.008 C 
ATOM     16  C   UNL     1     -10.855 -21.602   9.647  1.00  0.00     0.012 C 
ATOM     17  C   UNL     1     -13.530 -23.001   8.121  1.00  0.00    -0.023 C 
ATOM     18  C   UNL     1     -12.599 -20.818   7.164  1.00  0.00     0.005 C 
ATOM     19  C   UNL     1     -13.774 -21.816   7.121  1.00  0.00     0.004 C 
ATOM     20  C   UNL     1     -14.822 -23.892   8.087  1.00  0.00     0.042 C 
ATOM     21  C   UNL     1     -12.322 -23.918   7.688  1.00  0.00     0.012 C 
ATOM     22  C   UNL     1     -14.255 -22.201   5.660  1.00  0.00    -0.003 C 
ATOM     23  C   UNL     1     -15.263 -24.354   6.679  1.00  0.00     0.144 C 
ATOM     24  C   UNL     1     -15.498 -23.147   5.752  1.00  0.00     0.149 C 
ATOM     25  C   UNL     1     -14.702 -20.922   4.892  1.00  0.00     0.014 C 
ATOM     26  C   UNL     1     -13.145 -22.857   4.797  1.00  0.00     0.014 C 
ENDROOT
BRANCH   1  27
ATOM     27  C   UNL     1     -12.649 -18.403  14.509  1.00  0.00     0.048 C 
ATOM     28  O   UNL     1     -12.465 -19.120  15.530  1.00  0.00    -0.550 OA
ATOM     29  O   UNL     1     -11.766 -17.355  14.268  1.00  0.00    -0.550 OA
ENDBRANCH   1  27
BRANCH   7  30
ATOM     30  C   UNL     1     -16.543 -20.473  12.337  1.00  0.00    -0.077 C 
ATOM     31  C   UNL     1     -17.401 -21.696  12.101  1.00  0.00     0.039 C 
ATOM     32  C   UNL     1     -16.773 -19.408  11.553  1.00  0.00     0.008 C 
ENDBRANCH   7  30
BRANCH  23  33
ATOM     33  O   UNL     1     -16.459 -25.086   6.786  1.00  0.00    -0.390 OA
ATOM     34  H   UNL     1     -16.991 -24.666   7.512  1.00  0.00     0.211 HD
ENDBRANCH  23  33
BRANCH  24  35
ATOM     35  O   UNL     1     -16.617 -22.423   6.209  1.00  0.00    -0.390 OA
ATOM     36  H   UNL     1     -16.595 -22.436   7.201  1.00  0.00     0.211 HD
ENDBRANCH  24  35
TORSDOF 4
ENDMDL
MODEL 6
REMARK VINA RESULT:    -5.971      3.548      5.794
REMARK INTER + INTRA:          -7.703
REMARK INTER:                  -7.164
REMARK INTRA:                  -0.539
REMARK UNBOUND:                -0.685
REMARK SMILES C=C(C)[C@@H]1CC[C@]2(C(=O)[O-])CC[C@@]3(C)[C@H](CC[C@H]4[C@@]5(C)C[C@@H](O)[C@@H](O)C(C)(C)[C@@H]5CC[C@]43C)[C@H]12
REMARK SMILES IDX 7 1 6 2 34 3 11 4 5 5 15 6 4 7 12 8 16 9 13 10 17 11 32 12
REMARK SMILES IDX 14 13 18 14 31 15 33 16 19 17 30 18 29 19 21 20 20 21 26 22
REMARK SMILES IDX 22 23 24 24 27 25 28 26 8 27 9 28 10 29 2 30 3 31 1 32 23 33
REMARK SMILES IDX 25 35
REMARK H PARENT 23 34 25 36
REMARK Flexibility Score: inf
ROOT
ATOM      1  C   UNL     1     -15.623 -19.479  12.947  1.00  0.00     0.014 C 
ATOM      2  C   UNL     1     -16.771 -19.417  11.886  1.00  0.00     0.014 C 
ATOM      3  C   UNL     1     -15.131 -20.953  12.913  1.00  0.00     0.012 C 
ATOM      4  C   UNL     1     -14.480 -18.466  12.602  1.00  0.00     0.014 C 
ATOM      5  C   UNL     1     -16.922 -20.799  11.263  1.00  0.00     0.009 C 
ATOM      6  C   UNL     1     -13.687 -21.272  13.520  1.00  0.00     0.000 C 
ATOM      7  C   UNL     1     -15.632 -21.561  11.559  1.00  0.00     0.018 C 
ATOM      8  C   UNL     1     -13.050 -19.044  12.504  1.00  0.00     0.008 C 
ATOM      9  C   UNL     1     -13.141 -22.602  12.982  1.00  0.00     0.005 C 
ATOM     10  C   UNL     1     -12.629 -20.072  13.608  1.00  0.00    -0.024 C 
ATOM     11  C   UNL     1     -11.960 -22.420  12.036  1.00  0.00     0.005 C 
ATOM     12  C   UNL     1     -11.015 -20.523  13.496  1.00  0.00    -0.024 C 
ATOM     13  C   UNL     1     -12.851 -19.317  14.967  1.00  0.00     0.012 C 
ATOM     14  C   UNL     1     -10.741 -21.968  12.848  1.00  0.00     0.002 C 
ATOM     15  C   UNL     1     -10.221 -19.418  12.713  1.00  0.00     0.008 C 
ATOM     16  C   UNL     1     -10.362 -20.589  14.921  1.00  0.00     0.012 C 
ATOM     17  C   UNL     1      -9.286 -22.258  12.181  1.00  0.00    -0.023 C 
ATOM     18  C   UNL     1      -8.784 -19.754  12.345  1.00  0.00     0.005 C 
ATOM     19  C   UNL     1      -8.776 -20.986  11.417  1.00  0.00     0.004 C 
ATOM     20  C   UNL     1      -9.349 -23.420  11.129  1.00  0.00     0.042 C 
ATOM     21  C   UNL     1      -8.295 -22.716  13.321  1.00  0.00     0.012 C 
ATOM     22  C   UNL     1      -7.455 -21.151  10.556  1.00  0.00    -0.003 C 
ATOM     23  C   UNL     1      -8.043 -23.660  10.336  1.00  0.00     0.144 C 
ATOM     24  C   UNL     1      -7.604 -22.380   9.600  1.00  0.00     0.149 C 
ATOM     25  C   UNL     1      -7.241 -19.893   9.663  1.00  0.00     0.014 C 
ATOM     26  C   UNL     1      -6.171 -21.293  11.416  1.00  0.00     0.014 C 
ENDROOT
BRANCH   1  27
ATOM     27  C   UNL     1     -16.236 -19.107  14.300  1.00  0.00     0.048 C 
ATOM     28  O   UNL     1     -15.827 -18.083  14.912  1.00  0.00    -0.550 OA
ATOM     29  O   UNL     1     -17.233 -19.878  14.889  1.00  0.00    -0.550 OA
ENDBRANCH   1  27
BRANCH   7  30
ATOM     30  C   UNL     1     -14.705 -21.578  10.335  1.00  0.00    -0.077 C 
ATOM     31  C   UNL     1     -14.359 -22.899   9.685  1.00  0.00     0.039 C 
ATOM     32  C   UNL     1     -14.365 -20.464   9.668  1.00  0.00     0.008 C 
ENDBRANCH   7  30
BRANCH  23  33
ATOM     33  O   UNL     1      -8.255 -24.679   9.392  1.00  0.00    -0.390 OA
ATOM     34  H   UNL     1      -9.076 -25.165   9.670  1.00  0.00     0.211 HD
ENDBRANCH  23  33
BRANCH  24  35
ATOM     35  O   UNL     1      -8.537 -22.087   8.585  1.00  0.00    -0.390 OA
ATOM     36  H   UNL     1      -9.303 -21.620   9.012  1.00  0.00     0.211 HD
ENDBRANCH  24  35
TORSDOF 4
ENDMDL
MODEL 7
REMARK VINA RESULT:    -5.787      1.670      7.858
REMARK INTER + INTRA:          -7.488
REMARK INTER:                  -6.793
REMARK INTRA:                  -0.695
REMARK UNBOUND:                -0.685
REMARK SMILES C=C(C)[C@@H]1CC[C@]2(C(=O)[O-])CC[C@@]3(C)[C@H](CC[C@H]4[C@@]5(C)C[C@@H](O)[C@@H](O)C(C)(C)[C@@H]5CC[C@]43C)[C@H]12
REMARK SMILES IDX 7 1 6 2 34 3 11 4 5 5 15 6 4 7 12 8 16 9 13 10 17 11 32 12
REMARK SMILES IDX 14 13 18 14 31 15 33 16 19 17 30 18 29 19 21 20 20 21 26 22
REMARK SMILES IDX 22 23 24 24 27 25 28 26 8 27 9 28 10 29 2 30 3 31 1 32 23 33
REMARK SMILES IDX 25 35
REMARK H PARENT 23 34 25 36
REMARK Flexibility Score: inf
ROOT
ATOM      1  C   UNL     1      -8.485 -17.323  14.834  1.00  0.00     0.014 C 
ATOM      2  C   UNL     1      -7.497 -18.326  15.513  1.00  0.00     0.014 C 
ATOM      3  C   UNL     1      -8.755 -17.924  13.425  1.00  0.00     0.012 C 
ATOM      4  C   UNL     1      -9.798 -17.167  15.672  1.00  0.00     0.014 C 
ATOM      5  C   UNL     1      -7.221 -19.462  14.536  1.00  0.00     0.009 C 
ATOM      6  C   UNL     1     -10.052 -17.424  12.637  1.00  0.00     0.000 C 
ATOM      7  C   UNL     1      -8.339 -19.433  13.497  1.00  0.00     0.018 C 
ATOM      8  C   UNL     1     -11.128 -17.415  14.926  1.00  0.00     0.008 C 
ATOM      9  C   UNL     1     -10.458 -18.424  11.546  1.00  0.00     0.005 C 
ATOM     10  C   UNL     1     -11.256 -16.802  13.490  1.00  0.00    -0.024 C 
ATOM     11  C   UNL     1     -11.759 -19.152  11.862  1.00  0.00     0.005 C 
ATOM     12  C   UNL     1     -12.788 -17.001  12.831  1.00  0.00    -0.024 C 
ATOM     13  C   UNL     1     -10.984 -15.267  13.684  1.00  0.00     0.012 C 
ATOM     14  C   UNL     1     -12.923 -18.164  11.729  1.00  0.00     0.002 C 
ATOM     15  C   UNL     1     -13.825 -17.228  13.988  1.00  0.00     0.008 C 
ATOM     16  C   UNL     1     -13.246 -15.694  12.096  1.00  0.00     0.012 C 
ATOM     17  C   UNL     1     -14.390 -18.813  11.460  1.00  0.00    -0.023 C 
ATOM     18  C   UNL     1     -15.231 -17.624  13.564  1.00  0.00     0.005 C 
ATOM     19  C   UNL     1     -15.171 -18.970  12.812  1.00  0.00     0.004 C 
ATOM     20  C   UNL     1     -14.285 -20.247  10.833  1.00  0.00     0.042 C 
ATOM     21  C   UNL     1     -15.157 -17.906  10.421  1.00  0.00     0.012 C 
ATOM     22  C   UNL     1     -16.548 -19.752  12.757  1.00  0.00    -0.003 C 
ATOM     23  C   UNL     1     -15.628 -21.000  10.686  1.00  0.00     0.144 C 
ATOM     24  C   UNL     1     -16.337 -21.130  12.047  1.00  0.00     0.149 C 
ATOM     25  C   UNL     1     -17.052 -20.047  14.200  1.00  0.00     0.014 C 
ATOM     26  C   UNL     1     -17.683 -18.958  12.058  1.00  0.00     0.014 C 
ENDROOT
BRANCH   1  27
ATOM     27  C   UNL     1      -7.773 -15.969  14.754  1.00  0.00     0.048 C 
ATOM     28  O   UNL     1      -6.944 -15.752  13.829  1.00  0.00    -0.550 OA
ATOM     29  O   UNL     1      -8.003 -14.964  15.688  1.00  0.00    -0.550 OA
ENDBRANCH   1  27
BRANCH   7  30
ATOM     30  C   UNL     1      -9.395 -20.508  13.788  1.00  0.00    -0.077 C 
ATOM     31  C   UNL     1      -9.461 -21.740  12.913  1.00  0.00     0.039 C 
ATOM     32  C   UNL     1     -10.120 -20.525  14.918  1.00  0.00     0.008 C 
ENDBRANCH   7  30
BRANCH  23  33
ATOM     33  O   UNL     1     -15.385 -22.285  10.173  1.00  0.00    -0.390 OA
ATOM     34  H   UNL     1     -14.674 -22.692  10.735  1.00  0.00     0.211 HD
ENDBRANCH  23  33
BRANCH  24  35
ATOM     35  O   UNL     1     -15.588 -21.987  12.878  1.00  0.00    -0.390 OA
ATOM     36  H   UNL     1     -15.756 -21.712  13.817  1.00  0.00     0.211 HD
ENDBRANCH  24  35
TORSDOF 4
ENDMDL
MODEL 8
REMARK VINA RESULT:    -5.720     11.918     15.105
REMARK INTER + INTRA:          -7.408
REMARK INTER:                  -6.719
REMARK INTRA:                  -0.689
REMARK UNBOUND:                -0.685
REMARK SMILES C=C(C)[C@@H]1CC[C@]2(C(=O)[O-])CC[C@@]3(C)[C@H](CC[C@H]4[C@@]5(C)C[C@@H](O)[C@@H](O)C(C)(C)[C@@H]5CC[C@]43C)[C@H]12
REMARK SMILES IDX 7 1 6 2 34 3 11 4 5 5 15 6 4 7 12 8 16 9 13 10 17 11 32 12
REMARK SMILES IDX 14 13 18 14 31 15 33 16 19 17 30 18 29 19 21 20 20 21 26 22
REMARK SMILES IDX 22 23 24 24 27 25 28 26 8 27 9 28 10 29 2 30 3 31 1 32 23 33
REMARK SMILES IDX 25 35
REMARK H PARENT 23 34 25 36
REMARK Flexibility Score: inf
ROOT
ATOM      1  C   UNL     1     -15.747 -17.801  -0.650  1.00  0.00     0.014 C 
ATOM      2  C   UNL     1     -14.846 -18.630   0.323  1.00  0.00     0.014 C 
ATOM      3  C   UNL     1     -17.022 -17.471   0.177  1.00  0.00     0.012 C 
ATOM      4  C   UNL     1     -15.010 -16.510  -1.141  1.00  0.00     0.014 C 
ATOM      5  C   UNL     1     -15.572 -18.761   1.655  1.00  0.00     0.009 C 
ATOM      6  C   UNL     1     -17.946 -16.268  -0.327  1.00  0.00     0.000 C 
ATOM      7  C   UNL     1     -16.643 -17.672   1.683  1.00  0.00     0.018 C 
ATOM      8  C   UNL     1     -15.748 -15.169  -0.930  1.00  0.00     0.008 C 
ATOM      9  C   UNL     1     -18.839 -15.743   0.807  1.00  0.00     0.005 C 
ATOM     10  C   UNL     1     -17.280 -15.149  -1.259  1.00  0.00    -0.024 C 
ATOM     11  C   UNL     1     -18.443 -14.349   1.278  1.00  0.00     0.005 C 
ATOM     12  C   UNL     1     -17.951 -13.614  -1.139  1.00  0.00    -0.024 C 
ATOM     13  C   UNL     1     -17.376 -15.628  -2.752  1.00  0.00     0.012 C 
ATOM     14  C   UNL     1     -18.811 -13.335   0.189  1.00  0.00     0.002 C 
ATOM     15  C   UNL     1     -16.816 -12.538  -1.286  1.00  0.00     0.008 C 
ATOM     16  C   UNL     1     -18.943 -13.353  -2.325  1.00  0.00     0.012 C 
ATOM     17  C   UNL     1     -19.011 -11.796   0.678  1.00  0.00    -0.023 C 
ATOM     18  C   UNL     1     -17.213 -11.097  -1.004  1.00  0.00     0.005 C 
ATOM     19  C   UNL     1     -17.688 -10.982   0.459  1.00  0.00     0.004 C 
ATOM     20  C   UNL     1     -19.344 -11.710   2.208  1.00  0.00     0.042 C 
ATOM     21  C   UNL     1     -20.237 -11.178  -0.100  1.00  0.00     0.012 C 
ATOM     22  C   UNL     1     -17.648  -9.510   1.047  1.00  0.00    -0.003 C 
ATOM     23  C   UNL     1     -19.399 -10.278   2.789  1.00  0.00     0.144 C 
ATOM     24  C   UNL     1     -18.068  -9.538   2.553  1.00  0.00     0.149 C 
ATOM     25  C   UNL     1     -16.197  -8.949   0.981  1.00  0.00     0.014 C 
ATOM     26  C   UNL     1     -18.534  -8.507   0.262  1.00  0.00     0.014 C 
ENDROOT
BRANCH   1  27
ATOM     27  C   UNL     1     -16.057 -18.695  -1.854  1.00  0.00     0.048 C 
ATOM     28  O   UNL     1     -15.262 -18.725  -2.832  1.00  0.00    -0.550 OA
ATOM     29  O   UNL     1     -17.208 -19.475  -1.911  1.00  0.00    -0.550 OA
ENDBRANCH   1  27
BRANCH   7  30
ATOM     30  C   UNL     1     -16.194 -16.473   2.530  1.00  0.00    -0.077 C 
ATOM     31  C   UNL     1     -16.874 -16.202   3.853  1.00  0.00     0.039 C 
ATOM     32  C   UNL     1     -15.074 -15.780   2.268  1.00  0.00     0.008 C 
ENDBRANCH   7  30
BRANCH  23  33
ATOM     33  O   UNL     1     -19.642 -10.348   4.172  1.00  0.00    -0.390 OA
ATOM     34  H   UNL     1     -20.613 -10.524   4.286  1.00  0.00     0.211 HD
ENDBRANCH  23  33
BRANCH  24  35
ATOM     35  O   UNL     1     -17.056 -10.149   3.321  1.00  0.00    -0.390 OA
ATOM     36  H   UNL     1     -17.372 -11.060   3.557  1.00  0.00     0.211 HD
ENDBRANCH  24  35
TORSDOF 4
ENDMDL
MODEL 9
REMARK VINA RESULT:    -5.655     11.096     14.890
REMARK INTER + INTRA:          -7.332
REMARK INTER:                  -6.651
REMARK INTRA:                  -0.681
REMARK UNBOUND:                -0.685
REMARK SMILES C=C(C)[C@@H]1CC[C@]2(C(=O)[O-])CC[C@@]3(C)[C@H](CC[C@H]4[C@@]5(C)C[C@@H](O)[C@@H](O)C(C)(C)[C@@H]5CC[C@]43C)[C@H]12
REMARK SMILES IDX 7 1 6 2 34 3 11 4 5 5 15 6 4 7 12 8 16 9 13 10 17 11 32 12
REMARK SMILES IDX 14 13 18 14 31 15 33 16 19 17 30 18 29 19 21 20 20 21 26 22
REMARK SMILES IDX 22 23 24 24 27 25 28 26 8 27 9 28 10 29 2 30 3 31 1 32 23 33
REMARK SMILES IDX 25 35
REMARK H PARENT 23 34 25 36
REMARK Flexibility Score: inf
ROOT
ATOM      1  C   UNL     1     -17.339  -9.062   4.808  1.00  0.00     0.014 C 
ATOM      2  C   UNL     1     -17.514  -7.553   4.437  1.00  0.00     0.014 C 
ATOM      3  C   UNL     1     -18.605  -9.760   4.234  1.00  0.00     0.012 C 
ATOM      4  C   UNL     1     -16.017  -9.644   4.204  1.00  0.00     0.014 C 
ATOM      5  C   UNL     1     -18.822  -7.396   3.672  1.00  0.00     0.009 C 
ATOM      6  C   UNL     1     -18.552 -11.343   4.023  1.00  0.00     0.000 C 
ATOM      7  C   UNL     1     -19.208  -8.784   3.167  1.00  0.00     0.018 C 
ATOM      8  C   UNL     1     -16.155 -10.916   3.337  1.00  0.00     0.008 C 
ATOM      9  C   UNL     1     -19.619 -11.805   3.021  1.00  0.00     0.005 C 
ATOM     10  C   UNL     1     -17.114 -12.032   3.871  1.00  0.00    -0.024 C 
ATOM     11  C   UNL     1     -19.027 -12.287   1.702  1.00  0.00     0.005 C 
ATOM     12  C   UNL     1     -17.075 -13.426   2.934  1.00  0.00    -0.024 C 
ATOM     13  C   UNL     1     -16.574 -12.372   5.306  1.00  0.00     0.012 C 
ATOM     14  C   UNL     1     -18.321 -13.627   1.937  1.00  0.00     0.002 C 
ATOM     15  C   UNL     1     -15.726 -13.476   2.132  1.00  0.00     0.008 C 
ATOM     16  C   UNL     1     -17.078 -14.702   3.845  1.00  0.00     0.012 C 
ATOM     17  C   UNL     1     -18.125 -14.576   0.631  1.00  0.00    -0.023 C 
ATOM     18  C   UNL     1     -15.607 -14.569   1.081  1.00  0.00     0.005 C 
ATOM     19  C   UNL     1     -16.699 -14.362   0.013  1.00  0.00     0.004 C 
ATOM     20  C   UNL     1     -19.161 -14.233  -0.497  1.00  0.00     0.042 C 
ATOM     21  C   UNL     1     -18.381 -16.074   1.057  1.00  0.00     0.012 C 
ATOM     22  C   UNL     1     -16.406 -15.075  -1.372  1.00  0.00    -0.003 C 
ATOM     23  C   UNL     1     -18.949 -14.983  -1.833  1.00  0.00     0.144 C 
ATOM     24  C   UNL     1     -17.538 -14.722  -2.392  1.00  0.00     0.149 C 
ATOM     25  C   UNL     1     -15.066 -14.552  -1.968  1.00  0.00     0.014 C 
ATOM     26  C   UNL     1     -16.252 -16.615  -1.254  1.00  0.00     0.014 C 
ENDROOT
BRANCH   1  27
ATOM     27  C   UNL     1     -17.277  -9.148   6.336  1.00  0.00     0.048 C 
ATOM     28  O   UNL     1     -18.344  -9.118   7.007  1.00  0.00    -0.550 OA
ATOM     29  O   UNL     1     -16.068  -9.246   7.016  1.00  0.00    -0.550 OA
ENDBRANCH   1  27
BRANCH   7  30
ATOM     30  C   UNL     1     -18.855  -8.954   1.683  1.00  0.00    -0.077 C 
ATOM     31  C   UNL     1     -19.962  -9.160   0.674  1.00  0.00     0.039 C 
ATOM     32  C   UNL     1     -17.628  -8.704   1.198  1.00  0.00     0.008 C 
ENDBRANCH   7  30
BRANCH  23  33
ATOM     33  O   UNL     1     -19.900 -14.540  -2.768  1.00  0.00    -0.390 OA
ATOM     34  H   UNL     1     -19.428 -13.928  -3.392  1.00  0.00     0.211 HD
ENDBRANCH  23  33
BRANCH  24  35
ATOM     35  O   UNL     1     -17.434 -13.369  -2.773  1.00  0.00    -0.390 OA
ATOM     36  H   UNL     1     -18.007 -13.241  -3.574  1.00  0.00     0.211 HD
ENDBRANCH  24  35
TORSDOF 4
ENDMDL
