MODEL 1
REMARK VINA RESULT:     9.099      0.000      0.000
REMARK INTER + INTRA:           9.365
REMARK INTER:                   9.365
REMARK INTRA:                   0.000
REMARK UNBOUND:                 0.000
REMARK SMILES C=C1[C@H]2C[C@@]3(C[C@@H]1O)[C@H](CC[C@@H]3C)C2(C)C
REMARK SMILES IDX 13 1 12 2 11 3 10 4 9 5 5 6 4 7 3 8 14 9 15 10 16 11 2 12
REMARK SMILES IDX 1 13 7 14 6 15 8 16
REMARK H PARENT 8 17
REMARK Flexibility Score: inf
ROOT
ATOM      1  C   UNL     1     -34.110  25.270   6.969  1.00  0.00     0.008 C 
ATOM      2  C   UNL     1     -35.256  25.170   5.952  1.00  0.00    -0.008 C 
ATOM      3  C   UNL     1     -34.814  24.466   4.671  1.00  0.00     0.004 C 
ATOM      4  C   UNL     1     -36.106  24.013   4.018  1.00  0.00     0.005 C 
ATOM      5  C   UNL     1     -36.994  23.575   5.192  1.00  0.00     0.002 C 
ATOM      6  C   UNL     1     -36.536  24.409   6.416  1.00  0.00    -0.020 C 
ATOM      7  C   UNL     1     -37.714  25.341   6.712  1.00  0.00     0.016 C 
ATOM      8  C   UNL     1     -38.899  24.424   6.452  1.00  0.00     0.023 C 
ATOM      9  C   UNL     1     -38.547  23.762   5.086  1.00  0.00    -0.025 C 
ATOM     10  C   UNL     1     -39.003  24.696   3.934  1.00  0.00     0.012 C 
ATOM     11  C   UNL     1     -39.264  22.407   4.869  1.00  0.00     0.012 C 
ATOM     12  C   UNL     1     -38.944  23.413   7.599  1.00  0.00    -0.045 C 
ATOM     13  C   UNL     1     -40.125  23.055   8.125  1.00  0.00     0.011 C 
ATOM     14  C   UNL     1     -37.656  22.764   8.117  1.00  0.00     0.140 C 
ATOM     15  C   UNL     1     -36.353  23.491   7.664  1.00  0.00     0.044 C 
ENDROOT
BRANCH  14  16
ATOM     16  O   UNL     1     -37.598  21.422   7.705  1.00  0.00    -0.389 OA
ATOM     17  H   UNL     1     -36.780  21.027   8.107  1.00  0.00     0.211 HD
ENDBRANCH  14  16
TORSDOF 1
ENDMDL
MODEL 2
REMARK VINA RESULT:     9.700      1.346      3.780
REMARK INTER + INTRA:           9.983
REMARK INTER:                   9.983
REMARK INTRA:                   0.000
REMARK UNBOUND:                 0.000
REMARK SMILES C=C1[C@H]2C[C@@]3(C[C@@H]1O)[C@H](CC[C@@H]3C)C2(C)C
REMARK SMILES IDX 13 1 12 2 11 3 10 4 9 5 5 6 4 7 3 8 14 9 15 10 16 11 2 12
REMARK SMILES IDX 1 13 7 14 6 15 8 16
REMARK H PARENT 8 17
REMARK Flexibility Score: inf
ROOT
ATOM      1  C   UNL     1     -39.147  25.287   2.708  1.00  0.00     0.008 C 
ATOM      2  C   UNL     1     -39.577  24.546   3.982  1.00  0.00    -0.008 C 
ATOM      3  C   UNL     1     -40.125  23.156   3.668  1.00  0.00     0.004 C 
ATOM      4  C   UNL     1     -40.029  22.402   4.982  1.00  0.00     0.005 C 
ATOM      5  C   UNL     1     -38.711  22.884   5.604  1.00  0.00     0.002 C 
ATOM      6  C   UNL     1     -38.477  24.318   5.062  1.00  0.00    -0.020 C 
ATOM      7  C   UNL     1     -38.638  25.225   6.286  1.00  0.00     0.016 C 
ATOM      8  C   UNL     1     -37.975  24.392   7.371  1.00  0.00     0.023 C 
ATOM      9  C   UNL     1     -38.592  22.977   7.164  1.00  0.00    -0.025 C 
ATOM     10  C   UNL     1     -39.947  22.896   7.917  1.00  0.00     0.012 C 
ATOM     11  C   UNL     1     -37.703  21.841   7.730  1.00  0.00     0.012 C 
ATOM     12  C   UNL     1     -36.469  24.420   7.101  1.00  0.00    -0.045 C 
ATOM     13  C   UNL     1     -35.610  24.529   8.125  1.00  0.00     0.011 C 
ATOM     14  C   UNL     1     -35.931  24.269   5.673  1.00  0.00     0.140 C 
ATOM     15  C   UNL     1     -37.006  24.479   4.564  1.00  0.00     0.044 C 
ENDROOT
BRANCH  14  16
ATOM     16  O   UNL     1     -35.350  23.000   5.514  1.00  0.00    -0.389 OA
ATOM     17  H   UNL     1     -35.754  22.592   4.703  1.00  0.00     0.211 HD
ENDBRANCH  14  16
TORSDOF 1
ENDMDL
MODEL 3
REMARK VINA RESULT:    10.951      1.897      4.108
REMARK INTER + INTRA:          11.271
REMARK INTER:                  11.271
REMARK INTRA:                   0.000
REMARK UNBOUND:                 0.000
REMARK SMILES C=C1[C@H]2C[C@@]3(C[C@@H]1O)[C@H](CC[C@@H]3C)C2(C)C
REMARK SMILES IDX 13 1 12 2 11 3 10 4 9 5 5 6 4 7 3 8 14 9 15 10 16 11 2 12
REMARK SMILES IDX 1 13 7 14 6 15 8 16
REMARK H PARENT 8 17
REMARK Flexibility Score: inf
ROOT
ATOM      1  C   UNL     1     -39.942  20.801   8.125  1.00  0.00     0.008 C 
ATOM      2  C   UNL     1     -38.915  21.940   8.060  1.00  0.00    -0.008 C 
ATOM      3  C   UNL     1     -37.488  21.408   7.954  1.00  0.00     0.004 C 
ATOM      4  C   UNL     1     -36.683  22.575   7.411  1.00  0.00     0.005 C 
ATOM      5  C   UNL     1     -37.621  23.245   6.397  1.00  0.00     0.002 C 
ATOM      6  C   UNL     1     -39.064  22.947   6.879  1.00  0.00    -0.020 C 
ATOM      7  C   UNL     1     -39.615  24.308   7.315  1.00  0.00     0.016 C 
ATOM      8  C   UNL     1     -39.032  25.227   6.253  1.00  0.00     0.023 C 
ATOM      9  C   UNL     1     -37.536  24.797   6.188  1.00  0.00    -0.025 C 
ATOM     10  C   UNL     1     -36.742  25.549   7.289  1.00  0.00     0.012 C 
ATOM     11  C   UNL     1     -36.864  25.148   4.838  1.00  0.00     0.012 C 
ATOM     12  C   UNL     1     -39.781  24.938   4.951  1.00  0.00    -0.045 C 
ATOM     13  C   UNL     1     -40.125  25.950   4.141  1.00  0.00     0.011 C 
ATOM     14  C   UNL     1     -40.095  23.496   4.536  1.00  0.00     0.140 C 
ATOM     15  C   UNL     1     -39.946  22.457   5.688  1.00  0.00     0.044 C 
ENDROOT
BRANCH  14  16
ATOM     16  O   UNL     1     -39.268  23.116   3.466  1.00  0.00    -0.389 OA
ATOM     17  H   UNL     1     -39.090  23.932   2.928  1.00  0.00     0.211 HD
ENDBRANCH  14  16
TORSDOF 1
ENDMDL
MODEL 4
REMARK VINA RESULT:    11.904      1.787      3.606
REMARK INTER + INTRA:          12.252
REMARK INTER:                  12.252
REMARK INTRA:                   0.000
REMARK UNBOUND:                 0.000
REMARK SMILES C=C1[C@H]2C[C@@]3(C[C@@H]1O)[C@H](CC[C@@H]3C)C2(C)C
REMARK SMILES IDX 13 1 12 2 11 3 10 4 9 5 5 6 4 7 3 8 14 9 15 10 16 11 2 12
REMARK SMILES IDX 1 13 7 14 6 15 8 16
REMARK H PARENT 8 17
REMARK Flexibility Score: inf
ROOT
ATOM      1  C   UNL     1     -38.284  24.443   2.041  1.00  0.00     0.008 C 
ATOM      2  C   UNL     1     -38.505  25.214   3.349  1.00  0.00    -0.008 C 
ATOM      3  C   UNL     1     -39.822  25.987   3.334  1.00  0.00     0.004 C 
ATOM      4  C   UNL     1     -40.123  26.260   4.797  1.00  0.00     0.005 C 
ATOM      5  C   UNL     1     -39.674  24.983   5.523  1.00  0.00     0.002 C 
ATOM      6  C   UNL     1     -38.541  24.370   4.659  1.00  0.00    -0.020 C 
ATOM      7  C   UNL     1     -37.278  24.525   5.511  1.00  0.00     0.016 C 
ATOM      8  C   UNL     1     -37.812  24.231   6.904  1.00  0.00     0.023 C 
ATOM      9  C   UNL     1     -39.108  25.093   6.981  1.00  0.00    -0.025 C 
ATOM     10  C   UNL     1     -38.736  26.535   7.417  1.00  0.00     0.012 C 
ATOM     11  C   UNL     1     -40.125  24.564   8.022  1.00  0.00     0.012 C 
ATOM     12  C   UNL     1     -38.102  22.731   6.965  1.00  0.00    -0.045 C 
ATOM     13  C   UNL     1     -37.804  22.039   8.075  1.00  0.00     0.011 C 
ATOM     14  C   UNL     1     -38.781  22.020   5.789  1.00  0.00     0.140 C 
ATOM     15  C   UNL     1     -38.775  22.839   4.463  1.00  0.00     0.044 C 
ENDROOT
BRANCH  14  16
ATOM     16  O   UNL     1     -40.108  21.702   6.125  1.00  0.00    -0.389 OA
ATOM     17  H   UNL     1     -40.233  21.936   7.082  1.00  0.00     0.211 HD
ENDBRANCH  14  16
TORSDOF 1
ENDMDL
