MODEL 1
REMARK VINA RESULT:    -5.191      0.000      0.000
REMARK INTER + INTRA:          -6.407
REMARK INTER:                  -6.101
REMARK INTRA:                  -0.306
REMARK UNBOUND:                -0.306
REMARK SMILES O=c1c(O)c(-c2ccc(O)c(O)c2)oc2cc(O)ccc12
REMARK SMILES IDX 5 1 3 2 2 3 1 4 21 5 15 6 14 7 16 8 17 9 19 10 20 11 6 12
REMARK SMILES IDX 7 13 8 14 9 15 13 16 11 17 10 18 12 20 4 22 18 24
REMARK H PARENT 10 19 12 21 4 23 18 25
REMARK Flexibility Score: inf
ROOT
ATOM      1  C   UNL     1      24.797  -5.223 -31.791  1.00  0.00     0.180 A 
ATOM      2  C   UNL     1      25.797  -6.145 -31.417  1.00  0.00     0.208 A 
ATOM      3  C   UNL     1      25.410  -7.422 -30.980  1.00  0.00     0.235 A 
ATOM      4  O   UNL     1      26.285  -8.261 -30.631  1.00  0.00    -0.285 OA
ATOM      5  C   UNL     1      24.047  -7.755 -30.944  1.00  0.00     0.069 A 
ATOM      6  C   UNL     1      23.109  -6.784 -31.357  1.00  0.00     0.142 A 
ATOM      7  O   UNL     1      23.517  -5.584 -31.756  1.00  0.00    -0.452 OA
ATOM      8  C   UNL     1      21.742  -7.082 -31.345  1.00  0.00     0.094 A 
ATOM      9  C   UNL     1      21.298  -8.339 -30.924  1.00  0.00     0.119 A 
ATOM     10  C   UNL     1      22.226  -9.306 -30.511  1.00  0.00     0.047 A 
ATOM     11  C   UNL     1      23.594  -9.018 -30.521  1.00  0.00     0.020 A 
ENDROOT
BRANCH   1  12
ATOM     12  C   UNL     1      25.124  -3.852 -32.244  1.00  0.00     0.025 A 
ATOM     13  C   UNL     1      25.087  -3.552 -33.616  1.00  0.00     0.016 A 
ATOM     14  C   UNL     1      25.370  -2.260 -34.066  1.00  0.00     0.051 A 
ATOM     15  C   UNL     1      25.680  -1.246 -33.150  1.00  0.00     0.157 A 
ATOM     16  C   UNL     1      25.414  -2.825 -31.328  1.00  0.00     0.062 A 
ATOM     17  C   UNL     1      25.697  -1.528 -31.778  1.00  0.00     0.158 A 
BRANCH  15  18
ATOM     18  O   UNL     1      25.965   0.044 -33.594  1.00  0.00    -0.504 OA
ATOM     19  H   UNL     1      25.233   0.673 -33.903  1.00  0.00     0.293 HD
ENDBRANCH  15  18
BRANCH  17  20
ATOM     20  O   UNL     1      25.992  -0.514 -30.868  1.00  0.00    -0.504 OA
ATOM     21  H   UNL     1      25.366   0.270 -30.727  1.00  0.00     0.293 HD
ENDBRANCH  17  20
ENDBRANCH   1  12
BRANCH   2  22
ATOM     22  O   UNL     1      27.148  -5.801 -31.511  1.00  0.00    -0.502 OA
ATOM     23  H   UNL     1      27.743  -5.714 -30.696  1.00  0.00     0.293 HD
ENDBRANCH   2  22
BRANCH   9  24
ATOM     24  O   UNL     1      19.933  -8.619 -30.917  1.00  0.00    -0.508 OA
ATOM     25  H   UNL     1      19.296  -8.132 -30.298  1.00  0.00     0.293 HD
ENDBRANCH   9  24
TORSDOF 5
ENDMDL
MODEL 2
REMARK VINA RESULT:    -5.143      8.504      9.883
REMARK INTER + INTRA:          -6.350
REMARK INTER:                  -6.204
REMARK INTRA:                  -0.146
REMARK UNBOUND:                -0.306
REMARK SMILES O=c1c(O)c(-c2ccc(O)c(O)c2)oc2cc(O)ccc12
REMARK SMILES IDX 5 1 3 2 2 3 1 4 21 5 15 6 14 7 16 8 17 9 19 10 20 11 6 12
REMARK SMILES IDX 7 13 8 14 9 15 13 16 11 17 10 18 12 20 4 22 18 24
REMARK H PARENT 10 19 12 21 4 23 18 25
REMARK Flexibility Score: inf
ROOT
ATOM      1  C   UNL     1      21.268  -0.190 -25.630  1.00  0.00     0.180 A 
ATOM      2  C   UNL     1      22.526   0.327 -26.003  1.00  0.00     0.208 A 
ATOM      3  C   UNL     1      23.624   0.114 -25.154  1.00  0.00     0.235 A 
ATOM      4  O   UNL     1      24.757   0.576 -25.461  1.00  0.00    -0.285 OA
ATOM      5  C   UNL     1      23.449  -0.621 -23.971  1.00  0.00     0.069 A 
ATOM      6  C   UNL     1      22.163  -1.126 -23.681  1.00  0.00     0.142 A 
ATOM      7  O   UNL     1      21.149  -0.894 -24.507  1.00  0.00    -0.452 OA
ATOM      8  C   UNL     1      21.951  -1.872 -22.516  1.00  0.00     0.094 A 
ATOM      9  C   UNL     1      23.008  -2.119 -21.635  1.00  0.00     0.119 A 
ATOM     10  C   UNL     1      24.286  -1.618 -21.918  1.00  0.00     0.047 A 
ATOM     11  C   UNL     1      24.509  -0.873 -23.080  1.00  0.00     0.020 A 
ENDROOT
BRANCH   1  12
ATOM     12  C   UNL     1      20.060   0.008 -26.461  1.00  0.00     0.025 A 
ATOM     13  C   UNL     1      19.360  -1.113 -26.939  1.00  0.00     0.016 A 
ATOM     14  C   UNL     1      18.205  -0.951 -27.708  1.00  0.00     0.051 A 
ATOM     15  C   UNL     1      17.725   0.333 -27.998  1.00  0.00     0.157 A 
ATOM     16  C   UNL     1      19.562   1.294 -26.738  1.00  0.00     0.062 A 
ATOM     17  C   UNL     1      18.402   1.457 -27.509  1.00  0.00     0.158 A 
BRANCH  15  18
ATOM     18  O   UNL     1      16.574   0.500 -28.767  1.00  0.00    -0.504 OA
ATOM     19  H   UNL     1      16.056  -0.294 -29.125  1.00  0.00     0.293 HD
ENDBRANCH  15  18
BRANCH  17  20
ATOM     20  O   UNL     1      17.914   2.733 -27.788  1.00  0.00    -0.504 OA
ATOM     21  H   UNL     1      18.520   3.544 -27.785  1.00  0.00     0.293 HD
ENDBRANCH  17  20
ENDBRANCH   1  12
BRANCH   2  22
ATOM     22  O   UNL     1      22.680   1.012 -27.211  1.00  0.00    -0.502 OA
ATOM     23  H   UNL     1      23.577   1.361 -27.526  1.00  0.00     0.293 HD
ENDBRANCH   2  22
BRANCH   9  24
ATOM     24  O   UNL     1      22.779  -2.863 -20.478  1.00  0.00    -0.508 OA
ATOM     25  H   UNL     1      22.053  -3.569 -20.439  1.00  0.00     0.293 HD
ENDBRANCH   9  24
TORSDOF 5
ENDMDL
MODEL 3
REMARK VINA RESULT:    -4.860      3.499      6.221
REMARK INTER + INTRA:          -6.018
REMARK INTER:                  -5.933
REMARK INTRA:                  -0.085
REMARK UNBOUND:                -0.306
REMARK SMILES O=c1c(O)c(-c2ccc(O)c(O)c2)oc2cc(O)ccc12
REMARK SMILES IDX 5 1 3 2 2 3 1 4 21 5 15 6 14 7 16 8 17 9 19 10 20 11 6 12
REMARK SMILES IDX 7 13 8 14 9 15 13 16 11 17 10 18 12 20 4 22 18 24
REMARK H PARENT 10 19 12 21 4 23 18 25
REMARK Flexibility Score: inf
ROOT
ATOM      1  C   UNL     1      23.156  -4.129 -33.251  1.00  0.00     0.180 A 
ATOM      2  C   UNL     1      23.149  -2.747 -32.968  1.00  0.00     0.208 A 
ATOM      3  C   UNL     1      22.362  -1.898 -33.763  1.00  0.00     0.235 A 
ATOM      4  O   UNL     1      22.348  -0.657 -33.537  1.00  0.00    -0.285 OA
ATOM      5  C   UNL     1      21.591  -2.444 -34.801  1.00  0.00     0.069 A 
ATOM      6  C   UNL     1      21.634  -3.840 -35.004  1.00  0.00     0.142 A 
ATOM      7  O   UNL     1      22.399  -4.607 -34.235  1.00  0.00    -0.452 OA
ATOM      8  C   UNL     1      20.872  -4.423 -36.023  1.00  0.00     0.094 A 
ATOM      9  C   UNL     1      20.066  -3.628 -36.844  1.00  0.00     0.119 A 
ATOM     10  C   UNL     1      20.022  -2.241 -36.647  1.00  0.00     0.047 A 
ATOM     11  C   UNL     1      20.779  -1.649 -35.631  1.00  0.00     0.020 A 
ENDROOT
BRANCH   1  12
ATOM     12  C   UNL     1      23.973  -5.085 -32.470  1.00  0.00     0.025 A 
ATOM     13  C   UNL     1      23.360  -6.215 -31.904  1.00  0.00     0.016 A 
ATOM     14  C   UNL     1      24.115  -7.142 -31.181  1.00  0.00     0.051 A 
ATOM     15  C   UNL     1      25.495  -6.961 -31.027  1.00  0.00     0.157 A 
ATOM     16  C   UNL     1      25.363  -4.919 -32.329  1.00  0.00     0.062 A 
ATOM     17  C   UNL     1      26.121  -5.850 -31.606  1.00  0.00     0.158 A 
BRANCH  15  18
ATOM     18  O   UNL     1      26.252  -7.883 -30.305  1.00  0.00    -0.504 OA
ATOM     19  H   UNL     1      27.100  -7.610 -29.822  1.00  0.00     0.293 HD
ENDBRANCH  15  18
BRANCH  17  20
ATOM     20  O   UNL     1      27.497  -5.680 -31.462  1.00  0.00    -0.504 OA
ATOM     21  H   UNL     1      28.063  -6.348 -30.951  1.00  0.00     0.293 HD
ENDBRANCH  17  20
ENDBRANCH   1  12
BRANCH   2  22
ATOM     22  O   UNL     1      23.888  -2.239 -31.897  1.00  0.00    -0.502 OA
ATOM     23  H   UNL     1      24.002  -2.746 -31.028  1.00  0.00     0.293 HD
ENDBRANCH   2  22
BRANCH   9  24
ATOM     24  O   UNL     1      19.314  -4.225 -37.854  1.00  0.00    -0.508 OA
ATOM     25  H   UNL     1      18.305  -4.151 -37.876  1.00  0.00     0.293 HD
ENDBRANCH   9  24
TORSDOF 5
ENDMDL
MODEL 4
REMARK VINA RESULT:    -4.801      8.464      9.986
REMARK INTER + INTRA:          -5.949
REMARK INTER:                  -5.761
REMARK INTRA:                  -0.188
REMARK UNBOUND:                -0.306
REMARK SMILES O=c1c(O)c(-c2ccc(O)c(O)c2)oc2cc(O)ccc12
REMARK SMILES IDX 5 1 3 2 2 3 1 4 21 5 15 6 14 7 16 8 17 9 19 10 20 11 6 12
REMARK SMILES IDX 7 13 8 14 9 15 13 16 11 17 10 18 12 20 4 22 18 24
REMARK H PARENT 10 19 12 21 4 23 18 25
REMARK Flexibility Score: inf
ROOT
ATOM      1  C   UNL     1      21.292  -1.426 -24.987  1.00  0.00     0.180 A 
ATOM      2  C   UNL     1      20.899  -2.591 -25.677  1.00  0.00     0.208 A 
ATOM      3  C   UNL     1      19.930  -2.486 -26.687  1.00  0.00     0.235 A 
ATOM      4  O   UNL     1      19.554  -3.515 -27.311  1.00  0.00    -0.285 OA
ATOM      5  C   UNL     1      19.393  -1.226 -26.999  1.00  0.00     0.069 A 
ATOM      6  C   UNL     1      19.857  -0.104 -26.278  1.00  0.00     0.142 A 
ATOM      7  O   UNL     1      20.769  -0.249 -25.324  1.00  0.00    -0.452 OA
ATOM      8  C   UNL     1      19.353   1.169 -26.567  1.00  0.00     0.094 A 
ATOM      9  C   UNL     1      18.389   1.337 -27.565  1.00  0.00     0.119 A 
ATOM     10  C   UNL     1      17.925   0.225 -28.281  1.00  0.00     0.047 A 
ATOM     11  C   UNL     1      18.423  -1.051 -28.002  1.00  0.00     0.020 A 
ENDROOT
BRANCH   1  12
ATOM     12  C   UNL     1      22.294  -1.459 -23.898  1.00  0.00     0.025 A 
ATOM     13  C   UNL     1      23.500  -0.754 -24.048  1.00  0.00     0.016 A 
ATOM     14  C   UNL     1      24.451  -0.753 -23.025  1.00  0.00     0.051 A 
ATOM     15  C   UNL     1      24.205  -1.444 -21.831  1.00  0.00     0.157 A 
ATOM     16  C   UNL     1      22.042  -2.133 -22.689  1.00  0.00     0.062 A 
ATOM     17  C   UNL     1      22.996  -2.131 -21.661  1.00  0.00     0.158 A 
BRANCH  15  18
ATOM     18  O   UNL     1      25.151  -1.447 -20.808  1.00  0.00    -0.504 OA
ATOM     19  H   UNL     1      25.390  -0.601 -20.304  1.00  0.00     0.293 HD
ENDBRANCH  15  18
BRANCH  17  20
ATOM     20  O   UNL     1      22.747  -2.805 -20.467  1.00  0.00    -0.504 OA
ATOM     21  H   UNL     1      22.202  -3.659 -20.444  1.00  0.00     0.293 HD
ENDBRANCH  17  20
ENDBRANCH   1  12
BRANCH   2  22
ATOM     22  O   UNL     1      21.487  -3.823 -25.379  1.00  0.00    -0.502 OA
ATOM     23  H   UNL     1      21.017  -4.529 -24.825  1.00  0.00     0.293 HD
ENDBRANCH   2  22
BRANCH   9  24
ATOM     24  O   UNL     1      17.898   2.612 -27.838  1.00  0.00    -0.508 OA
ATOM     25  H   UNL     1      18.456   3.300 -28.329  1.00  0.00     0.293 HD
ENDBRANCH   9  24
TORSDOF 5
ENDMDL
MODEL 5
REMARK VINA RESULT:    -4.748      8.766     10.210
REMARK INTER + INTRA:          -5.886
REMARK INTER:                  -5.656
REMARK INTRA:                  -0.230
REMARK UNBOUND:                -0.306
REMARK SMILES O=c1c(O)c(-c2ccc(O)c(O)c2)oc2cc(O)ccc12
REMARK SMILES IDX 5 1 3 2 2 3 1 4 21 5 15 6 14 7 16 8 17 9 19 10 20 11 6 12
REMARK SMILES IDX 7 13 8 14 9 15 13 16 11 17 10 18 12 20 4 22 18 24
REMARK H PARENT 10 19 12 21 4 23 18 25
REMARK Flexibility Score: inf
ROOT
ATOM      1  C   UNL     1      21.371  -0.861 -24.619  1.00  0.00     0.180 A 
ATOM      2  C   UNL     1      21.103  -1.815 -23.616  1.00  0.00     0.208 A 
ATOM      3  C   UNL     1      22.162  -2.266 -22.810  1.00  0.00     0.235 A 
ATOM      4  O   UNL     1      21.950  -3.127 -21.914  1.00  0.00    -0.285 OA
ATOM      5  C   UNL     1      23.450  -1.743 -23.009  1.00  0.00     0.069 A 
ATOM      6  C   UNL     1      23.630  -0.773 -24.018  1.00  0.00     0.142 A 
ATOM      7  O   UNL     1      22.603  -0.381 -24.764  1.00  0.00    -0.452 OA
ATOM      8  C   UNL     1      24.897  -0.221 -24.239  1.00  0.00     0.094 A 
ATOM      9  C   UNL     1      25.988  -0.628 -23.465  1.00  0.00     0.119 A 
ATOM     10  C   UNL     1      25.814  -1.592 -22.464  1.00  0.00     0.047 A 
ATOM     11  C   UNL     1      24.552  -2.149 -22.234  1.00  0.00     0.020 A 
ENDROOT
BRANCH   1  12
ATOM     12  C   UNL     1      20.312  -0.351 -25.520  1.00  0.00     0.025 A 
ATOM     13  C   UNL     1      19.923   0.995 -25.434  1.00  0.00     0.016 A 
ATOM     14  C   UNL     1      18.941   1.504 -26.288  1.00  0.00     0.051 A 
ATOM     15  C   UNL     1      18.346   0.678 -27.250  1.00  0.00     0.157 A 
ATOM     16  C   UNL     1      19.726  -1.171 -26.501  1.00  0.00     0.062 A 
ATOM     17  C   UNL     1      18.742  -0.661 -27.360  1.00  0.00     0.158 A 
BRANCH  15  18
ATOM     18  O   UNL     1      17.364   1.181 -28.103  1.00  0.00    -0.504 OA
ATOM     19  H   UNL     1      17.234   2.177 -28.232  1.00  0.00     0.293 HD
ENDBRANCH  15  18
BRANCH  17  20
ATOM     20  O   UNL     1      18.158  -1.477 -28.328  1.00  0.00    -0.504 OA
ATOM     21  H   UNL     1      18.710  -1.910 -29.059  1.00  0.00     0.293 HD
ENDBRANCH  17  20
ENDBRANCH   1  12
BRANCH   2  22
ATOM     22  O   UNL     1      19.802  -2.280 -23.409  1.00  0.00    -0.502 OA
ATOM     23  H   UNL     1      19.313  -2.845 -24.093  1.00  0.00     0.293 HD
ENDBRANCH   2  22
BRANCH   9  24
ATOM     24  O   UNL     1      27.243  -0.068 -23.700  1.00  0.00    -0.508 OA
ATOM     25  H   UNL     1      27.396   0.931 -23.645  1.00  0.00     0.293 HD
ENDBRANCH   9  24
TORSDOF 5
ENDMDL
MODEL 6
REMARK VINA RESULT:    -4.725      8.551     10.111
REMARK INTER + INTRA:          -5.859
REMARK INTER:                  -5.870
REMARK INTRA:                   0.011
REMARK UNBOUND:                -0.306
REMARK SMILES O=c1c(O)c(-c2ccc(O)c(O)c2)oc2cc(O)ccc12
REMARK SMILES IDX 5 1 3 2 2 3 1 4 21 5 15 6 14 7 16 8 17 9 19 10 20 11 6 12
REMARK SMILES IDX 7 13 8 14 9 15 13 16 11 17 10 18 12 20 4 22 18 24
REMARK H PARENT 10 19 12 21 4 23 18 25
REMARK Flexibility Score: inf
ROOT
ATOM      1  C   UNL     1      21.437  -0.076 -25.777  1.00  0.00     0.180 A 
ATOM      2  C   UNL     1      21.514  -0.901 -24.636  1.00  0.00     0.208 A 
ATOM      3  C   UNL     1      22.740  -1.011 -23.961  1.00  0.00     0.235 A 
ATOM      4  O   UNL     1      22.836  -1.751 -22.944  1.00  0.00    -0.285 OA
ATOM      5  C   UNL     1      23.849  -0.286 -24.423  1.00  0.00     0.069 A 
ATOM      6  C   UNL     1      23.685   0.537 -25.559  1.00  0.00     0.142 A 
ATOM      7  O   UNL     1      22.509   0.606 -26.173  1.00  0.00    -0.452 OA
ATOM      8  C   UNL     1      24.764   1.283 -26.044  1.00  0.00     0.094 A 
ATOM      9  C   UNL     1      26.009   1.217 -25.411  1.00  0.00     0.119 A 
ATOM     10  C   UNL     1      26.177   0.400 -24.284  1.00  0.00     0.047 A 
ATOM     11  C   UNL     1      25.104  -0.349 -23.791  1.00  0.00     0.020 A 
ENDROOT
BRANCH   1  12
ATOM     12  C   UNL     1      20.186   0.077 -26.552  1.00  0.00     0.025 A 
ATOM     13  C   UNL     1      19.491  -1.068 -26.975  1.00  0.00     0.016 A 
ATOM     14  C   UNL     1      18.297  -0.948 -27.690  1.00  0.00     0.051 A 
ATOM     15  C   UNL     1      17.772   0.318 -27.980  1.00  0.00     0.157 A 
ATOM     16  C   UNL     1      19.644   1.346 -26.828  1.00  0.00     0.062 A 
ATOM     17  C   UNL     1      18.444   1.467 -27.544  1.00  0.00     0.158 A 
BRANCH  15  18
ATOM     18  O   UNL     1      16.582   0.443 -28.694  1.00  0.00    -0.504 OA
ATOM     19  H   UNL     1      16.498   1.082 -29.476  1.00  0.00     0.293 HD
ENDBRANCH  15  18
BRANCH  17  20
ATOM     20  O   UNL     1      17.913   2.726 -27.822  1.00  0.00    -0.504 OA
ATOM     21  H   UNL     1      18.382   3.373 -28.444  1.00  0.00     0.293 HD
ENDBRANCH  17  20
ENDBRANCH   1  12
BRANCH   2  22
ATOM     22  O   UNL     1      20.380  -1.572 -24.170  1.00  0.00    -0.502 OA
ATOM     23  H   UNL     1      20.387  -2.561 -23.950  1.00  0.00     0.293 HD
ENDBRANCH   2  22
BRANCH   9  24
ATOM     24  O   UNL     1      27.074   1.966 -25.908  1.00  0.00    -0.508 OA
ATOM     25  H   UNL     1      27.358   2.835 -25.473  1.00  0.00     0.293 HD
ENDBRANCH   9  24
TORSDOF 5
ENDMDL
MODEL 7
REMARK VINA RESULT:    -4.574      4.615      5.881
REMARK INTER + INTRA:          -5.681
REMARK INTER:                  -5.439
REMARK INTRA:                  -0.242
REMARK UNBOUND:                -0.306
REMARK SMILES O=c1c(O)c(-c2ccc(O)c(O)c2)oc2cc(O)ccc12
REMARK SMILES IDX 5 1 3 2 2 3 1 4 21 5 15 6 14 7 16 8 17 9 19 10 20 11 6 12
REMARK SMILES IDX 7 13 8 14 9 15 13 16 11 17 10 18 12 20 4 22 18 24
REMARK H PARENT 10 19 12 21 4 23 18 25
REMARK Flexibility Score: inf
ROOT
ATOM      1  C   UNL     1      21.981  -3.321 -34.520  1.00  0.00     0.180 A 
ATOM      2  C   UNL     1      21.431  -4.434 -33.850  1.00  0.00     0.208 A 
ATOM      3  C   UNL     1      20.332  -5.093 -34.423  1.00  0.00     0.235 A 
ATOM      4  O   UNL     1      19.815  -6.084 -33.837  1.00  0.00    -0.285 OA
ATOM      5  C   UNL     1      19.822  -4.645 -35.652  1.00  0.00     0.069 A 
ATOM      6  C   UNL     1      20.444  -3.539 -36.271  1.00  0.00     0.142 A 
ATOM      7  O   UNL     1      21.476  -2.938 -35.691  1.00  0.00    -0.452 OA
ATOM      8  C   UNL     1      19.971  -3.069 -37.501  1.00  0.00     0.094 A 
ATOM      9  C   UNL     1      18.881  -3.689 -38.121  1.00  0.00     0.119 A 
ATOM     10  C   UNL     1      18.260  -4.786 -37.509  1.00  0.00     0.047 A 
ATOM     11  C   UNL     1      18.726  -5.264 -36.280  1.00  0.00     0.020 A 
ENDROOT
BRANCH   1  12
ATOM     12  C   UNL     1      23.127  -2.563 -33.972  1.00  0.00     0.025 A 
ATOM     13  C   UNL     1      24.418  -3.112 -34.048  1.00  0.00     0.016 A 
ATOM     14  C   UNL     1      25.518  -2.405 -33.557  1.00  0.00     0.051 A 
ATOM     15  C   UNL     1      25.347  -1.133 -32.996  1.00  0.00     0.157 A 
ATOM     16  C   UNL     1      22.964  -1.276 -33.428  1.00  0.00     0.062 A 
ATOM     17  C   UNL     1      24.068  -0.565 -32.936  1.00  0.00     0.158 A 
BRANCH  15  18
ATOM     18  O   UNL     1      26.441  -0.424 -32.503  1.00  0.00    -0.504 OA
ATOM     19  H   UNL     1      26.384   0.567 -32.304  1.00  0.00     0.293 HD
ENDBRANCH  15  18
BRANCH  17  20
ATOM     20  O   UNL     1      23.902   0.707 -32.390  1.00  0.00    -0.504 OA
ATOM     21  H   UNL     1      24.692   1.251 -32.065  1.00  0.00     0.293 HD
ENDBRANCH  17  20
ENDBRANCH   1  12
BRANCH   2  22
ATOM     22  O   UNL     1      21.991  -4.888 -32.653  1.00  0.00    -0.502 OA
ATOM     23  H   UNL     1      21.563  -5.618 -32.097  1.00  0.00     0.293 HD
ENDBRANCH   2  22
BRANCH   9  24
ATOM     24  O   UNL     1      18.422  -3.206 -39.346  1.00  0.00    -0.508 OA
ATOM     25  H   UNL     1      18.203  -3.831 -40.112  1.00  0.00     0.293 HD
ENDBRANCH   9  24
TORSDOF 5
ENDMDL
MODEL 8
REMARK VINA RESULT:    -4.566      8.436     10.566
REMARK INTER + INTRA:          -5.672
REMARK INTER:                  -5.399
REMARK INTRA:                  -0.273
REMARK UNBOUND:                -0.306
REMARK SMILES O=c1c(O)c(-c2ccc(O)c(O)c2)oc2cc(O)ccc12
REMARK SMILES IDX 5 1 3 2 2 3 1 4 21 5 15 6 14 7 16 8 17 9 19 10 20 11 6 12
REMARK SMILES IDX 7 13 8 14 9 15 13 16 11 17 10 18 12 20 4 22 18 24
REMARK H PARENT 10 19 12 21 4 23 18 25
REMARK Flexibility Score: inf
ROOT
ATOM      1  C   UNL     1      21.799  -0.832 -24.632  1.00  0.00     0.180 A 
ATOM      2  C   UNL     1      22.797   0.083 -25.027  1.00  0.00     0.208 A 
ATOM      3  C   UNL     1      22.490   1.038 -26.009  1.00  0.00     0.235 A 
ATOM      4  O   UNL     1      23.369   1.859 -26.387  1.00  0.00    -0.285 OA
ATOM      5  C   UNL     1      21.198   1.073 -26.556  1.00  0.00     0.069 A 
ATOM      6  C   UNL     1      20.247   0.139 -26.090  1.00  0.00     0.142 A 
ATOM      7  O   UNL     1      20.582  -0.754 -25.166  1.00  0.00    -0.452 OA
ATOM      8  C   UNL     1      18.946   0.150 -26.604  1.00  0.00     0.094 A 
ATOM      9  C   UNL     1      18.581   1.081 -27.581  1.00  0.00     0.119 A 
ATOM     10  C   UNL     1      19.522   2.009 -28.048  1.00  0.00     0.047 A 
ATOM     11  C   UNL     1      20.824   2.008 -27.540  1.00  0.00     0.020 A 
ENDROOT
BRANCH   1  12
ATOM     12  C   UNL     1      22.050  -1.879 -23.617  1.00  0.00     0.025 A 
ATOM     13  C   UNL     1      22.039  -1.537 -22.255  1.00  0.00     0.016 A 
ATOM     14  C   UNL     1      22.253  -2.513 -21.278  1.00  0.00     0.051 A 
ATOM     15  C   UNL     1      22.466  -3.847 -21.648  1.00  0.00     0.157 A 
ATOM     16  C   UNL     1      22.245  -3.224 -23.983  1.00  0.00     0.062 A 
ATOM     17  C   UNL     1      22.458  -4.204 -23.003  1.00  0.00     0.158 A 
BRANCH  15  18
ATOM     18  O   UNL     1      22.682  -4.824 -20.678  1.00  0.00    -0.504 OA
ATOM     19  H   UNL     1      23.558  -4.885 -20.173  1.00  0.00     0.293 HD
ENDBRANCH  15  18
BRANCH  17  20
ATOM     20  O   UNL     1      22.657  -5.535 -23.368  1.00  0.00    -0.504 OA
ATOM     21  H   UNL     1      22.722  -6.270 -22.674  1.00  0.00     0.293 HD
ENDBRANCH  17  20
ENDBRANCH   1  12
BRANCH   2  22
ATOM     22  O   UNL     1      24.060   0.055 -24.429  1.00  0.00    -0.502 OA
ATOM     23  H   UNL     1      24.632  -0.780 -24.409  1.00  0.00     0.293 HD
ENDBRANCH   2  22
BRANCH   9  24
ATOM     24  O   UNL     1      17.280   1.076 -28.083  1.00  0.00    -0.508 OA
ATOM     25  H   UNL     1      16.685   1.893 -28.018  1.00  0.00     0.293 HD
ENDBRANCH   9  24
TORSDOF 5
ENDMDL
MODEL 9
REMARK VINA RESULT:    -4.560     10.351     11.772
REMARK INTER + INTRA:          -5.666
REMARK INTER:                  -5.342
REMARK INTRA:                  -0.324
REMARK UNBOUND:                -0.306
REMARK SMILES O=c1c(O)c(-c2ccc(O)c(O)c2)oc2cc(O)ccc12
REMARK SMILES IDX 5 1 3 2 2 3 1 4 21 5 15 6 14 7 16 8 17 9 19 10 20 11 6 12
REMARK SMILES IDX 7 13 8 14 9 15 13 16 11 17 10 18 12 20 4 22 18 24
REMARK H PARENT 10 19 12 21 4 23 18 25
REMARK Flexibility Score: inf
ROOT
ATOM      1  C   UNL     1      16.397 -10.416 -37.922  1.00  0.00     0.180 A 
ATOM      2  C   UNL     1      15.622 -11.411 -38.552  1.00  0.00     0.208 A 
ATOM      3  C   UNL     1      16.075 -12.740 -38.526  1.00  0.00     0.235 A 
ATOM      4  O   UNL     1      15.405 -13.646 -39.091  1.00  0.00    -0.285 OA
ATOM      5  C   UNL     1      17.272 -13.047 -37.860  1.00  0.00     0.069 A 
ATOM      6  C   UNL     1      17.978 -11.997 -37.233  1.00  0.00     0.142 A 
ATOM      7  O   UNL     1      17.518 -10.752 -37.289  1.00  0.00    -0.452 OA
ATOM      8  C   UNL     1      19.170 -12.265 -36.551  1.00  0.00     0.094 A 
ATOM      9  C   UNL     1      19.668 -13.570 -36.488  1.00  0.00     0.119 A 
ATOM     10  C   UNL     1      18.972 -14.615 -37.110  1.00  0.00     0.047 A 
ATOM     11  C   UNL     1      17.779 -14.358 -37.793  1.00  0.00     0.020 A 
ENDROOT
BRANCH   1  12
ATOM     12  C   UNL     1      15.996  -8.991 -37.922  1.00  0.00     0.025 A 
ATOM     13  C   UNL     1      15.252  -8.483 -36.844  1.00  0.00     0.016 A 
ATOM     14  C   UNL     1      14.880  -7.137 -36.812  1.00  0.00     0.051 A 
ATOM     15  C   UNL     1      15.259  -6.276 -37.849  1.00  0.00     0.157 A 
ATOM     16  C   UNL     1      16.391  -8.117 -38.951  1.00  0.00     0.062 A 
ATOM     17  C   UNL     1      16.020  -6.765 -38.919  1.00  0.00     0.158 A 
BRANCH  15  18
ATOM     18  O   UNL     1      14.889  -4.932 -37.823  1.00  0.00    -0.504 OA
ATOM     19  H   UNL     1      15.349  -4.244 -38.407  1.00  0.00     0.293 HD
ENDBRANCH  15  18
BRANCH  17  20
ATOM     20  O   UNL     1      16.407  -5.903 -39.943  1.00  0.00    -0.504 OA
ATOM     21  H   UNL     1      16.865  -5.020 -39.747  1.00  0.00     0.293 HD
ENDBRANCH  17  20
ENDBRANCH   1  12
BRANCH   2  22
ATOM     22  O   UNL     1      14.409 -11.083 -39.164  1.00  0.00    -0.502 OA
ATOM     23  H   UNL     1      13.655 -10.627 -38.664  1.00  0.00     0.293 HD
ENDBRANCH   2  22
BRANCH   9  24
ATOM     24  O   UNL     1      20.858 -13.819 -35.805  1.00  0.00    -0.508 OA
ATOM     25  H   UNL     1      21.214 -13.174 -35.110  1.00  0.00     0.293 HD
ENDBRANCH   9  24
TORSDOF 5
ENDMDL
