MODEL 1
REMARK VINA RESULT:    -3.694      0.000      0.000
REMARK INTER + INTRA:          -4.530
REMARK INTER:                  -4.449
REMARK INTRA:                  -0.081
REMARK UNBOUND:                -0.081
REMARK SMILES CC[C@@H](C)[C@@H]([NH3+])C(=O)[O-]
REMARK SMILES IDX 3 1 4 2 5 3 6 4 7 8 8 9 9 10 2 11 1 12
REMARK H PARENT 6 5 6 6 6 7
REMARK Flexibility Score: inf
ROOT
ATOM      1  C   UNL     1      64.351   9.424   8.857  1.00  0.00     0.050 C 
ATOM      2  C   UNL     1      63.414  10.565   9.292  1.00  0.00     0.014 C 
ENDROOT
BRANCH   1   3
ATOM      3  C   UNL     1      65.859   9.742   9.121  1.00  0.00     0.230 C 
BRANCH   3   4
ATOM      4  N   UNL     1      66.537   8.642   9.821  1.00  0.00    -0.350 N 
ATOM      5  H   UNL     1      65.901   7.814   9.893  1.00  0.00     0.345 HD
ATOM      6  H   UNL     1      67.416   8.358   9.334  1.00  0.00     0.345 HD
ATOM      7  H   UNL     1      66.782   8.945  10.792  1.00  0.00     0.345 HD
ENDBRANCH   3   4
BRANCH   3   8
ATOM      8  C   UNL     1      66.607  10.109   7.861  1.00  0.00     0.099 C 
ATOM      9  O   UNL     1      67.866  10.099   7.852  1.00  0.00    -0.544 OA
ATOM     10  O   UNL     1      65.921  10.483   6.712  1.00  0.00    -0.544 OA
ENDBRANCH   3   8
ENDBRANCH   1   3
BRANCH   1  11
ATOM     11  C   UNL     1      63.888   8.099   9.517  1.00  0.00     0.006 C 
ATOM     12  C   UNL     1      62.831   7.353   8.700  1.00  0.00     0.004 C 
ENDBRANCH   1  11
TORSDOF 4
ENDMDL
MODEL 2
REMARK VINA RESULT:    -3.550     17.540     18.373
REMARK INTER + INTRA:          -4.358
REMARK INTER:                  -4.276
REMARK INTRA:                  -0.082
REMARK UNBOUND:                -0.081
REMARK SMILES CC[C@@H](C)[C@@H]([NH3+])C(=O)[O-]
REMARK SMILES IDX 3 1 4 2 5 3 6 4 7 8 8 9 9 10 2 11 1 12
REMARK H PARENT 6 5 6 6 6 7
REMARK Flexibility Score: inf
ROOT
ATOM      1  C   UNL     1      71.084  -7.643   4.412  1.00  0.00     0.050 C 
ATOM      2  C   UNL     1      70.522  -9.076   4.397  1.00  0.00     0.014 C 
ENDROOT
BRANCH   1   3
ATOM      3  C   UNL     1      71.481  -7.162   5.845  1.00  0.00     0.230 C 
BRANCH   3   4
ATOM      4  N   UNL     1      72.588  -6.194   5.811  1.00  0.00    -0.350 N 
ATOM      5  H   UNL     1      72.551  -5.574   6.653  1.00  0.00     0.345 HD
ATOM      6  H   UNL     1      73.517  -6.672   5.777  1.00  0.00     0.345 HD
ATOM      7  H   UNL     1      72.498  -5.591   4.961  1.00  0.00     0.345 HD
ENDBRANCH   3   4
BRANCH   3   8
ATOM      8  C   UNL     1      70.311  -6.600   6.617  1.00  0.00     0.099 C 
ATOM      9  O   UNL     1      69.992  -5.389   6.483  1.00  0.00    -0.544 OA
ATOM     10  O   UNL     1      69.593  -7.400   7.498  1.00  0.00    -0.544 OA
ENDBRANCH   3   8
ENDBRANCH   1   3
BRANCH   1  11
ATOM     11  C   UNL     1      72.248  -7.537   3.393  1.00  0.00     0.006 C 
ATOM     12  C   UNL     1      72.592  -8.869   2.724  1.00  0.00     0.004 C 
ENDBRANCH   1  11
TORSDOF 4
ENDMDL
MODEL 3
REMARK VINA RESULT:    -3.533      1.467      1.856
REMARK INTER + INTRA:          -4.336
REMARK INTER:                  -4.237
REMARK INTRA:                  -0.099
REMARK UNBOUND:                -0.081
REMARK SMILES CC[C@@H](C)[C@@H]([NH3+])C(=O)[O-]
REMARK SMILES IDX 3 1 4 2 5 3 6 4 7 8 8 9 9 10 2 11 1 12
REMARK H PARENT 6 5 6 6 6 7
REMARK Flexibility Score: inf
ROOT
ATOM      1  C   UNL     1      62.839   8.666   9.093  1.00  0.00     0.050 C 
ATOM      2  C   UNL     1      61.879   9.042  10.236  1.00  0.00     0.014 C 
ENDROOT
BRANCH   1   3
ATOM      3  C   UNL     1      64.228   9.373   9.211  1.00  0.00     0.230 C 
BRANCH   3   4
ATOM      4  N   UNL     1      65.253   8.478   9.769  1.00  0.00    -0.350 N 
ATOM      5  H   UNL     1      66.036   9.039  10.178  1.00  0.00     0.345 HD
ATOM      6  H   UNL     1      64.857   7.851  10.505  1.00  0.00     0.345 HD
ATOM      7  H   UNL     1      65.647   7.881   9.006  1.00  0.00     0.345 HD
ENDBRANCH   3   4
BRANCH   3   8
ATOM      8  C   UNL     1      64.697   9.962   7.901  1.00  0.00     0.099 C 
ATOM      9  O   UNL     1      65.785  10.594   7.849  1.00  0.00    -0.544 OA
ATOM     10  O   UNL     1      63.926   9.837   6.751  1.00  0.00    -0.544 OA
ENDBRANCH   3   8
ENDBRANCH   1   3
BRANCH   1  11
ATOM     11  C   UNL     1      62.951   7.122   9.002  1.00  0.00     0.006 C 
ATOM     12  C   UNL     1      62.147   6.393  10.081  1.00  0.00     0.004 C 
ENDBRANCH   1  11
TORSDOF 4
ENDMDL
MODEL 4
REMARK VINA RESULT:    -3.418     16.548     17.404
REMARK INTER + INTRA:          -4.198
REMARK INTER:                  -4.208
REMARK INTRA:                   0.010
REMARK UNBOUND:                -0.081
REMARK SMILES CC[C@@H](C)[C@@H]([NH3+])C(=O)[O-]
REMARK SMILES IDX 3 1 4 2 5 3 6 4 7 8 8 9 9 10 2 11 1 12
REMARK H PARENT 6 5 6 6 6 7
REMARK Flexibility Score: inf
ROOT
ATOM      1  C   UNL     1      70.770  -7.616   6.266  1.00  0.00     0.050 C 
ATOM      2  C   UNL     1      71.761  -6.468   6.001  1.00  0.00     0.014 C 
ENDROOT
BRANCH   1   3
ATOM      3  C   UNL     1      69.334  -7.110   6.618  1.00  0.00     0.230 C 
BRANCH   3   4
ATOM      4  N   UNL     1      68.579  -8.101   7.399  1.00  0.00    -0.350 N 
ATOM      5  H   UNL     1      69.147  -8.971   7.521  1.00  0.00     0.345 HD
ATOM      6  H   UNL     1      68.313  -7.730   8.339  1.00  0.00     0.345 HD
ATOM      7  H   UNL     1      67.704  -8.355   6.887  1.00  0.00     0.345 HD
ENDBRANCH   3   4
BRANCH   3   8
ATOM      8  C   UNL     1      69.342  -5.774   7.324  1.00  0.00     0.099 C 
ATOM      9  O   UNL     1      69.533  -5.722   8.568  1.00  0.00    -0.544 OA
ATOM     10  O   UNL     1      69.116  -4.598   6.620  1.00  0.00    -0.544 OA
ENDBRANCH   3   8
ENDBRANCH   1   3
BRANCH   1  11
ATOM     11  C   UNL     1      70.790  -8.599   5.067  1.00  0.00     0.006 C 
ATOM     12  C   UNL     1      71.126  -7.923   3.736  1.00  0.00     0.004 C 
ENDBRANCH   1  11
TORSDOF 4
ENDMDL
MODEL 5
REMARK VINA RESULT:    -3.233      2.638      3.577
REMARK INTER + INTRA:          -3.975
REMARK INTER:                  -3.869
REMARK INTRA:                  -0.105
REMARK UNBOUND:                -0.081
REMARK SMILES CC[C@@H](C)[C@@H]([NH3+])C(=O)[O-]
REMARK SMILES IDX 3 1 4 2 5 3 6 4 7 8 8 9 9 10 2 11 1 12
REMARK H PARENT 6 5 6 6 6 7
REMARK Flexibility Score: inf
ROOT
ATOM      1  C   UNL     1      63.140   7.012   9.868  1.00  0.00     0.050 C 
ATOM      2  C   UNL     1      62.540   7.083   8.452  1.00  0.00     0.014 C 
ENDROOT
BRANCH   1   3
ATOM      3  C   UNL     1      63.759   8.369  10.334  1.00  0.00     0.230 C 
BRANCH   3   4
ATOM      4  N   UNL     1      65.185   8.468   9.990  1.00  0.00    -0.350 N 
ATOM      5  H   UNL     1      65.505   7.587   9.523  1.00  0.00     0.345 HD
ATOM      6  H   UNL     1      65.374   9.279   9.359  1.00  0.00     0.345 HD
ATOM      7  H   UNL     1      65.747   8.593  10.863  1.00  0.00     0.345 HD
ENDBRANCH   3   4
BRANCH   3   8
ATOM      8  C   UNL     1      63.004   9.567   9.807  1.00  0.00     0.099 C 
ATOM      9  O   UNL     1      63.516  10.289   8.911  1.00  0.00    -0.544 OA
ATOM     10  O   UNL     1      61.755   9.899  10.319  1.00  0.00    -0.544 OA
ENDBRANCH   3   8
ENDBRANCH   1   3
BRANCH   1  11
ATOM     11  C   UNL     1      62.074   6.463  10.851  1.00  0.00     0.006 C 
ATOM     12  C   UNL     1      60.688   6.312  10.219  1.00  0.00     0.004 C 
ENDBRANCH   1  11
TORSDOF 4
ENDMDL
MODEL 6
REMARK VINA RESULT:    -3.202     17.163     18.042
REMARK INTER + INTRA:          -3.938
REMARK INTER:                  -3.893
REMARK INTRA:                  -0.044
REMARK UNBOUND:                -0.081
REMARK SMILES CC[C@@H](C)[C@@H]([NH3+])C(=O)[O-]
REMARK SMILES IDX 3 1 4 2 5 3 6 4 7 8 8 9 9 10 2 11 1 12
REMARK H PARENT 6 5 6 6 6 7
REMARK Flexibility Score: inf
ROOT
ATOM      1  C   UNL     1      71.000  -7.614   5.819  1.00  0.00     0.050 C 
ATOM      2  C   UNL     1      71.916  -8.623   6.535  1.00  0.00     0.014 C 
ENDROOT
BRANCH   1   3
ATOM      3  C   UNL     1      70.246  -6.669   6.811  1.00  0.00     0.230 C 
BRANCH   3   4
ATOM      4  N   UNL     1      69.674  -5.500   6.126  1.00  0.00    -0.350 N 
ATOM      5  H   UNL     1      70.078  -4.619   6.519  1.00  0.00     0.345 HD
ATOM      6  H   UNL     1      69.853  -5.531   5.097  1.00  0.00     0.345 HD
ATOM      7  H   UNL     1      68.640  -5.478   6.279  1.00  0.00     0.345 HD
ENDBRANCH   3   4
BRANCH   3   8
ATOM      8  C   UNL     1      69.184  -7.388   7.608  1.00  0.00     0.099 C 
ATOM      9  O   UNL     1      68.566  -8.361   7.100  1.00  0.00    -0.544 OA
ATOM     10  O   UNL     1      68.859  -6.972   8.893  1.00  0.00    -0.544 OA
ENDBRANCH   3   8
ENDBRANCH   1   3
BRANCH   1  11
ATOM     11  C   UNL     1      71.819  -6.843   4.752  1.00  0.00     0.006 C 
ATOM     12  C   UNL     1      72.113  -7.671   3.499  1.00  0.00     0.004 C 
ENDBRANCH   1  11
TORSDOF 4
ENDMDL
MODEL 7
REMARK VINA RESULT:    -3.147      3.217      4.169
REMARK INTER + INTRA:          -3.872
REMARK INTER:                  -3.726
REMARK INTRA:                  -0.146
REMARK UNBOUND:                -0.081
REMARK SMILES CC[C@@H](C)[C@@H]([NH3+])C(=O)[O-]
REMARK SMILES IDX 3 1 4 2 5 3 6 4 7 8 8 9 9 10 2 11 1 12
REMARK H PARENT 6 5 6 6 6 7
REMARK Flexibility Score: inf
ROOT
ATOM      1  C   UNL     1      64.825   8.999   9.257  1.00  0.00     0.050 C 
ATOM      2  C   UNL     1      66.169   9.200   9.981  1.00  0.00     0.014 C 
ENDROOT
BRANCH   1   3
ATOM      3  C   UNL     1      63.684   8.528  10.216  1.00  0.00     0.230 C 
BRANCH   3   4
ATOM      4  N   UNL     1      62.689   9.587  10.444  1.00  0.00    -0.350 N 
ATOM      5  H   UNL     1      61.723   9.185  10.417  1.00  0.00     0.345 HD
ATOM      6  H   UNL     1      62.837  10.063  11.362  1.00  0.00     0.345 HD
ATOM      7  H   UNL     1      62.763  10.304   9.686  1.00  0.00     0.345 HD
ENDBRANCH   3   4
BRANCH   3   8
ATOM      8  C   UNL     1      63.010   7.262   9.743  1.00  0.00     0.099 C 
ATOM      9  O   UNL     1      62.828   7.068   8.512  1.00  0.00    -0.544 OA
ATOM     10  O   UNL     1      62.564   6.313  10.655  1.00  0.00    -0.544 OA
ENDBRANCH   3   8
ENDBRANCH   1   3
BRANCH   1  11
ATOM     11  C   UNL     1      64.466  10.289   8.474  1.00  0.00     0.006 C 
ATOM     12  C   UNL     1      64.290  10.057   6.972  1.00  0.00     0.004 C 
ENDBRANCH   1  11
TORSDOF 4
ENDMDL
MODEL 8
REMARK VINA RESULT:    -3.131      4.839      5.796
REMARK INTER + INTRA:          -3.852
REMARK INTER:                  -3.837
REMARK INTRA:                  -0.016
REMARK UNBOUND:                -0.081
REMARK SMILES CC[C@@H](C)[C@@H]([NH3+])C(=O)[O-]
REMARK SMILES IDX 3 1 4 2 5 3 6 4 7 8 8 9 9 10 2 11 1 12
REMARK H PARENT 6 5 6 6 6 7
REMARK Flexibility Score: inf
ROOT
ATOM      1  C   UNL     1      62.168   7.675  10.776  1.00  0.00     0.050 C 
ATOM      2  C   UNL     1      62.666   9.111  11.024  1.00  0.00     0.014 C 
ENDROOT
BRANCH   1   3
ATOM      3  C   UNL     1      60.612   7.582  10.671  1.00  0.00     0.230 C 
BRANCH   3   4
ATOM      4  N   UNL     1      60.020   8.834  10.176  1.00  0.00    -0.350 N 
ATOM      5  H   UNL     1      60.587   9.652  10.499  1.00  0.00     0.345 HD
ATOM      6  H   UNL     1      59.961   8.847   9.133  1.00  0.00     0.345 HD
ATOM      7  H   UNL     1      59.053   8.938  10.561  1.00  0.00     0.345 HD
ENDBRANCH   3   4
BRANCH   3   8
ATOM      8  C   UNL     1      60.152   6.412   9.833  1.00  0.00     0.099 C 
ATOM      9  O   UNL     1      59.982   5.284  10.368  1.00  0.00    -0.544 OA
ATOM     10  O   UNL     1      59.936   6.558   8.468  1.00  0.00    -0.544 OA
ENDBRANCH   3   8
ENDBRANCH   1   3
BRANCH   1  11
ATOM     11  C   UNL     1      62.895   7.086   9.539  1.00  0.00     0.006 C 
ATOM     12  C   UNL     1      63.159   8.119   8.442  1.00  0.00     0.004 C 
ENDBRANCH   1  11
TORSDOF 4
ENDMDL
MODEL 9
REMARK VINA RESULT:    -3.130      2.794      4.070
REMARK INTER + INTRA:          -3.852
REMARK INTER:                  -3.764
REMARK INTRA:                  -0.088
REMARK UNBOUND:                -0.081
REMARK SMILES CC[C@@H](C)[C@@H]([NH3+])C(=O)[O-]
REMARK SMILES IDX 3 1 4 2 5 3 6 4 7 8 8 9 9 10 2 11 1 12
REMARK H PARENT 6 5 6 6 6 7
REMARK Flexibility Score: inf
ROOT
ATOM      1  C   UNL     1      65.770   9.649   8.558  1.00  0.00     0.050 C 
ATOM      2  C   UNL     1      65.999   9.237  10.024  1.00  0.00     0.014 C 
ENDROOT
BRANCH   1   3
ATOM      3  C   UNL     1      64.267   9.931   8.235  1.00  0.00     0.230 C 
BRANCH   3   4
ATOM      4  N   UNL     1      64.021   9.999   6.787  1.00  0.00    -0.350 N 
ATOM      5  H   UNL     1      64.370   9.130   6.321  1.00  0.00     0.345 HD
ATOM      6  H   UNL     1      63.005  10.119   6.574  1.00  0.00     0.345 HD
ATOM      7  H   UNL     1      64.539  10.813   6.384  1.00  0.00     0.345 HD
ENDBRANCH   3   4
BRANCH   3   8
ATOM      8  C   UNL     1      63.333   8.936   8.884  1.00  0.00     0.099 C 
ATOM      9  O   UNL     1      63.218   7.777   8.405  1.00  0.00    -0.544 OA
ATOM     10  O   UNL     1      62.577   9.292   9.994  1.00  0.00    -0.544 OA
ENDBRANCH   3   8
ENDBRANCH   1   3
BRANCH   1  11
ATOM     11  C   UNL     1      66.699  10.840   8.208  1.00  0.00     0.006 C 
ATOM     12  C   UNL     1      67.684  10.528   7.079  1.00  0.00     0.004 C 
ENDBRANCH   1  11
TORSDOF 4
ENDMDL
