MODEL 1
REMARK VINA RESULT:    -7.902      0.000      0.000
REMARK INTER + INTRA:          -8.595
REMARK INTER:                  -8.595
REMARK INTRA:                   0.000
REMARK UNBOUND:                 0.000
REMARK SMILES Cc1cc(O)c2c(c1)C(=O)c1cc(O)cc(O)c1C2=O
REMARK SMILES IDX 1 1 2 2 8 3 7 4 6 5 4 6 3 7 19 8 20 9 18 10 11 11 9 12 10 13
REMARK SMILES IDX 12 14 13 15 15 16 16 17 5 18 17 20 14 22
REMARK H PARENT 5 19 17 21 14 23
REMARK Flexibility Score: inf
ROOT
ATOM      1  C   UNL     1      41.295   4.981   1.051  1.00  0.00     0.044 C 
ATOM      2  C   UNL     1      39.884   4.873   0.552  1.00  0.00    -0.047 A 
ATOM      3  C   UNL     1      39.633   4.451  -0.758  1.00  0.00     0.016 A 
ATOM      4  C   UNL     1      38.316   4.372  -1.245  1.00  0.00     0.038 A 
ATOM      5  C   UNL     1      37.234   4.723  -0.407  1.00  0.00     0.076 A 
ATOM      6  C   UNL     1      37.502   5.230   0.891  1.00  0.00     0.127 A 
ATOM      7  C   UNL     1      38.818   5.280   1.360  1.00  0.00     0.050 A 
ATOM      8  C   UNL     1      35.855   4.487  -0.904  1.00  0.00     0.201 C 
ATOM      9  O   UNL     1      34.931   4.226  -0.089  1.00  0.00    -0.288 OA
ATOM     10  C   UNL     1      35.606   4.372  -2.365  1.00  0.00     0.076 A 
ATOM     11  C   UNL     1      36.692   4.024  -3.201  1.00  0.00     0.041 A 
ATOM     12  C   UNL     1      38.060   3.931  -2.636  1.00  0.00     0.194 C 
ATOM     13  O   UNL     1      39.008   3.499  -3.348  1.00  0.00    -0.289 OA
ATOM     14  C   UNL     1      36.470   3.772  -4.565  1.00  0.00     0.059 A 
ATOM     15  C   UNL     1      35.186   3.878  -5.106  1.00  0.00     0.120 A 
ATOM     16  C   UNL     1      34.120   4.262  -4.294  1.00  0.00     0.093 A 
ATOM     17  C   UNL     1      34.318   4.537  -2.937  1.00  0.00     0.131 A 
ENDROOT
BRANCH   6  18
ATOM     18  O   UNL     1      36.501   5.727   1.728  1.00  0.00    -0.507 OA
ATOM     19  H   UNL     1      36.153   5.232   2.538  1.00  0.00     0.293 HD
ENDBRANCH   6  18
BRANCH  17  20
ATOM     20  O   UNL     1      33.222   5.003  -2.207  1.00  0.00    -0.507 OA
ATOM     21  H   UNL     1      32.366   4.480  -2.089  1.00  0.00     0.293 HD
ENDBRANCH  17  20
BRANCH  15  22
ATOM     22  O   UNL     1      34.960   3.617  -6.457  1.00  0.00    -0.508 OA
ATOM     23  H   UNL     1      34.371   2.850  -6.757  1.00  0.00     0.293 HD
ENDBRANCH  15  22
TORSDOF 3
ENDMDL
MODEL 2
REMARK VINA RESULT:    -7.382      1.646      4.177
REMARK INTER + INTRA:          -8.029
REMARK INTER:                  -8.029
REMARK INTRA:                   0.000
REMARK UNBOUND:                 0.000
REMARK SMILES Cc1cc(O)c2c(c1)C(=O)c1cc(O)cc(O)c1C2=O
REMARK SMILES IDX 1 1 2 2 8 3 7 4 6 5 4 6 3 7 19 8 20 9 18 10 11 11 9 12 10 13
REMARK SMILES IDX 12 14 13 15 15 16 16 17 5 18 17 20 14 22
REMARK H PARENT 5 19 17 21 14 23
REMARK Flexibility Score: inf
ROOT
ATOM      1  C   UNL     1      42.303   5.362   3.848  1.00  0.00     0.044 C 
ATOM      2  C   UNL     1      41.645   5.208   2.509  1.00  0.00    -0.047 A 
ATOM      3  C   UNL     1      40.250   5.180   2.410  1.00  0.00     0.016 A 
ATOM      4  C   UNL     1      39.623   5.007   1.164  1.00  0.00     0.038 A 
ATOM      5  C   UNL     1      40.407   4.860  -0.002  1.00  0.00     0.076 A 
ATOM      6  C   UNL     1      41.820   4.805   0.116  1.00  0.00     0.127 A 
ATOM      7  C   UNL     1      42.420   4.999   1.364  1.00  0.00     0.050 A 
ATOM      8  C   UNL     1      39.713   4.829  -1.315  1.00  0.00     0.201 C 
ATOM      9  O   UNL     1      40.297   5.265  -2.343  1.00  0.00    -0.288 OA
ATOM     10  C   UNL     1      38.274   4.463  -1.382  1.00  0.00     0.076 A 
ATOM     11  C   UNL     1      37.494   4.609  -0.212  1.00  0.00     0.041 A 
ATOM     12  C   UNL     1      38.144   4.972   1.070  1.00  0.00     0.194 C 
ATOM     13  O   UNL     1      37.440   5.226   2.085  1.00  0.00    -0.289 OA
ATOM     14  C   UNL     1      36.105   4.405  -0.269  1.00  0.00     0.059 A 
ATOM     15  C   UNL     1      35.490   4.043  -1.471  1.00  0.00     0.120 A 
ATOM     16  C   UNL     1      36.261   3.858  -2.617  1.00  0.00     0.093 A 
ATOM     17  C   UNL     1      37.649   4.036  -2.582  1.00  0.00     0.131 A 
ENDROOT
BRANCH   6  18
ATOM     18  O   UNL     1      42.657   4.524  -0.965  1.00  0.00    -0.507 OA
ATOM     19  H   UNL     1      43.541   4.042  -0.876  1.00  0.00     0.293 HD
ENDBRANCH   6  18
BRANCH  17  20
ATOM     20  O   UNL     1      38.365   3.744  -3.745  1.00  0.00    -0.507 OA
ATOM     21  H   UNL     1      39.301   3.364  -3.744  1.00  0.00     0.293 HD
ENDBRANCH  17  20
BRANCH  15  22
ATOM     22  O   UNL     1      34.110   3.852  -1.533  1.00  0.00    -0.508 OA
ATOM     23  H   UNL     1      33.464   4.516  -1.124  1.00  0.00     0.293 HD
ENDBRANCH  15  22
TORSDOF 3
ENDMDL
MODEL 3
REMARK VINA RESULT:    -7.352      1.688      6.097
REMARK INTER + INTRA:          -7.997
REMARK INTER:                  -7.997
REMARK INTRA:                   0.000
REMARK UNBOUND:                 0.000
REMARK SMILES Cc1cc(O)c2c(c1)C(=O)c1cc(O)cc(O)c1C2=O
REMARK SMILES IDX 1 1 2 2 8 3 7 4 6 5 4 6 3 7 19 8 20 9 18 10 11 11 9 12 10 13
REMARK SMILES IDX 12 14 13 15 15 16 16 17 5 18 17 20 14 22
REMARK H PARENT 5 19 17 21 14 23
REMARK Flexibility Score: inf
ROOT
ATOM      1  C   UNL     1      31.496   4.612  -2.979  1.00  0.00     0.044 C 
ATOM      2  C   UNL     1      32.951   4.244  -3.001  1.00  0.00    -0.047 A 
ATOM      3  C   UNL     1      33.831   4.802  -2.068  1.00  0.00     0.016 A 
ATOM      4  C   UNL     1      35.200   4.486  -2.097  1.00  0.00     0.038 A 
ATOM      5  C   UNL     1      35.697   3.598  -3.077  1.00  0.00     0.076 A 
ATOM      6  C   UNL     1      34.813   3.102  -4.071  1.00  0.00     0.127 A 
ATOM      7  C   UNL     1      33.452   3.415  -4.009  1.00  0.00     0.050 A 
ATOM      8  C   UNL     1      37.116   3.173  -2.986  1.00  0.00     0.201 C 
ATOM      9  O   UNL     1      37.459   2.036  -3.406  1.00  0.00    -0.288 OA
ATOM     10  C   UNL     1      38.090   4.006  -2.233  1.00  0.00     0.076 A 
ATOM     11  C   UNL     1      37.590   4.896  -1.255  1.00  0.00     0.041 A 
ATOM     12  C   UNL     1      36.127   5.087  -1.108  1.00  0.00     0.194 C 
ATOM     13  O   UNL     1      35.674   5.781  -0.157  1.00  0.00    -0.289 OA
ATOM     14  C   UNL     1      38.483   5.599  -0.429  1.00  0.00     0.059 A 
ATOM     15  C   UNL     1      39.863   5.438  -0.577  1.00  0.00     0.120 A 
ATOM     16  C   UNL     1      40.360   4.593  -1.568  1.00  0.00     0.093 A 
ATOM     17  C   UNL     1      39.493   3.897  -2.416  1.00  0.00     0.131 A 
ENDROOT
BRANCH   6  18
ATOM     18  O   UNL     1      35.249   2.333  -5.152  1.00  0.00    -0.507 OA
ATOM     19  H   UNL     1      36.061   1.732  -5.118  1.00  0.00     0.293 HD
ENDBRANCH   6  18
BRANCH  17  20
ATOM     20  O   UNL     1      40.064   3.140  -3.442  1.00  0.00    -0.507 OA
ATOM     21  H   UNL     1      41.031   2.851  -3.451  1.00  0.00     0.293 HD
ENDBRANCH  17  20
BRANCH  15  22
ATOM     22  O   UNL     1      40.751   6.125   0.249  1.00  0.00    -0.508 OA
ATOM     23  H   UNL     1      40.492   6.994   0.699  1.00  0.00     0.293 HD
ENDBRANCH  15  22
TORSDOF 3
ENDMDL
MODEL 4
REMARK VINA RESULT:    -7.272      4.516      5.759
REMARK INTER + INTRA:          -7.910
REMARK INTER:                  -7.910
REMARK INTRA:                   0.000
REMARK UNBOUND:                 0.000
REMARK SMILES Cc1cc(O)c2c(c1)C(=O)c1cc(O)cc(O)c1C2=O
REMARK SMILES IDX 1 1 2 2 8 3 7 4 6 5 4 6 3 7 19 8 20 9 18 10 11 11 9 12 10 13
REMARK SMILES IDX 12 14 13 15 15 16 16 17 5 18 17 20 14 22
REMARK H PARENT 5 19 17 21 14 23
REMARK Flexibility Score: inf
ROOT
ATOM      1  C   UNL     1      38.935   4.253  -2.504  1.00  0.00     0.044 C 
ATOM      2  C   UNL     1      37.821   3.353  -2.951  1.00  0.00    -0.047 A 
ATOM      3  C   UNL     1      37.996   1.966  -2.954  1.00  0.00     0.016 A 
ATOM      4  C   UNL     1      36.969   1.115  -3.398  1.00  0.00     0.038 A 
ATOM      5  C   UNL     1      35.746   1.662  -3.846  1.00  0.00     0.076 A 
ATOM      6  C   UNL     1      35.607   3.073  -3.919  1.00  0.00     0.127 A 
ATOM      7  C   UNL     1      36.635   3.898  -3.453  1.00  0.00     0.050 A 
ATOM      8  C   UNL     1      34.635   0.731  -4.165  1.00  0.00     0.201 C 
ATOM      9  O   UNL     1      33.441   1.102  -4.008  1.00  0.00    -0.288 OA
ATOM     10  C   UNL     1      34.931  -0.690  -4.488  1.00  0.00     0.076 A 
ATOM     11  C   UNL     1      36.156  -1.233  -4.041  1.00  0.00     0.041 A 
ATOM     12  C   UNL     1      37.167  -0.354  -3.404  1.00  0.00     0.194 C 
ATOM     13  O   UNL     1      38.205  -0.855  -2.891  1.00  0.00    -0.289 OA
ATOM     14  C   UNL     1      36.413  -2.605  -4.205  1.00  0.00     0.059 A 
ATOM     15  C   UNL     1      35.472  -3.434  -4.822  1.00  0.00     0.120 A 
ATOM     16  C   UNL     1      34.280  -2.893  -5.301  1.00  0.00     0.093 A 
ATOM     17  C   UNL     1      34.009  -1.527  -5.168  1.00  0.00     0.131 A 
ENDROOT
BRANCH   6  18
ATOM     18  O   UNL     1      34.487   3.691  -4.478  1.00  0.00    -0.507 OA
ATOM     19  H   UNL     1      33.815   4.222  -3.940  1.00  0.00     0.293 HD
ENDBRANCH   6  18
BRANCH  17  20
ATOM     20  O   UNL     1      32.837  -1.042  -5.752  1.00  0.00    -0.507 OA
ATOM     21  H   UNL     1      32.767  -0.770  -6.722  1.00  0.00     0.293 HD
ENDBRANCH  17  20
BRANCH  15  22
ATOM     22  O   UNL     1      35.718  -4.797  -4.976  1.00  0.00    -0.508 OA
ATOM     23  H   UNL     1      35.124  -5.381  -5.551  1.00  0.00     0.293 HD
ENDBRANCH  15  22
TORSDOF 3
ENDMDL
MODEL 5
REMARK VINA RESULT:    -7.170      3.655      7.048
REMARK INTER + INTRA:          -7.799
REMARK INTER:                  -7.799
REMARK INTRA:                   0.000
REMARK UNBOUND:                 0.000
REMARK SMILES Cc1cc(O)c2c(c1)C(=O)c1cc(O)cc(O)c1C2=O
REMARK SMILES IDX 1 1 2 2 8 3 7 4 6 5 4 6 3 7 19 8 20 9 18 10 11 11 9 12 10 13
REMARK SMILES IDX 12 14 13 15 15 16 16 17 5 18 17 20 14 22
REMARK H PARENT 5 19 17 21 14 23
REMARK Flexibility Score: inf
ROOT
ATOM      1  C   UNL     1      32.468  -0.646  -5.767  1.00  0.00     0.044 C 
ATOM      2  C   UNL     1      33.807  -0.471  -5.113  1.00  0.00    -0.047 A 
ATOM      3  C   UNL     1      34.169   0.768  -4.575  1.00  0.00     0.016 A 
ATOM      4  C   UNL     1      35.432   0.951  -3.985  1.00  0.00     0.038 A 
ATOM      5  C   UNL     1      36.348  -0.124  -3.935  1.00  0.00     0.076 A 
ATOM      6  C   UNL     1      36.006  -1.352  -4.558  1.00  0.00     0.127 A 
ATOM      7  C   UNL     1      34.736  -1.516  -5.120  1.00  0.00     0.050 A 
ATOM      8  C   UNL     1      37.610   0.063  -3.176  1.00  0.00     0.201 C 
ATOM      9  O   UNL     1      38.158  -0.924  -2.619  1.00  0.00    -0.288 OA
ATOM     10  C   UNL     1      38.119   1.435  -2.916  1.00  0.00     0.076 A 
ATOM     11  C   UNL     1      37.202   2.509  -2.970  1.00  0.00     0.041 A 
ATOM     12  C   UNL     1      35.810   2.270  -3.423  1.00  0.00     0.194 C 
ATOM     13  O   UNL     1      34.956   3.196  -3.353  1.00  0.00    -0.289 OA
ATOM     14  C   UNL     1      37.613   3.799  -2.597  1.00  0.00     0.059 A 
ATOM     15  C   UNL     1      38.929   4.033  -2.188  1.00  0.00     0.120 A 
ATOM     16  C   UNL     1      39.848   2.985  -2.174  1.00  0.00     0.093 A 
ATOM     17  C   UNL     1      39.468   1.695  -2.559  1.00  0.00     0.131 A 
ENDROOT
BRANCH   6  18
ATOM     18  O   UNL     1      36.904  -2.415  -4.674  1.00  0.00    -0.507 OA
ATOM     19  H   UNL     1      37.583  -2.651  -3.964  1.00  0.00     0.293 HD
ENDBRANCH   6  18
BRANCH  17  20
ATOM     20  O   UNL     1      40.464   0.717  -2.606  1.00  0.00    -0.507 OA
ATOM     21  H   UNL     1      40.350  -0.175  -3.065  1.00  0.00     0.293 HD
ENDBRANCH  17  20
BRANCH  15  22
ATOM     22  O   UNL     1      39.338   5.310  -1.806  1.00  0.00    -0.508 OA
ATOM     23  H   UNL     1      39.779   5.943  -2.462  1.00  0.00     0.293 HD
ENDBRANCH  15  22
TORSDOF 3
ENDMDL
MODEL 6
REMARK VINA RESULT:    -7.125      3.600      6.077
REMARK INTER + INTRA:          -7.750
REMARK INTER:                  -7.750
REMARK INTRA:                   0.000
REMARK UNBOUND:                 0.000
REMARK SMILES Cc1cc(O)c2c(c1)C(=O)c1cc(O)cc(O)c1C2=O
REMARK SMILES IDX 1 1 2 2 8 3 7 4 6 5 4 6 3 7 19 8 20 9 18 10 11 11 9 12 10 13
REMARK SMILES IDX 12 14 13 15 15 16 16 17 5 18 17 20 14 22
REMARK H PARENT 5 19 17 21 14 23
REMARK Flexibility Score: inf
ROOT
ATOM      1  C   UNL     1      36.583  -3.552  -3.880  1.00  0.00     0.044 C 
ATOM      2  C   UNL     1      36.126  -2.141  -4.106  1.00  0.00    -0.047 A 
ATOM      3  C   UNL     1      36.850  -1.072  -3.568  1.00  0.00     0.016 A 
ATOM      4  C   UNL     1      36.415   0.252  -3.750  1.00  0.00     0.038 A 
ATOM      5  C   UNL     1      35.234   0.509  -4.481  1.00  0.00     0.076 A 
ATOM      6  C   UNL     1      34.459  -0.583  -4.951  1.00  0.00     0.127 A 
ATOM      7  C   UNL     1      34.924  -1.890  -4.775  1.00  0.00     0.050 A 
ATOM      8  C   UNL     1      34.886   1.922  -4.779  1.00  0.00     0.201 C 
ATOM      9  O   UNL     1      34.250   2.203  -5.829  1.00  0.00    -0.288 OA
ATOM     10  C   UNL     1      35.448   3.014  -3.941  1.00  0.00     0.076 A 
ATOM     11  C   UNL     1      36.628   2.751  -3.208  1.00  0.00     0.041 A 
ATOM     12  C   UNL     1      37.185   1.378  -3.171  1.00  0.00     0.194 C 
ATOM     13  O   UNL     1      38.303   1.165  -2.625  1.00  0.00    -0.289 OA
ATOM     14  C   UNL     1      37.265   3.794  -2.514  1.00  0.00     0.059 A 
ATOM     15  C   UNL     1      36.733   5.086  -2.530  1.00  0.00     0.120 A 
ATOM     16  C   UNL     1      35.547   5.339  -3.218  1.00  0.00     0.093 A 
ATOM     17  C   UNL     1      34.882   4.314  -3.900  1.00  0.00     0.131 A 
ENDROOT
BRANCH   6  18
ATOM     18  O   UNL     1      33.214  -0.418  -5.560  1.00  0.00    -0.507 OA
ATOM     19  H   UNL     1      32.435  -1.048  -5.418  1.00  0.00     0.293 HD
ENDBRANCH   6  18
BRANCH  17  20
ATOM     20  O   UNL     1      33.654   4.623  -4.489  1.00  0.00    -0.507 OA
ATOM     21  H   UNL     1      33.538   4.808  -5.475  1.00  0.00     0.293 HD
ENDBRANCH  17  20
BRANCH  15  22
ATOM     22  O   UNL     1      37.369   6.125  -1.853  1.00  0.00    -0.508 OA
ATOM     23  H   UNL     1      36.871   6.711  -1.194  1.00  0.00     0.293 HD
ENDBRANCH  15  22
TORSDOF 3
ENDMDL
MODEL 7
REMARK VINA RESULT:    -7.114      4.406      6.452
REMARK INTER + INTRA:          -7.738
REMARK INTER:                  -7.738
REMARK INTRA:                   0.000
REMARK UNBOUND:                 0.000
REMARK SMILES Cc1cc(O)c2c(c1)C(=O)c1cc(O)cc(O)c1C2=O
REMARK SMILES IDX 1 1 2 2 8 3 7 4 6 5 4 6 3 7 19 8 20 9 18 10 11 11 9 12 10 13
REMARK SMILES IDX 12 14 13 15 15 16 16 17 5 18 17 20 14 22
REMARK H PARENT 5 19 17 21 14 23
REMARK Flexibility Score: inf
ROOT
ATOM      1  C   UNL     1      35.903  -4.728  -4.005  1.00  0.00     0.044 C 
ATOM      2  C   UNL     1      36.340  -3.312  -3.769  1.00  0.00    -0.047 A 
ATOM      3  C   UNL     1      35.442  -2.258  -3.962  1.00  0.00     0.016 A 
ATOM      4  C   UNL     1      35.849  -0.926  -3.771  1.00  0.00     0.038 A 
ATOM      5  C   UNL     1      37.178  -0.646  -3.381  1.00  0.00     0.076 A 
ATOM      6  C   UNL     1      38.105  -1.714  -3.270  1.00  0.00     0.127 A 
ATOM      7  C   UNL     1      37.671  -3.031  -3.445  1.00  0.00     0.050 A 
ATOM      8  C   UNL     1      37.531   0.757  -3.046  1.00  0.00     0.201 C 
ATOM      9  O   UNL     1      38.430   0.991  -2.195  1.00  0.00    -0.288 OA
ATOM     10  C   UNL     1      36.700   1.873  -3.569  1.00  0.00     0.076 A 
ATOM     11  C   UNL     1      35.372   1.589  -3.961  1.00  0.00     0.041 A 
ATOM     12  C   UNL     1      34.892   0.186  -3.984  1.00  0.00     0.194 C 
ATOM     13  O   UNL     1      33.676  -0.061  -4.210  1.00  0.00    -0.289 OA
ATOM     14  C   UNL     1      34.513   2.637  -4.330  1.00  0.00     0.059 A 
ATOM     15  C   UNL     1      34.966   3.959  -4.328  1.00  0.00     0.120 A 
ATOM     16  C   UNL     1      36.287   4.239  -3.982  1.00  0.00     0.093 A 
ATOM     17  C   UNL     1      37.168   3.211  -3.630  1.00  0.00     0.131 A 
ENDROOT
BRANCH   6  18
ATOM     18  O   UNL     1      39.465  -1.510  -3.025  1.00  0.00    -0.507 OA
ATOM     19  H   UNL     1      40.189  -2.145  -3.333  1.00  0.00     0.293 HD
ENDBRANCH   6  18
BRANCH  17  20
ATOM     20  O   UNL     1      38.498   3.558  -3.384  1.00  0.00    -0.507 OA
ATOM     21  H   UNL     1      38.792   4.484  -3.106  1.00  0.00     0.293 HD
ENDBRANCH  17  20
BRANCH  15  22
ATOM     22  O   UNL     1      34.113   5.004  -4.683  1.00  0.00    -0.508 OA
ATOM     23  H   UNL     1      34.130   5.891  -4.195  1.00  0.00     0.293 HD
ENDBRANCH  15  22
TORSDOF 3
ENDMDL
MODEL 8
REMARK VINA RESULT:    -6.954      2.729      3.060
REMARK INTER + INTRA:          -7.564
REMARK INTER:                  -7.564
REMARK INTRA:                   0.000
REMARK UNBOUND:                 0.000
REMARK SMILES Cc1cc(O)c2c(c1)C(=O)c1cc(O)cc(O)c1C2=O
REMARK SMILES IDX 1 1 2 2 8 3 7 4 6 5 4 6 3 7 19 8 20 9 18 10 11 11 9 12 10 13
REMARK SMILES IDX 12 14 13 15 15 16 16 17 5 18 17 20 14 22
REMARK H PARENT 5 19 17 21 14 23
REMARK Flexibility Score: inf
ROOT
ATOM      1  C   UNL     1      41.285   4.648  -0.992  1.00  0.00     0.044 C 
ATOM      2  C   UNL     1      39.886   4.321  -1.426  1.00  0.00    -0.047 A 
ATOM      3  C   UNL     1      39.567   3.028  -1.855  1.00  0.00     0.016 A 
ATOM      4  C   UNL     1      38.268   2.718  -2.290  1.00  0.00     0.038 A 
ATOM      5  C   UNL     1      37.271   3.719  -2.298  1.00  0.00     0.076 A 
ATOM      6  C   UNL     1      37.622   5.047  -1.942  1.00  0.00     0.127 A 
ATOM      7  C   UNL     1      38.917   5.326  -1.493  1.00  0.00     0.050 A 
ATOM      8  C   UNL     1      35.877   3.321  -2.622  1.00  0.00     0.201 C 
ATOM      9  O   UNL     1      34.911   3.953  -2.117  1.00  0.00    -0.288 OA
ATOM     10  C   UNL     1      35.625   2.070  -3.383  1.00  0.00     0.076 A 
ATOM     11  C   UNL     1      36.625   1.072  -3.377  1.00  0.00     0.041 A 
ATOM     12  C   UNL     1      37.940   1.347  -2.749  1.00  0.00     0.194 C 
ATOM     13  O   UNL     1      38.789   0.421  -2.629  1.00  0.00    -0.289 OA
ATOM     14  C   UNL     1      36.371  -0.177  -3.968  1.00  0.00     0.059 A 
ATOM     15  C   UNL     1      35.140  -0.435  -4.578  1.00  0.00     0.120 A 
ATOM     16  C   UNL     1      34.166   0.562  -4.623  1.00  0.00     0.093 A 
ATOM     17  C   UNL     1      34.402   1.820  -4.059  1.00  0.00     0.131 A 
ENDROOT
BRANCH   6  18
ATOM     18  O   UNL     1      36.734   6.119  -2.055  1.00  0.00    -0.507 OA
ATOM     19  H   UNL     1      36.829   6.852  -2.745  1.00  0.00     0.293 HD
ENDBRANCH   6  18
BRANCH  17  20
ATOM     20  O   UNL     1      33.416   2.795  -4.223  1.00  0.00    -0.507 OA
ATOM     21  H   UNL     1      32.555   2.813  -3.695  1.00  0.00     0.293 HD
ENDBRANCH  17  20
BRANCH  15  22
ATOM     22  O   UNL     1      34.879  -1.676  -5.156  1.00  0.00    -0.508 OA
ATOM     23  H   UNL     1      35.134  -1.878  -6.115  1.00  0.00     0.293 HD
ENDBRANCH  15  22
TORSDOF 3
ENDMDL
MODEL 9
REMARK VINA RESULT:    -5.432      2.853      5.849
REMARK INTER + INTRA:          -5.908
REMARK INTER:                  -5.908
REMARK INTRA:                   0.000
REMARK UNBOUND:                 0.000
REMARK SMILES Cc1cc(O)c2c(c1)C(=O)c1cc(O)cc(O)c1C2=O
REMARK SMILES IDX 1 1 2 2 8 3 7 4 6 5 4 6 3 7 19 8 20 9 18 10 11 11 9 12 10 13
REMARK SMILES IDX 12 14 13 15 15 16 16 17 5 18 17 20 14 22
REMARK H PARENT 5 19 17 21 14 23
REMARK Flexibility Score: inf
ROOT
ATOM      1  C   UNL     1      34.335  -1.744  -4.422  1.00  0.00     0.044 C 
ATOM      2  C   UNL     1      34.821  -0.358  -4.117  1.00  0.00    -0.047 A 
ATOM      3  C   UNL     1      36.145  -0.150  -3.716  1.00  0.00     0.016 A 
ATOM      4  C   UNL     1      36.604   1.140  -3.401  1.00  0.00     0.038 A 
ATOM      5  C   UNL     1      35.722   2.241  -3.487  1.00  0.00     0.076 A 
ATOM      6  C   UNL     1      34.360   2.011  -3.813  1.00  0.00     0.127 A 
ATOM      7  C   UNL     1      33.933   0.721  -4.142  1.00  0.00     0.050 A 
ATOM      8  C   UNL     1      36.278   3.604  -3.291  1.00  0.00     0.201 C 
ATOM      9  O   UNL     1      35.756   4.585  -3.883  1.00  0.00    -0.288 OA
ATOM     10  C   UNL     1      37.556   3.781  -2.553  1.00  0.00     0.076 A 
ATOM     11  C   UNL     1      38.434   2.677  -2.465  1.00  0.00     0.041 A 
ATOM     12  C   UNL     1      38.007   1.350  -2.971  1.00  0.00     0.194 C 
ATOM     13  O   UNL     1      38.830   0.395  -3.010  1.00  0.00    -0.289 OA
ATOM     14  C   UNL     1      39.708   2.842  -1.896  1.00  0.00     0.059 A 
ATOM     15  C   UNL     1      40.109   4.086  -1.401  1.00  0.00     0.120 A 
ATOM     16  C   UNL     1      39.229   5.166  -1.448  1.00  0.00     0.093 A 
ATOM     17  C   UNL     1      37.948   5.024  -1.991  1.00  0.00     0.131 A 
ENDROOT
BRANCH   6  18
ATOM     18  O   UNL     1      33.397   3.022  -3.784  1.00  0.00    -0.507 OA
ATOM     19  H   UNL     1      32.689   3.098  -3.067  1.00  0.00     0.293 HD
ENDBRANCH   6  18
BRANCH  17  20
ATOM     20  O   UNL     1      37.092   6.125  -1.921  1.00  0.00    -0.507 OA
ATOM     21  H   UNL     1      37.263   6.997  -2.400  1.00  0.00     0.293 HD
ENDBRANCH  17  20
BRANCH  15  22
ATOM     22  O   UNL     1      41.376   4.255  -0.847  1.00  0.00    -0.508 OA
ATOM     23  H   UNL     1      41.499   4.560   0.111  1.00  0.00     0.293 HD
ENDBRANCH  15  22
TORSDOF 3
ENDMDL
