MODEL 1
REMARK VINA RESULT:    -3.626      0.000      0.000
REMARK INTER + INTRA:          -5.430
REMARK INTER:                  -5.534
REMARK INTRA:                   0.103
REMARK UNBOUND:                 0.103
REMARK SMILES CC1=CCC[C@H](C)C(=O)C[C@@H](C(C)C)C(=O)C1
REMARK SMILES IDX 8 1 9 2 6 3 7 4 5 5 4 6 3 7 2 8 1 9 10 11 11 12 15 13 16 14
REMARK SMILES IDX 17 15 12 17 13 18 14 19
REMARK H PARENT
REMARK Flexibility Score: 70.00
ROOT
ATOM      1  C   UNL     1       9.287 -29.273  15.355  1.00  0.00     0.136 C 
ATOM      2  O   UNL     1      10.037 -28.566  16.016  1.00  0.00    -0.299 OA
ENDROOT
BRANCH   1   3
ATOM      3  C   UNL     1       9.738 -29.770  13.994  1.00  0.00     0.053 C 
ATOM      4  C   UNL     1      11.207 -29.396  13.746  1.00  0.00     0.016 C 
BRANCH   3   5
ATOM      5  C   UNL     1       9.532 -31.298  13.880  1.00  0.00     0.015 C 
BRANCH   5   6
ATOM      6  C   UNL     1       8.196 -31.641  13.191  1.00  0.00     0.028 C 
BRANCH   6   7
ATOM      7  C   UNL     1       7.616 -32.959  13.642  1.00  0.00    -0.028 C 
ATOM      8  C   UNL     1       6.757 -33.126  14.678  1.00  0.00    -0.070 CG0
ATOM      9  C   UNL     1       6.208 -34.511  14.913  1.00  0.00     0.039 C 
ATOM     10  G   UNL     1       6.361 -32.009  15.635  1.00  0.00     0.000 G0
ENDBRANCH   6   7
ENDBRANCH   5   6
ENDBRANCH   3   5
ENDBRANCH   1   3
BRANCH   1  11
ATOM     11  C   UNL     1       7.924 -29.617  15.909  1.00  0.00     0.087 C 
BRANCH  11  12
ATOM     12  C   UNL     1       8.008 -30.582  17.121  1.00  0.00     0.066 C 
BRANCH  12  13
ATOM     13  C   UNL     1       7.263 -31.881  16.846  1.00  0.00     0.140 C 
ATOM     14  O   UNL     1       7.416 -32.849  17.576  1.00  0.00    -0.299 OA
BRANCH  13  15
ATOM     15  C   UNL     1       6.373 -31.996  15.632  1.00  0.00     0.106 CG0
ATOM     16  G   UNL     1       6.760 -33.128  14.689  1.00  0.00     0.000 G0
ENDBRANCH  13  15
ENDBRANCH  12  13
BRANCH  12  17
ATOM     17  C   UNL     1       7.560 -29.929  18.470  1.00  0.00    -0.006 C 
ATOM     18  C   UNL     1       8.668 -29.042  19.063  1.00  0.00     0.008 C 
ATOM     19  C   UNL     1       6.250 -29.124  18.367  1.00  0.00     0.008 C 
ENDBRANCH  12  17
ENDBRANCH  11  12
ENDBRANCH   1  11
TORSDOF 1
ENDMDL
MODEL 2
REMARK VINA RESULT:    -3.157      1.626      3.886
REMARK INTER + INTRA:          -4.715
REMARK INTER:                  -4.597
REMARK INTRA:                  -0.118
REMARK UNBOUND:                 0.103
REMARK SMILES CC1=CCC[C@H](C)C(=O)C[C@@H](C(C)C)C(=O)C1
REMARK SMILES IDX 8 1 9 2 6 3 7 4 5 5 4 6 3 7 2 8 1 9 10 11 11 12 15 13 16 14
REMARK SMILES IDX 17 15 12 17 13 18 14 19
REMARK H PARENT
REMARK Flexibility Score: 70.00
ROOT
ATOM      1  C   UNL     1       7.169 -32.733  16.005  1.00  0.00     0.136 C 
ATOM      2  O   UNL     1       6.421 -33.238  16.832  1.00  0.00    -0.299 OA
ENDROOT
BRANCH   1   3
ATOM      3  C   UNL     1       7.090 -33.182  14.557  1.00  0.00     0.053 C 
ATOM      4  C   UNL     1       6.963 -34.709  14.475  1.00  0.00     0.016 C 
BRANCH   3   5
ATOM      5  C   UNL     1       5.908 -32.490  13.839  1.00  0.00     0.015 C 
BRANCH   5   6
ATOM      6  C   UNL     1       6.397 -31.452  12.810  1.00  0.00     0.028 C 
BRANCH   6   7
ATOM      7  C   UNL     1       7.849 -31.624  12.435  1.00  0.00    -0.028 C 
ATOM      8  C   UNL     1       8.863 -30.814  12.829  1.00  0.00    -0.070 CG0
ATOM      9  C   UNL     1      10.264 -31.207  12.431  1.00  0.00     0.039 C 
ATOM     10  G   UNL     1       8.657 -29.517  13.601  1.00  0.00     0.000 G0
ENDBRANCH   6   7
ENDBRANCH   5   6
ENDBRANCH   3   5
ENDBRANCH   1   3
BRANCH   1  11
ATOM     11  C   UNL     1       8.162 -31.686  16.454  1.00  0.00     0.087 C 
BRANCH  11  12
ATOM     12  C   UNL     1       7.777 -30.263  15.967  1.00  0.00     0.066 C 
BRANCH  12  13
ATOM     13  C   UNL     1       8.875 -29.662  15.099  1.00  0.00     0.140 C 
ATOM     14  O   UNL     1       9.909 -29.253  15.605  1.00  0.00    -0.299 OA
BRANCH  13  15
ATOM     15  C   UNL     1       8.664 -29.515  13.612  1.00  0.00     0.106 CG0
ATOM     16  G   UNL     1       8.861 -30.807  12.829  1.00  0.00     0.000 G0
ENDBRANCH  13  15
ENDBRANCH  12  13
BRANCH  12  17
ATOM     17  C   UNL     1       7.358 -29.300  17.125  1.00  0.00    -0.006 C 
ATOM     18  C   UNL     1       5.909 -29.554  17.573  1.00  0.00     0.008 C 
ATOM     19  C   UNL     1       8.296 -29.350  18.347  1.00  0.00     0.008 C 
ENDBRANCH  12  17
ENDBRANCH  11  12
ENDBRANCH   1  11
TORSDOF 1
ENDMDL
MODEL 3
REMARK VINA RESULT:    -3.135      1.606      3.878
REMARK INTER + INTRA:          -4.681
REMARK INTER:                  -4.461
REMARK INTRA:                  -0.219
REMARK UNBOUND:                 0.103
REMARK SMILES CC1=CCC[C@H](C)C(=O)C[C@@H](C(C)C)C(=O)C1
REMARK SMILES IDX 8 1 9 2 6 3 7 4 5 5 4 6 3 7 2 8 1 9 10 11 11 12 15 13 16 14
REMARK SMILES IDX 17 15 12 17 13 18 14 19
REMARK H PARENT
REMARK Flexibility Score: 70.00
ROOT
ATOM      1  C   UNL     1       9.126 -29.749  15.915  1.00  0.00     0.136 C 
ATOM      2  O   UNL     1       9.613 -28.641  15.733  1.00  0.00    -0.299 OA
ENDROOT
BRANCH   1   3
ATOM      3  C   UNL     1       8.247 -29.986  17.129  1.00  0.00     0.053 C 
ATOM      4  C   UNL     1       8.896 -29.390  18.386  1.00  0.00     0.016 C 
BRANCH   3   5
ATOM      5  C   UNL     1       6.837 -29.392  16.902  1.00  0.00     0.015 C 
BRANCH   5   6
ATOM      6  C   UNL     1       5.935 -30.359  16.111  1.00  0.00     0.028 C 
BRANCH   6   7
ATOM      7  C   UNL     1       6.071 -31.795  16.550  1.00  0.00    -0.028 C 
ATOM      8  C   UNL     1       6.356 -32.842  15.736  1.00  0.00    -0.070 CG0
ATOM      9  C   UNL     1       6.550 -34.193  16.378  1.00  0.00     0.039 C 
ATOM     10  G   UNL     1       6.440 -32.734  14.219  1.00  0.00     0.000 G0
ENDBRANCH   6   7
ENDBRANCH   5   6
ENDBRANCH   3   5
ENDBRANCH   1   3
BRANCH   1  11
ATOM     11  C   UNL     1       9.428 -30.855  14.931  1.00  0.00     0.087 C 
BRANCH  11  12
ATOM     12  C   UNL     1       8.344 -30.972  13.827  1.00  0.00     0.066 C 
BRANCH  12  13
ATOM     13  C   UNL     1       7.831 -32.401  13.706  1.00  0.00     0.140 C 
ATOM     14  O   UNL     1       8.511 -33.259  13.163  1.00  0.00    -0.299 OA
BRANCH  13  15
ATOM     15  C   UNL     1       6.451 -32.751  14.207  1.00  0.00     0.106 CG0
ATOM     16  G   UNL     1       6.349 -32.839  15.725  1.00  0.00     0.000 G0
ENDBRANCH  13  15
ENDBRANCH  12  13
BRANCH  12  17
ATOM     17  C   UNL     1       8.799 -30.399  12.444  1.00  0.00    -0.006 C 
ATOM     18  C   UNL     1       7.984 -29.154  12.054  1.00  0.00     0.008 C 
ATOM     19  C   UNL     1      10.304 -30.080  12.367  1.00  0.00     0.008 C 
ENDBRANCH  12  17
ENDBRANCH  11  12
ENDBRANCH   1  11
TORSDOF 1
ENDMDL
MODEL 4
REMARK VINA RESULT:    -3.030      1.548      1.812
REMARK INTER + INTRA:          -4.521
REMARK INTER:                  -5.127
REMARK INTRA:                   0.606
REMARK UNBOUND:                 0.103
REMARK SMILES CC1=CCC[C@H](C)C(=O)C[C@@H](C(C)C)C(=O)C1
REMARK SMILES IDX 8 1 9 2 6 3 7 4 5 5 4 6 3 7 2 8 1 9 10 11 11 12 15 13 16 14
REMARK SMILES IDX 17 15 12 17 13 18 14 19
REMARK H PARENT
REMARK Flexibility Score: 70.00
ROOT
ATOM      1  C   UNL     1       9.386 -29.807  14.231  1.00  0.00     0.136 C 
ATOM      2  O   UNL     1      10.565 -30.091  14.067  1.00  0.00    -0.299 OA
ENDROOT
BRANCH   1   3
ATOM      3  C   UNL     1       8.398 -30.045  13.104  1.00  0.00     0.053 C 
ATOM      4  C   UNL     1       8.660 -29.071  11.947  1.00  0.00     0.016 C 
BRANCH   3   5
ATOM      5  C   UNL     1       8.472 -31.511  12.619  1.00  0.00     0.015 C 
BRANCH   5   6
ATOM      6  C   UNL     1       7.201 -32.298  12.993  1.00  0.00     0.028 C 
BRANCH   6   7
ATOM      7  C   UNL     1       7.287 -32.959  14.347  1.00  0.00    -0.028 C 
ATOM      8  C   UNL     1       6.665 -32.528  15.472  1.00  0.00    -0.070 CG0
ATOM      9  C   UNL     1       6.794 -33.380  16.711  1.00  0.00     0.039 C 
ATOM     10  G   UNL     1       5.894 -31.218  15.562  1.00  0.00     0.000 G0
ENDBRANCH   6   7
ENDBRANCH   5   6
ENDBRANCH   3   5
ENDBRANCH   1   3
BRANCH   1  11
ATOM     11  C   UNL     1       8.951 -29.212  15.551  1.00  0.00     0.087 C 
BRANCH  11  12
ATOM     12  C   UNL     1       8.157 -30.223  16.419  1.00  0.00     0.066 C 
BRANCH  12  13
ATOM     13  C   UNL     1       6.657 -30.082  16.199  1.00  0.00     0.140 C 
ATOM     14  O   UNL     1       6.069 -29.076  16.567  1.00  0.00    -0.299 OA
BRANCH  13  15
ATOM     15  C   UNL     1       5.877 -31.214  15.574  1.00  0.00     0.106 CG0
ATOM     16  G   UNL     1       6.653 -32.521  15.482  1.00  0.00     0.000 G0
ENDBRANCH  13  15
ENDBRANCH  12  13
BRANCH  12  17
ATOM     17  C   UNL     1       8.530 -30.168  17.937  1.00  0.00    -0.006 C 
ATOM     18  C   UNL     1       9.135 -28.807  18.321  1.00  0.00     0.008 C 
ATOM     19  C   UNL     1       7.356 -30.498  18.879  1.00  0.00     0.008 C 
ENDBRANCH  12  17
ENDBRANCH  11  12
ENDBRANCH   1  11
TORSDOF 1
ENDMDL
MODEL 5
REMARK VINA RESULT:    -2.732      2.110      2.672
REMARK INTER + INTRA:          -4.066
REMARK INTER:                  -4.316
REMARK INTRA:                   0.250
REMARK UNBOUND:                 0.103
REMARK SMILES CC1=CCC[C@H](C)C(=O)C[C@@H](C(C)C)C(=O)C1
REMARK SMILES IDX 8 1 9 2 6 3 7 4 5 5 4 6 3 7 2 8 1 9 10 11 11 12 15 13 16 14
REMARK SMILES IDX 17 15 12 17 13 18 14 19
REMARK H PARENT
REMARK Flexibility Score: 70.00
ROOT
ATOM      1  C   UNL     1       9.167 -29.508  13.010  1.00  0.00     0.136 C 
ATOM      2  O   UNL     1       8.673 -29.472  11.891  1.00  0.00    -0.299 OA
ENDROOT
BRANCH   1   3
ATOM      3  C   UNL     1      10.677 -29.573  13.157  1.00  0.00     0.053 C 
ATOM      4  C   UNL     1      11.133 -28.748  14.368  1.00  0.00     0.016 C 
BRANCH   3   5
ATOM      5  C   UNL     1      11.147 -31.040  13.279  1.00  0.00     0.015 C 
BRANCH   5   6
ATOM      6  C   UNL     1      10.475 -31.942  12.225  1.00  0.00     0.028 C 
BRANCH   6   7
ATOM      7  C   UNL     1       9.926 -33.224  12.801  1.00  0.00    -0.028 C 
ATOM      8  C   UNL     1       8.614 -33.489  13.018  1.00  0.00    -0.070 CG0
ATOM      9  C   UNL     1       8.253 -34.869  13.510  1.00  0.00     0.039 C 
ATOM     10  G   UNL     1       7.504 -32.461  12.840  1.00  0.00     0.000 G0
ENDBRANCH   6   7
ENDBRANCH   5   6
ENDBRANCH   3   5
ENDBRANCH   1   3
BRANCH   1  11
ATOM     11  C   UNL     1       8.256 -29.501  14.216  1.00  0.00     0.087 C 
BRANCH  11  12
ATOM     12  C   UNL     1       8.130 -30.905  14.866  1.00  0.00     0.066 C 
BRANCH  12  13
ATOM     13  C   UNL     1       7.110 -31.764  14.131  1.00  0.00     0.140 C 
ATOM     14  O   UNL     1       5.990 -31.924  14.592  1.00  0.00    -0.299 OA
BRANCH  13  15
ATOM     15  C   UNL     1       7.500 -32.471  12.855  1.00  0.00     0.106 CG0
ATOM     16  G   UNL     1       8.618 -33.490  13.031  1.00  0.00     0.000 G0
ENDBRANCH  13  15
ENDBRANCH  12  13
BRANCH  12  17
ATOM     17  C   UNL     1       7.850 -30.857  16.404  1.00  0.00    -0.006 C 
ATOM     18  C   UNL     1       8.039 -32.237  17.055  1.00  0.00     0.008 C 
ATOM     19  C   UNL     1       8.689 -29.807  17.157  1.00  0.00     0.008 C 
ENDBRANCH  12  17
ENDBRANCH  11  12
ENDBRANCH   1  11
TORSDOF 1
ENDMDL
MODEL 6
REMARK VINA RESULT:    -2.729      2.245      4.278
REMARK INTER + INTRA:          -4.062
REMARK INTER:                  -4.482
REMARK INTRA:                   0.419
REMARK UNBOUND:                 0.103
REMARK SMILES CC1=CCC[C@H](C)C(=O)C[C@@H](C(C)C)C(=O)C1
REMARK SMILES IDX 8 1 9 2 6 3 7 4 5 5 4 6 3 7 2 8 1 9 10 11 11 12 15 13 16 14
REMARK SMILES IDX 17 15 12 17 13 18 14 19
REMARK H PARENT
REMARK Flexibility Score: 70.00
ROOT
ATOM      1  C   UNL     1       9.015 -32.957  12.600  1.00  0.00     0.136 C 
ATOM      2  O   UNL     1       9.159 -34.085  12.148  1.00  0.00    -0.299 OA
ENDROOT
BRANCH   1   3
ATOM      3  C   UNL     1      10.198 -32.255  13.242  1.00  0.00     0.053 C 
ATOM      4  C   UNL     1      11.263 -33.277  13.665  1.00  0.00     0.016 C 
BRANCH   3   5
ATOM      5  C   UNL     1      10.794 -31.204  12.277  1.00  0.00     0.015 C 
BRANCH   5   6
ATOM      6  C   UNL     1      10.233 -29.796  12.554  1.00  0.00     0.028 C 
BRANCH   6   7
ATOM      7  C   UNL     1      10.036 -29.512  14.023  1.00  0.00    -0.028 C 
ATOM      8  C   UNL     1       8.858 -29.601  14.689  1.00  0.00    -0.070 CG0
ATOM      9  C   UNL     1       8.881 -29.373  16.180  1.00  0.00     0.039 C 
ATOM     10  G   UNL     1       7.521 -29.868  14.010  1.00  0.00     0.000 G0
ENDBRANCH   6   7
ENDBRANCH   5   6
ENDBRANCH   3   5
ENDBRANCH   1   3
BRANCH   1  11
ATOM     11  C   UNL     1       7.657 -32.300  12.517  1.00  0.00     0.087 C 
BRANCH  11  12
ATOM     12  C   UNL     1       6.866 -32.414  13.848  1.00  0.00     0.066 C 
BRANCH  12  13
ATOM     13  C   UNL     1       6.761 -31.065  14.545  1.00  0.00     0.140 C 
ATOM     14  O   UNL     1       6.032 -30.925  15.516  1.00  0.00    -0.299 OA
BRANCH  13  15
ATOM     15  C   UNL     1       7.514 -29.875  14.001  1.00  0.00     0.106 CG0
ATOM     16  G   UNL     1       8.841 -29.611  14.701  1.00  0.00     0.000 G0
ENDBRANCH  13  15
ENDBRANCH  12  13
BRANCH  12  17
ATOM     17  C   UNL     1       7.415 -33.522  14.805  1.00  0.00    -0.006 C 
ATOM     18  C   UNL     1       7.884 -32.929  16.144  1.00  0.00     0.008 C 
ATOM     19  C   UNL     1       6.420 -34.669  15.066  1.00  0.00     0.008 C 
ENDBRANCH  12  17
ENDBRANCH  11  12
ENDBRANCH   1  11
TORSDOF 1
ENDMDL
MODEL 7
REMARK VINA RESULT:    -2.628      2.089      3.966
REMARK INTER + INTRA:          -3.907
REMARK INTER:                  -4.440
REMARK INTRA:                   0.533
REMARK UNBOUND:                 0.103
REMARK SMILES CC1=CCC[C@H](C)C(=O)C[C@@H](C(C)C)C(=O)C1
REMARK SMILES IDX 8 1 9 2 6 3 7 4 5 5 4 6 3 7 2 8 1 9 10 11 11 12 15 13 16 14
REMARK SMILES IDX 17 15 12 17 13 18 14 19
REMARK H PARENT
REMARK Flexibility Score: 70.00
ROOT
ATOM      1  C   UNL     1       6.289 -31.993  15.188  1.00  0.00     0.136 C 
ATOM      2  O   UNL     1       5.875 -31.975  14.036  1.00  0.00    -0.299 OA
ENDROOT
BRANCH   1   3
ATOM      3  C   UNL     1       7.067 -33.199  15.682  1.00  0.00     0.053 C 
ATOM      4  C   UNL     1       6.106 -34.291  16.173  1.00  0.00     0.016 C 
BRANCH   3   5
ATOM      5  C   UNL     1       7.993 -33.740  14.568  1.00  0.00     0.015 C 
BRANCH   5   6
ATOM      6  C   UNL     1       9.395 -33.103  14.636  1.00  0.00     0.028 C 
BRANCH   6   7
ATOM      7  C   UNL     1       9.695 -32.201  13.465  1.00  0.00    -0.028 C 
ATOM      8  C   UNL     1       9.764 -30.847  13.514  1.00  0.00    -0.070 CG0
ATOM      9  C   UNL     1      10.175 -30.123  12.256  1.00  0.00     0.039 C 
ATOM     10  G   UNL     1       9.404 -30.027  14.747  1.00  0.00     0.000 G0
ENDBRANCH   6   7
ENDBRANCH   5   6
ENDBRANCH   3   5
ENDBRANCH   1   3
BRANCH   1  11
ATOM     11  C   UNL     1       6.001 -30.816  16.091  1.00  0.00     0.087 C 
BRANCH  11  12
ATOM     12  C   UNL     1       7.203 -29.839  16.186  1.00  0.00     0.066 C 
BRANCH  12  13
ATOM     13  C   UNL     1       7.918 -29.712  14.848  1.00  0.00     0.140 C 
ATOM     14  O   UNL     1       7.297 -29.406  13.841  1.00  0.00    -0.299 OA
BRANCH  13  15
ATOM     15  C   UNL     1       9.392 -30.022  14.749  1.00  0.00     0.106 CG0
ATOM     16  G   UNL     1       9.772 -30.833  13.517  1.00  0.00     0.000 G0
ENDBRANCH  13  15
ENDBRANCH  12  13
BRANCH  12  17
ATOM     17  C   UNL     1       8.195 -30.183  17.346  1.00  0.00    -0.006 C 
ATOM     18  C   UNL     1       8.567 -28.931  18.159  1.00  0.00     0.008 C 
ATOM     19  C   UNL     1       7.686 -31.286  18.293  1.00  0.00     0.008 C 
ENDBRANCH  12  17
ENDBRANCH  11  12
ENDBRANCH   1  11
TORSDOF 1
ENDMDL
MODEL 8
REMARK VINA RESULT:    -2.618      1.600      4.066
REMARK INTER + INTRA:          -3.892
REMARK INTER:                  -5.328
REMARK INTRA:                   1.436
REMARK UNBOUND:                 0.103
REMARK SMILES CC1=CCC[C@H](C)C(=O)C[C@@H](C(C)C)C(=O)C1
REMARK SMILES IDX 8 1 9 2 6 3 7 4 5 5 4 6 3 7 2 8 1 9 10 11 11 12 15 13 16 14
REMARK SMILES IDX 17 15 12 17 13 18 14 19
REMARK H PARENT
REMARK Flexibility Score: 70.00
ROOT
ATOM      1  C   UNL     1       8.557 -29.874  16.542  1.00  0.00     0.136 C 
ATOM      2  O   UNL     1       8.962 -28.794  16.952  1.00  0.00    -0.299 OA
ENDROOT
BRANCH   1   3
ATOM      3  C   UNL     1       7.427 -30.573  17.275  1.00  0.00     0.053 C 
ATOM      4  C   UNL     1       6.693 -29.587  18.195  1.00  0.00     0.016 C 
BRANCH   3   5
ATOM      5  C   UNL     1       6.448 -31.221  16.269  1.00  0.00     0.015 C 
BRANCH   5   6
ATOM      6  C   UNL     1       6.702 -32.734  16.122  1.00  0.00     0.028 C 
BRANCH   6   7
ATOM      7  C   UNL     1       6.985 -33.154  14.701  1.00  0.00    -0.028 C 
ATOM      8  C   UNL     1       7.121 -32.314  13.645  1.00  0.00    -0.070 CG0
ATOM      9  C   UNL     1       7.501 -32.919  12.316  1.00  0.00     0.039 C 
ATOM     10  G   UNL     1       6.864 -30.815  13.720  1.00  0.00     0.000 G0
ENDBRANCH   6   7
ENDBRANCH   5   6
ENDBRANCH   3   5
ENDBRANCH   1   3
BRANCH   1  11
ATOM     11  C   UNL     1       9.207 -30.487  15.323  1.00  0.00     0.087 C 
BRANCH  11  12
ATOM     12  C   UNL     1       9.126 -29.558  14.083  1.00  0.00     0.066 C 
BRANCH  12  13
ATOM     13  C   UNL     1       7.973 -29.954  13.171  1.00  0.00     0.140 C 
ATOM     14  O   UNL     1       7.926 -29.547  12.020  1.00  0.00    -0.299 OA
BRANCH  13  15
ATOM     15  C   UNL     1       6.849 -30.809  13.705  1.00  0.00     0.106 CG0
ATOM     16  G   UNL     1       7.123 -32.306  13.633  1.00  0.00     0.000 G0
ENDBRANCH  13  15
ENDBRANCH  12  13
BRANCH  12  17
ATOM     17  C   UNL     1      10.475 -29.445  13.300  1.00  0.00    -0.006 C 
ATOM     18  C   UNL     1      11.513 -28.620  14.080  1.00  0.00     0.008 C 
ATOM     19  C   UNL     1      11.082 -30.805  12.907  1.00  0.00     0.008 C 
ENDBRANCH  12  17
ENDBRANCH  11  12
ENDBRANCH   1  11
TORSDOF 1
ENDMDL
MODEL 9
REMARK VINA RESULT:    -2.608      2.357      4.778
REMARK INTER + INTRA:          -3.877
REMARK INTER:                  -4.071
REMARK INTRA:                   0.194
REMARK UNBOUND:                 0.103
REMARK SMILES CC1=CCC[C@H](C)C(=O)C[C@@H](C(C)C)C(=O)C1
REMARK SMILES IDX 8 1 9 2 6 3 7 4 5 5 4 6 3 7 2 8 1 9 10 11 11 12 15 13 16 14
REMARK SMILES IDX 17 15 12 17 13 18 14 19
REMARK H PARENT
REMARK Flexibility Score: 70.00
ROOT
ATOM      1  C   UNL     1       6.451 -30.314  16.235  1.00  0.00     0.136 C 
ATOM      2  O   UNL     1       6.114 -29.138  16.227  1.00  0.00    -0.299 OA
ENDROOT
BRANCH   1   3
ATOM      3  C   UNL     1       7.446 -30.797  17.274  1.00  0.00     0.053 C 
ATOM      4  C   UNL     1       7.155 -32.254  17.658  1.00  0.00     0.016 C 
BRANCH   3   5
ATOM      5  C   UNL     1       8.893 -30.644  16.750  1.00  0.00     0.015 C 
BRANCH   5   6
ATOM      6  C   UNL     1       9.071 -29.342  15.944  1.00  0.00     0.028 C 
BRANCH   6   7
ATOM      7  C   UNL     1       9.815 -29.542  14.648  1.00  0.00    -0.028 C 
ATOM      8  C   UNL     1       9.253 -29.562  13.414  1.00  0.00    -0.070 CG0
ATOM      9  C   UNL     1      10.177 -29.676  12.227  1.00  0.00     0.039 C 
ATOM     10  G   UNL     1       7.749 -29.524  13.170  1.00  0.00     0.000 G0
ENDBRANCH   6   7
ENDBRANCH   5   6
ENDBRANCH   3   5
ENDBRANCH   1   3
BRANCH   1  11
ATOM     11  C   UNL     1       5.875 -31.250  15.197  1.00  0.00     0.087 C 
BRANCH  11  12
ATOM     12  C   UNL     1       6.959 -31.793  14.229  1.00  0.00     0.066 C 
BRANCH  12  13
ATOM     13  C   UNL     1       7.114 -30.891  13.012  1.00  0.00     0.140 C 
ATOM     14  O   UNL     1       6.771 -31.279  11.905  1.00  0.00    -0.299 OA
BRANCH  13  15
ATOM     15  C   UNL     1       7.749 -29.529  13.160  1.00  0.00     0.106 CG0
ATOM     16  G   UNL     1       9.251 -29.572  13.413  1.00  0.00     0.000 G0
ENDBRANCH  13  15
ENDBRANCH  12  13
BRANCH  12  17
ATOM     17  C   UNL     1       6.738 -33.287  13.820  1.00  0.00    -0.006 C 
ATOM     18  C   UNL     1       8.073 -34.000  13.544  1.00  0.00     0.008 C 
ATOM     19  C   UNL     1       5.918 -34.097  14.842  1.00  0.00     0.008 C 
ENDBRANCH  12  17
ENDBRANCH  11  12
ENDBRANCH   1  11
TORSDOF 1
ENDMDL
