MODEL 1
REMARK VINA RESULT:    -4.319      0.000      0.000
REMARK INTER + INTRA:          -4.714
REMARK INTER:                  -4.571
REMARK INTRA:                  -0.143
REMARK UNBOUND:                -0.143
REMARK SMILES CC1=CC[C@H](C(C)C)C=C1
REMARK SMILES IDX 1 1 2 2 3 3 4 4 5 5 9 6 10 7 6 8 7 9 8 10
REMARK H PARENT
REMARK Flexibility Score: inf
ROOT
ATOM      1  C   UNL     1      16.145  14.745  36.222  1.00  0.00     0.044 C 
ATOM      2  C   UNL     1      14.739  14.712  36.743  1.00  0.00    -0.055 C 
ATOM      3  C   UNL     1      14.055  13.556  36.770  1.00  0.00    -0.023 C 
ATOM      4  C   UNL     1      12.596  13.534  37.148  1.00  0.00     0.035 C 
ATOM      5  C   UNL     1      12.283  14.617  38.210  1.00  0.00     0.018 C 
ATOM      6  C   UNL     1      12.907  15.938  37.811  1.00  0.00    -0.023 C 
ATOM      7  C   UNL     1      14.080  15.967  37.168  1.00  0.00    -0.001 C 
ENDROOT
BRANCH   5   8
ATOM      8  C   UNL     1      10.767  14.774  38.528  1.00  0.00    -0.010 C 
ATOM      9  C   UNL     1      10.358  14.178  39.885  1.00  0.00     0.008 C 
ATOM     10  C   UNL     1      10.314  16.239  38.432  1.00  0.00     0.008 C 
ENDBRANCH   5   8
TORSDOF 1
ENDMDL
MODEL 2
REMARK VINA RESULT:    -4.277     15.008     15.811
REMARK INTER + INTRA:          -4.670
REMARK INTER:                  -4.480
REMARK INTRA:                  -0.189
REMARK UNBOUND:                -0.143
REMARK SMILES CC1=CC[C@H](C(C)C)C=C1
REMARK SMILES IDX 1 1 2 2 3 3 4 4 5 5 9 6 10 7 6 8 7 9 8 10
REMARK H PARENT
REMARK Flexibility Score: inf
ROOT
ATOM      1  C   UNL     1       5.321  18.813  22.535  1.00  0.00     0.044 C 
ATOM      2  C   UNL     1       6.758  18.957  22.938  1.00  0.00    -0.055 C 
ATOM      3  C   UNL     1       7.737  18.734  22.046  1.00  0.00    -0.023 C 
ATOM      4  C   UNL     1       9.182  18.726  22.474  1.00  0.00     0.035 C 
ATOM      5  C   UNL     1       9.426  19.742  23.617  1.00  0.00     0.018 C 
ATOM      6  C   UNL     1       8.355  19.602  24.680  1.00  0.00    -0.023 C 
ATOM      7  C   UNL     1       7.102  19.281  24.341  1.00  0.00    -0.001 C 
ENDROOT
BRANCH   5   8
ATOM      8  C   UNL     1      10.854  19.674  24.233  1.00  0.00    -0.010 C 
ATOM      9  C   UNL     1      10.874  19.178  25.688  1.00  0.00     0.008 C 
ATOM     10  C   UNL     1      11.807  18.832  23.371  1.00  0.00     0.008 C 
ENDBRANCH   5   8
TORSDOF 1
ENDMDL
MODEL 3
REMARK VINA RESULT:    -4.276      1.055      4.303
REMARK INTER + INTRA:          -4.669
REMARK INTER:                  -4.481
REMARK INTRA:                  -0.188
REMARK UNBOUND:                -0.143
REMARK SMILES CC1=CC[C@H](C(C)C)C=C1
REMARK SMILES IDX 1 1 2 2 3 3 4 4 5 5 9 6 10 7 6 8 7 9 8 10
REMARK H PARENT
REMARK Flexibility Score: inf
ROOT
ATOM      1  C   UNL     1      10.160  14.690  38.995  1.00  0.00     0.044 C 
ATOM      2  C   UNL     1      11.502  14.933  38.370  1.00  0.00    -0.055 C 
ATOM      3  C   UNL     1      12.088  13.977  37.632  1.00  0.00    -0.023 C 
ATOM      4  C   UNL     1      13.497  14.150  37.125  1.00  0.00     0.035 C 
ATOM      5  C   UNL     1      13.788  15.636  36.797  1.00  0.00     0.018 C 
ATOM      6  C   UNL     1      13.310  16.525  37.926  1.00  0.00    -0.023 C 
ATOM      7  C   UNL     1      12.211  16.208  38.621  1.00  0.00    -0.001 C 
ENDROOT
BRANCH   5   8
ATOM      8  C   UNL     1      15.273  15.925  36.431  1.00  0.00    -0.010 C 
ATOM      9  C   UNL     1      16.043  16.673  37.532  1.00  0.00     0.008 C 
ATOM     10  C   UNL     1      16.022  14.644  36.034  1.00  0.00     0.008 C 
ENDBRANCH   5   8
TORSDOF 1
ENDMDL
MODEL 4
REMARK VINA RESULT:    -4.205      1.103      4.446
REMARK INTER + INTRA:          -4.593
REMARK INTER:                  -4.403
REMARK INTRA:                  -0.190
REMARK UNBOUND:                -0.143
REMARK SMILES CC1=CC[C@H](C(C)C)C=C1
REMARK SMILES IDX 1 1 2 2 3 3 4 4 5 5 9 6 10 7 6 8 7 9 8 10
REMARK H PARENT
REMARK Flexibility Score: inf
ROOT
ATOM      1  C   UNL     1      10.485  14.321  39.537  1.00  0.00     0.044 C 
ATOM      2  C   UNL     1      11.596  14.837  38.670  1.00  0.00    -0.055 C 
ATOM      3  C   UNL     1      11.927  16.138  38.697  1.00  0.00    -0.023 C 
ATOM      4  C   UNL     1      12.935  16.697  37.726  1.00  0.00     0.035 C 
ATOM      5  C   UNL     1      14.029  15.650  37.401  1.00  0.00     0.018 C 
ATOM      6  C   UNL     1      13.397  14.308  37.096  1.00  0.00    -0.023 C 
ATOM      7  C   UNL     1      12.286  13.921  37.733  1.00  0.00    -0.001 C 
ENDROOT
BRANCH   5   8
ATOM      8  C   UNL     1      15.011  16.088  36.274  1.00  0.00    -0.010 C 
ATOM      9  C   UNL     1      15.756  14.914  35.618  1.00  0.00     0.008 C 
ATOM     10  C   UNL     1      14.309  16.938  35.205  1.00  0.00     0.008 C 
ENDBRANCH   5   8
TORSDOF 1
ENDMDL
MODEL 5
REMARK VINA RESULT:    -4.177      0.450      1.627
REMARK INTER + INTRA:          -4.564
REMARK INTER:                  -4.399
REMARK INTRA:                  -0.165
REMARK UNBOUND:                -0.143
REMARK SMILES CC1=CC[C@H](C(C)C)C=C1
REMARK SMILES IDX 1 1 2 2 3 3 4 4 5 5 9 6 10 7 6 8 7 9 8 10
REMARK H PARENT
REMARK Flexibility Score: inf
ROOT
ATOM      1  C   UNL     1      15.868  14.787  36.011  1.00  0.00     0.044 C 
ATOM      2  C   UNL     1      14.547  14.865  36.718  1.00  0.00    -0.055 C 
ATOM      3  C   UNL     1      14.085  16.046  37.160  1.00  0.00    -0.023 C 
ATOM      4  C   UNL     1      12.837  16.119  38.002  1.00  0.00     0.035 C 
ATOM      5  C   UNL     1      11.824  15.025  37.583  1.00  0.00     0.018 C 
ATOM      6  C   UNL     1      12.524  13.689  37.440  1.00  0.00    -0.023 C 
ATOM      7  C   UNL     1      13.781  13.627  36.988  1.00  0.00    -0.001 C 
ENDROOT
BRANCH   5   8
ATOM      8  C   UNL     1      10.581  14.921  38.516  1.00  0.00    -0.010 C 
ATOM      9  C   UNL     1      10.920  14.459  39.943  1.00  0.00     0.008 C 
ATOM     10  C   UNL     1       9.788  16.236  38.556  1.00  0.00     0.008 C 
ENDBRANCH   5   8
TORSDOF 1
ENDMDL
MODEL 6
REMARK VINA RESULT:    -4.157     13.733     14.301
REMARK INTER + INTRA:          -4.543
REMARK INTER:                  -4.361
REMARK INTRA:                  -0.182
REMARK UNBOUND:                -0.143
REMARK SMILES CC1=CC[C@H](C(C)C)C=C1
REMARK SMILES IDX 1 1 2 2 3 3 4 4 5 5 9 6 10 7 6 8 7 9 8 10
REMARK H PARENT
REMARK Flexibility Score: inf
ROOT
ATOM      1  C   UNL     1      11.443  19.184  27.741  1.00  0.00     0.044 C 
ATOM      2  C   UNL     1      10.481  19.237  26.591  1.00  0.00    -0.055 C 
ATOM      3  C   UNL     1       9.161  19.331  26.818  1.00  0.00    -0.023 C 
ATOM      4  C   UNL     1       8.175  19.233  25.681  1.00  0.00     0.035 C 
ATOM      5  C   UNL     1       8.761  19.850  24.387  1.00  0.00     0.018 C 
ATOM      6  C   UNL     1      10.176  19.356  24.164  1.00  0.00    -0.023 C 
ATOM      7  C   UNL     1      10.984  19.120  25.204  1.00  0.00    -0.001 C 
ENDROOT
BRANCH   5   8
ATOM      8  C   UNL     1       7.875  19.636  23.124  1.00  0.00    -0.010 C 
ATOM      9  C   UNL     1       8.267  18.397  22.301  1.00  0.00     0.008 C 
ATOM     10  C   UNL     1       6.381  19.590  23.478  1.00  0.00     0.008 C 
ENDBRANCH   5   8
TORSDOF 1
ENDMDL
MODEL 7
REMARK VINA RESULT:    -4.049     15.575     16.320
REMARK INTER + INTRA:          -4.428
REMARK INTER:                  -4.276
REMARK INTRA:                  -0.152
REMARK UNBOUND:                -0.143
REMARK SMILES CC1=CC[C@H](C(C)C)C=C1
REMARK SMILES IDX 1 1 2 2 3 3 4 4 5 5 9 6 10 7 6 8 7 9 8 10
REMARK H PARENT
REMARK Flexibility Score: inf
ROOT
ATOM      1  C   UNL     1       4.338  19.224  21.110  1.00  0.00     0.044 C 
ATOM      2  C   UNL     1       5.323  19.476  22.214  1.00  0.00    -0.055 C 
ATOM      3  C   UNL     1       5.108  20.461  23.100  1.00  0.00    -0.023 C 
ATOM      4  C   UNL     1       6.159  20.823  24.120  1.00  0.00     0.035 C 
ATOM      5  C   UNL     1       6.949  19.568  24.567  1.00  0.00     0.018 C 
ATOM      6  C   UNL     1       7.362  18.750  23.361  1.00  0.00    -0.023 C 
ATOM      7  C   UNL     1       6.568  18.678  22.287  1.00  0.00    -0.001 C 
ENDROOT
BRANCH   5   8
ATOM      8  C   UNL     1       8.165  19.880  25.489  1.00  0.00    -0.010 C 
ATOM      9  C   UNL     1       8.161  19.081  26.803  1.00  0.00     0.008 C 
ATOM     10  C   UNL     1       9.500  19.690  24.754  1.00  0.00     0.008 C 
ENDBRANCH   5   8
TORSDOF 1
ENDMDL
MODEL 8
REMARK VINA RESULT:    -4.036     13.845     14.402
REMARK INTER + INTRA:          -4.414
REMARK INTER:                  -4.269
REMARK INTRA:                  -0.145
REMARK UNBOUND:                -0.143
REMARK SMILES CC1=CC[C@H](C(C)C)C=C1
REMARK SMILES IDX 1 1 2 2 3 3 4 4 5 5 9 6 10 7 6 8 7 9 8 10
REMARK H PARENT
REMARK Flexibility Score: inf
ROOT
ATOM      1  C   UNL     1      11.182  18.972  27.463  1.00  0.00     0.044 C 
ATOM      2  C   UNL     1      10.058  19.226  26.502  1.00  0.00    -0.055 C 
ATOM      3  C   UNL     1      10.319  19.511  25.216  1.00  0.00    -0.023 C 
ATOM      4  C   UNL     1       9.211  19.916  24.276  1.00  0.00     0.035 C 
ATOM      5  C   UNL     1       7.892  19.186  24.631  1.00  0.00     0.018 C 
ATOM      6  C   UNL     1       7.638  19.257  26.123  1.00  0.00    -0.023 C 
ATOM      7  C   UNL     1       8.659  19.226  26.987  1.00  0.00    -0.001 C 
ENDROOT
BRANCH   5   8
ATOM      8  C   UNL     1       6.658  19.677  23.818  1.00  0.00    -0.010 C 
ATOM      9  C   UNL     1       6.725  21.165  23.436  1.00  0.00     0.008 C 
ATOM     10  C   UNL     1       6.421  18.816  22.568  1.00  0.00     0.008 C 
ENDBRANCH   5   8
TORSDOF 1
ENDMDL
