MODEL 1
REMARK VINA RESULT:    -4.326      0.000      0.000
REMARK INTER + INTRA:          -6.740
REMARK INTER:                  -6.349
REMARK INTRA:                  -0.390
REMARK UNBOUND:                -0.390
REMARK SMILES O=C([O-])CCCCCCCC(=O)[O-]
REMARK SMILES IDX 7 1 6 2 5 3 4 4 2 5 1 6 3 7 8 8 9 9 10 10 11 11 12 12 13 13
REMARK H PARENT
REMARK Flexibility Score: inf
ROOT
ATOM      1  C   UNL     1      14.768 -30.971  21.557  1.00  0.00     0.000 C 
ENDROOT
BRANCH   1   2
ATOM      2  C   UNL     1      13.337 -31.366  21.172  1.00  0.00     0.000 C 
BRANCH   2   3
ATOM      3  C   UNL     1      12.313 -30.697  22.101  1.00  0.00     0.006 C 
BRANCH   3   4
ATOM      4  C   UNL     1      12.966 -30.104  23.356  1.00  0.00     0.053 C 
BRANCH   4   5
ATOM      5  C   UNL     1      12.412 -28.751  23.684  1.00  0.00     0.041 C 
ATOM      6  O   UNL     1      13.094 -27.933  24.355  1.00  0.00    -0.550 OA
ATOM      7  O   UNL     1      11.129 -28.407  23.277  1.00  0.00    -0.550 OA
ENDBRANCH   4   5
ENDBRANCH   3   4
ENDBRANCH   2   3
ENDBRANCH   1   2
BRANCH   1   8
ATOM      8  C   UNL     1      15.687 -32.201  21.591  1.00  0.00     0.000 C 
BRANCH   8   9
ATOM      9  C   UNL     1      14.957 -33.496  21.198  1.00  0.00     0.006 C 
BRANCH   9  10
ATOM     10  C   UNL     1      15.813 -34.749  21.423  1.00  0.00     0.053 C 
BRANCH  10  11
ATOM     11  C   UNL     1      16.331 -35.268  20.120  1.00  0.00     0.041 C 
ATOM     12  O   UNL     1      16.669 -36.477  20.009  1.00  0.00    -0.550 OA
ATOM     13  O   UNL     1      16.395 -34.431  19.014  1.00  0.00    -0.550 OA
ENDBRANCH  10  11
ENDBRANCH   9  10
ENDBRANCH   8   9
ENDBRANCH   1   8
TORSDOF 8
ENDMDL
MODEL 2
REMARK VINA RESULT:    -4.321      1.107      7.374
REMARK INTER + INTRA:          -6.732
REMARK INTER:                  -6.553
REMARK INTRA:                  -0.179
REMARK UNBOUND:                -0.390
REMARK SMILES O=C([O-])CCCCCCCC(=O)[O-]
REMARK SMILES IDX 7 1 6 2 5 3 4 4 2 5 1 6 3 7 8 8 9 9 10 10 11 11 12 12 13 13
REMARK H PARENT
REMARK Flexibility Score: inf
ROOT
ATOM      1  C   UNL     1      14.237 -32.284  21.715  1.00  0.00     0.000 C 
ENDROOT
BRANCH   1   2
ATOM      2  C   UNL     1      14.642 -33.238  20.584  1.00  0.00     0.000 C 
BRANCH   2   3
ATOM      3  C   UNL     1      15.369 -34.472  21.139  1.00  0.00     0.006 C 
BRANCH   3   4
ATOM      4  C   UNL     1      15.756 -35.464  20.034  1.00  0.00     0.053 C 
BRANCH   4   5
ATOM      5  C   UNL     1      17.019 -36.199  20.364  1.00  0.00     0.041 C 
ATOM      6  O   UNL     1      17.495 -36.149  21.529  1.00  0.00    -0.550 OA
ATOM      7  O   UNL     1      17.689 -36.910  19.377  1.00  0.00    -0.550 OA
ENDBRANCH   4   5
ENDBRANCH   3   4
ENDBRANCH   2   3
ENDBRANCH   1   2
BRANCH   1   8
ATOM      8  C   UNL     1      13.135 -31.320  21.252  1.00  0.00     0.000 C 
BRANCH   8   9
ATOM      9  C   UNL     1      12.330 -30.734  22.424  1.00  0.00     0.006 C 
BRANCH   9  10
ATOM     10  C   UNL     1      13.220 -30.051  23.469  1.00  0.00     0.053 C 
BRANCH  10  11
ATOM     11  C   UNL     1      12.632 -28.737  23.876  1.00  0.00     0.041 C 
ATOM     12  O   UNL     1      11.384 -28.566  23.851  1.00  0.00    -0.550 OA
ATOM     13  O   UNL     1      13.458 -27.716  24.329  1.00  0.00    -0.550 OA
ENDBRANCH  10  11
ENDBRANCH   9  10
ENDBRANCH   8   9
ENDBRANCH   1   8
TORSDOF 8
ENDMDL
MODEL 3
REMARK VINA RESULT:    -4.317      1.675      2.244
REMARK INTER + INTRA:          -6.727
REMARK INTER:                  -6.191
REMARK INTRA:                  -0.536
REMARK UNBOUND:                -0.390
REMARK SMILES O=C([O-])CCCCCCCC(=O)[O-]
REMARK SMILES IDX 7 1 6 2 5 3 4 4 2 5 1 6 3 7 8 8 9 9 10 10 11 11 12 12 13 13
REMARK H PARENT
REMARK Flexibility Score: inf
ROOT
ATOM      1  C   UNL     1      13.889 -32.294  20.929  1.00  0.00     0.000 C 
ENDROOT
BRANCH   1   2
ATOM      2  C   UNL     1      13.019 -31.222  21.597  1.00  0.00     0.000 C 
BRANCH   2   3
ATOM      3  C   UNL     1      13.177 -31.259  23.124  1.00  0.00     0.006 C 
BRANCH   3   4
ATOM      4  C   UNL     1      13.577 -29.895  23.701  1.00  0.00     0.053 C 
BRANCH   4   5
ATOM      5  C   UNL     1      14.919 -29.453  23.202  1.00  0.00     0.041 C 
ATOM      6  O   UNL     1      15.018 -28.434  22.468  1.00  0.00    -0.550 OA
ATOM      7  O   UNL     1      16.056 -30.186  23.519  1.00  0.00    -0.550 OA
ENDBRANCH   4   5
ENDBRANCH   3   4
ENDBRANCH   2   3
ENDBRANCH   1   2
BRANCH   1   8
ATOM      8  C   UNL     1      14.718 -33.058  21.972  1.00  0.00     0.000 C 
BRANCH   8   9
ATOM      9  C   UNL     1      15.329 -34.353  21.411  1.00  0.00     0.006 C 
BRANCH   9  10
ATOM     10  C   UNL     1      15.307 -34.401  19.878  1.00  0.00     0.053 C 
BRANCH  10  11
ATOM     11  C   UNL     1      16.617 -34.896  19.353  1.00  0.00     0.041 C 
ATOM     12  O   UNL     1      17.487 -34.079  18.950  1.00  0.00    -0.550 OA
ATOM     13  O   UNL     1      16.897 -36.255  19.353  1.00  0.00    -0.550 OA
ENDBRANCH  10  11
ENDBRANCH   9  10
ENDBRANCH   8   9
ENDBRANCH   1   8
TORSDOF 8
ENDMDL
MODEL 4
REMARK VINA RESULT:    -4.248      2.229      6.051
REMARK INTER + INTRA:          -6.625
REMARK INTER:                  -5.911
REMARK INTRA:                  -0.714
REMARK UNBOUND:                -0.390
REMARK SMILES O=C([O-])CCCCCCCC(=O)[O-]
REMARK SMILES IDX 7 1 6 2 5 3 4 4 2 5 1 6 3 7 8 8 9 9 10 10 11 11 12 12 13 13
REMARK H PARENT
REMARK Flexibility Score: inf
ROOT
ATOM      1  C   UNL     1      15.800 -32.819  23.980  1.00  0.00     0.000 C 
ENDROOT
BRANCH   1   2
ATOM      2  C   UNL     1      16.172 -34.084  23.196  1.00  0.00     0.000 C 
BRANCH   2   3
ATOM      3  C   UNL     1      15.375 -34.174  21.886  1.00  0.00     0.006 C 
BRANCH   3   4
ATOM      4  C   UNL     1      16.132 -33.560  20.701  1.00  0.00     0.053 C 
BRANCH   4   5
ATOM      5  C   UNL     1      16.602 -34.608  19.738  1.00  0.00     0.041 C 
ATOM      6  O   UNL     1      16.132 -35.775  19.793  1.00  0.00    -0.550 OA
ATOM      7  O   UNL     1      17.583 -34.304  18.803  1.00  0.00    -0.550 OA
ENDBRANCH   4   5
ENDBRANCH   3   4
ENDBRANCH   2   3
ENDBRANCH   1   2
BRANCH   1   8
ATOM      8  C   UNL     1      14.277 -32.623  24.014  1.00  0.00     0.000 C 
BRANCH   8   9
ATOM      9  C   UNL     1      13.870 -31.140  23.974  1.00  0.00     0.006 C 
BRANCH   9  10
ATOM     10  C   UNL     1      12.887 -30.826  22.840  1.00  0.00     0.053 C 
BRANCH  10  11
ATOM     11  C   UNL     1      13.558 -30.974  21.512  1.00  0.00     0.041 C 
ATOM     12  O   UNL     1      14.620 -30.343  21.265  1.00  0.00    -0.550 OA
ATOM     13  O   UNL     1      13.040 -31.846  20.564  1.00  0.00    -0.550 OA
ENDBRANCH  10  11
ENDBRANCH   9  10
ENDBRANCH   8   9
ENDBRANCH   1   8
TORSDOF 8
ENDMDL
MODEL 5
REMARK VINA RESULT:    -4.211      1.430      1.895
REMARK INTER + INTRA:          -6.572
REMARK INTER:                  -6.190
REMARK INTRA:                  -0.381
REMARK UNBOUND:                -0.390
REMARK SMILES O=C([O-])CCCCCCCC(=O)[O-]
REMARK SMILES IDX 7 1 6 2 5 3 4 4 2 5 1 6 3 7 8 8 9 9 10 10 11 11 12 12 13 13
REMARK H PARENT
REMARK Flexibility Score: inf
ROOT
ATOM      1  C   UNL     1      15.266 -33.520  23.588  1.00  0.00     0.000 C 
ENDROOT
BRANCH   1   2
ATOM      2  C   UNL     1      15.051 -32.017  23.371  1.00  0.00     0.000 C 
BRANCH   2   3
ATOM      3  C   UNL     1      13.682 -31.573  23.908  1.00  0.00     0.006 C 
BRANCH   3   4
ATOM      4  C   UNL     1      13.522 -30.047  23.902  1.00  0.00     0.053 C 
BRANCH   4   5
ATOM      5  C   UNL     1      12.344 -29.615  23.082  1.00  0.00     0.041 C 
ATOM      6  O   UNL     1      11.751 -28.536  23.345  1.00  0.00    -0.550 OA
ATOM      7  O   UNL     1      11.880 -30.423  22.051  1.00  0.00    -0.550 OA
ENDBRANCH   4   5
ENDBRANCH   3   4
ENDBRANCH   2   3
ENDBRANCH   1   2
BRANCH   1   8
ATOM      8  C   UNL     1      15.772 -34.194  22.304  1.00  0.00     0.000 C 
BRANCH   8   9
ATOM      9  C   UNL     1      15.383 -33.418  21.035  1.00  0.00     0.006 C 
BRANCH   9  10
ATOM     10  C   UNL     1      15.225 -34.327  19.811  1.00  0.00     0.053 C 
BRANCH  10  11
ATOM     11  C   UNL     1      16.553 -34.873  19.390  1.00  0.00     0.041 C 
ATOM     12  O   UNL     1      16.743 -36.118  19.352  1.00  0.00    -0.550 OA
ATOM     13  O   UNL     1      17.565 -34.009  18.994  1.00  0.00    -0.550 OA
ENDBRANCH  10  11
ENDBRANCH   9  10
ENDBRANCH   8   9
ENDBRANCH   1   8
TORSDOF 8
ENDMDL
MODEL 6
REMARK VINA RESULT:    -4.210      1.831      2.336
REMARK INTER + INTRA:          -6.569
REMARK INTER:                  -6.071
REMARK INTRA:                  -0.498
REMARK UNBOUND:                -0.390
REMARK SMILES O=C([O-])CCCCCCCC(=O)[O-]
REMARK SMILES IDX 7 1 6 2 5 3 4 4 2 5 1 6 3 7 8 8 9 9 10 10 11 11 12 12 13 13
REMARK H PARENT
REMARK Flexibility Score: inf
ROOT
ATOM      1  C   UNL     1      16.137 -32.648  23.476  1.00  0.00     0.000 C 
ENDROOT
BRANCH   1   2
ATOM      2  C   UNL     1      15.441 -31.315  23.779  1.00  0.00     0.000 C 
BRANCH   2   3
ATOM      3  C   UNL     1      13.918 -31.493  23.852  1.00  0.00     0.006 C 
BRANCH   3   4
ATOM      4  C   UNL     1      13.166 -30.367  23.129  1.00  0.00     0.053 C 
BRANCH   4   5
ATOM      5  C   UNL     1      12.475 -30.863  21.895  1.00  0.00     0.041 C 
ATOM      6  O   UNL     1      13.093 -31.588  21.071  1.00  0.00    -0.550 OA
ATOM      7  O   UNL     1      11.160 -30.497  21.639  1.00  0.00    -0.550 OA
ENDBRANCH   4   5
ENDBRANCH   3   4
ENDBRANCH   2   3
ENDBRANCH   1   2
BRANCH   1   8
ATOM      8  C   UNL     1      16.111 -32.950  21.970  1.00  0.00     0.000 C 
BRANCH   8   9
ATOM      9  C   UNL     1      15.532 -34.339  21.655  1.00  0.00     0.006 C 
BRANCH   9  10
ATOM     10  C   UNL     1      15.241 -34.534  20.162  1.00  0.00     0.053 C 
BRANCH  10  11
ATOM     11  C   UNL     1      16.456 -35.048  19.457  1.00  0.00     0.041 C 
ATOM     12  O   UNL     1      16.654 -36.288  19.359  1.00  0.00    -0.550 OA
ATOM     13  O   UNL     1      17.344 -34.160  18.866  1.00  0.00    -0.550 OA
ENDBRANCH  10  11
ENDBRANCH   9  10
ENDBRANCH   8   9
ENDBRANCH   1   8
TORSDOF 8
ENDMDL
MODEL 7
REMARK VINA RESULT:    -4.153      1.378      6.867
REMARK INTER + INTRA:          -6.486
REMARK INTER:                  -6.137
REMARK INTRA:                  -0.349
REMARK UNBOUND:                -0.390
REMARK SMILES O=C([O-])CCCCCCCC(=O)[O-]
REMARK SMILES IDX 7 1 6 2 5 3 4 4 2 5 1 6 3 7 8 8 9 9 10 10 11 11 12 12 13 13
REMARK H PARENT
REMARK Flexibility Score: inf
ROOT
ATOM      1  C   UNL     1      14.607 -33.324  23.928  1.00  0.00     0.000 C 
ENDROOT
BRANCH   1   2
ATOM      2  C   UNL     1      15.555 -33.140  22.736  1.00  0.00     0.000 C 
BRANCH   2   3
ATOM      3  C   UNL     1      15.572 -34.392  21.847  1.00  0.00     0.006 C 
BRANCH   3   4
ATOM      4  C   UNL     1      15.408 -34.053  20.360  1.00  0.00     0.053 C 
BRANCH   4   5
ATOM      5  C   UNL     1      16.403 -34.782  19.510  1.00  0.00     0.041 C 
ATOM      6  O   UNL     1      16.430 -36.041  19.504  1.00  0.00    -0.550 OA
ATOM      7  O   UNL     1      17.323 -34.070  18.750  1.00  0.00    -0.550 OA
ENDBRANCH   4   5
ENDBRANCH   3   4
ENDBRANCH   2   3
ENDBRANCH   1   2
BRANCH   1   8
ATOM      8  C   UNL     1      13.864 -32.018  24.245  1.00  0.00     0.000 C 
BRANCH   8   9
ATOM      9  C   UNL     1      14.492 -30.796  23.554  1.00  0.00     0.006 C 
BRANCH   9  10
ATOM     10  C   UNL     1      13.545 -30.137  22.544  1.00  0.00     0.053 C 
BRANCH  10  11
ATOM     11  C   UNL     1      12.531 -29.295  23.251  1.00  0.00     0.041 C 
ATOM     12  O   UNL     1      11.366 -29.181  22.784  1.00  0.00    -0.550 OA
ATOM     13  O   UNL     1      12.856 -28.677  24.451  1.00  0.00    -0.550 OA
ENDBRANCH  10  11
ENDBRANCH   9  10
ENDBRANCH   8   9
ENDBRANCH   1   8
TORSDOF 8
ENDMDL
MODEL 8
REMARK VINA RESULT:    -4.097      1.640      2.026
REMARK INTER + INTRA:          -6.404
REMARK INTER:                  -5.797
REMARK INTRA:                  -0.607
REMARK UNBOUND:                -0.390
REMARK SMILES O=C([O-])CCCCCCCC(=O)[O-]
REMARK SMILES IDX 7 1 6 2 5 3 4 4 2 5 1 6 3 7 8 8 9 9 10 10 11 11 12 12 13 13
REMARK H PARENT
REMARK Flexibility Score: inf
ROOT
ATOM      1  C   UNL     1      15.789 -30.079  22.385  1.00  0.00     0.000 C 
ENDROOT
BRANCH   1   2
ATOM      2  C   UNL     1      15.475 -30.827  23.687  1.00  0.00     0.000 C 
BRANCH   2   3
ATOM      3  C   UNL     1      13.960 -30.968  23.889  1.00  0.00     0.006 C 
BRANCH   3   4
ATOM      4  C   UNL     1      13.159 -30.080  22.927  1.00  0.00     0.053 C 
BRANCH   4   5
ATOM      5  C   UNL     1      12.425 -28.994  23.653  1.00  0.00     0.041 C 
ATOM      6  O   UNL     1      12.824 -28.606  24.783  1.00  0.00    -0.550 OA
ATOM      7  O   UNL     1      11.282 -28.434  23.096  1.00  0.00    -0.550 OA
ENDBRANCH   4   5
ENDBRANCH   3   4
ENDBRANCH   2   3
ENDBRANCH   1   2
BRANCH   1   8
ATOM      8  C   UNL     1      16.861 -30.820  21.571  1.00  0.00     0.000 C 
BRANCH   8   9
ATOM      9  C   UNL     1      17.000 -32.296  21.980  1.00  0.00     0.006 C 
BRANCH   9  10
ATOM     10  C   UNL     1      16.737 -33.260  20.817  1.00  0.00     0.053 C 
BRANCH  10  11
ATOM     11  C   UNL     1      15.632 -34.207  21.163  1.00  0.00     0.041 C 
ATOM     12  O   UNL     1      15.002 -34.076  22.246  1.00  0.00    -0.550 OA
ATOM     13  O   UNL     1      15.265 -35.203  20.268  1.00  0.00    -0.550 OA
ENDBRANCH  10  11
ENDBRANCH   9  10
ENDBRANCH   8   9
ENDBRANCH   1   8
TORSDOF 8
ENDMDL
MODEL 9
REMARK VINA RESULT:    -4.088      2.100      5.643
REMARK INTER + INTRA:          -6.391
REMARK INTER:                  -5.570
REMARK INTRA:                  -0.821
REMARK UNBOUND:                -0.390
REMARK SMILES O=C([O-])CCCCCCCC(=O)[O-]
REMARK SMILES IDX 7 1 6 2 5 3 4 4 2 5 1 6 3 7 8 8 9 9 10 10 11 11 12 12 13 13
REMARK H PARENT
REMARK Flexibility Score: inf
ROOT
ATOM      1  C   UNL     1      16.952 -30.928  21.647  1.00  0.00     0.000 C 
ENDROOT
BRANCH   1   2
ATOM      2  C   UNL     1      17.034 -31.931  22.805  1.00  0.00     0.000 C 
BRANCH   2   3
ATOM      3  C   UNL     1      17.088 -33.374  22.281  1.00  0.00     0.006 C 
BRANCH   3   4
ATOM      4  C   UNL     1      15.719 -34.065  22.339  1.00  0.00     0.053 C 
BRANCH   4   5
ATOM      5  C   UNL     1      15.068 -34.123  20.991  1.00  0.00     0.041 C 
ATOM      6  O   UNL     1      15.324 -35.071  20.203  1.00  0.00    -0.550 OA
ATOM      7  O   UNL     1      14.204 -33.110  20.592  1.00  0.00    -0.550 OA
ENDBRANCH   4   5
ENDBRANCH   3   4
ENDBRANCH   2   3
ENDBRANCH   1   2
BRANCH   1   8
ATOM      8  C   UNL     1      15.712 -30.032  21.783  1.00  0.00     0.000 C 
BRANCH   8   9
ATOM      9  C   UNL     1      15.380 -29.699  23.247  1.00  0.00     0.006 C 
BRANCH   9  10
ATOM     10  C   UNL     1      13.873 -29.573  23.498  1.00  0.00     0.053 C 
BRANCH  10  11
ATOM     11  C   UNL     1      13.182 -30.862  23.182  1.00  0.00     0.041 C 
ATOM     12  O   UNL     1      13.449 -31.902  23.841  1.00  0.00    -0.550 OA
ATOM     13  O   UNL     1      12.208 -30.905  22.194  1.00  0.00    -0.550 OA
ENDBRANCH  10  11
ENDBRANCH   9  10
ENDBRANCH   8   9
ENDBRANCH   1   8
TORSDOF 8
ENDMDL
