MODEL 1
REMARK VINA RESULT:    -4.255      0.000      0.000
REMARK INTER + INTRA:          -9.913
REMARK INTER:                  -7.985
REMARK INTRA:                  -1.928
REMARK UNBOUND:                -1.928
REMARK SMILES O=C([O-])CCCCCCCCCCCCCCC(=O)[O-]
REMARK SMILES IDX 10 1 9 2 8 3 7 4 6 5 5 6 4 7 2 8 1 9 3 10 11 11 12 12 13 13
REMARK SMILES IDX 14 14 15 15 16 16 17 17 18 18 19 19 20 20
REMARK H PARENT
REMARK Flexibility Score: inf
ROOT
ATOM      1  C   UNL     1       6.284   5.507   8.230  1.00  0.00     0.000 C 
ENDROOT
BRANCH   1   2
ATOM      2  C   UNL     1       5.728   4.193   8.802  1.00  0.00     0.000 C 
BRANCH   2   3
ATOM      3  C   UNL     1       4.191   4.131   8.742  1.00  0.00     0.000 C 
BRANCH   3   4
ATOM      4  C   UNL     1       3.582   5.324   7.988  1.00  0.00     0.000 C 
BRANCH   4   5
ATOM      5  C   UNL     1       2.048   5.384   8.113  1.00  0.00     0.000 C 
BRANCH   5   6
ATOM      6  C   UNL     1       1.472   4.188   8.886  1.00  0.00     0.006 C 
BRANCH   6   7
ATOM      7  C   UNL     1       0.587   3.291   8.011  1.00  0.00     0.053 C 
BRANCH   7   8
ATOM      8  C   UNL     1       1.414   2.257   7.317  1.00  0.00     0.041 C 
ATOM      9  O   UNL     1       1.508   2.258   6.061  1.00  0.00    -0.550 OA
ATOM     10  O   UNL     1       2.044   1.261   8.053  1.00  0.00    -0.550 OA
ENDBRANCH   7   8
ENDBRANCH   6   7
ENDBRANCH   5   6
ENDBRANCH   4   5
ENDBRANCH   3   4
ENDBRANCH   2   3
ENDBRANCH   1   2
BRANCH   1  11
ATOM     11  C   UNL     1       7.508   5.284   7.326  1.00  0.00     0.000 C 
BRANCH  11  12
ATOM     12  C   UNL     1       7.703   3.807   6.939  1.00  0.00     0.000 C 
BRANCH  12  13
ATOM     13  C   UNL     1       9.073   3.207   7.318  1.00  0.00     0.000 C 
BRANCH  13  14
ATOM     14  C   UNL     1       9.607   3.622   8.702  1.00  0.00     0.000 C 
BRANCH  14  15
ATOM     15  C   UNL     1       8.931   2.922   9.898  1.00  0.00     0.000 C 
BRANCH  15  16
ATOM     16  C   UNL     1       8.833   1.387   9.784  1.00  0.00     0.006 C 
BRANCH  16  17
ATOM     17  C   UNL     1       7.434   0.817  10.066  1.00  0.00     0.053 C 
BRANCH  17  18
ATOM     18  C   UNL     1       6.696   0.491   8.804  1.00  0.00     0.041 C 
ATOM     19  O   UNL     1       7.318   0.044   7.805  1.00  0.00    -0.550 OA
ATOM     20  O   UNL     1       5.317   0.646   8.743  1.00  0.00    -0.550 OA
ENDBRANCH  17  18
ENDBRANCH  16  17
ENDBRANCH  15  16
ENDBRANCH  14  15
ENDBRANCH  13  14
ENDBRANCH  12  13
ENDBRANCH  11  12
ENDBRANCH   1  11
TORSDOF 15
ENDMDL
MODEL 2
REMARK VINA RESULT:    -4.231     10.888     13.494
REMARK INTER + INTRA:          -9.869
REMARK INTER:                  -7.691
REMARK INTRA:                  -2.179
REMARK UNBOUND:                -1.928
REMARK SMILES O=C([O-])CCCCCCCCCCCCCCC(=O)[O-]
REMARK SMILES IDX 10 1 9 2 8 3 7 4 6 5 5 6 4 7 2 8 1 9 3 10 11 11 12 12 13 13
REMARK SMILES IDX 14 14 15 15 16 16 17 17 18 18 19 19 20 20
REMARK H PARENT
REMARK Flexibility Score: inf
ROOT
ATOM      1  C   UNL     1      -8.445   0.118   9.266  1.00  0.00     0.000 C 
ENDROOT
BRANCH   1   2
ATOM      2  C   UNL     1      -8.593  -1.202  10.039  1.00  0.00     0.000 C 
BRANCH   2   3
ATOM      3  C   UNL     1      -9.546  -2.189   9.341  1.00  0.00     0.000 C 
BRANCH   3   4
ATOM      4  C   UNL     1      -9.080  -3.648   9.468  1.00  0.00     0.000 C 
BRANCH   4   5
ATOM      5  C   UNL     1      -7.591  -3.827   9.122  1.00  0.00     0.000 C 
BRANCH   5   6
ATOM      6  C   UNL     1      -7.375  -4.699   7.875  1.00  0.00     0.006 C 
BRANCH   6   7
ATOM      7  C   UNL     1      -7.615  -3.930   6.569  1.00  0.00     0.053 C 
BRANCH   7   8
ATOM      8  C   UNL     1      -7.795  -4.879   5.428  1.00  0.00     0.041 C 
ATOM      9  O   UNL     1      -7.986  -6.105   5.646  1.00  0.00    -0.550 OA
ATOM     10  O   UNL     1      -7.702  -4.419   4.120  1.00  0.00    -0.550 OA
ENDBRANCH   7   8
ENDBRANCH   6   7
ENDBRANCH   5   6
ENDBRANCH   4   5
ENDBRANCH   3   4
ENDBRANCH   2   3
ENDBRANCH   1   2
BRANCH   1  11
ATOM     11  C   UNL     1      -6.983   0.424   8.900  1.00  0.00     0.000 C 
BRANCH  11  12
ATOM     12  C   UNL     1      -6.430  -0.513   7.812  1.00  0.00     0.000 C 
BRANCH  12  13
ATOM     13  C   UNL     1      -5.046  -1.123   8.116  1.00  0.00     0.000 C 
BRANCH  13  14
ATOM     14  C   UNL     1      -4.840  -1.582   9.572  1.00  0.00     0.000 C 
BRANCH  14  15
ATOM     15  C   UNL     1      -3.415  -2.065   9.908  1.00  0.00     0.000 C 
BRANCH  15  16
ATOM     16  C   UNL     1      -3.335  -3.468  10.543  1.00  0.00     0.006 C 
BRANCH  16  17
ATOM     17  C   UNL     1      -4.015  -4.576   9.723  1.00  0.00     0.053 C 
BRANCH  17  18
ATOM     18  C   UNL     1      -3.356  -4.774   8.393  1.00  0.00     0.041 C 
ATOM     19  O   UNL     1      -4.037  -4.712   7.335  1.00  0.00    -0.550 OA
ATOM     20  O   UNL     1      -1.986  -4.990   8.318  1.00  0.00    -0.550 OA
ENDBRANCH  17  18
ENDBRANCH  16  17
ENDBRANCH  15  16
ENDBRANCH  14  15
ENDBRANCH  13  14
ENDBRANCH  12  13
ENDBRANCH  11  12
ENDBRANCH   1  11
TORSDOF 15
ENDMDL
MODEL 3
REMARK VINA RESULT:    -4.195     12.113     14.520
REMARK INTER + INTRA:          -9.802
REMARK INTER:                  -7.756
REMARK INTRA:                  -2.046
REMARK UNBOUND:                -1.928
REMARK SMILES O=C([O-])CCCCCCCCCCCCCCC(=O)[O-]
REMARK SMILES IDX 10 1 9 2 8 3 7 4 6 5 5 6 4 7 2 8 1 9 3 10 11 11 12 12 13 13
REMARK SMILES IDX 14 14 15 15 16 16 17 17 18 18 19 19 20 20
REMARK H PARENT
REMARK Flexibility Score: inf
ROOT
ATOM      1  C   UNL     1      -8.663   0.644   8.429  1.00  0.00     0.000 C 
ENDROOT
BRANCH   1   2
ATOM      2  C   UNL     1      -8.570   0.406   6.914  1.00  0.00     0.000 C 
BRANCH   2   3
ATOM      3  C   UNL     1      -7.244  -0.258   6.503  1.00  0.00     0.000 C 
BRANCH   3   4
ATOM      4  C   UNL     1      -7.455  -1.604   5.792  1.00  0.00     0.000 C 
BRANCH   4   5
ATOM      5  C   UNL     1      -8.928  -1.856   5.421  1.00  0.00     0.000 C 
BRANCH   5   6
ATOM      6  C   UNL     1      -9.272  -3.352   5.354  1.00  0.00     0.006 C 
BRANCH   6   7
ATOM      7  C   UNL     1      -8.025  -4.240   5.252  1.00  0.00     0.053 C 
BRANCH   7   8
ATOM      8  C   UNL     1      -8.179  -5.232   4.144  1.00  0.00     0.041 C 
ATOM      9  O   UNL     1      -8.459  -6.433   4.403  1.00  0.00    -0.550 OA
ATOM     10  O   UNL     1      -7.966  -4.843   2.828  1.00  0.00    -0.550 OA
ENDBRANCH   7   8
ENDBRANCH   6   7
ENDBRANCH   5   6
ENDBRANCH   4   5
ENDBRANCH   3   4
ENDBRANCH   2   3
ENDBRANCH   1   2
BRANCH   1  11
ATOM     11  C   UNL     1      -7.779  -0.325   9.233  1.00  0.00     0.000 C 
BRANCH  11  12
ATOM     12  C   UNL     1      -8.593  -1.390   9.989  1.00  0.00     0.000 C 
BRANCH  12  13
ATOM     13  C   UNL     1      -9.247  -2.466   9.099  1.00  0.00     0.000 C 
BRANCH  13  14
ATOM     14  C   UNL     1      -8.402  -3.736   8.882  1.00  0.00     0.000 C 
BRANCH  14  15
ATOM     15  C   UNL     1      -6.877  -3.530   8.983  1.00  0.00     0.000 C 
BRANCH  15  16
ATOM     16  C   UNL     1      -6.029  -4.776   8.656  1.00  0.00     0.006 C 
BRANCH  16  17
ATOM     17  C   UNL     1      -4.628  -4.775   9.287  1.00  0.00     0.053 C 
BRANCH  17  18
ATOM     18  C   UNL     1      -3.548  -4.668   8.255  1.00  0.00     0.041 C 
ATOM     19  O   UNL     1      -3.838  -4.387   7.062  1.00  0.00    -0.550 OA
ATOM     20  O   UNL     1      -2.218  -4.843   8.617  1.00  0.00    -0.550 OA
ENDBRANCH  17  18
ENDBRANCH  16  17
ENDBRANCH  15  16
ENDBRANCH  14  15
ENDBRANCH  13  14
ENDBRANCH  12  13
ENDBRANCH  11  12
ENDBRANCH   1  11
TORSDOF 15
ENDMDL
MODEL 4
REMARK VINA RESULT:    -4.192     10.166     13.369
REMARK INTER + INTRA:          -9.795
REMARK INTER:                  -7.699
REMARK INTRA:                  -2.096
REMARK UNBOUND:                -1.928
REMARK SMILES O=C([O-])CCCCCCCCCCCCCCC(=O)[O-]
REMARK SMILES IDX 10 1 9 2 8 3 7 4 6 5 5 6 4 7 2 8 1 9 3 10 11 11 12 12 13 13
REMARK SMILES IDX 14 14 15 15 16 16 17 17 18 18 19 19 20 20
REMARK H PARENT
REMARK Flexibility Score: inf
ROOT
ATOM      1  C   UNL     1      -7.208  -0.330  10.018  1.00  0.00     0.000 C 
ENDROOT
BRANCH   1   2
ATOM      2  C   UNL     1      -8.628  -0.677   9.542  1.00  0.00     0.000 C 
BRANCH   2   3
ATOM      3  C   UNL     1      -8.970  -2.163   9.749  1.00  0.00     0.000 C 
BRANCH   3   4
ATOM      4  C   UNL     1      -9.489  -2.833   8.466  1.00  0.00     0.000 C 
BRANCH   4   5
ATOM      5  C   UNL     1      -9.000  -2.126   7.188  1.00  0.00     0.000 C 
BRANCH   5   6
ATOM      6  C   UNL     1      -8.829  -3.095   6.008  1.00  0.00     0.006 C 
BRANCH   6   7
ATOM      7  C   UNL     1      -7.498  -3.857   6.059  1.00  0.00     0.053 C 
BRANCH   7   8
ATOM      8  C   UNL     1      -7.736  -5.331   5.977  1.00  0.00     0.041 C 
ATOM      9  O   UNL     1      -7.310  -6.094   6.884  1.00  0.00    -0.550 OA
ATOM     10  O   UNL     1      -8.387  -5.869   4.874  1.00  0.00    -0.550 OA
ENDBRANCH   7   8
ENDBRANCH   6   7
ENDBRANCH   5   6
ENDBRANCH   4   5
ENDBRANCH   3   4
ENDBRANCH   2   3
ENDBRANCH   1   2
BRANCH   1  11
ATOM     11  C   UNL     1      -6.247  -0.054   8.849  1.00  0.00     0.000 C 
BRANCH  11  12
ATOM     12  C   UNL     1      -5.639  -1.339   8.259  1.00  0.00     0.000 C 
BRANCH  12  13
ATOM     13  C   UNL     1      -5.161  -2.373   9.298  1.00  0.00     0.000 C 
BRANCH  13  14
ATOM     14  C   UNL     1      -5.631  -3.818   9.045  1.00  0.00     0.000 C 
BRANCH  14  15
ATOM     15  C   UNL     1      -4.544  -4.898   9.224  1.00  0.00     0.000 C 
BRANCH  15  16
ATOM     16  C   UNL     1      -3.423  -4.875   8.166  1.00  0.00     0.006 C 
BRANCH  16  17
ATOM     17  C   UNL     1      -2.000  -4.940   8.745  1.00  0.00     0.053 C 
BRANCH  17  18
ATOM     18  C   UNL     1      -1.563  -3.622   9.308  1.00  0.00     0.041 C 
ATOM     19  O   UNL     1      -1.127  -3.553  10.488  1.00  0.00    -0.550 OA
ATOM     20  O   UNL     1      -1.605  -2.479   8.521  1.00  0.00    -0.550 OA
ENDBRANCH  17  18
ENDBRANCH  16  17
ENDBRANCH  15  16
ENDBRANCH  14  15
ENDBRANCH  13  14
ENDBRANCH  12  13
ENDBRANCH  11  12
ENDBRANCH   1  11
TORSDOF 15
ENDMDL
MODEL 5
REMARK VINA RESULT:    -4.126      9.562     13.332
REMARK INTER + INTRA:          -9.671
REMARK INTER:                  -7.818
REMARK INTRA:                  -1.853
REMARK UNBOUND:                -1.928
REMARK SMILES O=C([O-])CCCCCCCCCCCCCCC(=O)[O-]
REMARK SMILES IDX 10 1 9 2 8 3 7 4 6 5 5 6 4 7 2 8 1 9 3 10 11 11 12 12 13 13
REMARK SMILES IDX 14 14 15 15 16 16 17 17 18 18 19 19 20 20
REMARK H PARENT
REMARK Flexibility Score: inf
ROOT
ATOM      1  C   UNL     1      -6.701  -3.345   8.742  1.00  0.00     0.000 C 
ENDROOT
BRANCH   1   2
ATOM      2  C   UNL     1      -8.101  -3.819   9.164  1.00  0.00     0.000 C 
BRANCH   2   3
ATOM      3  C   UNL     1      -9.221  -2.941   8.578  1.00  0.00     0.000 C 
BRANCH   3   4
ATOM      4  C   UNL     1      -8.749  -2.113   7.372  1.00  0.00     0.000 C 
BRANCH   4   5
ATOM      5  C   UNL     1      -9.254  -2.676   6.031  1.00  0.00     0.000 C 
BRANCH   5   6
ATOM      6  C   UNL     1      -8.187  -2.615   4.927  1.00  0.00     0.006 C 
BRANCH   6   7
ATOM      7  C   UNL     1      -7.240  -3.822   4.955  1.00  0.00     0.053 C 
BRANCH   7   8
ATOM      8  C   UNL     1      -8.018  -5.098   4.921  1.00  0.00     0.041 C 
ATOM      9  O   UNL     1      -8.809  -5.333   3.969  1.00  0.00    -0.550 OA
ATOM     10  O   UNL     1      -7.908  -6.008   5.965  1.00  0.00    -0.550 OA
ENDBRANCH   7   8
ENDBRANCH   6   7
ENDBRANCH   5   6
ENDBRANCH   4   5
ENDBRANCH   3   4
ENDBRANCH   2   3
ENDBRANCH   1   2
BRANCH   1  11
ATOM     11  C   UNL     1      -5.773  -4.513   8.367  1.00  0.00     0.000 C 
BRANCH  11  12
ATOM     12  C   UNL     1      -4.580  -4.661   9.328  1.00  0.00     0.000 C 
BRANCH  12  13
ATOM     13  C   UNL     1      -3.207  -4.823   8.645  1.00  0.00     0.000 C 
BRANCH  13  14
ATOM     14  C   UNL     1      -2.516  -3.504   8.247  1.00  0.00     0.000 C 
BRANCH  14  15
ATOM     15  C   UNL     1      -2.851  -2.994   6.831  1.00  0.00     0.000 C 
BRANCH  15  16
ATOM     16  C   UNL     1      -3.376  -1.545   6.768  1.00  0.00     0.006 C 
BRANCH  16  17
ATOM     17  C   UNL     1      -3.886  -0.995   8.110  1.00  0.00     0.053 C 
BRANCH  17  18
ATOM     18  C   UNL     1      -3.039   0.135   8.611  1.00  0.00     0.041 C 
ATOM     19  O   UNL     1      -3.580   1.181   9.057  1.00  0.00    -0.550 OA
ATOM     20  O   UNL     1      -1.655   0.019   8.619  1.00  0.00    -0.550 OA
ENDBRANCH  17  18
ENDBRANCH  16  17
ENDBRANCH  15  16
ENDBRANCH  14  15
ENDBRANCH  13  14
ENDBRANCH  12  13
ENDBRANCH  11  12
ENDBRANCH   1  11
TORSDOF 15
ENDMDL
MODEL 6
REMARK VINA RESULT:    -4.114     10.879     14.296
REMARK INTER + INTRA:          -9.649
REMARK INTER:                  -7.606
REMARK INTRA:                  -2.043
REMARK UNBOUND:                -1.928
REMARK SMILES O=C([O-])CCCCCCCCCCCCCCC(=O)[O-]
REMARK SMILES IDX 10 1 9 2 8 3 7 4 6 5 5 6 4 7 2 8 1 9 3 10 11 11 12 12 13 13
REMARK SMILES IDX 14 14 15 15 16 16 17 17 18 18 19 19 20 20
REMARK H PARENT
REMARK Flexibility Score: inf
ROOT
ATOM      1  C   UNL     1      -6.889   0.026   9.397  1.00  0.00     0.000 C 
ENDROOT
BRANCH   1   2
ATOM      2  C   UNL     1      -6.104  -0.473   8.173  1.00  0.00     0.000 C 
BRANCH   2   3
ATOM      3  C   UNL     1      -4.626  -0.753   8.497  1.00  0.00     0.000 C 
BRANCH   3   4
ATOM      4  C   UNL     1      -4.435  -1.362   9.895  1.00  0.00     0.000 C 
BRANCH   4   5
ATOM      5  C   UNL     1      -3.235  -2.325   9.964  1.00  0.00     0.000 C 
BRANCH   5   6
ATOM      6  C   UNL     1      -3.654  -3.767  10.293  1.00  0.00     0.006 C 
BRANCH   6   7
ATOM      7  C   UNL     1      -4.397  -4.443   9.133  1.00  0.00     0.053 C 
BRANCH   7   8
ATOM      8  C   UNL     1      -3.485  -4.623   7.962  1.00  0.00     0.041 C 
ATOM      9  O   UNL     1      -2.371  -5.192   8.107  1.00  0.00    -0.550 OA
ATOM     10  O   UNL     1      -3.844  -4.119   6.718  1.00  0.00    -0.550 OA
ENDBRANCH   7   8
ENDBRANCH   6   7
ENDBRANCH   5   6
ENDBRANCH   4   5
ENDBRANCH   3   4
ENDBRANCH   2   3
ENDBRANCH   1   2
BRANCH   1  11
ATOM     11  C   UNL     1      -8.331   0.431   9.046  1.00  0.00     0.000 C 
BRANCH  11  12
ATOM     12  C   UNL     1      -9.337   0.085  10.159  1.00  0.00     0.000 C 
BRANCH  12  13
ATOM     13  C   UNL     1      -9.099  -1.269  10.857  1.00  0.00     0.000 C 
BRANCH  13  14
ATOM     14  C   UNL     1      -9.774  -2.479  10.184  1.00  0.00     0.000 C 
BRANCH  14  15
ATOM     15  C   UNL     1      -8.822  -3.411   9.408  1.00  0.00     0.000 C 
BRANCH  15  16
ATOM     16  C   UNL     1      -8.742  -3.144   7.891  1.00  0.00     0.006 C 
BRANCH  16  17
ATOM     17  C   UNL     1      -7.453  -3.648   7.223  1.00  0.00     0.053 C 
BRANCH  17  18
ATOM     18  C   UNL     1      -7.628  -5.008   6.620  1.00  0.00     0.041 C 
ATOM     19  O   UNL     1      -7.193  -6.026   7.220  1.00  0.00    -0.550 OA
ATOM     20  O   UNL     1      -8.303  -5.154   5.414  1.00  0.00    -0.550 OA
ENDBRANCH  17  18
ENDBRANCH  16  17
ENDBRANCH  15  16
ENDBRANCH  14  15
ENDBRANCH  13  14
ENDBRANCH  12  13
ENDBRANCH  11  12
ENDBRANCH   1  11
TORSDOF 15
ENDMDL
MODEL 7
REMARK VINA RESULT:    -4.097      2.417      4.344
REMARK INTER + INTRA:          -9.618
REMARK INTER:                  -7.361
REMARK INTRA:                  -2.256
REMARK UNBOUND:                -1.928
REMARK SMILES O=C([O-])CCCCCCCCCCCCCCC(=O)[O-]
REMARK SMILES IDX 10 1 9 2 8 3 7 4 6 5 5 6 4 7 2 8 1 9 3 10 11 11 12 12 13 13
REMARK SMILES IDX 14 14 15 15 16 16 17 17 18 18 19 19 20 20
REMARK H PARENT
REMARK Flexibility Score: inf
ROOT
ATOM      1  C   UNL     1       9.249   2.974  10.112  1.00  0.00     0.000 C 
ENDROOT
BRANCH   1   2
ATOM      2  C   UNL     1       9.712   3.506   8.746  1.00  0.00     0.000 C 
BRANCH   2   3
ATOM      3  C   UNL     1       8.553   4.092   7.920  1.00  0.00     0.000 C 
BRANCH   3   4
ATOM      4  C   UNL     1       7.429   4.660   8.802  1.00  0.00     0.000 C 
BRANCH   4   5
ATOM      5  C   UNL     1       6.048   4.077   8.454  1.00  0.00     0.000 C 
BRANCH   5   6
ATOM      6  C   UNL     1       4.999   5.167   8.183  1.00  0.00     0.006 C 
BRANCH   6   7
ATOM      7  C   UNL     1       4.112   5.447   9.403  1.00  0.00     0.053 C 
BRANCH   7   8
ATOM      8  C   UNL     1       3.046   4.405   9.525  1.00  0.00     0.041 C 
ATOM      9  O   UNL     1       2.009   4.473   8.815  1.00  0.00    -0.550 OA
ATOM     10  O   UNL     1       3.176   3.385  10.459  1.00  0.00    -0.550 OA
ENDBRANCH   7   8
ENDBRANCH   6   7
ENDBRANCH   5   6
ENDBRANCH   4   5
ENDBRANCH   3   4
ENDBRANCH   2   3
ENDBRANCH   1   2
BRANCH   1  11
ATOM     11  C   UNL     1       9.028   1.452  10.106  1.00  0.00     0.000 C 
BRANCH  11  12
ATOM     12  C   UNL     1       7.544   1.064   9.980  1.00  0.00     0.000 C 
BRANCH  12  13
ATOM     13  C   UNL     1       7.104   0.608   8.574  1.00  0.00     0.000 C 
BRANCH  13  14
ATOM     14  C   UNL     1       8.206  -0.061   7.731  1.00  0.00     0.000 C 
BRANCH  14  15
ATOM     15  C   UNL     1       8.598   0.699   6.447  1.00  0.00     0.000 C 
BRANCH  15  16
ATOM     16  C   UNL     1       7.431   1.404   5.727  1.00  0.00     0.006 C 
BRANCH  16  17
ATOM     17  C   UNL     1       7.864   2.478   4.716  1.00  0.00     0.053 C 
BRANCH  17  18
ATOM     18  C   UNL     1       6.988   3.691   4.775  1.00  0.00     0.041 C 
ATOM     19  O   UNL     1       7.461   4.827   4.509  1.00  0.00    -0.550 OA
ATOM     20  O   UNL     1       5.641   3.563   5.090  1.00  0.00    -0.550 OA
ENDBRANCH  17  18
ENDBRANCH  16  17
ENDBRANCH  15  16
ENDBRANCH  14  15
ENDBRANCH  13  14
ENDBRANCH  12  13
ENDBRANCH  11  12
ENDBRANCH   1  11
TORSDOF 15
ENDMDL
MODEL 8
REMARK VINA RESULT:    -4.089      9.156     13.736
REMARK INTER + INTRA:          -9.602
REMARK INTER:                  -7.470
REMARK INTRA:                  -2.132
REMARK UNBOUND:                -1.928
REMARK SMILES O=C([O-])CCCCCCCCCCCCCCC(=O)[O-]
REMARK SMILES IDX 10 1 9 2 8 3 7 4 6 5 5 6 4 7 2 8 1 9 3 10 11 11 12 12 13 13
REMARK SMILES IDX 14 14 15 15 16 16 17 17 18 18 19 19 20 20
REMARK H PARENT
REMARK Flexibility Score: inf
ROOT
ATOM      1  C   UNL     1      -5.203  -4.644   8.439  1.00  0.00     0.000 C 
ENDROOT
BRANCH   1   2
ATOM      2  C   UNL     1      -4.173  -4.904   9.550  1.00  0.00     0.000 C 
BRANCH   2   3
ATOM      3  C   UNL     1      -2.725  -4.706   9.066  1.00  0.00     0.000 C 
BRANCH   3   4
ATOM      4  C   UNL     1      -1.958  -3.676   9.911  1.00  0.00     0.000 C 
BRANCH   4   5
ATOM      5  C   UNL     1      -2.858  -2.956  10.932  1.00  0.00     0.000 C 
BRANCH   5   6
ATOM      6  C   UNL     1      -2.888  -1.434  10.722  1.00  0.00     0.006 C 
BRANCH   6   7
ATOM      7  C   UNL     1      -1.926  -0.972   9.620  1.00  0.00     0.053 C 
BRANCH   7   8
ATOM      8  C   UNL     1      -2.684  -0.355   8.488  1.00  0.00     0.041 C 
ATOM      9  O   UNL     1      -2.583  -0.826   7.325  1.00  0.00    -0.550 OA
ATOM     10  O   UNL     1      -3.465   0.773   8.708  1.00  0.00    -0.550 OA
ENDBRANCH   7   8
ENDBRANCH   6   7
ENDBRANCH   5   6
ENDBRANCH   4   5
ENDBRANCH   3   4
ENDBRANCH   2   3
ENDBRANCH   1   2
BRANCH   1  11
ATOM     11  C   UNL     1      -5.101  -3.222   7.863  1.00  0.00     0.000 C 
BRANCH  11  12
ATOM     12  C   UNL     1      -5.859  -2.180   8.704  1.00  0.00     0.000 C 
BRANCH  12  13
ATOM     13  C   UNL     1      -7.202  -2.663   9.288  1.00  0.00     0.000 C 
BRANCH  13  14
ATOM     14  C   UNL     1      -8.368  -1.664   9.159  1.00  0.00     0.000 C 
BRANCH  14  15
ATOM     15  C   UNL     1      -8.993  -1.570   7.752  1.00  0.00     0.000 C 
BRANCH  15  16
ATOM     16  C   UNL     1      -9.149  -2.917   7.017  1.00  0.00     0.006 C 
BRANCH  16  17
ATOM     17  C   UNL     1      -8.276  -3.061   5.761  1.00  0.00     0.053 C 
BRANCH  17  18
ATOM     18  C   UNL     1      -8.191  -4.482   5.296  1.00  0.00     0.041 C 
ATOM     19  O   UNL     1      -7.474  -5.309   5.919  1.00  0.00    -0.550 OA
ATOM     20  O   UNL     1      -8.931  -4.902   4.198  1.00  0.00    -0.550 OA
ENDBRANCH  17  18
ENDBRANCH  16  17
ENDBRANCH  15  16
ENDBRANCH  14  15
ENDBRANCH  13  14
ENDBRANCH  12  13
ENDBRANCH  11  12
ENDBRANCH   1  11
TORSDOF 15
ENDMDL
MODEL 9
REMARK VINA RESULT:    -4.055     11.229     14.001
REMARK INTER + INTRA:          -9.539
REMARK INTER:                  -7.330
REMARK INTRA:                  -2.209
REMARK UNBOUND:                -1.928
REMARK SMILES O=C([O-])CCCCCCCCCCCCCCC(=O)[O-]
REMARK SMILES IDX 10 1 9 2 8 3 7 4 6 5 5 6 4 7 2 8 1 9 3 10 11 11 12 12 13 13
REMARK SMILES IDX 14 14 15 15 16 16 17 17 18 18 19 19 20 20
REMARK H PARENT
REMARK Flexibility Score: inf
ROOT
ATOM      1  C   UNL     1      -6.151  -4.888   8.765  1.00  0.00     0.000 C 
ENDROOT
BRANCH   1   2
ATOM      2  C   UNL     1      -6.909  -3.554   8.860  1.00  0.00     0.000 C 
BRANCH   2   3
ATOM      3  C   UNL     1      -8.431  -3.750   8.978  1.00  0.00     0.000 C 
BRANCH   3   4
ATOM      4  C   UNL     1      -9.193  -2.417   9.044  1.00  0.00     0.000 C 
BRANCH   4   5
ATOM      5  C   UNL     1      -9.001  -1.560   7.779  1.00  0.00     0.000 C 
BRANCH   5   6
ATOM      6  C   UNL     1      -8.485  -0.148   8.096  1.00  0.00     0.006 C 
BRANCH   6   7
ATOM      7  C   UNL     1      -6.979  -0.001   7.847  1.00  0.00     0.053 C 
BRANCH   7   8
ATOM      8  C   UNL     1      -6.256   0.234   9.135  1.00  0.00     0.041 C 
ATOM      9  O   UNL     1      -6.836   0.031  10.234  1.00  0.00    -0.550 OA
ATOM     10  O   UNL     1      -4.956   0.724   9.123  1.00  0.00    -0.550 OA
ENDBRANCH   7   8
ENDBRANCH   6   7
ENDBRANCH   5   6
ENDBRANCH   4   5
ENDBRANCH   3   4
ENDBRANCH   2   3
ENDBRANCH   1   2
BRANCH   1  11
ATOM     11  C   UNL     1      -4.637  -4.722   8.982  1.00  0.00     0.000 C 
BRANCH  11  12
ATOM     12  C   UNL     1      -4.182  -3.253   8.915  1.00  0.00     0.000 C 
BRANCH  12  13
ATOM     13  C   UNL     1      -3.351  -2.882   7.669  1.00  0.00     0.000 C 
BRANCH  13  14
ATOM     14  C   UNL     1      -4.120  -2.115   6.576  1.00  0.00     0.000 C 
BRANCH  14  15
ATOM     15  C   UNL     1      -4.835  -3.002   5.537  1.00  0.00     0.000 C 
BRANCH  15  16
ATOM     16  C   UNL     1      -6.376  -2.942   5.581  1.00  0.00     0.006 C 
BRANCH  16  17
ATOM     17  C   UNL     1      -7.072  -3.601   4.379  1.00  0.00     0.053 C 
BRANCH  17  18
ATOM     18  C   UNL     1      -8.124  -4.577   4.806  1.00  0.00     0.041 C 
ATOM     19  O   UNL     1      -7.872  -5.430   5.697  1.00  0.00    -0.550 OA
ATOM     20  O   UNL     1      -9.394  -4.523   4.245  1.00  0.00    -0.550 OA
ENDBRANCH  17  18
ENDBRANCH  16  17
ENDBRANCH  15  16
ENDBRANCH  14  15
ENDBRANCH  13  14
ENDBRANCH  12  13
ENDBRANCH  11  12
ENDBRANCH   1  11
TORSDOF 15
ENDMDL
