MODEL 1
REMARK VINA RESULT:    -1.788      0.000      0.000
REMARK INTER + INTRA:          -3.100
REMARK INTER:                  -2.728
REMARK INTRA:                  -0.372
REMARK UNBOUND:                -0.372
REMARK SMILES CCCCCCCCCCC(=O)[O-]
REMARK SMILES IDX 7 1 8 2 9 3 10 4 11 5 12 6 13 7 6 8 5 9 4 10 3 11 2 12 1 13
REMARK H PARENT
REMARK Flexibility Score: inf
ROOT
ATOM      1  C   UNL     1      89.210  18.131 120.137  1.00  0.00     0.000 C 
ENDROOT
BRANCH   1   2
ATOM      2  C   UNL     1      87.835  18.728 120.472  1.00  0.00     0.000 C 
BRANCH   2   3
ATOM      3  C   UNL     1      86.876  17.695 121.088  1.00  0.00     0.006 C 
BRANCH   3   4
ATOM      4  C   UNL     1      85.427  18.198 121.125  1.00  0.00     0.053 C 
BRANCH   4   5
ATOM      5  C   UNL     1      84.475  17.193 120.554  1.00  0.00     0.041 C 
ATOM      6  O   UNL     1      84.755  15.966 120.587  1.00  0.00    -0.550 OA
ATOM      7  O   UNL     1      83.296  17.614 119.953  1.00  0.00    -0.550 OA
ENDBRANCH   4   5
ENDBRANCH   3   4
ENDBRANCH   2   3
ENDBRANCH   1   2
BRANCH   1   8
ATOM      8  C   UNL     1      90.310  18.600 121.105  1.00  0.00     0.000 C 
BRANCH   8   9
ATOM      9  C   UNL     1      91.625  17.826 120.927  1.00  0.00    -0.000 C 
BRANCH   9  10
ATOM     10  C   UNL     1      91.969  17.579 119.450  1.00  0.00    -0.000 C 
BRANCH  10  11
ATOM     11  C   UNL     1      92.917  16.379 119.302  1.00  0.00    -0.000 C 
BRANCH  11  12
ATOM     12  C   UNL     1      93.717  16.097 120.583  1.00  0.00    -0.003 C 
ATOM     13  C   UNL     1      94.110  14.626 120.722  1.00  0.00     0.004 C 
ENDBRANCH  11  12
ENDBRANCH  10  11
ENDBRANCH   9  10
ENDBRANCH   8   9
ENDBRANCH   1   8
TORSDOF 9
ENDMDL
MODEL 2
REMARK VINA RESULT:    -0.472      2.067      3.028
REMARK INTER + INTRA:          -1.092
REMARK INTER:                  -0.747
REMARK INTRA:                  -0.344
REMARK UNBOUND:                -0.372
REMARK SMILES CCCCCCCCCCC(=O)[O-]
REMARK SMILES IDX 7 1 8 2 9 3 10 4 11 5 12 6 13 7 6 8 5 9 4 10 3 11 2 12 1 13
REMARK H PARENT
REMARK Flexibility Score: inf
ROOT
ATOM      1  C   UNL     1      91.137  17.360 119.407  1.00  0.00     0.000 C 
ENDROOT
BRANCH   1   2
ATOM      2  C   UNL     1      90.695  18.195 120.618  1.00  0.00     0.000 C 
BRANCH   2   3
ATOM      3  C   UNL     1      89.221  17.960 120.990  1.00  0.00     0.006 C 
BRANCH   3   4
ATOM      4  C   UNL     1      88.280  18.948 120.288  1.00  0.00     0.053 C 
BRANCH   4   5
ATOM      5  C   UNL     1      86.905  18.923 120.879  1.00  0.00     0.041 C 
ATOM      6  O   UNL     1      86.342  17.823 121.125  1.00  0.00    -0.550 OA
ATOM      7  O   UNL     1      86.230  20.112 121.125  1.00  0.00    -0.550 OA
ENDBRANCH   4   5
ENDBRANCH   3   4
ENDBRANCH   2   3
ENDBRANCH   1   2
BRANCH   1   8
ATOM      8  C   UNL     1      92.658  17.127 119.374  1.00  0.00     0.000 C 
BRANCH   8   9
ATOM      9  C   UNL     1      93.206  16.612 120.713  1.00  0.00    -0.000 C 
BRANCH   9  10
ATOM     10  C   UNL     1      94.165  15.424 120.542  1.00  0.00    -0.000 C 
BRANCH  10  11
ATOM     11  C   UNL     1      95.471  15.868 119.865  1.00  0.00    -0.000 C 
BRANCH  11  12
ATOM     12  C   UNL     1      96.377  16.680 120.804  1.00  0.00    -0.003 C 
ATOM     13  C   UNL     1      97.614  17.234 120.097  1.00  0.00     0.004 C 
ENDBRANCH  11  12
ENDBRANCH  10  11
ENDBRANCH   9  10
ENDBRANCH   8   9
ENDBRANCH   1   8
TORSDOF 9
ENDMDL
