MODEL 1
REMARK VINA RESULT:    -3.492      0.000      0.000
REMARK INTER + INTRA:          -5.737
REMARK INTER:                  -5.329
REMARK INTRA:                  -0.408
REMARK UNBOUND:                -0.408
REMARK SMILES O=C([O-])CCCCCCCCC(=O)[O-]
REMARK SMILES IDX 7 1 6 2 5 3 4 4 2 5 1 6 3 7 8 8 9 9 10 10 11 11 12 12 13 13
REMARK SMILES IDX 14 14
REMARK H PARENT
REMARK Flexibility Score: inf
ROOT
ATOM      1  C   UNL     1      18.265  -4.579  12.325  1.00  0.00     0.000 C 
ENDROOT
BRANCH   1   2
ATOM      2  C   UNL     1      18.013  -5.954  11.687  1.00  0.00     0.000 C 
BRANCH   2   3
ATOM      3  C   UNL     1      17.256  -5.858  10.352  1.00  0.00     0.006 C 
BRANCH   3   4
ATOM      4  C   UNL     1      18.043  -6.460   9.181  1.00  0.00     0.053 C 
BRANCH   4   5
ATOM      5  C   UNL     1      17.560  -5.896   7.883  1.00  0.00     0.041 C 
ATOM      6  O   UNL     1      16.876  -6.605   7.099  1.00  0.00    -0.550 OA
ATOM      7  O   UNL     1      17.908  -4.602   7.515  1.00  0.00    -0.550 OA
ENDBRANCH   4   5
ENDBRANCH   3   4
ENDBRANCH   2   3
ENDBRANCH   1   2
BRANCH   1   8
ATOM      8  C   UNL     1      19.289  -4.683  13.464  1.00  0.00     0.000 C 
BRANCH   8   9
ATOM      9  C   UNL     1      18.638  -4.624  14.856  1.00  0.00     0.000 C 
BRANCH   9  10
ATOM     10  C   UNL     1      17.292  -3.878  14.849  1.00  0.00     0.006 C 
BRANCH  10  11
ATOM     11  C   UNL     1      17.273  -2.710  15.843  1.00  0.00     0.053 C 
BRANCH  11  12
ATOM     12  C   UNL     1      17.998  -1.512  15.311  1.00  0.00     0.041 C 
ATOM     13  O   UNL     1      17.411  -0.708  14.539  1.00  0.00    -0.550 OA
ATOM     14  O   UNL     1      19.312  -1.266  15.691  1.00  0.00    -0.550 OA
ENDBRANCH  11  12
ENDBRANCH  10  11
ENDBRANCH   9  10
ENDBRANCH   8   9
ENDBRANCH   1   8
TORSDOF 9
ENDMDL
MODEL 2
REMARK VINA RESULT:    -3.476     18.053     19.683
REMARK INTER + INTRA:          -5.713
REMARK INTER:                  -5.427
REMARK INTRA:                  -0.287
REMARK UNBOUND:                -0.408
REMARK SMILES O=C([O-])CCCCCCCCC(=O)[O-]
REMARK SMILES IDX 7 1 6 2 5 3 4 4 2 5 1 6 3 7 8 8 9 9 10 10 11 11 12 12 13 13
REMARK SMILES IDX 14 14
REMARK H PARENT
REMARK Flexibility Score: inf
ROOT
ATOM      1  C   UNL     1      36.864  -4.452  13.583  1.00  0.00     0.000 C 
ENDROOT
BRANCH   1   2
ATOM      2  C   UNL     1      36.893  -3.341  14.644  1.00  0.00     0.000 C 
BRANCH   2   3
ATOM      3  C   UNL     1      36.832  -1.934  14.028  1.00  0.00     0.006 C 
BRANCH   3   4
ATOM      4  C   UNL     1      36.647  -0.834  15.082  1.00  0.00     0.053 C 
BRANCH   4   5
ATOM      5  C   UNL     1      35.875   0.312  14.510  1.00  0.00     0.041 C 
ATOM      6  O   UNL     1      35.919   1.444  15.061  1.00  0.00    -0.550 OA
ATOM      7  O   UNL     1      35.065   0.119  13.398  1.00  0.00    -0.550 OA
ENDBRANCH   4   5
ENDBRANCH   3   4
ENDBRANCH   2   3
ENDBRANCH   1   2
BRANCH   1   8
ATOM      8  C   UNL     1      36.814  -5.838  14.243  1.00  0.00     0.000 C 
BRANCH   8   9
ATOM      9  C   UNL     1      36.762  -6.983  13.218  1.00  0.00     0.000 C 
BRANCH   9  10
ATOM     10  C   UNL     1      36.845  -6.481  11.765  1.00  0.00     0.006 C 
BRANCH  10  11
ATOM     11  C   UNL     1      37.107  -7.623  10.773  1.00  0.00     0.053 C 
BRANCH  11  12
ATOM     12  C   UNL     1      35.847  -8.085  10.109  1.00  0.00     0.041 C 
ATOM     13  O   UNL     1      34.984  -8.729  10.764  1.00  0.00    -0.550 OA
ATOM     14  O   UNL     1      35.609  -7.779   8.774  1.00  0.00    -0.550 OA
ENDBRANCH  11  12
ENDBRANCH  10  11
ENDBRANCH   9  10
ENDBRANCH   8   9
ENDBRANCH   1   8
TORSDOF 9
ENDMDL
MODEL 3
REMARK VINA RESULT:    -3.309     17.670     18.426
REMARK INTER + INTRA:          -5.458
REMARK INTER:                  -4.993
REMARK INTRA:                  -0.465
REMARK UNBOUND:                -0.408
REMARK SMILES O=C([O-])CCCCCCCCC(=O)[O-]
REMARK SMILES IDX 7 1 6 2 5 3 4 4 2 5 1 6 3 7 8 8 9 9 10 10 11 11 12 12 13 13
REMARK SMILES IDX 14 14
REMARK H PARENT
REMARK Flexibility Score: inf
ROOT
ATOM      1  C   UNL     1      36.777  -5.940  12.476  1.00  0.00     0.000 C 
ENDROOT
BRANCH   1   2
ATOM      2  C   UNL     1      36.911  -7.046  13.534  1.00  0.00     0.000 C 
BRANCH   2   3
ATOM      3  C   UNL     1      36.451  -8.419  13.018  1.00  0.00     0.006 C 
BRANCH   3   4
ATOM      4  C   UNL     1      35.078  -8.364  12.335  1.00  0.00     0.053 C 
BRANCH   4   5
ATOM      5  C   UNL     1      35.162  -8.922  10.950  1.00  0.00     0.041 C 
ATOM      6  O   UNL     1      34.857 -10.125  10.732  1.00  0.00    -0.550 OA
ATOM      7  O   UNL     1      35.624  -8.129   9.907  1.00  0.00    -0.550 OA
ENDBRANCH   4   5
ENDBRANCH   3   4
ENDBRANCH   2   3
ENDBRANCH   1   2
BRANCH   1   8
ATOM      8  C   UNL     1      37.077  -4.561  13.082  1.00  0.00     0.000 C 
BRANCH   8   9
ATOM      9  C   UNL     1      36.749  -4.488  14.583  1.00  0.00     0.000 C 
BRANCH   9  10
ATOM     10  C   UNL     1      37.090  -3.119  15.198  1.00  0.00     0.006 C 
BRANCH  10  11
ATOM     11  C   UNL     1      36.777  -1.961  14.241  1.00  0.00     0.053 C 
BRANCH  11  12
ATOM     12  C   UNL     1      35.995  -0.875  14.915  1.00  0.00     0.041 C 
ATOM     13  O   UNL     1      35.109  -1.166  15.763  1.00  0.00    -0.550 OA
ATOM     14  O   UNL     1      36.266   0.458  14.632  1.00  0.00    -0.550 OA
ENDBRANCH  11  12
ENDBRANCH  10  11
ENDBRANCH   9  10
ENDBRANCH   8   9
ENDBRANCH   1   8
TORSDOF 9
ENDMDL
MODEL 4
REMARK VINA RESULT:    -3.001      9.391     12.567
REMARK INTER + INTRA:          -4.989
REMARK INTER:                  -4.898
REMARK INTRA:                  -0.091
REMARK UNBOUND:                -0.408
REMARK SMILES O=C([O-])CCCCCCCCC(=O)[O-]
REMARK SMILES IDX 7 1 6 2 5 3 4 4 2 5 1 6 3 7 8 8 9 9 10 10 11 11 12 12 13 13
REMARK SMILES IDX 14 14
REMARK H PARENT
REMARK Flexibility Score: inf
ROOT
ATOM      1  C   UNL     1      18.799   6.491  12.568  1.00  0.00     0.000 C 
ENDROOT
BRANCH   1   2
ATOM      2  C   UNL     1      19.211   5.771  13.861  1.00  0.00     0.000 C 
BRANCH   2   3
ATOM      3  C   UNL     1      18.475   6.308  15.099  1.00  0.00     0.006 C 
BRANCH   3   4
ATOM      4  C   UNL     1      18.164   5.211  16.125  1.00  0.00     0.053 C 
BRANCH   4   5
ATOM      5  C   UNL     1      18.754   3.907  15.689  1.00  0.00     0.041 C 
ATOM      6  O   UNL     1      18.041   3.058  15.091  1.00  0.00    -0.550 OA
ATOM      7  O   UNL     1      20.077   3.608  15.987  1.00  0.00    -0.550 OA
ENDBRANCH   4   5
ENDBRANCH   3   4
ENDBRANCH   2   3
ENDBRANCH   1   2
BRANCH   1   8
ATOM      8  C   UNL     1      18.052   7.796  12.882  1.00  0.00     0.000 C 
BRANCH   8   9
ATOM      9  C   UNL     1      17.333   8.379  11.654  1.00  0.00     0.000 C 
BRANCH   9  10
ATOM     10  C   UNL     1      18.020   9.645  11.111  1.00  0.00     0.006 C 
BRANCH  10  11
ATOM     11  C   UNL     1      19.207  10.078  11.982  1.00  0.00     0.053 C 
BRANCH  11  12
ATOM     12  C   UNL     1      20.505   9.541  11.462  1.00  0.00     0.041 C 
ATOM     13  O   UNL     1      21.471   9.347  12.248  1.00  0.00    -0.550 OA
ATOM     14  O   UNL     1      20.640   9.226  10.116  1.00  0.00    -0.550 OA
ENDBRANCH  11  12
ENDBRANCH  10  11
ENDBRANCH   9  10
ENDBRANCH   8   9
ENDBRANCH   1   8
TORSDOF 9
ENDMDL
MODEL 5
REMARK VINA RESULT:    -2.887     18.199     18.792
REMARK INTER + INTRA:          -4.815
REMARK INTER:                  -4.472
REMARK INTRA:                  -0.343
REMARK UNBOUND:                -0.408
REMARK SMILES O=C([O-])CCCCCCCCC(=O)[O-]
REMARK SMILES IDX 7 1 6 2 5 3 4 4 2 5 1 6 3 7 8 8 9 9 10 10 11 11 12 12 13 13
REMARK SMILES IDX 14 14
REMARK H PARENT
REMARK Flexibility Score: inf
ROOT
ATOM      1  C   UNL     1      36.854  -4.123  13.442  1.00  0.00     0.000 C 
ENDROOT
BRANCH   1   2
ATOM      2  C   UNL     1      36.995  -5.302  14.417  1.00  0.00     0.000 C 
BRANCH   2   3
ATOM      3  C   UNL     1      36.766  -6.663  13.738  1.00  0.00     0.006 C 
BRANCH   3   4
ATOM      4  C   UNL     1      35.805  -7.563  14.526  1.00  0.00     0.053 C 
BRANCH   4   5
ATOM      5  C   UNL     1      35.857  -8.963  14.004  1.00  0.00     0.041 C 
ATOM      6  O   UNL     1      35.342  -9.243  12.888  1.00  0.00    -0.550 OA
ATOM      7  O   UNL     1      36.428  -9.972  14.771  1.00  0.00    -0.550 OA
ENDBRANCH   4   5
ENDBRANCH   3   4
ENDBRANCH   2   3
ENDBRANCH   1   2
BRANCH   1   8
ATOM      8  C   UNL     1      37.085  -2.786  14.162  1.00  0.00     0.000 C 
BRANCH   8   9
ATOM      9  C   UNL     1      36.361  -2.708  15.517  1.00  0.00     0.000 C 
BRANCH   9  10
ATOM     10  C   UNL     1      35.573  -1.399  15.692  1.00  0.00     0.006 C 
BRANCH  10  11
ATOM     11  C   UNL     1      35.759  -0.447  14.503  1.00  0.00     0.053 C 
BRANCH  11  12
ATOM     12  C   UNL     1      35.991   0.964  14.948  1.00  0.00     0.041 C 
ATOM     13  O   UNL     1      36.689   1.744  14.247  1.00  0.00    -0.550 OA
ATOM     14  O   UNL     1      35.411   1.429  16.123  1.00  0.00    -0.550 OA
ENDBRANCH  11  12
ENDBRANCH  10  11
ENDBRANCH   9  10
ENDBRANCH   8   9
ENDBRANCH   1   8
TORSDOF 9
ENDMDL
MODEL 6
REMARK VINA RESULT:    -2.690     11.744     14.590
REMARK INTER + INTRA:          -4.514
REMARK INTER:                  -4.082
REMARK INTRA:                  -0.432
REMARK UNBOUND:                -0.408
REMARK SMILES O=C([O-])CCCCCCCCC(=O)[O-]
REMARK SMILES IDX 7 1 6 2 5 3 4 4 2 5 1 6 3 7 8 8 9 9 10 10 11 11 12 12 13 13
REMARK SMILES IDX 14 14
REMARK H PARENT
REMARK Flexibility Score: inf
ROOT
ATOM      1  C   UNL     1      18.644   8.469  11.625  1.00  0.00     0.000 C 
ENDROOT
BRANCH   1   2
ATOM      2  C   UNL     1      18.086   9.546  12.568  1.00  0.00     0.000 C 
BRANCH   2   3
ATOM      3  C   UNL     1      17.581   8.965  13.899  1.00  0.00     0.006 C 
BRANCH   3   4
ATOM      4  C   UNL     1      18.677   8.220  14.673  1.00  0.00     0.053 C 
BRANCH   4   5
ATOM      5  C   UNL     1      18.311   6.780  14.839  1.00  0.00     0.041 C 
ATOM      6  O   UNL     1      17.273   6.322  14.293  1.00  0.00    -0.550 OA
ATOM      7  O   UNL     1      19.090   5.952  15.639  1.00  0.00    -0.550 OA
ENDBRANCH   4   5
ENDBRANCH   3   4
ENDBRANCH   2   3
ENDBRANCH   1   2
BRANCH   1   8
ATOM      8  C   UNL     1      20.125   8.727  11.313  1.00  0.00     0.000 C 
BRANCH   8   9
ATOM      9  C   UNL     1      20.372  10.124  10.721  1.00  0.00     0.000 C 
BRANCH   9  10
ATOM     10  C   UNL     1      20.377  10.123   9.182  1.00  0.00     0.006 C 
BRANCH  10  11
ATOM     11  C   UNL     1      21.682   9.553   8.608  1.00  0.00     0.053 C 
BRANCH  11  12
ATOM     12  C   UNL     1      21.667   9.527   7.110  1.00  0.00     0.041 C 
ATOM     13  O   UNL     1      20.704   8.996   6.495  1.00  0.00    -0.550 OA
ATOM     14  O   UNL     1      22.702  10.114   6.392  1.00  0.00    -0.550 OA
ENDBRANCH  11  12
ENDBRANCH  10  11
ENDBRANCH   9  10
ENDBRANCH   8   9
ENDBRANCH   1   8
TORSDOF 9
ENDMDL
MODEL 7
REMARK VINA RESULT:    -2.629     18.058     18.670
REMARK INTER + INTRA:          -4.421
REMARK INTER:                  -3.729
REMARK INTRA:                  -0.692
REMARK UNBOUND:                -0.408
REMARK SMILES O=C([O-])CCCCCCCCC(=O)[O-]
REMARK SMILES IDX 7 1 6 2 5 3 4 4 2 5 1 6 3 7 8 8 9 9 10 10 11 11 12 12 13 13
REMARK SMILES IDX 14 14
REMARK H PARENT
REMARK Flexibility Score: inf
ROOT
ATOM      1  C   UNL     1      35.265  -7.871  14.390  1.00  0.00     0.000 C 
ENDROOT
BRANCH   1   2
ATOM      2  C   UNL     1      36.442  -8.823  14.123  1.00  0.00     0.000 C 
BRANCH   2   3
ATOM      3  C   UNL     1      36.900  -8.800  12.656  1.00  0.00     0.006 C 
BRANCH   3   4
ATOM      4  C   UNL     1      36.119  -7.787  11.807  1.00  0.00     0.053 C 
BRANCH   4   5
ATOM      5  C   UNL     1      35.693  -8.408  10.515  1.00  0.00     0.041 C 
ATOM      6  O   UNL     1      35.747  -7.746   9.445  1.00  0.00    -0.550 OA
ATOM      7  O   UNL     1      35.188  -9.703  10.499  1.00  0.00    -0.550 OA
ENDBRANCH   4   5
ENDBRANCH   3   4
ENDBRANCH   2   3
ENDBRANCH   1   2
BRANCH   1   8
ATOM      8  C   UNL     1      35.422  -7.175  15.750  1.00  0.00     0.000 C 
BRANCH   8   9
ATOM      9  C   UNL     1      36.834  -6.607  15.968  1.00  0.00     0.000 C 
BRANCH   9  10
ATOM     10  C   UNL     1      36.880  -5.073  15.853  1.00  0.00     0.006 C 
BRANCH  10  11
ATOM     11  C   UNL     1      37.125  -4.608  14.412  1.00  0.00     0.053 C 
BRANCH  11  12
ATOM     12  C   UNL     1      36.939  -3.129  14.263  1.00  0.00     0.041 C 
ATOM     13  O   UNL     1      36.930  -2.603  13.118  1.00  0.00    -0.550 OA
ATOM     14  O   UNL     1      36.746  -2.334  15.387  1.00  0.00    -0.550 OA
ENDBRANCH  11  12
ENDBRANCH  10  11
ENDBRANCH   9  10
ENDBRANCH   8   9
ENDBRANCH   1   8
TORSDOF 9
ENDMDL
