MODEL 1
REMARK VINA RESULT:    -4.733      0.000      0.000
REMARK INTER + INTRA:          -5.519
REMARK INTER:                  -5.425
REMARK INTRA:                  -0.095
REMARK UNBOUND:                -0.095
REMARK SMILES C=Cc1ccc(O)c(OC)c1
REMARK SMILES IDX 8 1 6 2 5 3 4 4 3 5 11 6 9 7 10 8 7 9 2 11 1 12
REMARK H PARENT 7 10
REMARK Flexibility Score: inf
ROOT
ATOM      1  C   UNL     1     120.819 118.239 119.183  1.00  0.00     0.161 A 
ATOM      2  C   UNL     1     120.704 119.526 119.724  1.00  0.00     0.157 A 
ATOM      3  C   UNL     1     119.882 120.477 119.108  1.00  0.00     0.051 A 
ATOM      4  C   UNL     1     119.176 120.151 117.949  1.00  0.00     0.012 A 
ATOM      5  C   UNL     1     119.288 118.873 117.379  1.00  0.00    -0.022 A 
ATOM      6  C   UNL     1     120.106 117.915 118.012  1.00  0.00     0.058 A 
ENDROOT
BRANCH   1   7
ATOM      7  O   UNL     1     121.647 117.313 119.837  1.00  0.00    -0.493 OA
ATOM      8  C   UNL     1     121.197 116.085 120.400  1.00  0.00     0.278 C 
ENDBRANCH   1   7
BRANCH   2   9
ATOM      9  O   UNL     1     121.410 119.853 120.881  1.00  0.00    -0.504 OA
ATOM     10  H   UNL     1     121.952 120.707 120.949  1.00  0.00     0.293 HD
ENDBRANCH   2   9
BRANCH   5  11
ATOM     11  C   UNL     1     118.511 118.578 116.150  1.00  0.00     0.000 C 
ATOM     12  C   UNL     1     118.935 118.844 114.914  1.00  0.00     0.009 C 
ENDBRANCH   5  11
TORSDOF 3
ENDMDL
MODEL 2
REMARK VINA RESULT:    -4.732      3.198      4.210
REMARK INTER + INTRA:          -5.519
REMARK INTER:                  -5.423
REMARK INTRA:                  -0.095
REMARK UNBOUND:                -0.095
REMARK SMILES C=Cc1ccc(O)c(OC)c1
REMARK SMILES IDX 8 1 6 2 5 3 4 4 3 5 11 6 9 7 10 8 7 9 2 11 1 12
REMARK H PARENT 7 10
REMARK Flexibility Score: inf
ROOT
ATOM      1  C   UNL     1     116.793 119.358 119.247  1.00  0.00     0.161 A 
ATOM      2  C   UNL     1     116.878 118.061 119.770  1.00  0.00     0.157 A 
ATOM      3  C   UNL     1     117.686 117.104 119.144  1.00  0.00     0.051 A 
ATOM      4  C   UNL     1     118.407 117.433 117.996  1.00  0.00     0.012 A 
ATOM      5  C   UNL     1     118.324 118.721 117.444  1.00  0.00    -0.022 A 
ATOM      6  C   UNL     1     117.520 119.685 118.085  1.00  0.00     0.058 A 
ENDROOT
BRANCH   1   7
ATOM      7  O   UNL     1     115.978 120.291 119.909  1.00  0.00    -0.493 OA
ATOM      8  C   UNL     1     116.446 121.508 120.481  1.00  0.00     0.278 C 
ENDBRANCH   1   7
BRANCH   2   9
ATOM      9  O   UNL     1     116.158 117.731 120.916  1.00  0.00    -0.504 OA
ATOM     10  H   UNL     1     115.526 118.391 121.355  1.00  0.00     0.293 HD
ENDBRANCH   2   9
BRANCH   5  11
ATOM     11  C   UNL     1     119.115 119.019 116.225  1.00  0.00     0.000 C 
ATOM     12  C   UNL     1     118.722 118.722 114.986  1.00  0.00     0.009 C 
ENDBRANCH   5  11
TORSDOF 3
ENDMDL
MODEL 3
REMARK VINA RESULT:    -4.720      2.427      2.954
REMARK INTER + INTRA:          -5.504
REMARK INTER:                  -5.406
REMARK INTRA:                  -0.098
REMARK UNBOUND:                -0.095
REMARK SMILES C=Cc1ccc(O)c(OC)c1
REMARK SMILES IDX 8 1 6 2 5 3 4 4 3 5 11 6 9 7 10 8 7 9 2 11 1 12
REMARK H PARENT 7 10
REMARK Flexibility Score: inf
ROOT
ATOM      1  C   UNL     1     119.374 120.792 119.199  1.00  0.00     0.161 A 
ATOM      2  C   UNL     1     118.081 120.673 119.725  1.00  0.00     0.157 A 
ATOM      3  C   UNL     1     117.136 119.857 119.090  1.00  0.00     0.051 A 
ATOM      4  C   UNL     1     117.475 119.163 117.928  1.00  0.00     0.012 A 
ATOM      5  C   UNL     1     118.758 119.280 117.372  1.00  0.00    -0.022 A 
ATOM      6  C   UNL     1     119.710 120.091 118.024  1.00  0.00     0.058 A 
ENDROOT
BRANCH   1   7
ATOM      7  O   UNL     1     120.293 121.613 119.871  1.00  0.00    -0.493 OA
ATOM      8  C   UNL     1     121.454 121.140 120.547  1.00  0.00     0.278 C 
ENDBRANCH   1   7
BRANCH   2   9
ATOM      9  O   UNL     1     117.742 121.366 120.886  1.00  0.00    -0.504 OA
ATOM     10  H   UNL     1     117.902 122.363 120.974  1.00  0.00     0.293 HD
ENDBRANCH   2   9
BRANCH   5  11
ATOM     11  C   UNL     1     119.066 118.516 116.139  1.00  0.00     0.000 C 
ATOM     12  C   UNL     1     118.753 118.923 114.908  1.00  0.00     0.009 C 
ENDBRANCH   5  11
TORSDOF 3
ENDMDL
MODEL 4
REMARK VINA RESULT:    -4.713      2.419      2.948
REMARK INTER + INTRA:          -5.496
REMARK INTER:                  -5.402
REMARK INTRA:                  -0.094
REMARK UNBOUND:                -0.095
REMARK SMILES C=Cc1ccc(O)c(OC)c1
REMARK SMILES IDX 8 1 6 2 5 3 4 4 3 5 11 6 9 7 10 8 7 9 2 11 1 12
REMARK H PARENT 7 10
REMARK Flexibility Score: inf
ROOT
ATOM      1  C   UNL     1     118.295 116.800 119.207  1.00  0.00     0.161 A 
ATOM      2  C   UNL     1     119.589 116.889 119.737  1.00  0.00     0.157 A 
ATOM      3  C   UNL     1     120.541 117.716 119.130  1.00  0.00     0.051 A 
ATOM      4  C   UNL     1     120.210 118.453 117.992  1.00  0.00     0.012 A 
ATOM      5  C   UNL     1     118.925 118.367 117.434  1.00  0.00    -0.022 A 
ATOM      6  C   UNL     1     117.965 117.544 118.057  1.00  0.00     0.058 A 
ENDROOT
BRANCH   1   7
ATOM      7  O   UNL     1     117.367 115.967 119.852  1.00  0.00    -0.493 OA
ATOM      8  C   UNL     1     116.172 116.421 120.479  1.00  0.00     0.278 C 
ENDBRANCH   1   7
BRANCH   2   9
ATOM      9  O   UNL     1     119.921 116.153 120.873  1.00  0.00    -0.504 OA
ATOM     10  H   UNL     1     119.625 116.442 121.798  1.00  0.00     0.293 HD
ENDBRANCH   2   9
BRANCH   5  11
ATOM     11  C   UNL     1     118.625 119.176 116.227  1.00  0.00     0.000 C 
ATOM     12  C   UNL     1     118.730 118.724 114.976  1.00  0.00     0.009 C 
ENDBRANCH   5  11
TORSDOF 3
ENDMDL
MODEL 5
REMARK VINA RESULT:    -4.514      2.706      2.837
REMARK INTER + INTRA:          -5.269
REMARK INTER:                  -5.160
REMARK INTRA:                  -0.109
REMARK UNBOUND:                -0.095
REMARK SMILES C=Cc1ccc(O)c(OC)c1
REMARK SMILES IDX 8 1 6 2 5 3 4 4 3 5 11 6 9 7 10 8 7 9 2 11 1 12
REMARK H PARENT 7 10
REMARK Flexibility Score: inf
ROOT
ATOM      1  C   UNL     1     117.903 117.839 119.811  1.00  0.00     0.161 A 
ATOM      2  C   UNL     1     117.003 118.902 119.960  1.00  0.00     0.157 A 
ATOM      3  C   UNL     1     116.824 119.821 118.920  1.00  0.00     0.051 A 
ATOM      4  C   UNL     1     117.543 119.688 117.732  1.00  0.00     0.012 A 
ATOM      5  C   UNL     1     118.462 118.642 117.566  1.00  0.00    -0.022 A 
ATOM      6  C   UNL     1     118.629 117.710 118.610  1.00  0.00     0.058 A 
ENDROOT
BRANCH   1   7
ATOM      7  O   UNL     1     118.047 116.933 120.875  1.00  0.00    -0.493 OA
ATOM      8  C   UNL     1     119.075 116.999 121.858  1.00  0.00     0.278 C 
ENDBRANCH   1   7
BRANCH   2   9
ATOM      9  O   UNL     1     116.285 119.036 121.148  1.00  0.00    -0.504 OA
ATOM     10  H   UNL     1     115.964 118.228 121.668  1.00  0.00     0.293 HD
ENDBRANCH   2   9
BRANCH   5  11
ATOM     11  C   UNL     1     119.196 118.544 116.280  1.00  0.00     0.000 C 
ATOM     12  C   UNL     1     118.671 118.848 115.092  1.00  0.00     0.009 C 
ENDBRANCH   5  11
TORSDOF 3
ENDMDL
MODEL 6
REMARK VINA RESULT:    -4.492      1.331      2.569
REMARK INTER + INTRA:          -5.243
REMARK INTER:                  -5.128
REMARK INTRA:                  -0.115
REMARK UNBOUND:                -0.095
REMARK SMILES C=Cc1ccc(O)c(OC)c1
REMARK SMILES IDX 8 1 6 2 5 3 4 4 3 5 11 6 9 7 10 8 7 9 2 11 1 12
REMARK H PARENT 7 10
REMARK Flexibility Score: inf
ROOT
ATOM      1  C   UNL     1     119.629 119.714 119.855  1.00  0.00     0.161 A 
ATOM      2  C   UNL     1     120.582 118.693 119.968  1.00  0.00     0.157 A 
ATOM      3  C   UNL     1     120.804 117.818 118.898  1.00  0.00     0.051 A 
ATOM      4  C   UNL     1     120.076 117.955 117.715  1.00  0.00     0.012 A 
ATOM      5  C   UNL     1     119.106 118.959 117.585  1.00  0.00    -0.022 A 
ATOM      6  C   UNL     1     118.895 119.847 118.660  1.00  0.00     0.058 A 
ENDROOT
BRANCH   1   7
ATOM      7  O   UNL     1     119.443 120.576 120.948  1.00  0.00    -0.493 OA
ATOM      8  C   UNL     1     118.361 120.490 121.869  1.00  0.00     0.278 C 
ENDBRANCH   1   7
BRANCH   2   9
ATOM      9  O   UNL     1     121.308 118.555 121.150  1.00  0.00    -0.504 OA
ATOM     10  H   UNL     1     122.181 118.041 121.180  1.00  0.00     0.293 HD
ENDBRANCH   2   9
BRANCH   5  11
ATOM     11  C   UNL     1     118.365 119.064 116.303  1.00  0.00     0.000 C 
ATOM     12  C   UNL     1     118.897 118.810 115.107  1.00  0.00     0.009 C 
ENDBRANCH   5  11
TORSDOF 3
ENDMDL
MODEL 7
REMARK VINA RESULT:    -4.483      2.506      2.719
REMARK INTER + INTRA:          -5.233
REMARK INTER:                  -5.118
REMARK INTRA:                  -0.116
REMARK UNBOUND:                -0.095
REMARK SMILES C=Cc1ccc(O)c(OC)c1
REMARK SMILES IDX 8 1 6 2 5 3 4 4 3 5 11 6 9 7 10 8 7 9 2 11 1 12
REMARK H PARENT 7 10
REMARK Flexibility Score: inf
ROOT
ATOM      1  C   UNL     1     117.924 119.646 119.873  1.00  0.00     0.161 A 
ATOM      2  C   UNL     1     118.955 120.589 119.982  1.00  0.00     0.157 A 
ATOM      3  C   UNL     1     119.824 120.805 118.907  1.00  0.00     0.051 A 
ATOM      4  C   UNL     1     119.674 120.081 117.723  1.00  0.00     0.012 A 
ATOM      5  C   UNL     1     118.660 119.120 117.597  1.00  0.00    -0.022 A 
ATOM      6  C   UNL     1     117.777 118.916 118.677  1.00  0.00     0.058 A 
ENDROOT
BRANCH   1   7
ATOM      7  O   UNL     1     117.067 119.466 120.971  1.00  0.00    -0.493 OA
ATOM      8  C   UNL     1     117.126 118.361 121.868  1.00  0.00     0.278 C 
ENDBRANCH   1   7
BRANCH   2   9
ATOM      9  O   UNL     1     119.106 121.312 121.164  1.00  0.00    -0.504 OA
ATOM     10  H   UNL     1     119.651 122.165 121.198  1.00  0.00     0.293 HD
ENDBRANCH   2   9
BRANCH   5  11
ATOM     11  C   UNL     1     118.541 118.383 116.315  1.00  0.00     0.000 C 
ATOM     12  C   UNL     1     118.860 118.893 115.125  1.00  0.00     0.009 C 
ENDBRANCH   5  11
TORSDOF 3
ENDMDL
MODEL 8
REMARK VINA RESULT:    -4.361      2.106      2.753
REMARK INTER + INTRA:          -5.093
REMARK INTER:                  -4.974
REMARK INTRA:                  -0.119
REMARK UNBOUND:                -0.095
REMARK SMILES C=Cc1ccc(O)c(OC)c1
REMARK SMILES IDX 8 1 6 2 5 3 4 4 3 5 11 6 9 7 10 8 7 9 2 11 1 12
REMARK H PARENT 7 10
REMARK Flexibility Score: inf
ROOT
ATOM      1  C   UNL     1     119.718 117.756 120.189  1.00  0.00     0.161 A 
ATOM      2  C   UNL     1     118.626 116.881 120.243  1.00  0.00     0.157 A 
ATOM      3  C   UNL     1     117.785 116.737 119.133  1.00  0.00     0.051 A 
ATOM      4  C   UNL     1     118.027 117.468 117.969  1.00  0.00     0.012 A 
ATOM      5  C   UNL     1     119.105 118.363 117.897  1.00  0.00    -0.022 A 
ATOM      6  C   UNL     1     119.957 118.494 119.013  1.00  0.00     0.058 A 
ENDROOT
BRANCH   1   7
ATOM      7  O   UNL     1     120.542 117.864 121.322  1.00  0.00    -0.493 OA
ATOM      8  C   UNL     1     120.550 118.975 122.211  1.00  0.00     0.278 C 
ENDBRANCH   1   7
BRANCH   2   9
ATOM      9  O   UNL     1     118.383 116.151 121.406  1.00  0.00    -0.504 OA
ATOM     10  H   UNL     1     118.732 115.207 121.523  1.00  0.00     0.293 HD
ENDBRANCH   2   9
BRANCH   5  11
ATOM     11  C   UNL     1     119.319 119.111 116.634  1.00  0.00     0.000 C 
ATOM     12  C   UNL     1     118.660 118.870 115.499  1.00  0.00     0.009 C 
ENDBRANCH   5  11
TORSDOF 3
ENDMDL
MODEL 9
REMARK VINA RESULT:    -4.105      1.977      3.329
REMARK INTER + INTRA:          -4.799
REMARK INTER:                  -4.729
REMARK INTRA:                  -0.071
REMARK UNBOUND:                -0.095
REMARK SMILES C=Cc1ccc(O)c(OC)c1
REMARK SMILES IDX 8 1 6 2 5 3 4 4 3 5 11 6 9 7 10 8 7 9 2 11 1 12
REMARK H PARENT 7 10
REMARK Flexibility Score: inf
ROOT
ATOM      1  C   UNL     1     119.385 117.551 119.379  1.00  0.00     0.161 A 
ATOM      2  C   UNL     1     118.178 117.494 118.670  1.00  0.00     0.157 A 
ATOM      3  C   UNL     1     117.681 118.641 118.038  1.00  0.00     0.051 A 
ATOM      4  C   UNL     1     118.381 119.845 118.114  1.00  0.00     0.012 A 
ATOM      5  C   UNL     1     119.583 119.930 118.832  1.00  0.00    -0.022 A 
ATOM      6  C   UNL     1     120.087 118.770 119.454  1.00  0.00     0.058 A 
ENDROOT
BRANCH   1   7
ATOM      7  O   UNL     1     119.854 116.377 119.990  1.00  0.00    -0.493 OA
ATOM      8  C   UNL     1     121.208 116.146 120.364  1.00  0.00     0.278 C 
ENDBRANCH   1   7
BRANCH   2   9
ATOM      9  O   UNL     1     117.478 116.292 118.595  1.00  0.00    -0.504 OA
ATOM     10  H   UNL     1     117.890 115.417 118.899  1.00  0.00     0.293 HD
ENDBRANCH   2   9
BRANCH   5  11
ATOM     11  C   UNL     1     120.290 121.234 118.875  1.00  0.00     0.000 C 
ATOM     12  C   UNL     1     121.200 121.563 119.793  1.00  0.00     0.009 C 
ENDBRANCH   5  11
TORSDOF 3
ENDMDL
