MODEL 1
REMARK VINA RESULT:    -2.475      0.000      0.000
REMARK INTER + INTRA:          -2.475
REMARK INTER:                  -2.475
REMARK INTRA:                   0.000
REMARK UNBOUND:                 0.000
REMARK SMILES CC(=O)[O-]
REMARK SMILES IDX 1 1 2 2 3 3 4 4
REMARK H PARENT
REMARK Flexibility Score: inf
ROOT
ATOM      1  C   UNL     1      15.466 -49.867 -20.657  1.00  0.00     0.063 C 
ATOM      2  C   UNL     1      15.139 -48.489 -21.126  1.00  0.00     0.038 C 
ATOM      3  O   UNL     1      14.005 -47.996 -20.896  1.00  0.00    -0.550 OA
ATOM      4  O   UNL     1      16.104 -47.726 -21.771  1.00  0.00    -0.550 OA
ENDROOT
TORSDOF 0
ENDMDL
MODEL 2
REMARK VINA RESULT:    -2.401     15.246     15.454
REMARK INTER + INTRA:          -2.401
REMARK INTER:                  -2.401
REMARK INTRA:                   0.000
REMARK UNBOUND:                 0.000
REMARK SMILES CC(=O)[O-]
REMARK SMILES IDX 1 1 2 2 3 3 4 4
REMARK H PARENT
REMARK Flexibility Score: inf
ROOT
ATOM      1  C   UNL     1      14.712 -61.125 -30.147  1.00  0.00     0.063 C 
ATOM      2  C   UNL     1      13.812 -60.280 -30.984  1.00  0.00     0.038 C 
ATOM      3  O   UNL     1      13.475 -60.664 -32.135  1.00  0.00    -0.550 OA
ATOM      4  O   UNL     1      13.300 -59.093 -30.476  1.00  0.00    -0.550 OA
ENDROOT
TORSDOF 0
ENDMDL
MODEL 3
REMARK VINA RESULT:    -2.353     16.371     16.603
REMARK INTER + INTRA:          -2.353
REMARK INTER:                  -2.353
REMARK INTRA:                   0.000
REMARK UNBOUND:                 0.000
REMARK SMILES CC(=O)[O-]
REMARK SMILES IDX 1 1 2 2 3 3 4 4
REMARK H PARENT
REMARK Flexibility Score: inf
ROOT
ATOM      1  C   UNL     1      12.717 -60.313 -31.439  1.00  0.00     0.063 C 
ATOM      2  C   UNL     1      13.904 -60.587 -32.299  1.00  0.00     0.038 C 
ATOM      3  O   UNL     1      14.954 -61.061 -31.794  1.00  0.00    -0.550 OA
ATOM      4  O   UNL     1      13.835 -60.370 -33.669  1.00  0.00    -0.550 OA
ENDROOT
TORSDOF 0
ENDMDL
MODEL 4
REMARK VINA RESULT:    -2.351     12.350     12.504
REMARK INTER + INTRA:          -2.351
REMARK INTER:                  -2.351
REMARK INTRA:                   0.000
REMARK UNBOUND:                 0.000
REMARK SMILES CC(=O)[O-]
REMARK SMILES IDX 1 1 2 2 3 3 4 4
REMARK H PARENT
REMARK Flexibility Score: inf
ROOT
ATOM      1  C   UNL     1      11.282 -60.357 -18.260  1.00  0.00     0.063 C 
ATOM      2  C   UNL     1      11.871 -60.412 -19.629  1.00  0.00     0.038 C 
ATOM      3  O   UNL     1      11.197 -60.035 -20.622  1.00  0.00    -0.550 OA
ATOM      4  O   UNL     1      13.184 -60.828 -19.804  1.00  0.00    -0.550 OA
ENDROOT
TORSDOF 0
ENDMDL
MODEL 5
REMARK VINA RESULT:    -2.332     16.102     16.321
REMARK INTER + INTRA:          -2.332
REMARK INTER:                  -2.332
REMARK INTRA:                   0.000
REMARK UNBOUND:                 0.000
REMARK SMILES CC(=O)[O-]
REMARK SMILES IDX 1 1 2 2 3 3 4 4
REMARK H PARENT
REMARK Flexibility Score: inf
ROOT
ATOM      1  C   UNL     1      13.834 -60.382 -33.304  1.00  0.00     0.063 C 
ATOM      2  C   UNL     1      13.551 -60.502 -31.845  1.00  0.00     0.038 C 
ATOM      3  O   UNL     1      14.492 -60.693 -31.032  1.00  0.00    -0.550 OA
ATOM      4  O   UNL     1      12.253 -60.350 -31.374  1.00  0.00    -0.550 OA
ENDROOT
TORSDOF 0
ENDMDL
MODEL 6
REMARK VINA RESULT:    -2.325      7.876      7.941
REMARK INTER + INTRA:          -2.325
REMARK INTER:                  -2.325
REMARK INTRA:                   0.000
REMARK UNBOUND:                 0.000
REMARK SMILES CC(=O)[O-]
REMARK SMILES IDX 1 1 2 2 3 3 4 4
REMARK H PARENT
REMARK Flexibility Score: inf
ROOT
ATOM      1  C   UNL     1      12.048 -51.778 -27.200  1.00  0.00     0.063 C 
ATOM      2  C   UNL     1      12.897 -52.981 -26.962  1.00  0.00     0.038 C 
ATOM      3  O   UNL     1      12.911 -53.529 -25.829  1.00  0.00    -0.550 OA
ATOM      4  O   UNL     1      13.632 -53.531 -28.004  1.00  0.00    -0.550 OA
ENDROOT
TORSDOF 0
ENDMDL
MODEL 7
REMARK VINA RESULT:    -2.303     12.253     12.563
REMARK INTER + INTRA:          -2.303
REMARK INTER:                  -2.303
REMARK INTRA:                   0.000
REMARK UNBOUND:                 0.000
REMARK SMILES CC(=O)[O-]
REMARK SMILES IDX 1 1 2 2 3 3 4 4
REMARK H PARENT
REMARK Flexibility Score: inf
ROOT
ATOM      1  C   UNL     1      10.890 -59.550 -20.868  1.00  0.00     0.063 C 
ATOM      2  C   UNL     1      11.675 -60.320 -19.860  1.00  0.00     0.038 C 
ATOM      3  O   UNL     1      12.841 -60.708 -20.130  1.00  0.00    -0.550 OA
ATOM      4  O   UNL     1      11.141 -60.565 -18.602  1.00  0.00    -0.550 OA
ENDROOT
TORSDOF 0
ENDMDL
MODEL 8
REMARK VINA RESULT:    -2.241     12.798     13.020
REMARK INTER + INTRA:          -2.241
REMARK INTER:                  -2.241
REMARK INTRA:                   0.000
REMARK UNBOUND:                 0.000
REMARK SMILES CC(=O)[O-]
REMARK SMILES IDX 1 1 2 2 3 3 4 4
REMARK H PARENT
REMARK Flexibility Score: inf
ROOT
ATOM      1  C   UNL     1      11.258 -59.991 -17.868  1.00  0.00     0.063 C 
ATOM      2  C   UNL     1      12.540 -60.746 -17.967  1.00  0.00     0.038 C 
ATOM      3  O   UNL     1      13.132 -61.124 -16.922  1.00  0.00    -0.550 OA
ATOM      4  O   UNL     1      13.056 -61.082 -19.211  1.00  0.00    -0.550 OA
ENDROOT
TORSDOF 0
ENDMDL
MODEL 9
REMARK VINA RESULT:    -2.226     15.327     15.462
REMARK INTER + INTRA:          -2.226
REMARK INTER:                  -2.226
REMARK INTRA:                   0.000
REMARK UNBOUND:                 0.000
REMARK SMILES CC(=O)[O-]
REMARK SMILES IDX 1 1 2 2 3 3 4 4
REMARK H PARENT
REMARK Flexibility Score: inf
ROOT
ATOM      1  C   UNL     1      13.138 -58.100 -31.103  1.00  0.00     0.063 C 
ATOM      2  C   UNL     1      13.029 -59.434 -31.761  1.00  0.00     0.038 C 
ATOM      3  O   UNL     1      12.427 -60.376 -31.183  1.00  0.00    -0.550 OA
ATOM      4  O   UNL     1      13.546 -59.625 -33.035  1.00  0.00    -0.550 OA
ENDROOT
TORSDOF 0
ENDMDL
