MODEL 1
REMARK VINA RESULT:    -4.078      0.000      0.000
REMARK INTER + INTRA:          -9.461
REMARK INTER:                  -7.415
REMARK INTRA:                  -2.045
REMARK UNBOUND:                -2.045
REMARK SMILES CCCCCCCCCCCCCCCCC
REMARK SMILES IDX 9 1 8 2 7 3 6 4 5 5 4 6 3 7 2 8 1 9 10 10 11 11 12 12 13 13
REMARK SMILES IDX 14 14 15 15 16 16 17 17
REMARK H PARENT
REMARK Flexibility Score: inf
ROOT
ATOM      1  C   UNL     1       9.553  50.928  24.858  1.00  0.00    -0.000 C 
ENDROOT
BRANCH   1   2
ATOM      2  C   UNL     1       8.299  51.780  25.125  1.00  0.00    -0.000 C 
BRANCH   2   3
ATOM      3  C   UNL     1       7.298  51.743  23.959  1.00  0.00    -0.000 C 
BRANCH   3   4
ATOM      4  C   UNL     1       7.991  51.584  22.595  1.00  0.00    -0.000 C 
BRANCH   4   5
ATOM      5  C   UNL     1       8.577  52.906  22.073  1.00  0.00    -0.000 C 
BRANCH   5   6
ATOM      6  C   UNL     1       7.786  53.478  20.883  1.00  0.00    -0.000 C 
BRANCH   6   7
ATOM      7  C   UNL     1       6.924  52.415  20.184  1.00  0.00    -0.000 C 
BRANCH   7   8
ATOM      8  C   UNL     1       5.487  52.895  19.931  1.00  0.00    -0.003 C 
ATOM      9  C   UNL     1       5.142  54.089  20.817  1.00  0.00     0.004 C 
ENDBRANCH   7   8
ENDBRANCH   6   7
ENDBRANCH   5   6
ENDBRANCH   4   5
ENDBRANCH   3   4
ENDBRANCH   2   3
ENDBRANCH   1   2
BRANCH   1  10
ATOM     10  C   UNL     1      10.861  51.725  25.049  1.00  0.00    -0.000 C 
BRANCH  10  11
ATOM     11  C   UNL     1      11.791  51.695  23.820  1.00  0.00    -0.000 C 
BRANCH  11  12
ATOM     12  C   UNL     1      11.456  50.607  22.783  1.00  0.00    -0.000 C 
BRANCH  12  13
ATOM     13  C   UNL     1      11.930  50.906  21.345  1.00  0.00    -0.000 C 
BRANCH  13  14
ATOM     14  C   UNL     1      12.784  52.177  21.192  1.00  0.00    -0.000 C 
BRANCH  14  15
ATOM     15  C   UNL     1      12.638  52.832  19.809  1.00  0.00    -0.000 C 
BRANCH  15  16
ATOM     16  C   UNL     1      11.240  53.430  19.585  1.00  0.00    -0.003 C 
ATOM     17  C   UNL     1      10.569  52.901  18.317  1.00  0.00     0.004 C 
ENDBRANCH  15  16
ENDBRANCH  14  15
ENDBRANCH  13  14
ENDBRANCH  12  13
ENDBRANCH  11  12
ENDBRANCH  10  11
ENDBRANCH   1  10
TORSDOF 14
ENDMDL
MODEL 2
REMARK VINA RESULT:    -4.073      1.112      3.006
REMARK INTER + INTRA:          -9.451
REMARK INTER:                  -7.282
REMARK INTRA:                  -2.169
REMARK UNBOUND:                -2.045
REMARK SMILES CCCCCCCCCCCCCCCCC
REMARK SMILES IDX 9 1 8 2 7 3 6 4 5 5 4 6 3 7 2 8 1 9 10 10 11 11 12 12 13 13
REMARK SMILES IDX 14 14 15 15 16 16 17 17
REMARK H PARENT
REMARK Flexibility Score: inf
ROOT
ATOM      1  C   UNL     1       7.976  51.854  22.455  1.00  0.00    -0.000 C 
ENDROOT
BRANCH   1   2
ATOM      2  C   UNL     1       8.887  53.030  22.060  1.00  0.00    -0.000 C 
BRANCH   2   3
ATOM      3  C   UNL     1       8.756  53.407  20.576  1.00  0.00    -0.000 C 
BRANCH   3   4
ATOM      4  C   UNL     1       8.464  52.189  19.683  1.00  0.00    -0.000 C 
BRANCH   4   5
ATOM      5  C   UNL     1       7.477  52.511  18.549  1.00  0.00    -0.000 C 
BRANCH   5   6
ATOM      6  C   UNL     1       6.085  51.897  18.782  1.00  0.00    -0.000 C 
BRANCH   6   7
ATOM      7  C   UNL     1       5.021  52.956  19.111  1.00  0.00    -0.000 C 
BRANCH   7   8
ATOM      8  C   UNL     1       4.965  53.290  20.609  1.00  0.00    -0.003 C 
ATOM      9  C   UNL     1       5.195  54.780  20.848  1.00  0.00     0.004 C 
ENDBRANCH   7   8
ENDBRANCH   6   7
ENDBRANCH   5   6
ENDBRANCH   4   5
ENDBRANCH   3   4
ENDBRANCH   2   3
ENDBRANCH   1   2
BRANCH   1  10
ATOM     10  C   UNL     1       7.574  51.894  23.946  1.00  0.00    -0.000 C 
BRANCH  10  11
ATOM     11  C   UNL     1       8.334  50.878  24.820  1.00  0.00    -0.000 C 
BRANCH  11  12
ATOM     12  C   UNL     1       9.796  51.252  25.125  1.00  0.00    -0.000 C 
BRANCH  12  13
ATOM     13  C   UNL     1      10.853  50.500  24.289  1.00  0.00    -0.000 C 
BRANCH  13  14
ATOM     14  C   UNL     1      11.801  51.400  23.477  1.00  0.00    -0.000 C 
BRANCH  14  15
ATOM     15  C   UNL     1      12.451  50.666  22.292  1.00  0.00    -0.000 C 
BRANCH  15  16
ATOM     16  C   UNL     1      11.809  51.036  20.946  1.00  0.00    -0.003 C 
ATOM     17  C   UNL     1      12.407  52.304  20.336  1.00  0.00     0.004 C 
ENDBRANCH  15  16
ENDBRANCH  14  15
ENDBRANCH  13  14
ENDBRANCH  12  13
ENDBRANCH  11  12
ENDBRANCH  10  11
ENDBRANCH   1  10
TORSDOF 14
ENDMDL
MODEL 3
REMARK VINA RESULT:    -4.028      1.013      5.154
REMARK INTER + INTRA:          -9.370
REMARK INTER:                  -7.575
REMARK INTRA:                  -1.795
REMARK UNBOUND:                -2.045
REMARK SMILES CCCCCCCCCCCCCCCCC
REMARK SMILES IDX 9 1 8 2 7 3 6 4 5 5 4 6 3 7 2 8 1 9 10 10 11 11 12 12 13 13
REMARK SMILES IDX 14 14 15 15 16 16 17 17
REMARK H PARENT
REMARK Flexibility Score: inf
ROOT
ATOM      1  C   UNL     1       7.976  51.678  24.570  1.00  0.00    -0.000 C 
ENDROOT
BRANCH   1   2
ATOM      2  C   UNL     1       9.493  51.522  24.777  1.00  0.00    -0.000 C 
BRANCH   2   3
ATOM      3  C   UNL     1      10.005  50.129  24.376  1.00  0.00    -0.000 C 
BRANCH   3   4
ATOM      4  C   UNL     1      11.514  50.122  24.077  1.00  0.00    -0.000 C 
BRANCH   4   5
ATOM      5  C   UNL     1      11.950  51.316  23.212  1.00  0.00    -0.000 C 
BRANCH   5   6
ATOM      6  C   UNL     1      12.277  50.912  21.764  1.00  0.00    -0.000 C 
BRANCH   6   7
ATOM      7  C   UNL     1      11.601  51.826  20.729  1.00  0.00    -0.000 C 
BRANCH   7   8
ATOM      8  C   UNL     1      11.258  51.089  19.426  1.00  0.00    -0.003 C 
ATOM      9  C   UNL     1      10.727  52.057  18.371  1.00  0.00     0.004 C 
ENDBRANCH   7   8
ENDBRANCH   6   7
ENDBRANCH   5   6
ENDBRANCH   4   5
ENDBRANCH   3   4
ENDBRANCH   2   3
ENDBRANCH   1   2
BRANCH   1  10
ATOM     10  C   UNL     1       7.603  51.907  23.090  1.00  0.00    -0.000 C 
BRANCH  10  11
ATOM     11  C   UNL     1       8.552  52.872  22.354  1.00  0.00    -0.000 C 
BRANCH  11  12
ATOM     12  C   UNL     1       8.098  53.271  20.937  1.00  0.00    -0.000 C 
BRANCH  12  13
ATOM     13  C   UNL     1       7.350  52.170  20.155  1.00  0.00    -0.000 C 
BRANCH  13  14
ATOM     14  C   UNL     1       5.965  52.578  19.621  1.00  0.00    -0.000 C 
BRANCH  14  15
ATOM     15  C   UNL     1       5.152  53.399  20.636  1.00  0.00    -0.000 C 
BRANCH  15  16
ATOM     16  C   UNL     1       4.633  54.719  20.046  1.00  0.00    -0.003 C 
ATOM     17  C   UNL     1       4.715  55.880  21.037  1.00  0.00     0.004 C 
ENDBRANCH  15  16
ENDBRANCH  14  15
ENDBRANCH  13  14
ENDBRANCH  12  13
ENDBRANCH  11  12
ENDBRANCH  10  11
ENDBRANCH   1  10
TORSDOF 14
ENDMDL
MODEL 4
REMARK VINA RESULT:    -3.892      1.277      5.549
REMARK INTER + INTRA:          -9.122
REMARK INTER:                  -7.392
REMARK INTRA:                  -1.730
REMARK UNBOUND:                -2.045
REMARK SMILES CCCCCCCCCCCCCCCCC
REMARK SMILES IDX 9 1 8 2 7 3 6 4 5 5 4 6 3 7 2 8 1 9 10 10 11 11 12 12 13 13
REMARK SMILES IDX 14 14 15 15 16 16 17 17
REMARK H PARENT
REMARK Flexibility Score: inf
ROOT
ATOM      1  C   UNL     1       7.504  51.990  22.344  1.00  0.00    -0.000 C 
ENDROOT
BRANCH   1   2
ATOM      2  C   UNL     1       7.481  51.679  23.851  1.00  0.00    -0.000 C 
BRANCH   2   3
ATOM      3  C   UNL     1       8.834  51.947  24.532  1.00  0.00    -0.000 C 
BRANCH   3   4
ATOM      4  C   UNL     1       9.456  50.671  25.125  1.00  0.00    -0.000 C 
BRANCH   4   5
ATOM      5  C   UNL     1      10.866  50.393  24.579  1.00  0.00    -0.000 C 
BRANCH   5   6
ATOM      6  C   UNL     1      11.714  51.670  24.447  1.00  0.00    -0.000 C 
BRANCH   6   7
ATOM      7  C   UNL     1      12.602  51.662  23.194  1.00  0.00    -0.000 C 
BRANCH   7   8
ATOM      8  C   UNL     1      11.814  51.345  21.914  1.00  0.00    -0.003 C 
ATOM      9  C   UNL     1      12.722  51.374  20.687  1.00  0.00     0.004 C 
ENDBRANCH   7   8
ENDBRANCH   6   7
ENDBRANCH   5   6
ENDBRANCH   4   5
ENDBRANCH   3   4
ENDBRANCH   2   3
ENDBRANCH   1   2
BRANCH   1  10
ATOM     10  C   UNL     1       8.746  52.807  21.929  1.00  0.00    -0.000 C 
BRANCH  10  11
ATOM     11  C   UNL     1       8.645  53.414  20.516  1.00  0.00    -0.000 C 
BRANCH  11  12
ATOM     12  C   UNL     1       8.369  52.397  19.393  1.00  0.00    -0.000 C 
BRANCH  12  13
ATOM     13  C   UNL     1       7.220  52.775  18.435  1.00  0.00    -0.000 C 
BRANCH  13  14
ATOM     14  C   UNL     1       5.865  52.116  18.751  1.00  0.00    -0.000 C 
BRANCH  14  15
ATOM     15  C   UNL     1       5.088  52.850  19.857  1.00  0.00    -0.000 C 
BRANCH  15  16
ATOM     16  C   UNL     1       4.779  54.309  19.489  1.00  0.00    -0.003 C 
ATOM     17  C   UNL     1       4.821  55.243  20.699  1.00  0.00     0.004 C 
ENDBRANCH  15  16
ENDBRANCH  14  15
ENDBRANCH  13  14
ENDBRANCH  12  13
ENDBRANCH  11  12
ENDBRANCH  10  11
ENDBRANCH   1  10
TORSDOF 14
ENDMDL
MODEL 5
REMARK VINA RESULT:    -3.875      1.068      4.516
REMARK INTER + INTRA:          -9.092
REMARK INTER:                  -7.124
REMARK INTRA:                  -1.968
REMARK UNBOUND:                -2.045
REMARK SMILES CCCCCCCCCCCCCCCCC
REMARK SMILES IDX 9 1 8 2 7 3 6 4 5 5 4 6 3 7 2 8 1 9 10 10 11 11 12 12 13 13
REMARK SMILES IDX 14 14 15 15 16 16 17 17
REMARK H PARENT
REMARK Flexibility Score: inf
ROOT
ATOM      1  C   UNL     1      11.409  52.027  25.125  1.00  0.00    -0.000 C 
ENDROOT
BRANCH   1   2
ATOM      2  C   UNL     1      12.642  51.665  24.278  1.00  0.00    -0.000 C 
BRANCH   2   3
ATOM      3  C   UNL     1      12.269  51.030  22.929  1.00  0.00    -0.000 C 
BRANCH   3   4
ATOM      4  C   UNL     1      12.689  51.902  21.733  1.00  0.00    -0.000 C 
BRANCH   4   5
ATOM      5  C   UNL     1      12.572  51.159  20.392  1.00  0.00    -0.000 C 
BRANCH   5   6
ATOM      6  C   UNL     1      11.153  51.219  19.802  1.00  0.00    -0.000 C 
BRANCH   6   7
ATOM      7  C   UNL     1      11.139  51.712  18.347  1.00  0.00    -0.000 C 
BRANCH   7   8
ATOM      8  C   UNL     1      10.712  53.182  18.225  1.00  0.00    -0.003 C 
ATOM      9  C   UNL     1      11.902  54.118  18.422  1.00  0.00     0.004 C 
ENDBRANCH   7   8
ENDBRANCH   6   7
ENDBRANCH   5   6
ENDBRANCH   4   5
ENDBRANCH   3   4
ENDBRANCH   2   3
ENDBRANCH   1   2
BRANCH   1  10
ATOM     10  C   UNL     1      10.249  51.025  24.937  1.00  0.00    -0.000 C 
BRANCH  10  11
ATOM     11  C   UNL     1       8.894  51.693  24.635  1.00  0.00    -0.000 C 
BRANCH  11  12
ATOM     12  C   UNL     1       8.492  51.697  23.148  1.00  0.00    -0.000 C 
BRANCH  12  13
ATOM     13  C   UNL     1       9.084  52.851  22.312  1.00  0.00    -0.000 C 
BRANCH  13  14
ATOM     14  C   UNL     1       8.265  53.239  21.068  1.00  0.00    -0.000 C 
BRANCH  14  15
ATOM     15  C   UNL     1       6.768  52.918  21.215  1.00  0.00    -0.000 C 
BRANCH  15  16
ATOM     16  C   UNL     1       6.166  52.321  19.934  1.00  0.00    -0.003 C 
ATOM     17  C   UNL     1       7.099  52.447  18.730  1.00  0.00     0.004 C 
ENDBRANCH  15  16
ENDBRANCH  14  15
ENDBRANCH  13  14
ENDBRANCH  12  13
ENDBRANCH  11  12
ENDBRANCH  10  11
ENDBRANCH   1  10
TORSDOF 14
ENDMDL
MODEL 6
REMARK VINA RESULT:    -3.875      1.510      5.257
REMARK INTER + INTRA:          -9.092
REMARK INTER:                  -7.391
REMARK INTRA:                  -1.701
REMARK UNBOUND:                -2.045
REMARK SMILES CCCCCCCCCCCCCCCCC
REMARK SMILES IDX 9 1 8 2 7 3 6 4 5 5 4 6 3 7 2 8 1 9 10 10 11 11 12 12 13 13
REMARK SMILES IDX 14 14 15 15 16 16 17 17
REMARK H PARENT
REMARK Flexibility Score: inf
ROOT
ATOM      1  C   UNL     1       8.788  51.701  23.272  1.00  0.00    -0.000 C 
ENDROOT
BRANCH   1   2
ATOM      2  C   UNL     1       9.362  51.733  24.699  1.00  0.00    -0.000 C 
BRANCH   2   3
ATOM      3  C   UNL     1      10.694  52.495  24.785  1.00  0.00    -0.000 C 
BRANCH   3   4
ATOM      4  C   UNL     1      11.909  51.553  24.834  1.00  0.00    -0.000 C 
BRANCH   4   5
ATOM      5  C   UNL     1      12.709  51.553  23.522  1.00  0.00    -0.000 C 
BRANCH   5   6
ATOM      6  C   UNL     1      12.222  50.484  22.529  1.00  0.00    -0.000 C 
BRANCH   6   7
ATOM      7  C   UNL     1      12.081  51.028  21.098  1.00  0.00    -0.000 C 
BRANCH   7   8
ATOM      8  C   UNL     1      12.713  52.418  20.931  1.00  0.00    -0.003 C 
ATOM      9  C   UNL     1      12.081  53.172  19.764  1.00  0.00     0.004 C 
ENDBRANCH   7   8
ENDBRANCH   6   7
ENDBRANCH   5   6
ENDBRANCH   4   5
ENDBRANCH   3   4
ENDBRANCH   2   3
ENDBRANCH   1   2
BRANCH   1  10
ATOM     10  C   UNL     1       9.293  52.874  22.405  1.00  0.00    -0.000 C 
BRANCH  10  11
ATOM     11  C   UNL     1       8.360  53.224  21.230  1.00  0.00    -0.000 C 
BRANCH  11  12
ATOM     12  C   UNL     1       6.894  52.790  21.416  1.00  0.00    -0.000 C 
BRANCH  12  13
ATOM     13  C   UNL     1       6.020  52.876  20.147  1.00  0.00    -0.000 C 
BRANCH  13  14
ATOM     14  C   UNL     1       6.488  51.998  18.973  1.00  0.00    -0.000 C 
BRANCH  14  15
ATOM     15  C   UNL     1       5.539  52.062  17.765  1.00  0.00    -0.000 C 
BRANCH  15  16
ATOM     16  C   UNL     1       6.043  53.014  16.670  1.00  0.00    -0.003 C 
ATOM     17  C   UNL     1       7.557  53.224  16.723  1.00  0.00     0.004 C 
ENDBRANCH  15  16
ENDBRANCH  14  15
ENDBRANCH  13  14
ENDBRANCH  12  13
ENDBRANCH  11  12
ENDBRANCH  10  11
ENDBRANCH   1  10
TORSDOF 14
ENDMDL
MODEL 7
REMARK VINA RESULT:    -3.872      1.152      4.169
REMARK INTER + INTRA:          -9.087
REMARK INTER:                  -7.220
REMARK INTRA:                  -1.866
REMARK UNBOUND:                -2.045
REMARK SMILES CCCCCCCCCCCCCCCCC
REMARK SMILES IDX 9 1 8 2 7 3 6 4 5 5 4 6 3 7 2 8 1 9 10 10 11 11 12 12 13 13
REMARK SMILES IDX 14 14 15 15 16 16 17 17
REMARK H PARENT
REMARK Flexibility Score: inf
ROOT
ATOM      1  C   UNL     1      12.920  51.563  19.860  1.00  0.00    -0.000 C 
ENDROOT
BRANCH   1   2
ATOM      2  C   UNL     1      11.433  51.265  20.126  1.00  0.00    -0.000 C 
BRANCH   2   3
ATOM      3  C   UNL     1      10.547  52.515  19.999  1.00  0.00    -0.000 C 
BRANCH   3   4
ATOM      4  C   UNL     1       9.860  52.885  21.324  1.00  0.00    -0.000 C 
BRANCH   4   5
ATOM      5  C   UNL     1       8.328  52.926  21.203  1.00  0.00    -0.000 C 
BRANCH   5   6
ATOM      6  C   UNL     1       7.826  52.405  19.845  1.00  0.00    -0.000 C 
BRANCH   6   7
ATOM      7  C   UNL     1       6.391  52.858  19.533  1.00  0.00    -0.000 C 
BRANCH   7   8
ATOM      8  C   UNL     1       5.621  53.286  20.792  1.00  0.00    -0.003 C 
ATOM      9  C   UNL     1       5.103  54.716  20.659  1.00  0.00     0.004 C 
ENDBRANCH   7   8
ENDBRANCH   6   7
ENDBRANCH   5   6
ENDBRANCH   4   5
ENDBRANCH   3   4
ENDBRANCH   2   3
ENDBRANCH   1   2
BRANCH   1  10
ATOM     10  C   UNL     1      13.801  51.331  21.106  1.00  0.00    -0.000 C 
BRANCH  10  11
ATOM     11  C   UNL     1      13.380  52.172  22.328  1.00  0.00    -0.000 C 
BRANCH  11  12
ATOM     12  C   UNL     1      13.206  51.373  23.633  1.00  0.00    -0.000 C 
BRANCH  12  13
ATOM     13  C   UNL     1      11.757  51.286  24.159  1.00  0.00    -0.000 C 
BRANCH  13  14
ATOM     14  C   UNL     1      10.915  50.147  23.557  1.00  0.00    -0.000 C 
BRANCH  14  15
ATOM     15  C   UNL     1       9.446  50.187  24.013  1.00  0.00    -0.000 C 
BRANCH  15  16
ATOM     16  C   UNL     1       9.199  51.231  25.113  1.00  0.00    -0.003 C 
ATOM     17  C   UNL     1       7.764  51.758  25.114  1.00  0.00     0.004 C 
ENDBRANCH  15  16
ENDBRANCH  14  15
ENDBRANCH  13  14
ENDBRANCH  12  13
ENDBRANCH  11  12
ENDBRANCH  10  11
ENDBRANCH   1  10
TORSDOF 14
ENDMDL
MODEL 8
REMARK VINA RESULT:    -3.753      1.365      2.037
REMARK INTER + INTRA:          -8.870
REMARK INTER:                  -7.426
REMARK INTRA:                  -1.444
REMARK UNBOUND:                -2.045
REMARK SMILES CCCCCCCCCCCCCCCCC
REMARK SMILES IDX 9 1 8 2 7 3 6 4 5 5 4 6 3 7 2 8 1 9 10 10 11 11 12 12 13 13
REMARK SMILES IDX 14 14 15 15 16 16 17 17
REMARK H PARENT
REMARK Flexibility Score: inf
ROOT
ATOM      1  C   UNL     1      11.526  51.780  24.990  1.00  0.00    -0.000 C 
ENDROOT
BRANCH   1   2
ATOM      2  C   UNL     1      10.272  50.897  24.873  1.00  0.00    -0.000 C 
BRANCH   2   3
ATOM      3  C   UNL     1       8.971  51.681  25.107  1.00  0.00    -0.000 C 
BRANCH   3   4
ATOM      4  C   UNL     1       8.146  51.849  23.820  1.00  0.00    -0.000 C 
BRANCH   4   5
ATOM      5  C   UNL     1       8.938  52.538  22.697  1.00  0.00    -0.000 C 
BRANCH   5   6
ATOM      6  C   UNL     1       8.207  52.499  21.344  1.00  0.00    -0.000 C 
BRANCH   6   7
ATOM      7  C   UNL     1       6.808  53.132  21.411  1.00  0.00    -0.000 C 
BRANCH   7   8
ATOM      8  C   UNL     1       5.971  52.847  20.155  1.00  0.00    -0.003 C 
ATOM      9  C   UNL     1       6.604  51.744  19.311  1.00  0.00     0.004 C 
ENDBRANCH   7   8
ENDBRANCH   6   7
ENDBRANCH   5   6
ENDBRANCH   4   5
ENDBRANCH   3   4
ENDBRANCH   2   3
ENDBRANCH   1   2
BRANCH   1  10
ATOM     10  C   UNL     1      12.770  51.128  24.348  1.00  0.00    -0.000 C 
BRANCH  10  11
ATOM     11  C   UNL     1      13.902  52.125  24.035  1.00  0.00    -0.000 C 
BRANCH  11  12
ATOM     12  C   UNL     1      14.865  51.681  22.918  1.00  0.00    -0.000 C 
BRANCH  12  13
ATOM     13  C   UNL     1      14.203  51.418  21.549  1.00  0.00    -0.000 C 
BRANCH  13  14
ATOM     14  C   UNL     1      13.674  52.672  20.831  1.00  0.00    -0.000 C 
BRANCH  14  15
ATOM     15  C   UNL     1      12.205  52.536  20.396  1.00  0.00    -0.000 C 
BRANCH  15  16
ATOM     16  C   UNL     1      11.751  51.071  20.308  1.00  0.00    -0.003 C 
ATOM     17  C   UNL     1      11.214  50.703  18.924  1.00  0.00     0.004 C 
ENDBRANCH  15  16
ENDBRANCH  14  15
ENDBRANCH  13  14
ENDBRANCH  12  13
ENDBRANCH  11  12
ENDBRANCH  10  11
ENDBRANCH   1  10
TORSDOF 14
ENDMDL
