MODEL 1
REMARK VINA RESULT:    -5.095      0.000      0.000
REMARK INTER + INTRA:          -9.220
REMARK INTER:                  -7.031
REMARK INTRA:                  -2.189
REMARK UNBOUND:                -2.189
REMARK SMILES CC[C@H](CC[C@@H](C)[C@H]1CC[C@@H]2[C@H]3CC=C4C[C@H](O)CC[C@]4(C)[C@H]3CC[C@]21C)C(C)C
REMARK SMILES IDX 5 1 4 2 3 3 2 4 1 5 28 6 29 7 30 8 6 9 7 10 8 11 9 12 26 13
REMARK SMILES IDX 10 14 11 15 25 16 27 17 12 18 24 19 23 20 13 21 21 22 14 23
REMARK SMILES IDX 15 24 20 25 22 26 16 27 19 28 17 29 18 30
REMARK H PARENT 18 31
REMARK Flexibility Score: inf
ROOT
ATOM      1  C   UNL     1      17.235   0.723  19.972  1.00  0.00     0.004 C 
ENDROOT
BRANCH   1   2
ATOM      2  C   UNL     1      16.269   0.530  21.163  1.00  0.00     0.004 C 
BRANCH   2   3
ATOM      3  C   UNL     1      16.593  -0.717  22.041  1.00  0.00    -0.009 C 
BRANCH   3   4
ATOM      4  C   UNL     1      16.615  -2.034  21.207  1.00  0.00     0.000 C 
ATOM      5  C   UNL     1      15.240  -2.476  20.700  1.00  0.00     0.004 C 
ENDBRANCH   3   4
BRANCH   3   6
ATOM      6  C   UNL     1      17.940  -0.554  22.824  1.00  0.00    -0.014 C 
ATOM      7  C   UNL     1      18.539  -1.902  23.263  1.00  0.00     0.007 C 
ATOM      8  C   UNL     1      17.830   0.400  24.025  1.00  0.00     0.007 C 
ENDBRANCH   3   6
ENDBRANCH   2   3
ENDBRANCH   1   2
BRANCH   1   9
ATOM      9  C   UNL     1      17.625   2.213  19.711  1.00  0.00    -0.011 C 
ATOM     10  C   UNL     1      16.683   3.125  20.539  1.00  0.00     0.008 C 
BRANCH   9  11
ATOM     11  C   UNL     1      19.147   2.522  19.984  1.00  0.00    -0.002 C 
ATOM     12  C   UNL     1      19.471   2.653  21.504  1.00  0.00     0.005 C 
ATOM     13  C   UNL     1      20.224   1.499  19.450  1.00  0.00    -0.026 C 
ATOM     14  C   UNL     1      20.654   1.738  21.809  1.00  0.00     0.005 C 
ATOM     15  C   UNL     1      20.587   0.700  20.706  1.00  0.00    -0.001 C 
ATOM     16  C   UNL     1      19.788   0.455  18.402  1.00  0.00     0.007 C 
ATOM     17  C   UNL     1      21.417   2.331  18.880  1.00  0.00     0.012 C 
ATOM     18  C   UNL     1      21.825  -0.215  20.551  1.00  0.00     0.000 C 
ATOM     19  C   UNL     1      20.910  -0.548  18.070  1.00  0.00     0.005 C 
ATOM     20  C   UNL     1      21.727  -1.147  19.279  1.00  0.00     0.003 C 
ATOM     21  C   UNL     1      22.070  -0.979  21.876  1.00  0.00     0.031 C 
ATOM     22  C   UNL     1      21.424  -2.670  19.574  1.00  0.00    -0.008 C 
ATOM     23  C   UNL     1      22.706  -2.320  21.701  1.00  0.00    -0.027 C 
ATOM     24  C   UNL     1      22.344  -3.154  20.711  1.00  0.00    -0.065 C 
ATOM     25  C   UNL     1      21.652  -3.508  18.248  1.00  0.00     0.014 C 
ATOM     26  C   UNL     1      19.959  -2.854  20.038  1.00  0.00     0.016 C 
ATOM     27  C   UNL     1      22.842  -4.582  20.810  1.00  0.00     0.063 C 
ATOM     28  C   UNL     1      22.572  -4.731  18.353  1.00  0.00     0.033 C 
ATOM     29  C   UNL     1      22.360  -5.469  19.663  1.00  0.00     0.118 C 
BRANCH  29  30
ATOM     30  O   UNL     1      23.093  -6.665  19.639  1.00  0.00    -0.393 OA
ATOM     31  H   UNL     1      23.772  -6.600  20.362  1.00  0.00     0.210 HD
ENDBRANCH  29  30
ENDBRANCH   9  11
ENDBRANCH   1   9
TORSDOF 7
ENDMDL
MODEL 2
REMARK VINA RESULT:    -5.046      1.002      1.766
REMARK INTER + INTRA:          -9.153
REMARK INTER:                  -6.445
REMARK INTRA:                  -2.708
REMARK UNBOUND:                -2.189
REMARK SMILES CC[C@H](CC[C@@H](C)[C@H]1CC[C@@H]2[C@H]3CC=C4C[C@H](O)CC[C@]4(C)[C@H]3CC[C@]21C)C(C)C
REMARK SMILES IDX 5 1 4 2 3 3 2 4 1 5 28 6 29 7 30 8 6 9 7 10 8 11 9 12 26 13
REMARK SMILES IDX 10 14 11 15 25 16 27 17 12 18 24 19 23 20 13 21 21 22 14 23
REMARK SMILES IDX 15 24 20 25 22 26 16 27 19 28 17 29 18 30
REMARK H PARENT 18 31
REMARK Flexibility Score: inf
ROOT
ATOM      1  C   UNL     1      17.705   1.024  20.316  1.00  0.00     0.004 C 
ENDROOT
BRANCH   1   2
ATOM      2  C   UNL     1      17.467  -0.470  20.003  1.00  0.00     0.004 C 
BRANCH   2   3
ATOM      3  C   UNL     1      17.737  -1.419  21.211  1.00  0.00    -0.009 C 
BRANCH   3   4
ATOM      4  C   UNL     1      18.246  -0.644  22.464  1.00  0.00     0.000 C 
ATOM      5  C   UNL     1      19.357  -1.364  23.235  1.00  0.00     0.004 C 
ENDBRANCH   3   4
BRANCH   3   6
ATOM      6  C   UNL     1      16.478  -2.273  21.583  1.00  0.00    -0.014 C 
ATOM      7  C   UNL     1      15.532  -2.489  20.388  1.00  0.00     0.007 C 
ATOM      8  C   UNL     1      15.701  -1.715  22.787  1.00  0.00     0.007 C 
ENDBRANCH   3   6
ENDBRANCH   2   3
ENDBRANCH   1   2
BRANCH   1   9
ATOM      9  C   UNL     1      18.438   1.799  19.173  1.00  0.00    -0.011 C 
ATOM     10  C   UNL     1      17.680   3.125  18.908  1.00  0.00     0.008 C 
BRANCH   9  11
ATOM     11  C   UNL     1      19.972   2.033  19.456  1.00  0.00    -0.002 C 
ATOM     12  C   UNL     1      20.273   2.287  20.965  1.00  0.00     0.005 C 
ATOM     13  C   UNL     1      20.988   0.896  19.049  1.00  0.00    -0.026 C 
ATOM     14  C   UNL     1      21.386   1.331  21.385  1.00  0.00     0.005 C 
ATOM     15  C   UNL     1      21.272   0.199  20.384  1.00  0.00    -0.001 C 
ATOM     16  C   UNL     1      20.504  -0.212  18.092  1.00  0.00     0.007 C 
ATOM     17  C   UNL     1      22.245   1.592  18.435  1.00  0.00     0.012 C 
ATOM     18  C   UNL     1      22.449  -0.804  20.348  1.00  0.00     0.000 C 
ATOM     19  C   UNL     1      21.564  -1.313  17.886  1.00  0.00     0.005 C 
ATOM     20  C   UNL     1      22.315  -1.845  19.167  1.00  0.00     0.003 C 
ATOM     21  C   UNL     1      22.616  -1.453  21.745  1.00  0.00     0.031 C 
ATOM     22  C   UNL     1      21.904  -3.310  19.595  1.00  0.00    -0.008 C 
ATOM     23  C   UNL     1      23.165  -2.843  21.713  1.00  0.00    -0.027 C 
ATOM     24  C   UNL     1      22.768  -3.742  20.796  1.00  0.00    -0.065 C 
ATOM     25  C   UNL     1      22.103  -4.284  18.360  1.00  0.00     0.014 C 
ATOM     26  C   UNL     1      20.421  -3.355  20.036  1.00  0.00     0.016 C 
ATOM     27  C   UNL     1      23.167  -5.184  21.042  1.00  0.00     0.063 C 
ATOM     28  C   UNL     1      22.936  -5.548  18.603  1.00  0.00     0.033 C 
ATOM     29  C   UNL     1      22.649  -6.142  19.971  1.00  0.00     0.118 C 
BRANCH  29  30
ATOM     30  O   UNL     1      23.302  -7.380  20.079  1.00  0.00    -0.393 OA
ATOM     31  H   UNL     1      24.067  -7.249  20.700  1.00  0.00     0.210 HD
ENDBRANCH  29  30
ENDBRANCH   9  11
ENDBRANCH   1   9
TORSDOF 7
ENDMDL
MODEL 3
REMARK VINA RESULT:    -4.952      1.959      4.520
REMARK INTER + INTRA:          -9.023
REMARK INTER:                  -5.848
REMARK INTRA:                  -3.175
REMARK UNBOUND:                -2.189
REMARK SMILES CC[C@H](CC[C@@H](C)[C@H]1CC[C@@H]2[C@H]3CC=C4C[C@H](O)CC[C@]4(C)[C@H]3CC[C@]21C)C(C)C
REMARK SMILES IDX 5 1 4 2 3 3 2 4 1 5 28 6 29 7 30 8 6 9 7 10 8 11 9 12 26 13
REMARK SMILES IDX 10 14 11 15 25 16 27 17 12 18 24 19 23 20 13 21 21 22 14 23
REMARK SMILES IDX 15 24 20 25 22 26 16 27 19 28 17 29 18 30
REMARK H PARENT 18 31
REMARK Flexibility Score: inf
ROOT
ATOM      1  C   UNL     1      16.214   0.769  24.812  1.00  0.00     0.004 C 
ENDROOT
BRANCH   1   2
ATOM      2  C   UNL     1      17.598   1.368  25.144  1.00  0.00     0.004 C 
BRANCH   2   3
ATOM      3  C   UNL     1      18.754   0.816  24.254  1.00  0.00    -0.009 C 
BRANCH   3   4
ATOM      4  C   UNL     1      19.446   1.939  23.424  1.00  0.00     0.000 C 
ATOM      5  C   UNL     1      18.533   3.124  23.095  1.00  0.00     0.004 C 
ENDBRANCH   3   4
BRANCH   3   6
ATOM      6  C   UNL     1      19.822   0.034  25.093  1.00  0.00    -0.014 C 
ATOM      7  C   UNL     1      21.253   0.550  24.863  1.00  0.00     0.007 C 
ATOM      8  C   UNL     1      19.761  -1.488  24.881  1.00  0.00     0.007 C 
ENDBRANCH   3   6
ENDBRANCH   2   3
ENDBRANCH   1   2
BRANCH   1   9
ATOM      9  C   UNL     1      16.282  -0.586  24.036  1.00  0.00    -0.011 C 
ATOM     10  C   UNL     1      15.461  -1.646  24.815  1.00  0.00     0.008 C 
BRANCH   9  11
ATOM     11  C   UNL     1      15.832  -0.471  22.528  1.00  0.00    -0.002 C 
ATOM     12  C   UNL     1      15.634   1.007  22.072  1.00  0.00     0.005 C 
ATOM     13  C   UNL     1      16.770  -1.091  21.420  1.00  0.00    -0.026 C 
ATOM     14  C   UNL     1      16.431   1.209  20.787  1.00  0.00     0.005 C 
ATOM     15  C   UNL     1      17.500   0.136  20.865  1.00  0.00    -0.001 C 
ATOM     16  C   UNL     1      17.875  -2.073  21.860  1.00  0.00     0.007 C 
ATOM     17  C   UNL     1      15.850  -1.790  20.369  1.00  0.00     0.012 C 
ATOM     18  C   UNL     1      18.305  -0.125  19.571  1.00  0.00     0.000 C 
ATOM     19  C   UNL     1      18.783  -2.496  20.688  1.00  0.00     0.005 C 
ATOM     20  C   UNL     1      19.275  -1.364  19.706  1.00  0.00     0.003 C 
ATOM     21  C   UNL     1      19.009   1.183  19.129  1.00  0.00     0.031 C 
ATOM     22  C   UNL     1      20.811  -1.014  19.840  1.00  0.00    -0.008 C 
ATOM     23  C   UNL     1      20.292   0.969  18.394  1.00  0.00    -0.027 C 
ATOM     24  C   UNL     1      21.181   0.034  18.773  1.00  0.00    -0.065 C 
ATOM     25  C   UNL     1      21.660  -2.342  19.666  1.00  0.00     0.014 C 
ATOM     26  C   UNL     1      21.112  -0.404  21.230  1.00  0.00     0.016 C 
ATOM     27  C   UNL     1      22.556   0.108  18.139  1.00  0.00     0.063 C 
ATOM     28  C   UNL     1      22.792  -2.308  18.633  1.00  0.00     0.033 C 
ATOM     29  C   UNL     1      23.512  -0.970  18.649  1.00  0.00     0.118 C 
BRANCH  29  30
ATOM     30  O   UNL     1      24.638  -1.046  17.815  1.00  0.00    -0.393 OA
ATOM     31  H   UNL     1      25.383  -0.597  18.296  1.00  0.00     0.210 HD
ENDBRANCH  29  30
ENDBRANCH   9  11
ENDBRANCH   1   9
TORSDOF 7
ENDMDL
MODEL 4
REMARK VINA RESULT:    -4.830      1.555      3.419
REMARK INTER + INTRA:          -8.855
REMARK INTER:                  -6.314
REMARK INTRA:                  -2.541
REMARK UNBOUND:                -2.189
REMARK SMILES CC[C@H](CC[C@@H](C)[C@H]1CC[C@@H]2[C@H]3CC=C4C[C@H](O)CC[C@]4(C)[C@H]3CC[C@]21C)C(C)C
REMARK SMILES IDX 5 1 4 2 3 3 2 4 1 5 28 6 29 7 30 8 6 9 7 10 8 11 9 12 26 13
REMARK SMILES IDX 10 14 11 15 25 16 27 17 12 18 24 19 23 20 13 21 21 22 14 23
REMARK SMILES IDX 15 24 20 25 22 26 16 27 19 28 17 29 18 30
REMARK H PARENT 18 31
REMARK Flexibility Score: inf
ROOT
ATOM      1  C   UNL     1      16.899   0.895  22.622  1.00  0.00     0.004 C 
ENDROOT
BRANCH   1   2
ATOM      2  C   UNL     1      16.403   1.067  21.168  1.00  0.00     0.004 C 
BRANCH   2   3
ATOM      3  C   UNL     1      16.794  -0.111  20.225  1.00  0.00    -0.009 C 
BRANCH   3   4
ATOM      4  C   UNL     1      18.252   0.022  19.691  1.00  0.00     0.000 C 
ATOM      5  C   UNL     1      18.423   1.077  18.594  1.00  0.00     0.004 C 
ENDBRANCH   3   4
BRANCH   3   6
ATOM      6  C   UNL     1      16.598  -1.506  20.910  1.00  0.00    -0.014 C 
ATOM      7  C   UNL     1      17.635  -2.546  20.449  1.00  0.00     0.007 C 
ATOM      8  C   UNL     1      15.173  -2.063  20.753  1.00  0.00     0.007 C 
ENDBRANCH   3   6
ENDBRANCH   2   3
ENDBRANCH   1   2
BRANCH   1   9
ATOM      9  C   UNL     1      18.428   1.162  22.802  1.00  0.00    -0.011 C 
ATOM     10  C   UNL     1      18.627   2.641  23.222  1.00  0.00     0.008 C 
BRANCH   9  11
ATOM     11  C   UNL     1      19.128   0.159  23.798  1.00  0.00    -0.002 C 
ATOM     12  C   UNL     1      18.183  -0.997  24.250  1.00  0.00     0.005 C 
ATOM     13  C   UNL     1      20.436  -0.582  23.315  1.00  0.00    -0.026 C 
ATOM     14  C   UNL     1      18.915  -2.315  24.016  1.00  0.00     0.005 C 
ATOM     15  C   UNL     1      19.918  -1.972  22.931  1.00  0.00    -0.001 C 
ATOM     16  C   UNL     1      21.163  -0.046  22.065  1.00  0.00     0.007 C 
ATOM     17  C   UNL     1      21.431  -0.604  24.519  1.00  0.00     0.012 C 
ATOM     18  C   UNL     1      21.024  -3.019  22.664  1.00  0.00     0.000 C 
ATOM     19  C   UNL     1      22.345  -0.942  21.646  1.00  0.00     0.005 C 
ATOM     20  C   UNL     1      22.107  -2.501  21.638  1.00  0.00     0.003 C 
ATOM     21  C   UNL     1      20.372  -4.368  22.266  1.00  0.00     0.031 C 
ATOM     22  C   UNL     1      22.034  -3.137  20.193  1.00  0.00    -0.008 C 
ATOM     23  C   UNL     1      21.204  -5.203  21.348  1.00  0.00    -0.027 C 
ATOM     24  C   UNL     1      21.890  -4.666  20.324  1.00  0.00    -0.065 C 
ATOM     25  C   UNL     1      23.345  -2.746  19.390  1.00  0.00     0.014 C 
ATOM     26  C   UNL     1      20.799  -2.607  19.425  1.00  0.00     0.016 C 
ATOM     27  C   UNL     1      22.451  -5.633  19.301  1.00  0.00     0.063 C 
ATOM     28  C   UNL     1      24.125  -3.895  18.740  1.00  0.00     0.033 C 
ATOM     29  C   UNL     1      23.187  -4.937  18.156  1.00  0.00     0.118 C 
BRANCH  29  30
ATOM     30  O   UNL     1      23.937  -5.874  17.429  1.00  0.00    -0.393 OA
ATOM     31  H   UNL     1      23.836  -6.747  17.893  1.00  0.00     0.210 HD
ENDBRANCH  29  30
ENDBRANCH   9  11
ENDBRANCH   1   9
TORSDOF 7
ENDMDL
MODEL 5
REMARK VINA RESULT:    -4.807      1.502      2.882
REMARK INTER + INTRA:          -8.823
REMARK INTER:                  -7.008
REMARK INTRA:                  -1.815
REMARK UNBOUND:                -2.189
REMARK SMILES CC[C@H](CC[C@@H](C)[C@H]1CC[C@@H]2[C@H]3CC=C4C[C@H](O)CC[C@]4(C)[C@H]3CC[C@]21C)C(C)C
REMARK SMILES IDX 5 1 4 2 3 3 2 4 1 5 28 6 29 7 30 8 6 9 7 10 8 11 9 12 26 13
REMARK SMILES IDX 10 14 11 15 25 16 27 17 12 18 24 19 23 20 13 21 21 22 14 23
REMARK SMILES IDX 15 24 20 25 22 26 16 27 19 28 17 29 18 30
REMARK H PARENT 18 31
REMARK Flexibility Score: inf
ROOT
ATOM      1  C   UNL     1      19.406   0.382  18.747  1.00  0.00     0.004 C 
ENDROOT
BRANCH   1   2
ATOM      2  C   UNL     1      17.963   0.776  19.134  1.00  0.00     0.004 C 
BRANCH   2   3
ATOM      3  C   UNL     1      17.443   0.075  20.427  1.00  0.00    -0.009 C 
BRANCH   3   4
ATOM      4  C   UNL     1      16.289   0.873  21.105  1.00  0.00     0.000 C 
ATOM      5  C   UNL     1      16.316   2.377  20.818  1.00  0.00     0.004 C 
ENDBRANCH   3   4
BRANCH   3   6
ATOM      6  C   UNL     1      16.990  -1.400  20.157  1.00  0.00    -0.014 C 
ATOM      7  C   UNL     1      15.567  -1.688  20.667  1.00  0.00     0.007 C 
ATOM      8  C   UNL     1      17.977  -2.445  20.702  1.00  0.00     0.007 C 
ENDBRANCH   3   6
ENDBRANCH   2   3
ENDBRANCH   1   2
BRANCH   1   9
ATOM      9  C   UNL     1      20.473   1.464  19.109  1.00  0.00    -0.011 C 
ATOM     10  C   UNL     1      19.759   2.831  19.270  1.00  0.00     0.008 C 
BRANCH   9  11
ATOM     11  C   UNL     1      21.344   1.092  20.371  1.00  0.00    -0.002 C 
ATOM     12  C   UNL     1      20.475   0.674  21.597  1.00  0.00     0.005 C 
ATOM     13  C   UNL     1      22.398  -0.075  20.233  1.00  0.00    -0.026 C 
ATOM     14  C   UNL     1      21.004  -0.663  22.108  1.00  0.00     0.005 C 
ATOM     15  C   UNL     1      21.683  -1.260  20.891  1.00  0.00    -0.001 C 
ATOM     16  C   UNL     1      22.783  -0.552  18.818  1.00  0.00     0.007 C 
ATOM     17  C   UNL     1      23.688   0.369  20.994  1.00  0.00     0.012 C 
ATOM     18  C   UNL     1      22.581  -2.493  21.143  1.00  0.00     0.000 C 
ATOM     19  C   UNL     1      23.724  -1.773  18.846  1.00  0.00     0.005 C 
ATOM     20  C   UNL     1      23.369  -2.938  19.848  1.00  0.00     0.003 C 
ATOM     21  C   UNL     1      21.737  -3.622  21.788  1.00  0.00     0.031 C 
ATOM     22  C   UNL     1      22.840  -4.254  19.149  1.00  0.00    -0.008 C 
ATOM     23  C   UNL     1      22.207  -5.002  21.458  1.00  0.00    -0.027 C 
ATOM     24  C   UNL     1      22.616  -5.337  20.222  1.00  0.00    -0.065 C 
ATOM     25  C   UNL     1      23.898  -4.723  18.065  1.00  0.00     0.014 C 
ATOM     26  C   UNL     1      21.485  -3.992  18.448  1.00  0.00     0.016 C 
ATOM     27  C   UNL     1      22.787  -6.816  19.941  1.00  0.00     0.063 C 
ATOM     28  C   UNL     1      24.368  -6.180  18.144  1.00  0.00     0.033 C 
ATOM     29  C   UNL     1      23.223  -7.110  18.506  1.00  0.00     0.118 C 
BRANCH  29  30
ATOM     30  O   UNL     1      23.660  -8.439  18.400  1.00  0.00    -0.393 OA
ATOM     31  H   UNL     1      23.013  -8.908  17.809  1.00  0.00     0.210 HD
ENDBRANCH  29  30
ENDBRANCH   9  11
ENDBRANCH   1   9
TORSDOF 7
ENDMDL
MODEL 6
REMARK VINA RESULT:    -4.786      1.687      4.273
REMARK INTER + INTRA:          -8.794
REMARK INTER:                  -5.603
REMARK INTRA:                  -3.192
REMARK UNBOUND:                -2.189
REMARK SMILES CC[C@H](CC[C@@H](C)[C@H]1CC[C@@H]2[C@H]3CC=C4C[C@H](O)CC[C@]4(C)[C@H]3CC[C@]21C)C(C)C
REMARK SMILES IDX 5 1 4 2 3 3 2 4 1 5 28 6 29 7 30 8 6 9 7 10 8 11 9 12 26 13
REMARK SMILES IDX 10 14 11 15 25 16 27 17 12 18 24 19 23 20 13 21 21 22 14 23
REMARK SMILES IDX 15 24 20 25 22 26 16 27 19 28 17 29 18 30
REMARK H PARENT 18 31
REMARK Flexibility Score: inf
ROOT
ATOM      1  C   UNL     1      21.243   3.094  21.002  1.00  0.00     0.004 C 
ENDROOT
BRANCH   1   2
ATOM      2  C   UNL     1      22.656   2.549  21.306  1.00  0.00     0.004 C 
BRANCH   2   3
ATOM      3  C   UNL     1      22.701   1.008  21.540  1.00  0.00    -0.009 C 
BRANCH   3   4
ATOM      4  C   UNL     1      23.546   0.272  20.457  1.00  0.00     0.000 C 
ATOM      5  C   UNL     1      23.673   1.039  19.137  1.00  0.00     0.004 C 
ENDBRANCH   3   4
BRANCH   3   6
ATOM      6  C   UNL     1      23.228   0.644  22.970  1.00  0.00    -0.014 C 
ATOM      7  C   UNL     1      24.475  -0.258  22.933  1.00  0.00     0.007 C 
ATOM      8  C   UNL     1      22.148   0.028  23.875  1.00  0.00     0.007 C 
ENDBRANCH   3   6
ENDBRANCH   2   3
ENDBRANCH   1   2
BRANCH   1   9
ATOM      9  C   UNL     1      20.088   2.173  21.515  1.00  0.00    -0.011 C 
ATOM     10  C   UNL     1      19.156   3.010  22.428  1.00  0.00     0.008 C 
BRANCH   9  11
ATOM     11  C   UNL     1      19.298   1.450  20.356  1.00  0.00    -0.002 C 
ATOM     12  C   UNL     1      19.963   1.651  18.960  1.00  0.00     0.005 C 
ATOM     13  C   UNL     1      19.087  -0.111  20.458  1.00  0.00    -0.026 C 
ATOM     14  C   UNL     1      20.131   0.276  18.321  1.00  0.00     0.005 C 
ATOM     15  C   UNL     1      20.158  -0.662  19.512  1.00  0.00    -0.001 C 
ATOM     16  C   UNL     1      19.335  -0.797  21.817  1.00  0.00     0.007 C 
ATOM     17  C   UNL     1      17.630  -0.416  19.987  1.00  0.00     0.012 C 
ATOM     18  C   UNL     1      20.025  -2.171  19.198  1.00  0.00     0.000 C 
ATOM     19  C   UNL     1      19.210  -2.332  21.730  1.00  0.00     0.005 C 
ATOM     20  C   UNL     1      19.901  -3.048  20.507  1.00  0.00     0.003 C 
ATOM     21  C   UNL     1      21.175  -2.605  18.255  1.00  0.00     0.031 C 
ATOM     22  C   UNL     1      21.186  -3.885  20.889  1.00  0.00    -0.008 C 
ATOM     23  C   UNL     1      21.597  -4.029  18.419  1.00  0.00    -0.027 C 
ATOM     24  C   UNL     1      21.711  -4.602  19.630  1.00  0.00    -0.065 C 
ATOM     25  C   UNL     1      20.808  -4.920  22.029  1.00  0.00     0.014 C 
ATOM     26  C   UNL     1      22.309  -2.955  21.408  1.00  0.00     0.016 C 
ATOM     27  C   UNL     1      22.420  -5.940  19.684  1.00  0.00     0.063 C 
ATOM     28  C   UNL     1      21.181  -6.386  21.782  1.00  0.00     0.033 C 
ATOM     29  C   UNL     1      22.533  -6.503  21.100  1.00  0.00     0.118 C 
BRANCH  29  30
ATOM     30  O   UNL     1      22.906  -7.856  21.050  1.00  0.00    -0.393 OA
ATOM     31  H   UNL     1      22.382  -8.272  20.316  1.00  0.00     0.210 HD
ENDBRANCH  29  30
ENDBRANCH   9  11
ENDBRANCH   1   9
TORSDOF 7
ENDMDL
MODEL 7
REMARK VINA RESULT:    -4.640      2.474      6.023
REMARK INTER + INTRA:          -8.593
REMARK INTER:                  -5.523
REMARK INTRA:                  -3.070
REMARK UNBOUND:                -2.189
REMARK SMILES CC[C@H](CC[C@@H](C)[C@H]1CC[C@@H]2[C@H]3CC=C4C[C@H](O)CC[C@]4(C)[C@H]3CC[C@]21C)C(C)C
REMARK SMILES IDX 5 1 4 2 3 3 2 4 1 5 28 6 29 7 30 8 6 9 7 10 8 11 9 12 26 13
REMARK SMILES IDX 10 14 11 15 25 16 27 17 12 18 24 19 23 20 13 21 21 22 14 23
REMARK SMILES IDX 15 24 20 25 22 26 16 27 19 28 17 29 18 30
REMARK H PARENT 18 31
REMARK Flexibility Score: inf
ROOT
ATOM      1  C   UNL     1      23.893  -1.110  18.658  1.00  0.00     0.004 C 
ENDROOT
BRANCH   1   2
ATOM      2  C   UNL     1      23.482  -2.509  19.169  1.00  0.00     0.004 C 
BRANCH   2   3
ATOM      3  C   UNL     1      22.288  -2.488  20.172  1.00  0.00    -0.009 C 
BRANCH   3   4
ATOM      4  C   UNL     1      20.965  -2.994  19.522  1.00  0.00     0.000 C 
ATOM      5  C   UNL     1      21.107  -3.405  18.053  1.00  0.00     0.004 C 
ENDBRANCH   3   4
BRANCH   3   6
ATOM      6  C   UNL     1      22.595  -3.307  21.472  1.00  0.00    -0.014 C 
ATOM      7  C   UNL     1      21.561  -4.416  21.734  1.00  0.00     0.007 C 
ATOM      8  C   UNL     1      22.761  -2.423  22.719  1.00  0.00     0.007 C 
ENDBRANCH   3   6
ENDBRANCH   2   3
ENDBRANCH   1   2
BRANCH   1   9
ATOM      9  C   UNL     1      23.563   0.047  19.655  1.00  0.00    -0.011 C 
ATOM     10  C   UNL     1      24.868   0.827  19.959  1.00  0.00     0.008 C 
BRANCH   9  11
ATOM     11  C   UNL     1      22.403   0.994  19.157  1.00  0.00    -0.002 C 
ATOM     12  C   UNL     1      21.685   0.446  17.886  1.00  0.00     0.005 C 
ATOM     13  C   UNL     1      21.222   1.316  20.155  1.00  0.00    -0.026 C 
ATOM     14  C   UNL     1      20.184   0.445  18.162  1.00  0.00     0.005 C 
ATOM     15  C   UNL     1      20.107   0.382  19.675  1.00  0.00    -0.001 C 
ATOM     16  C   UNL     1      21.420   0.999  21.651  1.00  0.00     0.007 C 
ATOM     17  C   UNL     1      20.874   2.830  19.992  1.00  0.00     0.012 C 
ATOM     18  C   UNL     1      18.721   0.661  20.302  1.00  0.00     0.000 C 
ATOM     19  C   UNL     1      20.143   1.252  22.477  1.00  0.00     0.005 C 
ATOM     20  C   UNL     1      18.778   0.733  21.879  1.00  0.00     0.003 C 
ATOM     21  C   UNL     1      17.692  -0.360  19.754  1.00  0.00     0.031 C 
ATOM     22  C   UNL     1      18.170  -0.512  22.640  1.00  0.00    -0.008 C 
ATOM     23  C   UNL     1      16.584  -0.683  20.704  1.00  0.00    -0.027 C 
ATOM     24  C   UNL     1      16.804  -0.862  22.018  1.00  0.00    -0.065 C 
ATOM     25  C   UNL     1      18.033  -0.160  24.179  1.00  0.00     0.014 C 
ATOM     26  C   UNL     1      19.092  -1.747  22.488  1.00  0.00     0.016 C 
ATOM     27  C   UNL     1      15.670  -1.467  22.821  1.00  0.00     0.063 C 
ATOM     28  C   UNL     1      16.660  -0.394  24.821  1.00  0.00     0.033 C 
ATOM     29  C   UNL     1      16.015  -1.665  24.296  1.00  0.00     0.118 C 
BRANCH  29  30
ATOM     30  O   UNL     1      14.848  -1.925  25.031  1.00  0.00    -0.393 OA
ATOM     31  H   UNL     1      14.305  -2.560  24.494  1.00  0.00     0.210 HD
ENDBRANCH  29  30
ENDBRANCH   9  11
ENDBRANCH   1   9
TORSDOF 7
ENDMDL
MODEL 8
REMARK VINA RESULT:    -4.554      1.631      2.975
REMARK INTER + INTRA:          -8.474
REMARK INTER:                  -6.127
REMARK INTRA:                  -2.347
REMARK UNBOUND:                -2.189
REMARK SMILES CC[C@H](CC[C@@H](C)[C@H]1CC[C@@H]2[C@H]3CC=C4C[C@H](O)CC[C@]4(C)[C@H]3CC[C@]21C)C(C)C
REMARK SMILES IDX 5 1 4 2 3 3 2 4 1 5 28 6 29 7 30 8 6 9 7 10 8 11 9 12 26 13
REMARK SMILES IDX 10 14 11 15 25 16 27 17 12 18 24 19 23 20 13 21 21 22 14 23
REMARK SMILES IDX 15 24 20 25 22 26 16 27 19 28 17 29 18 30
REMARK H PARENT 18 31
REMARK Flexibility Score: inf
ROOT
ATOM      1  C   UNL     1      18.547  -0.422  20.311  1.00  0.00     0.004 C 
ENDROOT
BRANCH   1   2
ATOM      2  C   UNL     1      18.323  -1.950  20.346  1.00  0.00     0.004 C 
BRANCH   2   3
ATOM      3  C   UNL     1      17.841  -2.486  21.729  1.00  0.00    -0.009 C 
BRANCH   3   4
ATOM      4  C   UNL     1      18.537  -1.756  22.917  1.00  0.00     0.000 C 
ATOM      5  C   UNL     1      19.839  -2.417  23.381  1.00  0.00     0.004 C 
ENDBRANCH   3   4
BRANCH   3   6
ATOM      6  C   UNL     1      16.285  -2.401  21.885  1.00  0.00    -0.014 C 
ATOM      7  C   UNL     1      15.553  -2.357  20.532  1.00  0.00     0.007 C 
ATOM      8  C   UNL     1      15.828  -1.236  22.779  1.00  0.00     0.007 C 
ENDBRANCH   3   6
ENDBRANCH   2   3
ENDBRANCH   1   2
BRANCH   1   9
ATOM      9  C   UNL     1      19.317   0.074  19.045  1.00  0.00    -0.011 C 
ATOM     10  C   UNL     1      18.629   1.360  18.518  1.00  0.00     0.008 C 
BRANCH   9  11
ATOM     11  C   UNL     1      20.862   0.280  19.289  1.00  0.00    -0.002 C 
ATOM     12  C   UNL     1      21.178   0.819  20.718  1.00  0.00     0.005 C 
ATOM     13  C   UNL     1      21.816  -0.968  19.131  1.00  0.00    -0.026 C 
ATOM     14  C   UNL     1      22.238  -0.088  21.334  1.00  0.00     0.005 C 
ATOM     15  C   UNL     1      22.063  -1.393  20.583  1.00  0.00    -0.001 C 
ATOM     16  C   UNL     1      21.272  -2.221  18.415  1.00  0.00     0.007 C 
ATOM     17  C   UNL     1      23.107  -0.479  18.402  1.00  0.00     0.012 C 
ATOM     18  C   UNL     1      23.184  -2.443  20.763  1.00  0.00     0.000 C 
ATOM     19  C   UNL     1      22.270  -3.395  18.447  1.00  0.00     0.005 C 
ATOM     20  C   UNL     1      22.993  -3.694  19.817  1.00  0.00     0.003 C 
ATOM     21  C   UNL     1      23.318  -2.802  22.264  1.00  0.00     0.031 C 
ATOM     22  C   UNL     1      22.506  -5.018  20.530  1.00  0.00    -0.008 C 
ATOM     23  C   UNL     1      23.791  -4.196  22.520  1.00  0.00    -0.027 C 
ATOM     24  C   UNL     1      23.346  -5.241  21.802  1.00  0.00    -0.065 C 
ATOM     25  C   UNL     1      22.650  -6.232  19.520  1.00  0.00     0.014 C 
ATOM     26  C   UNL     1      21.023  -4.894  20.956  1.00  0.00     0.016 C 
ATOM     27  C   UNL     1      23.668  -6.622  22.339  1.00  0.00     0.063 C 
ATOM     28  C   UNL     1      23.415  -7.461  20.023  1.00  0.00     0.033 C 
ATOM     29  C   UNL     1      23.098  -7.750  21.480  1.00  0.00     0.118 C 
BRANCH  29  30
ATOM     30  O   UNL     1      23.684  -8.972  21.843  1.00  0.00    -0.393 OA
ATOM     31  H   UNL     1      23.432  -9.141  22.790  1.00  0.00     0.210 HD
ENDBRANCH  29  30
ENDBRANCH   9  11
ENDBRANCH   1   9
TORSDOF 7
ENDMDL
MODEL 9
REMARK VINA RESULT:    -4.407      1.885      2.893
REMARK INTER + INTRA:          -8.271
REMARK INTER:                  -5.318
REMARK INTRA:                  -2.953
REMARK UNBOUND:                -2.189
REMARK SMILES CC[C@H](CC[C@@H](C)[C@H]1CC[C@@H]2[C@H]3CC=C4C[C@H](O)CC[C@]4(C)[C@H]3CC[C@]21C)C(C)C
REMARK SMILES IDX 5 1 4 2 3 3 2 4 1 5 28 6 29 7 30 8 6 9 7 10 8 11 9 12 26 13
REMARK SMILES IDX 10 14 11 15 25 16 27 17 12 18 24 19 23 20 13 21 21 22 14 23
REMARK SMILES IDX 15 24 20 25 22 26 16 27 19 28 17 29 18 30
REMARK H PARENT 18 31
REMARK Flexibility Score: inf
ROOT
ATOM      1  C   UNL     1      17.648   1.766  20.518  1.00  0.00     0.004 C 
ENDROOT
BRANCH   1   2
ATOM      2  C   UNL     1      16.780   0.961  21.511  1.00  0.00     0.004 C 
BRANCH   2   3
ATOM      3  C   UNL     1      17.126  -0.559  21.562  1.00  0.00    -0.009 C 
BRANCH   3   4
ATOM      4  C   UNL     1      17.629  -1.001  22.969  1.00  0.00     0.000 C 
ATOM      5  C   UNL     1      18.077   0.158  23.865  1.00  0.00     0.004 C 
ENDBRANCH   3   4
BRANCH   3   6
ATOM      6  C   UNL     1      15.919  -1.454  21.119  1.00  0.00    -0.014 C 
ATOM      7  C   UNL     1      15.555  -2.523  22.164  1.00  0.00     0.007 C 
ATOM      8  C   UNL     1      16.120  -2.100  19.738  1.00  0.00     0.007 C 
ENDBRANCH   3   6
ENDBRANCH   2   3
ENDBRANCH   1   2
BRANCH   1   9
ATOM      9  C   UNL     1      18.551   0.876  19.605  1.00  0.00    -0.011 C 
ATOM     10  C   UNL     1      18.256   1.227  18.123  1.00  0.00     0.008 C 
BRANCH   9  11
ATOM     11  C   UNL     1      20.087   0.978  19.948  1.00  0.00    -0.002 C 
ATOM     12  C   UNL     1      20.351   1.671  21.321  1.00  0.00     0.005 C 
ATOM     13  C   UNL     1      20.924  -0.358  20.027  1.00  0.00    -0.026 C 
ATOM     14  C   UNL     1      21.272   0.764  22.131  1.00  0.00     0.005 C 
ATOM     15  C   UNL     1      21.026  -0.609  21.535  1.00  0.00    -0.001 C 
ATOM     16  C   UNL     1      20.314  -1.642  19.429  1.00  0.00     0.007 C 
ATOM     17  C   UNL     1      22.306  -0.083  19.352  1.00  0.00     0.012 C 
ATOM     18  C   UNL     1      22.025  -1.719  21.937  1.00  0.00     0.000 C 
ATOM     19  C   UNL     1      21.190  -2.884  19.690  1.00  0.00     0.005 C 
ATOM     20  C   UNL     1      21.781  -3.062  21.141  1.00  0.00     0.003 C 
ATOM     21  C   UNL     1      22.016  -1.888  23.477  1.00  0.00     0.031 C 
ATOM     22  C   UNL     1      21.118  -4.233  21.971  1.00  0.00    -0.008 C 
ATOM     23  C   UNL     1      22.333  -3.272  23.943  1.00  0.00    -0.027 C 
ATOM     24  C   UNL     1      21.840  -4.360  23.326  1.00  0.00    -0.065 C 
ATOM     25  C   UNL     1      21.216  -5.577  21.135  1.00  0.00     0.014 C 
ATOM     26  C   UNL     1      19.628  -3.926  22.253  1.00  0.00     0.016 C 
ATOM     27  C   UNL     1      21.988  -5.680  24.056  1.00  0.00     0.063 C 
ATOM     28  C   UNL     1      21.821  -6.792  21.849  1.00  0.00     0.033 C 
ATOM     29  C   UNL     1      21.375  -6.857  23.299  1.00  0.00     0.118 C 
BRANCH  29  30
ATOM     30  O   UNL     1      21.812  -8.068  23.859  1.00  0.00    -0.393 OA
ATOM     31  H   UNL     1      21.002  -8.623  24.013  1.00  0.00     0.210 HD
ENDBRANCH  29  30
ENDBRANCH   9  11
ENDBRANCH   1   9
TORSDOF 7
ENDMDL
