MODEL 1
REMARK VINA RESULT:    -3.817      0.000      0.000
REMARK INTER + INTRA:          -4.490
REMARK INTER:                  -4.374
REMARK INTRA:                  -0.115
REMARK UNBOUND:                -0.115
REMARK SMILES COc1ccc(C(C)=O)cc1O
REMARK SMILES IDX 6 1 10 2 11 3 3 4 4 5 5 6 7 7 8 8 9 9 12 10 2 12 1 13
REMARK H PARENT 12 11
REMARK Flexibility Score: inf
ROOT
ATOM      1  C   UNL     1      28.209  40.023  19.752  1.00  0.00     0.021 A 
ATOM      2  C   UNL     1      26.865  40.158  20.149  1.00  0.00     0.062 A 
ATOM      3  C   UNL     1      26.445  41.265  20.899  1.00  0.00     0.158 A 
ATOM      4  C   UNL     1      27.365  42.257  21.266  1.00  0.00     0.160 A 
ATOM      5  C   UNL     1      28.708  42.128  20.873  1.00  0.00     0.051 A 
ATOM      6  C   UNL     1      29.125  41.024  20.124  1.00  0.00     0.016 A 
ENDROOT
BRANCH   1   7
ATOM      7  C   UNL     1      28.635  38.841  18.955  1.00  0.00     0.159 C 
ATOM      8  C   UNL     1      28.729  38.884  17.459  1.00  0.00     0.093 C 
ATOM      9  O   UNL     1      28.931  37.764  19.542  1.00  0.00    -0.295 OA
ENDBRANCH   1   7
BRANCH   3  10
ATOM     10  O   UNL     1      25.112  41.387  21.285  1.00  0.00    -0.504 OA
ATOM     11  H   UNL     1      24.372  40.889  20.805  1.00  0.00     0.293 HD
ENDBRANCH   3  10
BRANCH   4  12
ATOM     12  O   UNL     1      26.906  43.351  22.017  1.00  0.00    -0.493 OA
ATOM     13  C   UNL     1      27.285  43.620  23.362  1.00  0.00     0.278 C 
ENDBRANCH   4  12
TORSDOF 3
ENDMDL
MODEL 2
REMARK VINA RESULT:    -3.756      1.607      1.714
REMARK INTER + INTRA:          -4.420
REMARK INTER:                  -4.311
REMARK INTRA:                  -0.110
REMARK UNBOUND:                -0.115
REMARK SMILES COc1ccc(C(C)=O)cc1O
REMARK SMILES IDX 6 1 10 2 11 3 3 4 4 5 5 6 7 7 8 8 9 9 12 10 2 12 1 13
REMARK H PARENT 12 11
REMARK Flexibility Score: inf
ROOT
ATOM      1  C   UNL     1      27.497  40.610  19.965  1.00  0.00     0.021 A 
ATOM      2  C   UNL     1      26.854  41.829  19.681  1.00  0.00     0.062 A 
ATOM      3  C   UNL     1      26.744  42.828  20.657  1.00  0.00     0.158 A 
ATOM      4  C   UNL     1      27.277  42.624  21.937  1.00  0.00     0.160 A 
ATOM      5  C   UNL     1      27.920  41.408  22.228  1.00  0.00     0.051 A 
ATOM      6  C   UNL     1      28.030  40.414  21.252  1.00  0.00     0.016 A 
ENDROOT
BRANCH   1   7
ATOM      7  C   UNL     1      27.605  39.561  18.915  1.00  0.00     0.159 C 
ATOM      8  C   UNL     1      28.926  38.984  18.503  1.00  0.00     0.093 C 
ATOM      9  O   UNL     1      26.562  39.135  18.347  1.00  0.00    -0.295 OA
ENDBRANCH   1   7
BRANCH   3  10
ATOM     10  O   UNL     1      26.105  44.031  20.363  1.00  0.00    -0.504 OA
ATOM     11  H   UNL     1      26.615  44.828  19.999  1.00  0.00     0.293 HD
ENDBRANCH   3  10
BRANCH   4  12
ATOM     12  O   UNL     1      27.147  43.648  22.889  1.00  0.00    -0.493 OA
ATOM     13  C   UNL     1      27.020  43.435  24.290  1.00  0.00     0.278 C 
ENDBRANCH   4  12
TORSDOF 3
ENDMDL
MODEL 3
REMARK VINA RESULT:    -3.668      1.830      4.832
REMARK INTER + INTRA:          -4.319
REMARK INTER:                  -4.223
REMARK INTRA:                  -0.096
REMARK UNBOUND:                -0.115
REMARK SMILES COc1ccc(C(C)=O)cc1O
REMARK SMILES IDX 6 1 10 2 11 3 3 4 4 5 5 6 7 7 8 8 9 9 12 10 2 12 1 13
REMARK H PARENT 12 11
REMARK Flexibility Score: inf
ROOT
ATOM      1  C   UNL     1      27.755  42.934  22.590  1.00  0.00     0.021 A 
ATOM      2  C   UNL     1      26.579  42.190  22.386  1.00  0.00     0.062 A 
ATOM      3  C   UNL     1      26.341  41.540  21.167  1.00  0.00     0.158 A 
ATOM      4  C   UNL     1      27.279  41.624  20.130  1.00  0.00     0.160 A 
ATOM      5  C   UNL     1      28.457  42.366  20.326  1.00  0.00     0.051 A 
ATOM      6  C   UNL     1      28.692  43.012  21.543  1.00  0.00     0.016 A 
ENDROOT
BRANCH   1   7
ATOM      7  C   UNL     1      27.990  43.617  23.891  1.00  0.00     0.159 C 
ATOM      8  C   UNL     1      26.915  43.741  24.927  1.00  0.00     0.093 C 
ATOM      9  O   UNL     1      29.124  44.110  24.143  1.00  0.00    -0.295 OA
ENDBRANCH   1   7
BRANCH   3  10
ATOM     10  O   UNL     1      25.171  40.806  20.979  1.00  0.00    -0.504 OA
ATOM     11  H   UNL     1      24.499  40.677  21.726  1.00  0.00     0.293 HD
ENDBRANCH   3  10
BRANCH   4  12
ATOM     12  O   UNL     1      27.006  40.959  18.924  1.00  0.00    -0.493 OA
ATOM     13  C   UNL     1      27.416  39.629  18.626  1.00  0.00     0.278 C 
ENDBRANCH   4  12
TORSDOF 3
ENDMDL
MODEL 4
REMARK VINA RESULT:    -3.644      1.715      4.420
REMARK INTER + INTRA:          -4.291
REMARK INTER:                  -4.196
REMARK INTRA:                  -0.096
REMARK UNBOUND:                -0.115
REMARK SMILES COc1ccc(C(C)=O)cc1O
REMARK SMILES IDX 6 1 10 2 11 3 3 4 4 5 5 6 7 7 8 8 9 9 12 10 2 12 1 13
REMARK H PARENT 12 11
REMARK Flexibility Score: inf
ROOT
ATOM      1  C   UNL     1      27.398  41.946  20.225  1.00  0.00     0.021 A 
ATOM      2  C   UNL     1      26.306  41.060  20.175  1.00  0.00     0.062 A 
ATOM      3  C   UNL     1      26.506  39.673  20.143  1.00  0.00     0.158 A 
ATOM      4  C   UNL     1      27.805  39.148  20.161  1.00  0.00     0.160 A 
ATOM      5  C   UNL     1      28.901  40.027  20.211  1.00  0.00     0.051 A 
ATOM      6  C   UNL     1      28.699  41.410  20.243  1.00  0.00     0.016 A 
ENDROOT
BRANCH   1   7
ATOM      7  C   UNL     1      27.166  43.415  20.259  1.00  0.00     0.159 C 
ATOM      8  C   UNL     1      26.418  44.125  19.171  1.00  0.00     0.093 C 
ATOM      9  O   UNL     1      27.605  44.096  21.226  1.00  0.00    -0.295 OA
ENDBRANCH   1   7
BRANCH   3  10
ATOM     10  O   UNL     1      25.415  38.806  20.095  1.00  0.00    -0.504 OA
ATOM     11  H   UNL     1      25.059  38.451  19.215  1.00  0.00     0.293 HD
ENDBRANCH   3  10
BRANCH   4  12
ATOM     12  O   UNL     1      27.965  37.753  20.129  1.00  0.00    -0.493 OA
ATOM     13  C   UNL     1      29.125  37.087  19.644  1.00  0.00     0.278 C 
ENDBRANCH   4  12
TORSDOF 3
ENDMDL
MODEL 5
REMARK VINA RESULT:    -3.589     14.556     15.935
REMARK INTER + INTRA:          -4.230
REMARK INTER:                  -4.111
REMARK INTRA:                  -0.118
REMARK UNBOUND:                -0.115
REMARK SMILES COc1ccc(C(C)=O)cc1O
REMARK SMILES IDX 6 1 10 2 11 3 3 4 4 5 5 6 7 7 8 8 9 9 12 10 2 12 1 13
REMARK H PARENT 12 11
REMARK Flexibility Score: inf
ROOT
ATOM      1  C   UNL     1      27.622  27.946  26.743  1.00  0.00     0.021 A 
ATOM      2  C   UNL     1      26.924  28.128  27.951  1.00  0.00     0.062 A 
ATOM      3  C   UNL     1      26.422  27.031  28.664  1.00  0.00     0.158 A 
ATOM      4  C   UNL     1      26.612  25.730  28.180  1.00  0.00     0.160 A 
ATOM      5  C   UNL     1      27.309  25.540  26.974  1.00  0.00     0.051 A 
ATOM      6  C   UNL     1      27.809  26.636  26.265  1.00  0.00     0.016 A 
ENDROOT
BRANCH   1   7
ATOM      7  C   UNL     1      28.148  29.123  26.001  1.00  0.00     0.159 C 
ATOM      8  C   UNL     1      27.633  29.500  24.644  1.00  0.00     0.093 C 
ATOM      9  O   UNL     1      29.053  29.836  26.516  1.00  0.00    -0.295 OA
ENDBRANCH   1   7
BRANCH   3  10
ATOM     10  O   UNL     1      25.732  27.226  29.860  1.00  0.00    -0.504 OA
ATOM     11  H   UNL     1      26.154  27.709  30.644  1.00  0.00     0.293 HD
ENDBRANCH   3  10
BRANCH   4  12
ATOM     12  O   UNL     1      26.095  24.656  28.922  1.00  0.00    -0.493 OA
ATOM     13  C   UNL     1      26.850  23.875  29.842  1.00  0.00     0.278 C 
ENDBRANCH   4  12
TORSDOF 3
ENDMDL
MODEL 6
REMARK VINA RESULT:    -3.470      2.330      4.344
REMARK INTER + INTRA:          -4.092
REMARK INTER:                  -4.057
REMARK INTRA:                  -0.035
REMARK UNBOUND:                -0.115
REMARK SMILES COc1ccc(C(C)=O)cc1O
REMARK SMILES IDX 6 1 10 2 11 3 3 4 4 5 5 6 7 7 8 8 9 9 12 10 2 12 1 13
REMARK H PARENT 12 11
REMARK Flexibility Score: inf
ROOT
ATOM      1  C   UNL     1      27.570  41.749  19.949  1.00  0.00     0.021 A 
ATOM      2  C   UNL     1      27.143  40.982  18.850  1.00  0.00     0.062 A 
ATOM      3  C   UNL     1      26.701  39.663  19.021  1.00  0.00     0.158 A 
ATOM      4  C   UNL     1      26.679  39.088  20.299  1.00  0.00     0.160 A 
ATOM      5  C   UNL     1      27.105  39.849  21.402  1.00  0.00     0.051 A 
ATOM      6  C   UNL     1      27.544  41.164  21.229  1.00  0.00     0.016 A 
ENDROOT
BRANCH   1   7
ATOM      7  C   UNL     1      28.035  43.148  19.747  1.00  0.00     0.159 C 
ATOM      8  C   UNL     1      27.269  44.125  18.907  1.00  0.00     0.093 C 
ATOM      9  O   UNL     1      29.103  43.538  20.294  1.00  0.00    -0.295 OA
ENDBRANCH   1   7
BRANCH   3  10
ATOM     10  O   UNL     1      26.280  38.914  17.924  1.00  0.00    -0.504 OA
ATOM     11  H   UNL     1      26.942  38.449  17.313  1.00  0.00     0.293 HD
ENDBRANCH   3  10
BRANCH   4  12
ATOM     12  O   UNL     1      26.230  37.765  20.431  1.00  0.00    -0.493 OA
ATOM     13  C   UNL     1      24.861  37.381  20.495  1.00  0.00     0.278 C 
ENDBRANCH   4  12
TORSDOF 3
ENDMDL
MODEL 7
REMARK VINA RESULT:    -3.408     13.840     15.340
REMARK INTER + INTRA:          -4.022
REMARK INTER:                  -3.916
REMARK INTRA:                  -0.106
REMARK UNBOUND:                -0.115
REMARK SMILES COc1ccc(C(C)=O)cc1O
REMARK SMILES IDX 6 1 10 2 11 3 3 4 4 5 5 6 7 7 8 8 9 9 12 10 2 12 1 13
REMARK H PARENT 12 11
REMARK Flexibility Score: inf
ROOT
ATOM      1  C   UNL     1      28.291  28.620  26.453  1.00  0.00     0.021 A 
ATOM      2  C   UNL     1      27.629  27.463  26.002  1.00  0.00     0.062 A 
ATOM      3  C   UNL     1      27.553  26.317  26.806  1.00  0.00     0.158 A 
ATOM      4  C   UNL     1      28.140  26.310  28.079  1.00  0.00     0.160 A 
ATOM      5  C   UNL     1      28.803  27.462  28.536  1.00  0.00     0.051 A 
ATOM      6  C   UNL     1      28.877  28.604  27.733  1.00  0.00     0.016 A 
ENDROOT
BRANCH   1   7
ATOM      7  C   UNL     1      28.361  29.826  25.586  1.00  0.00     0.159 C 
ATOM      8  C   UNL     1      27.560  29.943  24.324  1.00  0.00     0.093 C 
ATOM      9  O   UNL     1      29.111  30.788  25.909  1.00  0.00    -0.295 OA
ENDBRANCH   1   7
BRANCH   3  10
ATOM     10  O   UNL     1      26.893  25.179  26.347  1.00  0.00    -0.504 OA
ATOM     11  H   UNL     1      26.196  24.706  26.909  1.00  0.00     0.293 HD
ENDBRANCH   3  10
BRANCH   4  12
ATOM     12  O   UNL     1      28.042  25.145  28.855  1.00  0.00    -0.493 OA
ATOM     13  C   UNL     1      27.033  24.908  29.830  1.00  0.00     0.278 C 
ENDBRANCH   4  12
TORSDOF 3
ENDMDL
MODEL 8
REMARK VINA RESULT:    -3.355     14.149     15.572
REMARK INTER + INTRA:          -3.961
REMARK INTER:                  -3.845
REMARK INTRA:                  -0.116
REMARK UNBOUND:                -0.115
REMARK SMILES COc1ccc(C(C)=O)cc1O
REMARK SMILES IDX 6 1 10 2 11 3 3 4 4 5 5 6 7 7 8 8 9 9 12 10 2 12 1 13
REMARK H PARENT 12 11
REMARK Flexibility Score: inf
ROOT
ATOM      1  C   UNL     1      27.779  26.486  28.155  1.00  0.00     0.021 A 
ATOM      2  C   UNL     1      28.186  27.813  28.387  1.00  0.00     0.062 A 
ATOM      3  C   UNL     1      28.367  28.706  27.322  1.00  0.00     0.158 A 
ATOM      4  C   UNL     1      28.143  28.285  26.004  1.00  0.00     0.160 A 
ATOM      5  C   UNL     1      27.736  26.961  25.765  1.00  0.00     0.051 A 
ATOM      6  C   UNL     1      27.556  26.072  26.829  1.00  0.00     0.016 A 
ENDROOT
BRANCH   1   7
ATOM      7  C   UNL     1      27.591  25.553  29.298  1.00  0.00     0.159 C 
ATOM      8  C   UNL     1      28.689  24.648  29.772  1.00  0.00     0.093 C 
ATOM      9  O   UNL     1      26.482  25.511  29.898  1.00  0.00    -0.295 OA
ENDBRANCH   1   7
BRANCH   3  10
ATOM     10  O   UNL     1      28.770  30.018  27.565  1.00  0.00    -0.504 OA
ATOM     11  H   UNL     1      29.574  30.421  27.099  1.00  0.00     0.293 HD
ENDBRANCH   3  10
BRANCH   4  12
ATOM     12  O   UNL     1      28.334  29.209  24.964  1.00  0.00    -0.493 OA
ATOM     13  C   UNL     1      27.284  29.794  24.203  1.00  0.00     0.278 C 
ENDBRANCH   4  12
TORSDOF 3
ENDMDL
MODEL 9
REMARK VINA RESULT:    -3.336      1.836      2.496
REMARK INTER + INTRA:          -3.938
REMARK INTER:                  -3.851
REMARK INTRA:                  -0.087
REMARK UNBOUND:                -0.115
REMARK SMILES COc1ccc(C(C)=O)cc1O
REMARK SMILES IDX 6 1 10 2 11 3 3 4 4 5 5 6 7 7 8 8 9 9 12 10 2 12 1 13
REMARK H PARENT 12 11
REMARK Flexibility Score: inf
ROOT
ATOM      1  C   UNL     1      26.752  39.366  20.282  1.00  0.00     0.021 A 
ATOM      2  C   UNL     1      26.018  40.524  20.598  1.00  0.00     0.062 A 
ATOM      3  C   UNL     1      26.576  41.798  20.426  1.00  0.00     0.158 A 
ATOM      4  C   UNL     1      27.881  41.935  19.935  1.00  0.00     0.160 A 
ATOM      5  C   UNL     1      28.621  40.782  19.618  1.00  0.00     0.051 A 
ATOM      6  C   UNL     1      28.062  39.512  19.789  1.00  0.00     0.016 A 
ENDROOT
BRANCH   1   7
ATOM      7  C   UNL     1      26.142  38.022  20.471  1.00  0.00     0.159 C 
ATOM      8  C   UNL     1      24.701  37.754  20.158  1.00  0.00     0.093 C 
ATOM      9  O   UNL     1      26.848  37.069  20.904  1.00  0.00    -0.295 OA
ENDBRANCH   1   7
BRANCH   3  10
ATOM     10  O   UNL     1      25.838  42.937  20.742  1.00  0.00    -0.504 OA
ATOM     11  H   UNL     1      24.871  43.039  20.456  1.00  0.00     0.293 HD
ENDBRANCH   3  10
BRANCH   4  12
ATOM     12  O   UNL     1      28.406  43.228  19.776  1.00  0.00    -0.493 OA
ATOM     13  C   UNL     1      29.125  43.934  20.781  1.00  0.00     0.278 C 
ENDBRANCH   4  12
TORSDOF 3
ENDMDL
