MODEL 1
REMARK VINA RESULT:    61.594      0.000      0.000
REMARK INTER + INTRA:          80.637
REMARK INTER:                  81.399
REMARK INTRA:                  -0.762
REMARK UNBOUND:                -0.762
REMARK SMILES CC[C@@H](C=C[C@H](C)[C@@H]1CC[C@@H]2[C@@H]3CC=C4C[C@@H](O)CC[C@@]4(C)[C@H]3CC[C@@]21C)C(C)C
REMARK SMILES IDX 6 1 7 2 5 3 4 4 3 5 2 6 1 7 28 8 29 9 30 10 8 11 9 12 26 13
REMARK SMILES IDX 10 14 11 15 25 16 27 17 12 18 24 19 23 20 13 21 21 22 14 23
REMARK SMILES IDX 15 24 20 25 22 26 16 27 19 28 17 29 18 30
REMARK H PARENT 18 31
REMARK Flexibility Score: inf
ROOT
ATOM      1  C   UNL     1      18.064  14.298  28.410  1.00  0.00     0.012 C 
ATOM      2  C   UNL     1      19.562  14.061  28.171  1.00  0.00     0.012 C 
ENDROOT
BRANCH   1   3
ATOM      3  C   UNL     1      17.458  14.748  27.095  1.00  0.00    -0.028 C 
ATOM      4  C   UNL     1      17.564  16.019  26.669  1.00  0.00    -0.027 C 
BRANCH   4   5
ATOM      5  C   UNL     1      17.085  16.457  25.298  1.00  0.00     0.014 C 
BRANCH   5   6
ATOM      6  C   UNL     1      16.817  15.195  24.438  1.00  0.00     0.004 C 
ATOM      7  C   UNL     1      15.482  14.521  24.770  1.00  0.00     0.004 C 
ENDBRANCH   5   6
BRANCH   5   8
ATOM      8  C   UNL     1      18.138  17.413  24.651  1.00  0.00    -0.011 C 
ATOM      9  C   UNL     1      17.511  18.381  23.632  1.00  0.00     0.008 C 
ATOM     10  C   UNL     1      18.870  18.235  25.727  1.00  0.00     0.008 C 
ENDBRANCH   5   8
ENDBRANCH   4   5
ENDBRANCH   1   3
BRANCH   1  11
ATOM     11  C   UNL     1      17.323  13.030  28.953  1.00  0.00     0.002 C 
ATOM     12  C   UNL     1      16.031  12.736  28.159  1.00  0.00     0.005 C 
ATOM     13  C   UNL     1      16.887  13.023  30.457  1.00  0.00    -0.026 C 
ATOM     14  C   UNL     1      14.984  12.243  29.149  1.00  0.00     0.005 C 
ATOM     15  C   UNL     1      15.729  11.998  30.464  1.00  0.00    -0.001 C 
ATOM     16  C   UNL     1      16.364  14.419  30.911  1.00  0.00     0.007 C 
ATOM     17  C   UNL     1      18.033  12.526  31.376  1.00  0.00     0.012 C 
ATOM     18  C   UNL     1      14.836  12.013  31.747  1.00  0.00     0.000 C 
ATOM     19  C   UNL     1      15.615  14.373  32.242  1.00  0.00     0.005 C 
ATOM     20  C   UNL     1      14.389  13.429  32.177  1.00  0.00     0.003 C 
ATOM     21  C   UNL     1      13.595  11.127  31.564  1.00  0.00     0.031 C 
ATOM     22  C   UNL     1      13.525  13.414  33.510  1.00  0.00    -0.008 C 
ATOM     23  C   UNL     1      12.761  11.097  32.802  1.00  0.00    -0.027 C 
ATOM     24  C   UNL     1      12.664  12.145  33.646  1.00  0.00    -0.065 C 
ATOM     25  C   UNL     1      14.430  13.485  34.785  1.00  0.00     0.014 C 
ATOM     26  C   UNL     1      12.588  14.649  33.472  1.00  0.00     0.016 C 
ATOM     27  C   UNL     1      11.875  11.962  34.927  1.00  0.00     0.063 C 
ATOM     28  C   UNL     1      13.673  13.279  36.115  1.00  0.00     0.033 C 
ATOM     29  C   UNL     1      12.834  11.990  36.125  1.00  0.00     0.118 C 
BRANCH  29  30
ATOM     30  O   UNL     1      13.689  10.875  36.095  1.00  0.00    -0.393 OA
ATOM     31  H   UNL     1      13.658  10.467  36.998  1.00  0.00     0.210 HD
ENDBRANCH  29  30
ENDBRANCH   1  11
TORSDOF 6
ENDMDL
MODEL 2
REMARK VINA RESULT:    62.200      4.599      7.023
REMARK INTER + INTRA:          81.438
REMARK INTER:                  80.700
REMARK INTRA:                   0.737
REMARK UNBOUND:                -0.762
REMARK SMILES CC[C@@H](C=C[C@H](C)[C@@H]1CC[C@@H]2[C@@H]3CC=C4C[C@@H](O)CC[C@@]4(C)[C@H]3CC[C@@]21C)C(C)C
REMARK SMILES IDX 6 1 7 2 5 3 4 4 3 5 2 6 1 7 28 8 29 9 30 10 8 11 9 12 26 13
REMARK SMILES IDX 10 14 11 15 25 16 27 17 12 18 24 19 23 20 13 21 21 22 14 23
REMARK SMILES IDX 15 24 20 25 22 26 16 27 19 28 17 29 18 30
REMARK H PARENT 18 31
REMARK Flexibility Score: inf
ROOT
ATOM      1  C   UNL     1      16.245  16.059  24.238  1.00  0.00     0.012 C 
ATOM      2  C   UNL     1      16.291  16.143  22.705  1.00  0.00     0.012 C 
ENDROOT
BRANCH   1   3
ATOM      3  C   UNL     1      15.971  14.615  24.608  1.00  0.00    -0.028 C 
ATOM      4  C   UNL     1      14.855  14.255  25.265  1.00  0.00    -0.027 C 
BRANCH   4   5
ATOM      5  C   UNL     1      14.497  12.805  25.524  1.00  0.00     0.014 C 
BRANCH   5   6
ATOM      6  C   UNL     1      15.300  11.912  24.542  1.00  0.00     0.004 C 
ATOM      7  C   UNL     1      14.399  11.047  23.654  1.00  0.00     0.004 C 
ENDBRANCH   5   6
BRANCH   5   8
ATOM      8  C   UNL     1      12.953  12.608  25.388  1.00  0.00    -0.011 C 
ATOM      9  C   UNL     1      12.462  11.305  26.042  1.00  0.00     0.008 C 
ATOM     10  C   UNL     1      12.190  13.791  26.012  1.00  0.00     0.008 C 
ENDBRANCH   5   8
ENDBRANCH   4   5
ENDBRANCH   1   3
BRANCH   1  11
ATOM     11  C   UNL     1      17.564  16.560  24.917  1.00  0.00     0.002 C 
ATOM     12  C   UNL     1      18.819  15.942  24.262  1.00  0.00     0.005 C 
ATOM     13  C   UNL     1      17.740  16.308  26.453  1.00  0.00    -0.026 C 
ATOM     14  C   UNL     1      19.825  15.661  25.370  1.00  0.00     0.005 C 
ATOM     15  C   UNL     1      19.277  16.347  26.624  1.00  0.00    -0.001 C 
ATOM     16  C   UNL     1      17.194  14.910  26.872  1.00  0.00     0.007 C 
ATOM     17  C   UNL     1      17.091  17.440  27.291  1.00  0.00     0.012 C 
ATOM     18  C   UNL     1      19.810  15.780  27.979  1.00  0.00     0.000 C 
ATOM     19  C   UNL     1      17.652  14.482  28.265  1.00  0.00     0.005 C 
ATOM     20  C   UNL     1      19.196  14.415  28.366  1.00  0.00     0.003 C 
ATOM     21  C   UNL     1      21.341  15.657  27.960  1.00  0.00     0.031 C 
ATOM     22  C   UNL     1      19.720  13.890  29.771  1.00  0.00    -0.008 C 
ATOM     23  C   UNL     1      21.862  15.162  29.269  1.00  0.00    -0.027 C 
ATOM     24  C   UNL     1      21.175  14.309  30.057  1.00  0.00    -0.065 C 
ATOM     25  C   UNL     1      18.852  14.437  30.952  1.00  0.00     0.014 C 
ATOM     26  C   UNL     1      19.645  12.342  29.748  1.00  0.00     0.016 C 
ATOM     27  C   UNL     1      21.755  13.961  31.412  1.00  0.00     0.063 C 
ATOM     28  C   UNL     1      19.418  14.127  32.355  1.00  0.00     0.033 C 
ATOM     29  C   UNL     1      20.881  14.574  32.514  1.00  0.00     0.118 C 
BRANCH  29  30
ATOM     30  O   UNL     1      20.949  15.977  32.471  1.00  0.00    -0.393 OA
ATOM     31  H   UNL     1      21.768  16.239  32.966  1.00  0.00     0.210 HD
ENDBRANCH  29  30
ENDBRANCH   1  11
TORSDOF 6
ENDMDL
MODEL 3
REMARK VINA RESULT:    62.549      0.589      1.519
REMARK INTER + INTRA:          81.898
REMARK INTER:                  82.532
REMARK INTRA:                  -0.634
REMARK UNBOUND:                -0.762
REMARK SMILES CC[C@@H](C=C[C@H](C)[C@@H]1CC[C@@H]2[C@@H]3CC=C4C[C@@H](O)CC[C@@]4(C)[C@H]3CC[C@@]21C)C(C)C
REMARK SMILES IDX 6 1 7 2 5 3 4 4 3 5 2 6 1 7 28 8 29 9 30 10 8 11 9 12 26 13
REMARK SMILES IDX 10 14 11 15 25 16 27 17 12 18 24 19 23 20 13 21 21 22 14 23
REMARK SMILES IDX 15 24 20 25 22 26 16 27 19 28 17 29 18 30
REMARK H PARENT 18 31
REMARK Flexibility Score: inf
ROOT
ATOM      1  C   UNL     1      18.271  14.510  28.354  1.00  0.00     0.012 C 
ATOM      2  C   UNL     1      19.798  14.436  28.498  1.00  0.00     0.012 C 
ENDROOT
BRANCH   1   3
ATOM      3  C   UNL     1      17.961  14.758  26.891  1.00  0.00    -0.028 C 
ATOM      4  C   UNL     1      17.994  15.994  26.364  1.00  0.00    -0.027 C 
BRANCH   4   5
ATOM      5  C   UNL     1      17.822  16.247  24.878  1.00  0.00     0.014 C 
BRANCH   5   6
ATOM      6  C   UNL     1      18.384  17.655  24.546  1.00  0.00     0.004 C 
ATOM      7  C   UNL     1      17.687  18.772  25.328  1.00  0.00     0.004 C 
ENDBRANCH   5   6
BRANCH   5   8
ATOM      8  C   UNL     1      16.318  16.093  24.486  1.00  0.00    -0.011 C 
ATOM      9  C   UNL     1      16.054  16.431  23.007  1.00  0.00     0.008 C 
ATOM     10  C   UNL     1      15.821  14.663  24.762  1.00  0.00     0.008 C 
ENDBRANCH   5   8
ENDBRANCH   4   5
ENDBRANCH   1   3
BRANCH   1  11
ATOM     11  C   UNL     1      17.545  13.217  28.859  1.00  0.00     0.002 C 
ATOM     12  C   UNL     1      16.283  12.904  28.026  1.00  0.00     0.005 C 
ATOM     13  C   UNL     1      17.069  13.178  30.351  1.00  0.00    -0.026 C 
ATOM     14  C   UNL     1      15.222  12.372  28.981  1.00  0.00     0.005 C 
ATOM     15  C   UNL     1      15.936  12.126  30.312  1.00  0.00    -0.001 C 
ATOM     16  C   UNL     1      16.501  14.555  30.809  1.00  0.00     0.007 C 
ATOM     17  C   UNL     1      18.201  12.695  31.294  1.00  0.00     0.012 C 
ATOM     18  C   UNL     1      15.008  12.102  31.570  1.00  0.00     0.000 C 
ATOM     19  C   UNL     1      15.717  14.473  32.118  1.00  0.00     0.005 C 
ATOM     20  C   UNL     1      14.516  13.501  32.006  1.00  0.00     0.003 C 
ATOM     21  C   UNL     1      13.794  11.190  31.341  1.00  0.00     0.031 C 
ATOM     22  C   UNL     1      13.617  13.447  33.315  1.00  0.00    -0.008 C 
ATOM     23  C   UNL     1      12.929  11.122  32.555  1.00  0.00    -0.027 C 
ATOM     24  C   UNL     1      12.783  12.156  33.410  1.00  0.00    -0.065 C 
ATOM     25  C   UNL     1      14.485  13.521  34.615  1.00  0.00     0.014 C 
ATOM     26  C   UNL     1      12.652  14.659  33.268  1.00  0.00     0.016 C 
ATOM     27  C   UNL     1      11.965  11.936  34.667  1.00  0.00     0.063 C 
ATOM     28  C   UNL     1      13.697  13.278  35.921  1.00  0.00     0.033 C 
ATOM     29  C   UNL     1      12.890  11.970  35.890  1.00  0.00     0.118 C 
BRANCH  29  30
ATOM     30  O   UNL     1      13.771  10.876  35.869  1.00  0.00    -0.393 OA
ATOM     31  H   UNL     1      14.507  11.114  35.247  1.00  0.00     0.210 HD
ENDBRANCH  29  30
ENDBRANCH   1  11
TORSDOF 6
ENDMDL
