MODEL 1
REMARK VINA RESULT:    -4.532      0.000      0.000
REMARK INTER + INTRA:          -4.973
REMARK INTER:                  -4.930
REMARK INTRA:                  -0.043
REMARK UNBOUND:                -0.043
REMARK SMILES COc1ccccc1O
REMARK SMILES IDX 3 1 4 2 5 3 6 4 7 5 8 6 2 7 1 8 9 9
REMARK H PARENT 9 10
REMARK Flexibility Score: inf
ROOT
ATOM      1  C   UNL     1     -30.273 -19.785 -30.968  1.00  0.00     0.160 A 
ATOM      2  C   UNL     1     -30.602 -20.075 -32.309  1.00  0.00     0.050 A 
ATOM      3  C   UNL     1     -29.708 -19.766 -33.337  1.00  0.00     0.004 A 
ATOM      4  C   UNL     1     -28.481 -19.168 -33.044  1.00  0.00     0.004 A 
ATOM      5  C   UNL     1     -28.146 -18.875 -31.721  1.00  0.00     0.050 A 
ATOM      6  C   UNL     1     -29.033 -19.181 -30.682  1.00  0.00     0.157 A 
ENDROOT
BRANCH   1   7
ATOM      7  O   UNL     1     -31.145 -20.082 -29.908  1.00  0.00    -0.493 OA
ATOM      8  C   UNL     1     -32.193 -19.227 -29.463  1.00  0.00     0.278 C 
ENDBRANCH   1   7
BRANCH   6   9
ATOM      9  O   UNL     1     -28.666 -18.875 -29.371  1.00  0.00    -0.504 OA
ATOM     10  H   UNL     1     -27.718 -18.627 -29.119  1.00  0.00     0.293 HD
ENDBRANCH   6   9
TORSDOF 2
ENDMDL
MODEL 2
REMARK VINA RESULT:    -4.230      2.206      3.104
REMARK INTER + INTRA:          -4.644
REMARK INTER:                  -4.619
REMARK INTRA:                  -0.025
REMARK UNBOUND:                -0.043
REMARK SMILES COc1ccccc1O
REMARK SMILES IDX 3 1 4 2 5 3 6 4 7 5 8 6 2 7 1 8 9 9
REMARK H PARENT 9 10
REMARK Flexibility Score: inf
ROOT
ATOM      1  C   UNL     1     -30.431 -19.748 -32.447  1.00  0.00     0.160 A 
ATOM      2  C   UNL     1     -30.692 -19.740 -31.060  1.00  0.00     0.050 A 
ATOM      3  C   UNL     1     -29.715 -19.306 -30.161  1.00  0.00     0.004 A 
ATOM      4  C   UNL     1     -28.473 -18.875 -30.629  1.00  0.00     0.004 A 
ATOM      5  C   UNL     1     -28.203 -18.879 -31.999  1.00  0.00     0.050 A 
ATOM      6  C   UNL     1     -29.174 -19.312 -32.910  1.00  0.00     0.157 A 
ENDROOT
BRANCH   1   7
ATOM      7  O   UNL     1     -31.388 -20.177 -33.381  1.00  0.00    -0.493 OA
ATOM      8  C   UNL     1     -31.497 -21.510 -33.870  1.00  0.00     0.278 C 
ENDBRANCH   1   7
BRANCH   6   9
ATOM      9  O   UNL     1     -28.872 -19.304 -34.272  1.00  0.00    -0.504 OA
ATOM     10  H   UNL     1     -29.262 -18.618 -34.907  1.00  0.00     0.293 HD
ENDBRANCH   6   9
TORSDOF 2
ENDMDL
MODEL 3
REMARK VINA RESULT:    -3.861      1.451      2.444
REMARK INTER + INTRA:          -4.243
REMARK INTER:                  -4.217
REMARK INTRA:                  -0.025
REMARK UNBOUND:                -0.043
REMARK SMILES COc1ccccc1O
REMARK SMILES IDX 3 1 4 2 5 3 6 4 7 5 8 6 2 7 1 8 9 9
REMARK H PARENT 9 10
REMARK Flexibility Score: inf
ROOT
ATOM      1  C   UNL     1     -30.730 -19.190 -31.292  1.00  0.00     0.160 A 
ATOM      2  C   UNL     1     -29.616 -18.891 -30.480  1.00  0.00     0.050 A 
ATOM      3  C   UNL     1     -28.329 -18.875 -31.025  1.00  0.00     0.004 A 
ATOM      4  C   UNL     1     -28.138 -19.154 -32.379  1.00  0.00     0.004 A 
ATOM      5  C   UNL     1     -29.233 -19.452 -33.193  1.00  0.00     0.050 A 
ATOM      6  C   UNL     1     -30.526 -19.471 -32.658  1.00  0.00     0.157 A 
ENDROOT
BRANCH   1   7
ATOM      7  O   UNL     1     -32.037 -19.215 -30.781  1.00  0.00    -0.493 OA
ATOM      8  C   UNL     1     -32.379 -18.935 -29.427  1.00  0.00     0.278 C 
ENDBRANCH   1   7
BRANCH   6   9
ATOM      9  O   UNL     1     -31.599 -19.772 -33.498  1.00  0.00    -0.504 OA
ATOM     10  H   UNL     1     -32.399 -20.307 -33.183  1.00  0.00     0.293 HD
ENDBRANCH   6   9
TORSDOF 2
ENDMDL
MODEL 4
REMARK VINA RESULT:    -3.743      1.387      2.571
REMARK INTER + INTRA:          -4.115
REMARK INTER:                  -4.089
REMARK INTRA:                  -0.025
REMARK UNBOUND:                -0.043
REMARK SMILES COc1ccccc1O
REMARK SMILES IDX 3 1 4 2 5 3 6 4 7 5 8 6 2 7 1 8 9 9
REMARK H PARENT 9 10
REMARK Flexibility Score: inf
ROOT
ATOM      1  C   UNL     1     -30.290 -20.367 -32.041  1.00  0.00     0.160 A 
ATOM      2  C   UNL     1     -29.223 -19.990 -32.884  1.00  0.00     0.050 A 
ATOM      3  C   UNL     1     -28.153 -19.247 -32.378  1.00  0.00     0.004 A 
ATOM      4  C   UNL     1     -28.131 -18.875 -31.033  1.00  0.00     0.004 A 
ATOM      5  C   UNL     1     -29.182 -19.243 -30.189  1.00  0.00     0.050 A 
ATOM      6  C   UNL     1     -30.259 -19.987 -30.685  1.00  0.00     0.157 A 
ENDROOT
BRANCH   1   7
ATOM      7  O   UNL     1     -31.381 -21.114 -32.513  1.00  0.00    -0.493 OA
ATOM      8  C   UNL     1     -31.560 -21.513 -33.868  1.00  0.00     0.278 C 
ENDBRANCH   1   7
BRANCH   6   9
ATOM      9  O   UNL     1     -31.292 -20.338 -29.815  1.00  0.00    -0.504 OA
ATOM     10  H   UNL     1     -32.265 -20.303 -30.091  1.00  0.00     0.293 HD
ENDBRANCH   6   9
TORSDOF 2
ENDMDL
MODEL 5
REMARK VINA RESULT:    -3.549      6.271      7.568
REMARK INTER + INTRA:          -3.904
REMARK INTER:                  -3.874
REMARK INTRA:                  -0.030
REMARK UNBOUND:                -0.043
REMARK SMILES COc1ccccc1O
REMARK SMILES IDX 3 1 4 2 5 3 6 4 7 5 8 6 2 7 1 8 9 9
REMARK H PARENT 9 10
REMARK Flexibility Score: inf
ROOT
ATOM      1  C   UNL     1     -32.419 -22.459 -36.687  1.00  0.00     0.160 A 
ATOM      2  C   UNL     1     -31.940 -23.785 -36.705  1.00  0.00     0.050 A 
ATOM      3  C   UNL     1     -31.679 -24.425 -37.920  1.00  0.00     0.004 A 
ATOM      4  C   UNL     1     -31.890 -23.754 -39.125  1.00  0.00     0.004 A 
ATOM      5  C   UNL     1     -32.365 -22.441 -39.120  1.00  0.00     0.050 A 
ATOM      6  C   UNL     1     -32.630 -21.790 -37.909  1.00  0.00     0.157 A 
ENDROOT
BRANCH   1   7
ATOM      7  O   UNL     1     -32.692 -21.783 -35.487  1.00  0.00    -0.493 OA
ATOM      8  C   UNL     1     -31.864 -21.828 -34.329  1.00  0.00     0.278 C 
ENDBRANCH   1   7
BRANCH   6   9
ATOM      9  O   UNL     1     -33.103 -20.478 -37.940  1.00  0.00    -0.504 OA
ATOM     10  H   UNL     1     -33.915 -20.185 -37.411  1.00  0.00     0.293 HD
ENDBRANCH   6   9
TORSDOF 2
ENDMDL
MODEL 6
REMARK VINA RESULT:    -3.537      1.510      3.221
REMARK INTER + INTRA:          -3.891
REMARK INTER:                  -4.003
REMARK INTRA:                   0.112
REMARK UNBOUND:                -0.043
REMARK SMILES COc1ccccc1O
REMARK SMILES IDX 3 1 4 2 5 3 6 4 7 5 8 6 2 7 1 8 9 9
REMARK H PARENT 9 10
REMARK Flexibility Score: inf
ROOT
ATOM      1  C   UNL     1     -30.158 -19.459 -31.673  1.00  0.00     0.160 A 
ATOM      2  C   UNL     1     -31.322 -19.155 -32.409  1.00  0.00     0.050 A 
ATOM      3  C   UNL     1     -32.522 -18.877 -31.749  1.00  0.00     0.004 A 
ATOM      4  C   UNL     1     -32.577 -18.898 -30.355  1.00  0.00     0.004 A 
ATOM      5  C   UNL     1     -31.431 -19.198 -29.616  1.00  0.00     0.050 A 
ATOM      6  C   UNL     1     -30.223 -19.478 -30.266  1.00  0.00     0.157 A 
ENDROOT
BRANCH   1   7
ATOM      7  O   UNL     1     -28.934 -19.743 -32.300  1.00  0.00    -0.493 OA
ATOM      8  C   UNL     1     -27.796 -18.888 -32.273  1.00  0.00     0.278 C 
ENDBRANCH   1   7
BRANCH   6   9
ATOM      9  O   UNL     1     -29.097 -19.774 -29.496  1.00  0.00    -0.504 OA
ATOM     10  H   UNL     1     -28.283 -19.172 -29.477  1.00  0.00     0.293 HD
ENDBRANCH   6   9
TORSDOF 2
ENDMDL
MODEL 7
REMARK VINA RESULT:    -3.532      6.659      7.808
REMARK INTER + INTRA:          -3.885
REMARK INTER:                  -3.848
REMARK INTRA:                  -0.038
REMARK UNBOUND:                -0.043
REMARK SMILES COc1ccccc1O
REMARK SMILES IDX 3 1 4 2 5 3 6 4 7 5 8 6 2 7 1 8 9 9
REMARK H PARENT 9 10
REMARK Flexibility Score: inf
ROOT
ATOM      1  C   UNL     1     -32.449 -22.676 -37.311  1.00  0.00     0.160 A 
ATOM      2  C   UNL     1     -32.653 -21.895 -38.469  1.00  0.00     0.050 A 
ATOM      3  C   UNL     1     -33.487 -20.775 -38.427  1.00  0.00     0.004 A 
ATOM      4  C   UNL     1     -34.124 -20.419 -37.237  1.00  0.00     0.004 A 
ATOM      5  C   UNL     1     -33.930 -21.184 -36.085  1.00  0.00     0.050 A 
ATOM      6  C   UNL     1     -33.097 -22.309 -36.116  1.00  0.00     0.157 A 
ENDROOT
BRANCH   1   7
ATOM      7  O   UNL     1     -31.618 -23.807 -37.315  1.00  0.00    -0.493 OA
ATOM      8  C   UNL     1     -31.798 -24.937 -38.162  1.00  0.00     0.278 C 
ENDBRANCH   1   7
BRANCH   6   9
ATOM      9  O   UNL     1     -32.925 -23.051 -34.947  1.00  0.00    -0.504 OA
ATOM     10  H   UNL     1     -32.794 -22.614 -34.043  1.00  0.00     0.293 HD
ENDBRANCH   6   9
TORSDOF 2
ENDMDL
MODEL 8
REMARK VINA RESULT:    -3.392      1.858      2.266
REMARK INTER + INTRA:          -3.733
REMARK INTER:                  -3.687
REMARK INTRA:                  -0.046
REMARK UNBOUND:                -0.043
REMARK SMILES COc1ccccc1O
REMARK SMILES IDX 3 1 4 2 5 3 6 4 7 5 8 6 2 7 1 8 9 9
REMARK H PARENT 9 10
REMARK Flexibility Score: inf
ROOT
ATOM      1  C   UNL     1     -31.113 -19.806 -30.712  1.00  0.00     0.160 A 
ATOM      2  C   UNL     1     -31.080 -18.876 -31.772  1.00  0.00     0.050 A 
ATOM      3  C   UNL     1     -30.719 -19.285 -33.059  1.00  0.00     0.004 A 
ATOM      4  C   UNL     1     -30.391 -20.619 -33.304  1.00  0.00     0.004 A 
ATOM      5  C   UNL     1     -30.421 -21.549 -32.262  1.00  0.00     0.050 A 
ATOM      6  C   UNL     1     -30.780 -21.150 -30.969  1.00  0.00     0.157 A 
ENDROOT
BRANCH   1   7
ATOM      7  O   UNL     1     -31.471 -19.432 -29.406  1.00  0.00    -0.493 OA
ATOM      8  C   UNL     1     -32.807 -19.212 -28.968  1.00  0.00     0.278 C 
ENDBRANCH   1   7
BRANCH   6   9
ATOM      9  O   UNL     1     -30.799 -22.104 -29.951  1.00  0.00    -0.504 OA
ATOM     10  H   UNL     1     -29.977 -22.637 -29.695  1.00  0.00     0.293 HD
ENDBRANCH   6   9
TORSDOF 2
ENDMDL
MODEL 9
REMARK VINA RESULT:    -3.179      3.151      4.114
REMARK INTER + INTRA:          -3.501
REMARK INTER:                  -3.457
REMARK INTRA:                  -0.044
REMARK UNBOUND:                -0.043
REMARK SMILES COc1ccccc1O
REMARK SMILES IDX 3 1 4 2 5 3 6 4 7 5 8 6 2 7 1 8 9 9
REMARK H PARENT 9 10
REMARK Flexibility Score: inf
ROOT
ATOM      1  C   UNL     1     -31.310 -20.745 -32.919  1.00  0.00     0.160 A 
ATOM      2  C   UNL     1     -30.693 -21.348 -31.803  1.00  0.00     0.050 A 
ATOM      3  C   UNL     1     -30.732 -20.724 -30.553  1.00  0.00     0.004 A 
ATOM      4  C   UNL     1     -31.383 -19.499 -30.400  1.00  0.00     0.004 A 
ATOM      5  C   UNL     1     -31.996 -18.893 -31.499  1.00  0.00     0.050 A 
ATOM      6  C   UNL     1     -31.964 -19.508 -32.755  1.00  0.00     0.157 A 
ENDROOT
BRANCH   1   7
ATOM      7  O   UNL     1     -31.292 -21.341 -34.190  1.00  0.00    -0.493 OA
ATOM      8  C   UNL     1     -32.231 -22.313 -34.639  1.00  0.00     0.278 C 
ENDBRANCH   1   7
BRANCH   6   9
ATOM      9  O   UNL     1     -32.587 -18.875 -33.832  1.00  0.00    -0.504 OA
ATOM     10  H   UNL     1     -33.550 -18.567 -33.793  1.00  0.00     0.293 HD
ENDBRANCH   6   9
TORSDOF 2
ENDMDL
