MODEL 1
REMARK VINA RESULT:    -5.560      0.000      0.000
REMARK INTER + INTRA:          -5.560
REMARK INTER:                  -5.560
REMARK INTRA:                   0.000
REMARK UNBOUND:                 0.000
REMARK SMILES CC(C)=C1CC[C@@H](C)CC1=O
REMARK SMILES IDX 8 1 7 2 6 3 5 4 4 5 2 6 1 7 3 8 10 9 11 10 9 11
REMARK H PARENT
REMARK Flexibility Score: inf
ROOT
ATOM      1  C   UNL     1     -10.126  73.111  25.666  1.00  0.00     0.008 C 
ATOM      2  C   UNL     1     -11.064  74.218  26.172  1.00  0.00    -0.006 C 
ATOM      3  C   UNL     1     -10.300  75.348  26.887  1.00  0.00     0.008 C 
ATOM      4  C   UNL     1      -9.656  74.895  28.208  1.00  0.00     0.039 C 
ATOM      5  C   UNL     1     -10.623  74.142  29.113  1.00  0.00    -0.006 C 
ATOM      6  C   UNL     1     -10.495  74.183  30.472  1.00  0.00    -0.070 C 
ATOM      7  C   UNL     1     -11.478  73.487  31.385  1.00  0.00     0.039 C 
ATOM      8  C   UNL     1      -9.380  74.962  31.131  1.00  0.00     0.039 C 
ATOM      9  C   UNL     1     -11.627  73.273  28.431  1.00  0.00     0.159 C 
ATOM     10  O   UNL     1     -12.031  72.202  28.959  1.00  0.00    -0.295 OA
ATOM     11  C   UNL     1     -12.165  73.659  27.084  1.00  0.00     0.084 C 
ENDROOT
TORSDOF 0
ENDMDL
MODEL 2
REMARK VINA RESULT:    -5.224      1.465      3.951
REMARK INTER + INTRA:          -5.224
REMARK INTER:                  -5.224
REMARK INTRA:                   0.000
REMARK UNBOUND:                 0.000
REMARK SMILES CC(C)=C1CC[C@@H](C)CC1=O
REMARK SMILES IDX 8 1 7 2 6 3 5 4 4 5 2 6 1 7 3 8 10 9 11 10 9 11
REMARK H PARENT
REMARK Flexibility Score: inf
ROOT
ATOM      1  C   UNL     1     -11.165  73.554  31.588  1.00  0.00     0.008 C 
ATOM      2  C   UNL     1     -10.994  72.270  30.761  1.00  0.00    -0.006 C 
ATOM      3  C   UNL     1      -9.590  72.157  30.141  1.00  0.00     0.008 C 
ATOM      4  C   UNL     1      -9.318  73.225  29.068  1.00  0.00     0.039 C 
ATOM      5  C   UNL     1     -10.435  73.328  28.037  1.00  0.00    -0.006 C 
ATOM      6  C   UNL     1     -10.176  73.712  26.753  1.00  0.00    -0.070 C 
ATOM      7  C   UNL     1     -11.263  73.766  25.704  1.00  0.00     0.039 C 
ATOM      8  C   UNL     1      -8.776  74.068  26.308  1.00  0.00     0.039 C 
ATOM      9  C   UNL     1     -11.823  73.104  28.540  1.00  0.00     0.159 C 
ATOM     10  O   UNL     1     -12.805  73.716  28.041  1.00  0.00    -0.295 OA
ATOM     11  C   UNL     1     -12.068  72.148  29.670  1.00  0.00     0.084 C 
ENDROOT
TORSDOF 0
ENDMDL
MODEL 3
REMARK VINA RESULT:    -5.126      1.513      4.266
REMARK INTER + INTRA:          -5.126
REMARK INTER:                  -5.126
REMARK INTRA:                   0.000
REMARK UNBOUND:                 0.000
REMARK SMILES CC(C)=C1CC[C@@H](C)CC1=O
REMARK SMILES IDX 8 1 7 2 6 3 5 4 4 5 2 6 1 7 3 8 10 9 11 10 9 11
REMARK H PARENT
REMARK Flexibility Score: inf
ROOT
ATOM      1  C   UNL     1     -11.626  72.707  32.112  1.00  0.00     0.008 C 
ATOM      2  C   UNL     1     -10.676  73.878  31.818  1.00  0.00    -0.006 C 
ATOM      3  C   UNL     1     -11.329  74.951  30.928  1.00  0.00     0.008 C 
ATOM      4  C   UNL     1     -11.619  74.454  29.503  1.00  0.00     0.039 C 
ATOM      5  C   UNL     1     -10.421  73.771  28.856  1.00  0.00    -0.006 C 
ATOM      6  C   UNL     1     -10.235  73.803  27.504  1.00  0.00    -0.070 C 
ATOM      7  C   UNL     1      -9.023  73.179  26.852  1.00  0.00     0.039 C 
ATOM      8  C   UNL     1     -11.220  74.502  26.594  1.00  0.00     0.039 C 
ATOM      9  C   UNL     1      -9.543  72.975  29.764  1.00  0.00     0.159 C 
ATOM     10  O   UNL     1      -8.956  71.936  29.361  1.00  0.00    -0.295 OA
ATOM     11  C   UNL     1      -9.358  73.398  31.192  1.00  0.00     0.084 C 
ENDROOT
TORSDOF 0
ENDMDL
MODEL 4
REMARK VINA RESULT:    -5.067      1.832      2.669
REMARK INTER + INTRA:          -5.067
REMARK INTER:                  -5.067
REMARK INTRA:                   0.000
REMARK UNBOUND:                 0.000
REMARK SMILES CC(C)=C1CC[C@@H](C)CC1=O
REMARK SMILES IDX 8 1 7 2 6 3 5 4 4 5 2 6 1 7 3 8 10 9 11 10 9 11
REMARK H PARENT
REMARK Flexibility Score: inf
ROOT
ATOM      1  C   UNL     1      -9.500  74.313  27.868  1.00  0.00     0.008 C 
ATOM      2  C   UNL     1     -10.786  73.505  28.104  1.00  0.00    -0.006 C 
ATOM      3  C   UNL     1     -11.830  74.294  28.914  1.00  0.00     0.008 C 
ATOM      4  C   UNL     1     -11.392  74.560  30.363  1.00  0.00     0.039 C 
ATOM      5  C   UNL     1     -10.888  73.309  31.071  1.00  0.00    -0.006 C 
ATOM      6  C   UNL     1     -11.023  73.158  32.421  1.00  0.00    -0.070 C 
ATOM      7  C   UNL     1     -10.579  71.900  33.130  1.00  0.00     0.039 C 
ATOM      8  C   UNL     1     -11.660  74.235  33.269  1.00  0.00     0.039 C 
ATOM      9  C   UNL     1     -10.142  72.327  30.228  1.00  0.00     0.159 C 
ATOM     10  O   UNL     1      -9.202  71.637  30.706  1.00  0.00    -0.295 OA
ATOM     11  C   UNL     1     -10.496  72.157  28.780  1.00  0.00     0.084 C 
ENDROOT
TORSDOF 0
ENDMDL
MODEL 5
REMARK VINA RESULT:    -5.007      4.351      7.247
REMARK INTER + INTRA:          -5.007
REMARK INTER:                  -5.007
REMARK INTRA:                   0.000
REMARK UNBOUND:                 0.000
REMARK SMILES CC(C)=C1CC[C@@H](C)CC1=O
REMARK SMILES IDX 8 1 7 2 6 3 5 4 4 5 2 6 1 7 3 8 10 9 11 10 9 11
REMARK H PARENT
REMARK Flexibility Score: inf
ROOT
ATOM      1  C   UNL     1      -9.402  73.921  25.713  1.00  0.00     0.008 C 
ATOM      2  C   UNL     1      -9.749  72.749  24.781  1.00  0.00    -0.006 C 
ATOM      3  C   UNL     1      -8.493  72.061  24.217  1.00  0.00     0.008 C 
ATOM      4  C   UNL     1      -7.694  72.959  23.260  1.00  0.00     0.039 C 
ATOM      5  C   UNL     1      -8.563  73.613  22.193  1.00  0.00    -0.006 C 
ATOM      6  C   UNL     1      -8.059  73.920  20.962  1.00  0.00    -0.070 C 
ATOM      7  C   UNL     1      -8.922  74.518  19.875  1.00  0.00     0.039 C 
ATOM      8  C   UNL     1      -6.614  73.641  20.615  1.00  0.00     0.039 C 
ATOM      9  C   UNL     1      -9.943  74.001  22.611  1.00  0.00     0.159 C 
ATOM     10  O   UNL     1     -10.512  75.016  22.126  1.00  0.00    -0.295 OA
ATOM     11  C   UNL     1     -10.675  73.187  23.637  1.00  0.00     0.084 C 
ENDROOT
TORSDOF 0
ENDMDL
MODEL 6
REMARK VINA RESULT:    -5.004      2.027      5.041
REMARK INTER + INTRA:          -5.004
REMARK INTER:                  -5.004
REMARK INTRA:                   0.000
REMARK UNBOUND:                 0.000
REMARK SMILES CC(C)=C1CC[C@@H](C)CC1=O
REMARK SMILES IDX 8 1 7 2 6 3 5 4 4 5 2 6 1 7 3 8 10 9 11 10 9 11
REMARK H PARENT
REMARK Flexibility Score: inf
ROOT
ATOM      1  C   UNL     1     -10.314  72.704  33.873  1.00  0.00     0.008 C 
ATOM      2  C   UNL     1     -11.466  73.547  33.304  1.00  0.00    -0.006 C 
ATOM      3  C   UNL     1     -12.331  72.755  32.307  1.00  0.00     0.008 C 
ATOM      4  C   UNL     1     -11.580  72.390  31.016  1.00  0.00     0.039 C 
ATOM      5  C   UNL     1     -10.861  73.578  30.391  1.00  0.00    -0.006 C 
ATOM      6  C   UNL     1     -10.668  73.657  29.042  1.00  0.00    -0.070 C 
ATOM      7  C   UNL     1     -10.006  74.854  28.400  1.00  0.00     0.039 C 
ATOM      8  C   UNL     1     -11.145  72.559  28.117  1.00  0.00     0.039 C 
ATOM      9  C   UNL     1     -10.283  74.576  31.340  1.00  0.00     0.159 C 
ATOM     10  O   UNL     1      -9.222  75.199  31.067  1.00  0.00    -0.295 OA
ATOM     11  C   UNL     1     -10.956  74.842  32.654  1.00  0.00     0.084 C 
ENDROOT
TORSDOF 0
ENDMDL
MODEL 7
REMARK VINA RESULT:    -4.799      8.479      9.931
REMARK INTER + INTRA:          -4.799
REMARK INTER:                  -4.799
REMARK INTRA:                   0.000
REMARK UNBOUND:                 0.000
REMARK SMILES CC(C)=C1CC[C@@H](C)CC1=O
REMARK SMILES IDX 8 1 7 2 6 3 5 4 4 5 2 6 1 7 3 8 10 9 11 10 9 11
REMARK H PARENT
REMARK Flexibility Score: inf
ROOT
ATOM      1  C   UNL     1      -7.270  68.784  37.612  1.00  0.00     0.008 C 
ATOM      2  C   UNL     1      -8.544  68.498  36.803  1.00  0.00    -0.006 C 
ATOM      3  C   UNL     1      -8.726  69.483  35.633  1.00  0.00     0.008 C 
ATOM      4  C   UNL     1      -8.998  70.923  36.096  1.00  0.00     0.039 C 
ATOM      5  C   UNL     1     -10.099  71.012  37.145  1.00  0.00    -0.006 C 
ATOM      6  C   UNL     1     -10.891  72.119  37.245  1.00  0.00    -0.070 C 
ATOM      7  C   UNL     1     -12.023  72.201  38.243  1.00  0.00     0.039 C 
ATOM      8  C   UNL     1     -10.695  73.308  36.332  1.00  0.00     0.039 C 
ATOM      9  C   UNL     1     -10.179  69.883  38.118  1.00  0.00     0.159 C 
ATOM     10  O   UNL     1     -10.551  70.069  39.307  1.00  0.00    -0.295 OA
ATOM     11  C   UNL     1      -9.796  68.495  37.694  1.00  0.00     0.084 C 
ENDROOT
TORSDOF 0
ENDMDL
MODEL 8
REMARK VINA RESULT:    -4.773      3.139      4.872
REMARK INTER + INTRA:          -4.773
REMARK INTER:                  -4.773
REMARK INTRA:                   0.000
REMARK UNBOUND:                 0.000
REMARK SMILES CC(C)=C1CC[C@@H](C)CC1=O
REMARK SMILES IDX 8 1 7 2 6 3 5 4 4 5 2 6 1 7 3 8 10 9 11 10 9 11
REMARK H PARENT
REMARK Flexibility Score: inf
ROOT
ATOM      1  C   UNL     1      -7.375  73.937  21.887  1.00  0.00     0.008 C 
ATOM      2  C   UNL     1      -8.599  73.041  22.134  1.00  0.00    -0.006 C 
ATOM      3  C   UNL     1      -9.872  73.859  22.421  1.00  0.00     0.008 C 
ATOM      4  C   UNL     1      -9.806  74.626  23.751  1.00  0.00     0.039 C 
ATOM      5  C   UNL     1      -9.365  73.754  24.920  1.00  0.00    -0.006 C 
ATOM      6  C   UNL     1      -9.793  74.007  26.191  1.00  0.00    -0.070 C 
ATOM      7  C   UNL     1      -9.409  73.119  27.352  1.00  0.00     0.039 C 
ATOM      8  C   UNL     1     -10.707  75.173  26.492  1.00  0.00     0.039 C 
ATOM      9  C   UNL     1      -8.356  72.697  24.612  1.00  0.00     0.159 C 
ATOM     10  O   UNL     1      -7.491  72.352  25.461  1.00  0.00    -0.295 OA
ATOM     11  C   UNL     1      -8.348  72.034  23.266  1.00  0.00     0.084 C 
ENDROOT
TORSDOF 0
ENDMDL
MODEL 9
REMARK VINA RESULT:    -4.742      2.146      3.469
REMARK INTER + INTRA:          -4.742
REMARK INTER:                  -4.742
REMARK INTRA:                   0.000
REMARK UNBOUND:                 0.000
REMARK SMILES CC(C)=C1CC[C@@H](C)CC1=O
REMARK SMILES IDX 8 1 7 2 6 3 5 4 4 5 2 6 1 7 3 8 10 9 11 10 9 11
REMARK H PARENT
REMARK Flexibility Score: inf
ROOT
ATOM      1  C   UNL     1     -11.099  73.598  28.102  1.00  0.00     0.008 C 
ATOM      2  C   UNL     1      -9.749  73.688  28.831  1.00  0.00    -0.006 C 
ATOM      3  C   UNL     1      -9.383  72.373  29.543  1.00  0.00     0.008 C 
ATOM      4  C   UNL     1     -10.319  72.044  30.717  1.00  0.00     0.039 C 
ATOM      5  C   UNL     1     -10.518  73.218  31.667  1.00  0.00    -0.006 C 
ATOM      6  C   UNL     1     -10.767  73.019  32.994  1.00  0.00    -0.070 C 
ATOM      7  C   UNL     1     -10.911  74.173  33.960  1.00  0.00     0.039 C 
ATOM      8  C   UNL     1     -10.875  71.625  33.570  1.00  0.00     0.039 C 
ATOM      9  C   UNL     1     -10.542  74.575  31.045  1.00  0.00     0.159 C 
ATOM     10  O   UNL     1     -11.258  75.498  31.517  1.00  0.00    -0.295 OA
ATOM     11  C   UNL     1      -9.715  74.859  29.825  1.00  0.00     0.084 C 
ENDROOT
TORSDOF 0
ENDMDL
