MODEL 1
REMARK VINA RESULT:    -4.825      0.000      0.000
REMARK INTER + INTRA:          -7.724
REMARK INTER:                  -7.081
REMARK INTRA:                  -0.643
REMARK UNBOUND:                -0.643
REMARK SMILES O=C([O-])CCCCCCCC(=O)[O-]
REMARK SMILES IDX 7 1 6 2 5 3 4 4 2 5 1 6 3 7 8 8 9 9 10 10 11 11 12 12 13 13
REMARK H PARENT
REMARK Flexibility Score: inf
ROOT
ATOM      1  C   UNL     1      -2.204  -0.072   6.647  1.00  0.00     0.000 C 
ENDROOT
BRANCH   1   2
ATOM      2  C   UNL     1      -1.909   1.365   6.184  1.00  0.00     0.000 C 
BRANCH   2   3
ATOM      3  C   UNL     1      -0.767   1.459   5.150  1.00  0.00     0.006 C 
BRANCH   3   4
ATOM      4  C   UNL     1       0.604   1.169   5.773  1.00  0.00     0.053 C 
BRANCH   4   5
ATOM      5  C   UNL     1       0.924   2.180   6.830  1.00  0.00     0.041 C 
ATOM      6  O   UNL     1       1.297   3.338   6.506  1.00  0.00    -0.550 OA
ATOM      7  O   UNL     1       0.860   1.826   8.172  1.00  0.00    -0.550 OA
ENDBRANCH   4   5
ENDBRANCH   3   4
ENDBRANCH   2   3
ENDBRANCH   1   2
BRANCH   1   8
ATOM      8  C   UNL     1      -2.020  -0.263   8.159  1.00  0.00     0.000 C 
BRANCH   8   9
ATOM      9  C   UNL     1      -1.382  -1.626   8.469  1.00  0.00     0.006 C 
BRANCH   9  10
ATOM     10  C   UNL     1       0.149  -1.584   8.375  1.00  0.00     0.053 C 
BRANCH  10  11
ATOM     11  C   UNL     1       0.791  -2.483   9.387  1.00  0.00     0.041 C 
ATOM     12  O   UNL     1       0.168  -3.481   9.835  1.00  0.00    -0.550 OA
ATOM     13  O   UNL     1       2.091  -2.237   9.809  1.00  0.00    -0.550 OA
ENDBRANCH  10  11
ENDBRANCH   9  10
ENDBRANCH   8   9
ENDBRANCH   1   8
TORSDOF 8
ENDMDL
MODEL 2
REMARK VINA RESULT:    -4.798      1.676      2.236
REMARK INTER + INTRA:          -7.685
REMARK INTER:                  -7.234
REMARK INTRA:                  -0.451
REMARK UNBOUND:                -0.643
REMARK SMILES O=C([O-])CCCCCCCC(=O)[O-]
REMARK SMILES IDX 7 1 6 2 5 3 4 4 2 5 1 6 3 7 8 8 9 9 10 10 11 11 12 12 13 13
REMARK H PARENT
REMARK Flexibility Score: inf
ROOT
ATOM      1  C   UNL     1      -2.253  -0.567   7.876  1.00  0.00     0.000 C 
ENDROOT
BRANCH   1   2
ATOM      2  C   UNL     1      -1.468   0.732   8.129  1.00  0.00     0.000 C 
BRANCH   2   3
ATOM      3  C   UNL     1      -1.687   1.807   7.043  1.00  0.00     0.006 C 
BRANCH   3   4
ATOM      4  C   UNL     1      -1.774   1.201   5.637  1.00  0.00     0.053 C 
BRANCH   4   5
ATOM      5  C   UNL     1      -0.445   1.275   4.951  1.00  0.00     0.041 C 
ATOM      6  O   UNL     1       0.401   0.357   5.109  1.00  0.00    -0.550 OA
ATOM      7  O   UNL     1      -0.124   2.383   4.177  1.00  0.00    -0.550 OA
ENDBRANCH   4   5
ENDBRANCH   3   4
ENDBRANCH   2   3
ENDBRANCH   1   2
BRANCH   1   8
ATOM      8  C   UNL     1      -1.361  -1.817   7.888  1.00  0.00     0.000 C 
BRANCH   8   9
ATOM      9  C   UNL     1      -0.271  -1.706   8.964  1.00  0.00     0.006 C 
BRANCH   9  10
ATOM     10  C   UNL     1      -0.071  -3.023   9.726  1.00  0.00     0.053 C 
BRANCH  10  11
ATOM     11  C   UNL     1       1.379  -3.303   9.978  1.00  0.00     0.041 C 
ATOM     12  O   UNL     1       1.792  -4.490  10.047  1.00  0.00    -0.550 OA
ATOM     13  O   UNL     1       2.278  -2.253  10.101  1.00  0.00    -0.550 OA
ENDBRANCH  10  11
ENDBRANCH   9  10
ENDBRANCH   8   9
ENDBRANCH   1   8
TORSDOF 8
ENDMDL
MODEL 3
REMARK VINA RESULT:    -4.757      1.675      5.321
REMARK INTER + INTRA:          -7.625
REMARK INTER:                  -7.243
REMARK INTRA:                  -0.382
REMARK UNBOUND:                -0.643
REMARK SMILES O=C([O-])CCCCCCCC(=O)[O-]
REMARK SMILES IDX 7 1 6 2 5 3 4 4 2 5 1 6 3 7 8 8 9 9 10 10 11 11 12 12 13 13
REMARK H PARENT
REMARK Flexibility Score: inf
ROOT
ATOM      1  C   UNL     1      -2.147  -0.420   7.229  1.00  0.00     0.000 C 
ENDROOT
BRANCH   1   2
ATOM      2  C   UNL     1      -1.850  -1.491   8.293  1.00  0.00     0.000 C 
BRANCH   2   3
ATOM      3  C   UNL     1      -0.347  -1.653   8.603  1.00  0.00     0.006 C 
BRANCH   3   4
ATOM      4  C   UNL     1      -0.095  -2.642   9.749  1.00  0.00     0.053 C 
BRANCH   4   5
ATOM      5  C   UNL     1       1.357  -2.999   9.824  1.00  0.00     0.041 C 
ATOM      6  O   UNL     1       1.712  -4.206   9.829  1.00  0.00    -0.550 OA
ATOM      7  O   UNL     1       2.313  -1.998   9.941  1.00  0.00    -0.550 OA
ENDBRANCH   4   5
ENDBRANCH   3   4
ENDBRANCH   2   3
ENDBRANCH   1   2
BRANCH   1   8
ATOM      8  C   UNL     1      -1.903   1.009   7.733  1.00  0.00     0.000 C 
BRANCH   8   9
ATOM      9  C   UNL     1      -0.963   1.773   6.790  1.00  0.00     0.006 C 
BRANCH   9  10
ATOM     10  C   UNL     1      -1.195   1.407   5.318  1.00  0.00     0.053 C 
BRANCH  10  11
ATOM     11  C   UNL     1       0.092   1.344   4.552  1.00  0.00     0.041 C 
ATOM     12  O   UNL     1       0.427   2.294   3.796  1.00  0.00    -0.550 OA
ATOM     13  O   UNL     1       0.936   0.252   4.701  1.00  0.00    -0.550 OA
ENDBRANCH  10  11
ENDBRANCH   9  10
ENDBRANCH   8   9
ENDBRANCH   1   8
TORSDOF 8
ENDMDL
MODEL 4
REMARK VINA RESULT:    -4.734      1.155      5.048
REMARK INTER + INTRA:          -7.591
REMARK INTER:                  -7.036
REMARK INTRA:                  -0.556
REMARK UNBOUND:                -0.643
REMARK SMILES O=C([O-])CCCCCCCC(=O)[O-]
REMARK SMILES IDX 7 1 6 2 5 3 4 4 2 5 1 6 3 7 8 8 9 9 10 10 11 11 12 12 13 13
REMARK H PARENT
REMARK Flexibility Score: inf
ROOT
ATOM      1  C   UNL     1      -2.401  -0.083   8.808  1.00  0.00     0.000 C 
ENDROOT
BRANCH   1   2
ATOM      2  C   UNL     1      -1.398  -0.753   9.763  1.00  0.00     0.000 C 
BRANCH   2   3
ATOM      3  C   UNL     1      -0.583  -1.887   9.106  1.00  0.00     0.006 C 
BRANCH   3   4
ATOM      4  C   UNL     1      -0.146  -2.950  10.122  1.00  0.00     0.053 C 
BRANCH   4   5
ATOM      5  C   UNL     1       1.325  -3.207  10.012  1.00  0.00     0.041 C 
ATOM      6  O   UNL     1       2.128  -2.245   9.890  1.00  0.00    -0.550 OA
ATOM      7  O   UNL     1       1.803  -4.511   9.992  1.00  0.00    -0.550 OA
ENDBRANCH   4   5
ENDBRANCH   3   4
ENDBRANCH   2   3
ENDBRANCH   1   2
BRANCH   1   8
ATOM      8  C   UNL     1      -2.179  -0.469   7.339  1.00  0.00     0.000 C 
BRANCH   8   9
ATOM      9  C   UNL     1      -2.043   0.780   6.456  1.00  0.00     0.006 C 
BRANCH   9  10
ATOM     10  C   UNL     1      -1.320   1.925   7.177  1.00  0.00     0.053 C 
BRANCH  10  11
ATOM     11  C   UNL     1       0.162   1.870   6.960  1.00  0.00     0.041 C 
ATOM     12  O   UNL     1       0.872   1.077   7.631  1.00  0.00    -0.550 OA
ATOM     13  O   UNL     1       0.752   2.671   5.991  1.00  0.00    -0.550 OA
ENDBRANCH  10  11
ENDBRANCH   9  10
ENDBRANCH   8   9
ENDBRANCH   1   8
TORSDOF 8
ENDMDL
MODEL 5
REMARK VINA RESULT:    -4.721      0.505      4.694
REMARK INTER + INTRA:          -7.572
REMARK INTER:                  -6.847
REMARK INTRA:                  -0.725
REMARK UNBOUND:                -0.643
REMARK SMILES O=C([O-])CCCCCCCC(=O)[O-]
REMARK SMILES IDX 7 1 6 2 5 3 4 4 2 5 1 6 3 7 8 8 9 9 10 10 11 11 12 12 13 13
REMARK H PARENT
REMARK Flexibility Score: inf
ROOT
ATOM      1  C   UNL     1      -2.092  -0.044   6.743  1.00  0.00     0.000 C 
ENDROOT
BRANCH   1   2
ATOM      2  C   UNL     1      -2.254   0.201   8.253  1.00  0.00     0.000 C 
BRANCH   2   3
ATOM      3  C   UNL     1      -1.334  -0.681   9.125  1.00  0.00     0.006 C 
BRANCH   3   4
ATOM      4  C   UNL     1      -0.431  -1.589   8.280  1.00  0.00     0.053 C 
BRANCH   4   5
ATOM      5  C   UNL     1       0.546  -2.313   9.151  1.00  0.00     0.041 C 
ATOM      6  O   UNL     1       0.178  -3.315   9.819  1.00  0.00    -0.550 OA
ATOM      7  O   UNL     1       1.851  -1.851   9.265  1.00  0.00    -0.550 OA
ENDBRANCH   4   5
ENDBRANCH   3   4
ENDBRANCH   2   3
ENDBRANCH   1   2
BRANCH   1   8
ATOM      8  C   UNL     1      -1.980   1.256   5.935  1.00  0.00     0.000 C 
BRANCH   8   9
ATOM      9  C   UNL     1      -0.818   1.185   4.934  1.00  0.00     0.006 C 
BRANCH   9  10
ATOM     10  C   UNL     1       0.522   0.890   5.621  1.00  0.00     0.053 C 
BRANCH  10  11
ATOM     11  C   UNL     1       0.890   1.961   6.603  1.00  0.00     0.041 C 
ATOM     12  O   UNL     1       1.100   3.138   6.209  1.00  0.00    -0.550 OA
ATOM     13  O   UNL     1       0.965   1.665   7.957  1.00  0.00    -0.550 OA
ENDBRANCH  10  11
ENDBRANCH   9  10
ENDBRANCH   8   9
ENDBRANCH   1   8
TORSDOF 8
ENDMDL
MODEL 6
REMARK VINA RESULT:    -4.679      0.472      1.340
REMARK INTER + INTRA:          -7.510
REMARK INTER:                  -6.825
REMARK INTRA:                  -0.685
REMARK UNBOUND:                -0.643
REMARK SMILES O=C([O-])CCCCCCCC(=O)[O-]
REMARK SMILES IDX 7 1 6 2 5 3 4 4 2 5 1 6 3 7 8 8 9 9 10 10 11 11 12 12 13 13
REMARK H PARENT
REMARK Flexibility Score: inf
ROOT
ATOM      1  C   UNL     1      -1.989  -0.342   7.017  1.00  0.00     0.000 C 
ENDROOT
BRANCH   1   2
ATOM      2  C   UNL     1      -2.063   1.119   6.541  1.00  0.00     0.000 C 
BRANCH   2   3
ATOM      3  C   UNL     1      -0.996   1.481   5.487  1.00  0.00     0.006 C 
BRANCH   3   4
ATOM      4  C   UNL     1       0.421   1.120   5.949  1.00  0.00     0.053 C 
BRANCH   4   5
ATOM      5  C   UNL     1       0.922   2.126   6.938  1.00  0.00     0.041 C 
ATOM      6  O   UNL     1       0.951   1.848   8.165  1.00  0.00    -0.550 OA
ATOM      7  O   UNL     1       1.309   3.390   6.508  1.00  0.00    -0.550 OA
ENDBRANCH   4   5
ENDBRANCH   3   4
ENDBRANCH   2   3
ENDBRANCH   1   2
BRANCH   1   8
ATOM      8  C   UNL     1      -2.250  -0.496   8.522  1.00  0.00     0.000 C 
BRANCH   8   9
ATOM      9  C   UNL     1      -0.956  -0.842   9.273  1.00  0.00     0.006 C 
BRANCH   9  10
ATOM     10  C   UNL     1      -0.012  -1.712   8.433  1.00  0.00     0.053 C 
BRANCH  10  11
ATOM     11  C   UNL     1       0.965  -2.457   9.290  1.00  0.00     0.041 C 
ATOM     12  O   UNL     1       2.079  -1.945   9.575  1.00  0.00    -0.550 OA
ATOM     13  O   UNL     1       0.631  -3.704   9.802  1.00  0.00    -0.550 OA
ENDBRANCH  10  11
ENDBRANCH   9  10
ENDBRANCH   8   9
ENDBRANCH   1   8
TORSDOF 8
ENDMDL
MODEL 7
REMARK VINA RESULT:    -4.523      1.726      4.882
REMARK INTER + INTRA:          -7.281
REMARK INTER:                  -6.709
REMARK INTRA:                  -0.573
REMARK UNBOUND:                -0.643
REMARK SMILES O=C([O-])CCCCCCCC(=O)[O-]
REMARK SMILES IDX 7 1 6 2 5 3 4 4 2 5 1 6 3 7 8 8 9 9 10 10 11 11 12 12 13 13
REMARK H PARENT
REMARK Flexibility Score: inf
ROOT
ATOM      1  C   UNL     1      -2.113   1.170   9.106  1.00  0.00     0.000 C 
ENDROOT
BRANCH   1   2
ATOM      2  C   UNL     1      -2.423  -0.336   9.148  1.00  0.00     0.000 C 
BRANCH   2   3
ATOM      3  C   UNL     1      -1.398  -1.156   9.960  1.00  0.00     0.006 C 
BRANCH   3   4
ATOM      4  C   UNL     1      -0.739  -2.257   9.118  1.00  0.00     0.053 C 
BRANCH   4   5
ATOM      5  C   UNL     1       0.707  -1.944   8.887  1.00  0.00     0.041 C 
ATOM      6  O   UNL     1       1.040  -0.877   8.308  1.00  0.00    -0.550 OA
ATOM      7  O   UNL     1       1.683  -2.857   9.266  1.00  0.00    -0.550 OA
ENDBRANCH   4   5
ENDBRANCH   3   4
ENDBRANCH   2   3
ENDBRANCH   1   2
BRANCH   1   8
ATOM      8  C   UNL     1      -1.974   1.714   7.678  1.00  0.00     0.000 C 
BRANCH   8   9
ATOM      9  C   UNL     1      -1.769   0.572   6.671  1.00  0.00     0.006 C 
BRANCH   9  10
ATOM     10  C   UNL     1      -1.741   1.075   5.222  1.00  0.00     0.053 C 
BRANCH  10  11
ATOM     11  C   UNL     1      -0.340   1.306   4.742  1.00  0.00     0.041 C 
ATOM     12  O   UNL     1      -0.031   2.393   4.187  1.00  0.00    -0.550 OA
ATOM     13  O   UNL     1       0.631   0.333   4.938  1.00  0.00    -0.550 OA
ENDBRANCH  10  11
ENDBRANCH   9  10
ENDBRANCH   8   9
ENDBRANCH   1   8
TORSDOF 8
ENDMDL
MODEL 8
REMARK VINA RESULT:    -4.475      1.384      1.964
REMARK INTER + INTRA:          -7.212
REMARK INTER:                  -6.733
REMARK INTRA:                  -0.479
REMARK UNBOUND:                -0.643
REMARK SMILES O=C([O-])CCCCCCCC(=O)[O-]
REMARK SMILES IDX 7 1 6 2 5 3 4 4 2 5 1 6 3 7 8 8 9 9 10 10 11 11 12 12 13 13
REMARK H PARENT
REMARK Flexibility Score: inf
ROOT
ATOM      1  C   UNL     1      -2.392  -0.166   7.358  1.00  0.00     0.000 C 
ENDROOT
BRANCH   1   2
ATOM      2  C   UNL     1      -2.028   1.183   6.714  1.00  0.00     0.000 C 
BRANCH   2   3
ATOM      3  C   UNL     1      -1.798   1.098   5.190  1.00  0.00     0.006 C 
BRANCH   3   4
ATOM      4  C   UNL     1      -0.346   0.747   4.842  1.00  0.00     0.053 C 
BRANCH   4   5
ATOM      5  C   UNL     1       0.471   1.991   4.681  1.00  0.00     0.041 C 
ATOM      6  O   UNL     1       1.001   2.534   5.685  1.00  0.00    -0.550 OA
ATOM      7  O   UNL     1       0.604   2.577   3.429  1.00  0.00    -0.550 OA
ENDBRANCH   4   5
ENDBRANCH   3   4
ENDBRANCH   2   3
ENDBRANCH   1   2
BRANCH   1   8
ATOM      8  C   UNL     1      -2.395  -0.115   8.892  1.00  0.00     0.000 C 
BRANCH   8   9
ATOM      9  C   UNL     1      -1.645  -1.317   9.484  1.00  0.00     0.006 C 
BRANCH   9  10
ATOM     10  C   UNL     1      -0.763  -2.021   8.444  1.00  0.00     0.053 C 
BRANCH  10  11
ATOM     11  C   UNL     1       0.658  -1.553   8.513  1.00  0.00     0.041 C 
ATOM     12  O   UNL     1       1.536  -2.268   9.065  1.00  0.00    -0.550 OA
ATOM     13  O   UNL     1       1.020  -0.342   7.938  1.00  0.00    -0.550 OA
ENDBRANCH  10  11
ENDBRANCH   9  10
ENDBRANCH   8   9
ENDBRANCH   1   8
TORSDOF 8
ENDMDL
MODEL 9
REMARK VINA RESULT:    -4.312      2.593      4.801
REMARK INTER + INTRA:          -6.972
REMARK INTER:                  -6.327
REMARK INTRA:                  -0.645
REMARK UNBOUND:                -0.643
REMARK SMILES O=C([O-])CCCCCCCC(=O)[O-]
REMARK SMILES IDX 7 1 6 2 5 3 4 4 2 5 1 6 3 7 8 8 9 9 10 10 11 11 12 12 13 13
REMARK H PARENT
REMARK Flexibility Score: inf
ROOT
ATOM      1  C   UNL     1      -0.026  -1.559   8.427  1.00  0.00     0.000 C 
ENDROOT
BRANCH   1   2
ATOM      2  C   UNL     1      -1.311  -1.685   9.263  1.00  0.00     0.000 C 
BRANCH   2   3
ATOM      3  C   UNL     1      -2.452  -0.760   8.788  1.00  0.00     0.006 C 
BRANCH   3   4
ATOM      4  C   UNL     1      -2.608   0.475   9.683  1.00  0.00     0.053 C 
BRANCH   4   5
ATOM      5  C   UNL     1      -1.819   1.623   9.135  1.00  0.00     0.041 C 
ATOM      6  O   UNL     1      -2.291   2.329   8.205  1.00  0.00    -0.550 OA
ATOM      7  O   UNL     1      -0.542   1.882   9.617  1.00  0.00    -0.550 OA
ENDBRANCH   4   5
ENDBRANCH   3   4
ENDBRANCH   2   3
ENDBRANCH   1   2
BRANCH   1   8
ATOM      8  C   UNL     1      -0.291  -1.086   6.991  1.00  0.00     0.000 C 
BRANCH   8   9
ATOM      9  C   UNL     1       0.559   0.148   6.652  1.00  0.00     0.006 C 
BRANCH   9  10
ATOM     10  C   UNL     1       0.729   0.338   5.139  1.00  0.00     0.053 C 
BRANCH  10  11
ATOM     11  C   UNL     1       0.012   1.558   4.648  1.00  0.00     0.041 C 
ATOM     12  O   UNL     1       0.550   2.310   3.794  1.00  0.00    -0.550 OA
ATOM     13  O   UNL     1      -1.267   1.844   5.109  1.00  0.00    -0.550 OA
ENDBRANCH  10  11
ENDBRANCH   9  10
ENDBRANCH   8   9
ENDBRANCH   1   8
TORSDOF 8
ENDMDL
