MODEL 1
REMARK VINA RESULT:    -6.563      0.000      0.000
REMARK INTER + INTRA:          -8.610
REMARK INTER:                  -8.865
REMARK INTRA:                   0.256
REMARK UNBOUND:                 0.256
REMARK SMILES O=c1c(-c2ccc(O)cc2)coc2c([C@H]3O[C@@H](CO)[C@@H](O)[C@H](O)[C@H]3O)c(O)ccc12
REMARK SMILES IDX 3 1 11 2 12 3 13 4 30 5 2 6 1 7 29 8 28 9 26 10 14 11 4 12
REMARK SMILES IDX 5 13 6 14 7 15 10 16 9 17 8 18 15 20 24 21 16 22 22 23 17 24
REMARK SMILES IDX 20 25 25 26 23 28 18 30 19 31 21 33 27 35
REMARK H PARENT 8 19 25 27 23 29 19 32 21 34 27 36
REMARK Flexibility Score: inf
ROOT
ATOM      1  C   UNL     1      12.863  -7.161 -11.669  1.00  0.00     0.065 A 
ATOM      2  C   UNL     1      13.592  -8.038 -12.484  1.00  0.00     0.208 A 
ATOM      3  O   UNL     1      14.773  -7.690 -12.979  1.00  0.00    -0.463 OA
ATOM      4  C   UNL     1      15.345  -6.512 -12.747  1.00  0.00     0.147 A 
ATOM      5  C   UNL     1      14.691  -5.575 -11.913  1.00  0.00     0.066 A 
ATOM      6  C   UNL     1      13.432  -5.912 -11.374  1.00  0.00     0.200 A 
ATOM      7  O   UNL     1      12.827  -5.106 -10.614  1.00  0.00    -0.288 OA
ATOM      8  C   UNL     1      15.301  -4.345 -11.644  1.00  0.00     0.020 A 
ATOM      9  C   UNL     1      16.546  -4.050 -12.186  1.00  0.00     0.047 A 
ATOM     10  C   UNL     1      17.208  -4.963 -13.018  1.00  0.00     0.125 A 
ATOM     11  C   UNL     1      16.602  -6.213 -13.338  1.00  0.00     0.069 A 
ENDROOT
BRANCH   1  12
ATOM     12  C   UNL     1      11.533  -7.565 -11.143  1.00  0.00    -0.011 A 
ATOM     13  C   UNL     1      11.417  -8.189  -9.889  1.00  0.00     0.013 A 
ATOM     14  C   UNL     1      10.160  -8.558  -9.394  1.00  0.00     0.047 A 
ATOM     15  C   UNL     1       9.007  -8.304 -10.141  1.00  0.00     0.115 A 
ATOM     16  C   UNL     1      10.367  -7.304 -11.888  1.00  0.00     0.013 A 
ATOM     17  C   UNL     1       9.111  -7.676 -11.392  1.00  0.00     0.047 A 
BRANCH  15  18
ATOM     18  O   UNL     1       7.764  -8.676  -9.636  1.00  0.00    -0.508 OA
ATOM     19  H   UNL     1       7.681  -9.213  -8.777  1.00  0.00     0.293 HD
ENDBRANCH  15  18
ENDBRANCH   1  12
BRANCH  11  20
ATOM     20  C   UNL     1      17.217  -7.299 -14.247  1.00  0.00     0.188 C 
ATOM     21  C   UNL     1      18.595  -7.125 -14.935  1.00  0.00     0.179 C 
ATOM     22  O   UNL     1      16.244  -7.765 -15.173  1.00  0.00    -0.362 OA
ATOM     23  C   UNL     1      18.566  -6.134 -16.128  1.00  0.00     0.177 C 
ATOM     24  C   UNL     1      16.228  -7.128 -16.451  1.00  0.00     0.176 C 
ATOM     25  C   UNL     1      17.122  -5.865 -16.602  1.00  0.00     0.177 C 
BRANCH  21  26
ATOM     26  O   UNL     1      19.592  -6.811 -13.999  1.00  0.00    -0.387 OA
ATOM     27  H   UNL     1      20.002  -5.952 -14.295  1.00  0.00     0.211 HD
ENDBRANCH  21  26
BRANCH  23  28
ATOM     28  O   UNL     1      19.308  -6.665 -17.199  1.00  0.00    -0.387 OA
ATOM     29  H   UNL     1      19.944  -5.963 -17.488  1.00  0.00     0.211 HD
ENDBRANCH  23  28
BRANCH  24  30
ATOM     30  C   UNL     1      14.768  -6.811 -16.824  1.00  0.00     0.191 C 
BRANCH  30  31
ATOM     31  O   UNL     1      14.713  -6.018 -17.984  1.00  0.00    -0.394 OA
ATOM     32  H   UNL     1      15.554  -6.186 -18.487  1.00  0.00     0.210 HD
ENDBRANCH  30  31
ENDBRANCH  24  30
BRANCH  25  33
ATOM     33  O   UNL     1      16.576  -4.778 -15.898  1.00  0.00    -0.388 OA
ATOM     34  H   UNL     1      16.492  -5.048 -14.945  1.00  0.00     0.211 HD
ENDBRANCH  25  33
ENDBRANCH  11  20
BRANCH  10  35
ATOM     35  O   UNL     1      18.452  -4.600 -13.518  1.00  0.00    -0.507 OA
ATOM     36  H   UNL     1      19.109  -4.042 -12.984  1.00  0.00     0.293 HD
ENDBRANCH  10  35
TORSDOF 9
ENDMDL
MODEL 2
REMARK VINA RESULT:    -6.358      5.406     10.255
REMARK INTER + INTRA:          -8.333
REMARK INTER:                  -8.569
REMARK INTRA:                   0.236
REMARK UNBOUND:                 0.256
REMARK SMILES O=c1c(-c2ccc(O)cc2)coc2c([C@H]3O[C@@H](CO)[C@@H](O)[C@H](O)[C@H]3O)c(O)ccc12
REMARK SMILES IDX 3 1 11 2 12 3 13 4 30 5 2 6 1 7 29 8 28 9 26 10 14 11 4 12
REMARK SMILES IDX 5 13 6 14 7 15 10 16 9 17 8 18 15 20 24 21 16 22 22 23 17 24
REMARK SMILES IDX 20 25 25 26 23 28 18 30 19 31 21 33 27 35
REMARK H PARENT 8 19 25 27 23 29 19 32 21 34 27 36
REMARK Flexibility Score: inf
ROOT
ATOM      1  C   UNL     1      18.186  -0.723 -16.528  1.00  0.00     0.065 A 
ATOM      2  C   UNL     1      17.726   0.416 -15.853  1.00  0.00     0.208 A 
ATOM      3  O   UNL     1      16.950   0.310 -14.782  1.00  0.00    -0.463 OA
ATOM      4  C   UNL     1      16.556  -0.855 -14.277  1.00  0.00     0.147 A 
ATOM      5  C   UNL     1      16.995  -2.057 -14.880  1.00  0.00     0.066 A 
ATOM      6  C   UNL     1      17.818  -1.981 -16.022  1.00  0.00     0.200 A 
ATOM      7  O   UNL     1      18.240  -3.032 -16.577  1.00  0.00    -0.288 OA
ATOM      8  C   UNL     1      16.605  -3.286 -14.335  1.00  0.00     0.020 A 
ATOM      9  C   UNL     1      15.800  -3.324 -13.203  1.00  0.00     0.047 A 
ATOM     10  C   UNL     1      15.351  -2.144 -12.594  1.00  0.00     0.125 A 
ATOM     11  C   UNL     1      15.704  -0.876 -13.140  1.00  0.00     0.069 A 
ENDROOT
BRANCH   1  12
ATOM     12  C   UNL     1      19.038  -0.580 -17.737  1.00  0.00    -0.011 A 
ATOM     13  C   UNL     1      18.500  -0.776 -19.021  1.00  0.00     0.013 A 
ATOM     14  C   UNL     1      19.305  -0.631 -20.157  1.00  0.00     0.047 A 
ATOM     15  C   UNL     1      20.652  -0.284 -20.026  1.00  0.00     0.115 A 
ATOM     16  C   UNL     1      20.394  -0.223 -17.611  1.00  0.00     0.013 A 
ATOM     17  C   UNL     1      21.198  -0.080 -18.749  1.00  0.00     0.047 A 
BRANCH  15  18
ATOM     18  O   UNL     1      21.441  -0.142 -21.165  1.00  0.00    -0.508 OA
ATOM     19  H   UNL     1      21.403  -0.818 -21.922  1.00  0.00     0.293 HD
ENDBRANCH  15  18
ENDBRANCH   1  12
BRANCH  11  20
ATOM     20  C   UNL     1      15.269   0.494 -12.575  1.00  0.00     0.188 C 
ATOM     21  C   UNL     1      14.307   0.628 -11.366  1.00  0.00     0.179 C 
ATOM     22  O   UNL     1      14.872   1.353 -13.635  1.00  0.00    -0.362 OA
ATOM     23  C   UNL     1      12.833   0.296 -11.715  1.00  0.00     0.177 C 
ATOM     24  C   UNL     1      13.478   1.375 -13.945  1.00  0.00     0.176 C 
ATOM     25  C   UNL     1      12.598   0.305 -13.240  1.00  0.00     0.177 C 
BRANCH  21  26
ATOM     26  O   UNL     1      14.775  -0.102 -10.263  1.00  0.00    -0.387 OA
ATOM     27  H   UNL     1      14.912   0.551  -9.524  1.00  0.00     0.211 HD
ENDBRANCH  21  26
BRANCH  23  28
ATOM     28  O   UNL     1      11.983   1.245 -11.116  1.00  0.00    -0.387 OA
ATOM     29  H   UNL     1      11.559   0.804 -10.337  1.00  0.00     0.211 HD
ENDBRANCH  23  28
BRANCH  24  30
ATOM     30  C   UNL     1      13.315   1.296 -15.475  1.00  0.00     0.191 C 
BRANCH  30  31
ATOM     31  O   UNL     1      14.559   1.436 -16.114  1.00  0.00    -0.394 OA
ATOM     32  H   UNL     1      14.433   2.095 -16.848  1.00  0.00     0.210 HD
ENDBRANCH  30  31
ENDBRANCH  24  30
BRANCH  25  33
ATOM     33  O   UNL     1      12.840  -0.972 -13.774  1.00  0.00    -0.388 OA
ATOM     34  H   UNL     1      11.969  -1.445 -13.832  1.00  0.00     0.211 HD
ENDBRANCH  25  33
ENDBRANCH  11  20
BRANCH  10  35
ATOM     35  O   UNL     1      14.554  -2.261 -11.463  1.00  0.00    -0.507 OA
ATOM     36  H   UNL     1      14.572  -1.577 -10.714  1.00  0.00     0.293 HD
ENDBRANCH  10  35
TORSDOF 9
ENDMDL
MODEL 3
REMARK VINA RESULT:    -5.841      4.430      9.649
REMARK INTER + INTRA:          -7.634
REMARK INTER:                  -8.783
REMARK INTRA:                   1.149
REMARK UNBOUND:                 0.256
REMARK SMILES O=c1c(-c2ccc(O)cc2)coc2c([C@H]3O[C@@H](CO)[C@@H](O)[C@H](O)[C@H]3O)c(O)ccc12
REMARK SMILES IDX 3 1 11 2 12 3 13 4 30 5 2 6 1 7 29 8 28 9 26 10 14 11 4 12
REMARK SMILES IDX 5 13 6 14 7 15 10 16 9 17 8 18 15 20 24 21 16 22 22 23 17 24
REMARK SMILES IDX 20 25 25 26 23 28 18 30 19 31 21 33 27 35
REMARK H PARENT 8 19 25 27 23 29 19 32 21 34 27 36
REMARK Flexibility Score: inf
ROOT
ATOM      1  C   UNL     1      19.228  -2.113 -18.484  1.00  0.00     0.065 A 
ATOM      2  C   UNL     1      18.914  -3.441 -18.802  1.00  0.00     0.208 A 
ATOM      3  O   UNL     1      18.262  -4.214 -17.944  1.00  0.00    -0.463 OA
ATOM      4  C   UNL     1      17.865  -3.802 -16.743  1.00  0.00     0.147 A 
ATOM      5  C   UNL     1      18.117  -2.466 -16.350  1.00  0.00     0.066 A 
ATOM      6  C   UNL     1      18.812  -1.619 -17.237  1.00  0.00     0.200 A 
ATOM      7  O   UNL     1      19.041  -0.418 -16.925  1.00  0.00    -0.288 OA
ATOM      8  C   UNL     1      17.678  -2.020 -15.099  1.00  0.00     0.020 A 
ATOM      9  C   UNL     1      16.990  -2.881 -14.252  1.00  0.00     0.047 A 
ATOM     10  C   UNL     1      16.734  -4.208 -14.622  1.00  0.00     0.125 A 
ATOM     11  C   UNL     1      17.194  -4.705 -15.876  1.00  0.00     0.069 A 
ENDROOT
BRANCH   1  12
ATOM     12  C   UNL     1      19.977  -1.271 -19.454  1.00  0.00    -0.011 A 
ATOM     13  C   UNL     1      20.053  -1.634 -20.809  1.00  0.00     0.013 A 
ATOM     14  C   UNL     1      20.752  -0.832 -21.720  1.00  0.00     0.047 A 
ATOM     15  C   UNL     1      21.377   0.342 -21.290  1.00  0.00     0.115 A 
ATOM     16  C   UNL     1      20.601  -0.083 -19.027  1.00  0.00     0.013 A 
ATOM     17  C   UNL     1      21.302   0.716 -19.939  1.00  0.00     0.047 A 
BRANCH  15  18
ATOM     18  O   UNL     1      22.067   1.130 -22.207  1.00  0.00    -0.508 OA
ATOM     19  H   UNL     1      21.624   1.922 -22.664  1.00  0.00     0.293 HD
ENDBRANCH  15  18
ENDBRANCH   1  12
BRANCH  11  20
ATOM     20  C   UNL     1      16.989  -6.144 -16.398  1.00  0.00     0.188 C 
ATOM     21  C   UNL     1      16.083  -7.171 -15.672  1.00  0.00     0.179 C 
ATOM     22  O   UNL     1      18.244  -6.723 -16.733  1.00  0.00    -0.362 OA
ATOM     23  C   UNL     1      16.709  -7.727 -14.366  1.00  0.00     0.177 C 
ATOM     24  C   UNL     1      18.874  -7.502 -15.715  1.00  0.00     0.176 C 
ATOM     25  C   UNL     1      18.225  -7.446 -14.303  1.00  0.00     0.177 C 
BRANCH  21  26
ATOM     26  O   UNL     1      14.793  -6.657 -15.472  1.00  0.00    -0.387 OA
ATOM     27  H   UNL     1      14.799  -6.205 -14.584  1.00  0.00     0.211 HD
ENDBRANCH  21  26
BRANCH  23  28
ATOM     28  O   UNL     1      16.499  -9.117 -14.298  1.00  0.00    -0.387 OA
ATOM     29  H   UNL     1      17.380  -9.536 -14.127  1.00  0.00     0.211 HD
ENDBRANCH  23  28
BRANCH  24  30
ATOM     30  C   UNL     1      20.362  -7.111 -15.649  1.00  0.00     0.191 C 
BRANCH  30  31
ATOM     31  O   UNL     1      20.937  -7.552 -14.444  1.00  0.00    -0.394 OA
ATOM     32  H   UNL     1      21.061  -6.749 -13.872  1.00  0.00     0.210 HD
ENDBRANCH  30  31
ENDBRANCH  24  30
BRANCH  25  33
ATOM     33  O   UNL     1      18.462  -6.202 -13.694  1.00  0.00    -0.388 OA
ATOM     34  H   UNL     1      17.583  -5.826 -13.423  1.00  0.00     0.211 HD
ENDBRANCH  25  33
ENDBRANCH  11  20
BRANCH  10  35
ATOM     35  O   UNL     1      16.036  -5.008 -13.726  1.00  0.00    -0.507 OA
ATOM     36  H   UNL     1      15.043  -4.888 -13.553  1.00  0.00     0.293 HD
ENDBRANCH  10  35
TORSDOF 9
ENDMDL
MODEL 4
REMARK VINA RESULT:    -5.819      2.256      4.195
REMARK INTER + INTRA:          -7.604
REMARK INTER:                  -7.677
REMARK INTRA:                   0.074
REMARK UNBOUND:                 0.256
REMARK SMILES O=c1c(-c2ccc(O)cc2)coc2c([C@H]3O[C@@H](CO)[C@@H](O)[C@H](O)[C@H]3O)c(O)ccc12
REMARK SMILES IDX 3 1 11 2 12 3 13 4 30 5 2 6 1 7 29 8 28 9 26 10 14 11 4 12
REMARK SMILES IDX 5 13 6 14 7 15 10 16 9 17 8 18 15 20 24 21 16 22 22 23 17 24
REMARK SMILES IDX 20 25 25 26 23 28 18 30 19 31 21 33 27 35
REMARK H PARENT 8 19 25 27 23 29 19 32 21 34 27 36
REMARK Flexibility Score: inf
ROOT
ATOM      1  C   UNL     1      12.040  -5.976 -10.930  1.00  0.00     0.065 A 
ATOM      2  C   UNL     1      12.371  -4.628 -11.126  1.00  0.00     0.208 A 
ATOM      3  O   UNL     1      13.455  -4.282 -11.807  1.00  0.00    -0.463 OA
ATOM      4  C   UNL     1      14.293  -5.164 -12.345  1.00  0.00     0.147 A 
ATOM      5  C   UNL     1      14.021  -6.546 -12.219  1.00  0.00     0.066 A 
ATOM      6  C   UNL     1      12.879  -6.949 -11.497  1.00  0.00     0.200 A 
ATOM      7  O   UNL     1      12.598  -8.173 -11.377  1.00  0.00    -0.288 OA
ATOM      8  C   UNL     1      14.885  -7.477 -12.806  1.00  0.00     0.020 A 
ATOM      9  C   UNL     1      15.999  -7.044 -13.517  1.00  0.00     0.047 A 
ATOM     10  C   UNL     1      16.287  -5.679 -13.650  1.00  0.00     0.125 A 
ATOM     11  C   UNL     1      15.445  -4.705 -13.039  1.00  0.00     0.069 A 
ENDROOT
BRANCH   1  12
ATOM     12  C   UNL     1      10.830  -6.340 -10.146  1.00  0.00    -0.011 A 
ATOM     13  C   UNL     1      10.905  -6.517  -8.754  1.00  0.00     0.013 A 
ATOM     14  C   UNL     1       9.761  -6.851  -8.018  1.00  0.00     0.047 A 
ATOM     15  C   UNL     1       8.531  -7.008  -8.663  1.00  0.00     0.115 A 
ATOM     16  C   UNL     1       9.587  -6.491 -10.789  1.00  0.00     0.013 A 
ATOM     17  C   UNL     1       8.444  -6.828 -10.053  1.00  0.00     0.047 A 
BRANCH  15  18
ATOM     18  O   UNL     1       7.401  -7.339  -7.919  1.00  0.00    -0.508 OA
ATOM     19  H   UNL     1       7.439  -8.039  -7.183  1.00  0.00     0.293 HD
ENDBRANCH  15  18
ENDBRANCH   1  12
BRANCH  11  20
ATOM     20  C   UNL     1      15.655  -3.176 -13.099  1.00  0.00     0.188 C 
ATOM     21  C   UNL     1      16.853  -2.530 -13.841  1.00  0.00     0.179 C 
ATOM     22  O   UNL     1      15.499  -2.613 -11.802  1.00  0.00    -0.362 OA
ATOM     23  C   UNL     1      18.201  -2.692 -13.090  1.00  0.00     0.177 C 
ATOM     24  C   UNL     1      16.693  -2.446 -11.036  1.00  0.00     0.176 C 
ATOM     25  C   UNL     1      17.981  -3.094 -11.617  1.00  0.00     0.177 C 
BRANCH  21  26
ATOM     26  O   UNL     1      16.923  -2.971 -15.171  1.00  0.00    -0.387 OA
ATOM     27  H   UNL     1      17.625  -2.424 -15.618  1.00  0.00     0.211 HD
ENDBRANCH  21  26
BRANCH  23  28
ATOM     28  O   UNL     1      18.912  -1.479 -13.132  1.00  0.00    -0.387 OA
ATOM     29  H   UNL     1      19.858  -1.703 -13.324  1.00  0.00     0.211 HD
ENDBRANCH  23  28
BRANCH  24  30
ATOM     30  C   UNL     1      16.429  -2.944  -9.603  1.00  0.00     0.191 C 
BRANCH  30  31
ATOM     31  O   UNL     1      15.841  -4.221  -9.622  1.00  0.00    -0.394 OA
ATOM     32  H   UNL     1      16.493  -4.832 -10.056  1.00  0.00     0.210 HD
ENDBRANCH  30  31
ENDBRANCH  24  30
BRANCH  25  33
ATOM     33  O   UNL     1      17.934  -4.493 -11.498  1.00  0.00    -0.388 OA
ATOM     34  H   UNL     1      16.995  -4.748 -11.297  1.00  0.00     0.211 HD
ENDBRANCH  25  33
ENDBRANCH  11  20
BRANCH  10  35
ATOM     35  O   UNL     1      17.414  -5.323 -14.379  1.00  0.00    -0.507 OA
ATOM     36  H   UNL     1      18.347  -5.616 -14.111  1.00  0.00     0.293 HD
ENDBRANCH  10  35
TORSDOF 9
ENDMDL
MODEL 5
REMARK VINA RESULT:    -5.727      4.549      9.612
REMARK INTER + INTRA:          -7.480
REMARK INTER:                  -8.055
REMARK INTRA:                   0.575
REMARK UNBOUND:                 0.256
REMARK SMILES O=c1c(-c2ccc(O)cc2)coc2c([C@H]3O[C@@H](CO)[C@@H](O)[C@H](O)[C@H]3O)c(O)ccc12
REMARK SMILES IDX 3 1 11 2 12 3 13 4 30 5 2 6 1 7 29 8 28 9 26 10 14 11 4 12
REMARK SMILES IDX 5 13 6 14 7 15 10 16 9 17 8 18 15 20 24 21 16 22 22 23 17 24
REMARK SMILES IDX 20 25 25 26 23 28 18 30 19 31 21 33 27 35
REMARK H PARENT 8 19 25 27 23 29 19 32 21 34 27 36
REMARK Flexibility Score: inf
ROOT
ATOM      1  C   UNL     1      18.216  -0.814 -16.615  1.00  0.00     0.065 A 
ATOM      2  C   UNL     1      17.772  -2.109 -16.316  1.00  0.00     0.208 A 
ATOM      3  O   UNL     1      17.025  -2.345 -15.246  1.00  0.00    -0.463 OA
ATOM      4  C   UNL     1      16.648  -1.397 -14.392  1.00  0.00     0.147 A 
ATOM      5  C   UNL     1      17.029  -0.056 -14.632  1.00  0.00     0.066 A 
ATOM      6  C   UNL     1      17.828   0.229 -15.759  1.00  0.00     0.200 A 
ATOM      7  O   UNL     1      18.175   1.416 -16.011  1.00  0.00    -0.288 OA
ATOM      8  C   UNL     1      16.612   0.949 -13.753  1.00  0.00     0.020 A 
ATOM      9  C   UNL     1      15.820   0.631 -12.656  1.00  0.00     0.047 A 
ATOM     10  C   UNL     1      15.434  -0.691 -12.399  1.00  0.00     0.125 A 
ATOM     11  C   UNL     1      15.867  -1.744 -13.257  1.00  0.00     0.069 A 
ENDROOT
BRANCH   1  12
ATOM     12  C   UNL     1      19.070  -0.576 -17.809  1.00  0.00    -0.011 A 
ATOM     13  C   UNL     1      20.421  -0.216 -17.664  1.00  0.00     0.013 A 
ATOM     14  C   UNL     1      21.223  -0.003 -18.792  1.00  0.00     0.047 A 
ATOM     15  C   UNL     1      20.687  -0.149 -20.075  1.00  0.00     0.115 A 
ATOM     16  C   UNL     1      18.537  -0.729 -19.103  1.00  0.00     0.013 A 
ATOM     17  C   UNL     1      19.340  -0.513 -20.230  1.00  0.00     0.047 A 
BRANCH  15  18
ATOM     18  O   UNL     1      21.496   0.067 -21.187  1.00  0.00    -0.508 OA
ATOM     19  H   UNL     1      21.107   0.112 -22.124  1.00  0.00     0.293 HD
ENDBRANCH  15  18
ENDBRANCH   1  12
BRANCH  11  20
ATOM     20  C   UNL     1      15.524  -3.240 -13.082  1.00  0.00     0.188 C 
ATOM     21  C   UNL     1      14.657  -3.762 -11.908  1.00  0.00     0.179 C 
ATOM     22  O   UNL     1      16.697  -4.028 -13.235  1.00  0.00    -0.362 OA
ATOM     23  C   UNL     1      15.403  -3.767 -10.548  1.00  0.00     0.177 C 
ATOM     24  C   UNL     1      17.400  -4.357 -12.037  1.00  0.00     0.176 C 
ATOM     25  C   UNL     1      16.928  -3.639 -10.741  1.00  0.00     0.177 C 
BRANCH  21  26
ATOM     26  O   UNL     1      13.429  -3.085 -11.844  1.00  0.00    -0.387 OA
ATOM     27  H   UNL     1      13.253  -2.901 -10.881  1.00  0.00     0.211 HD
ENDBRANCH  21  26
BRANCH  23  28
ATOM     28  O   UNL     1      15.127  -4.966  -9.865  1.00  0.00    -0.387 OA
ATOM     29  H   UNL     1      15.031  -5.675 -10.549  1.00  0.00     0.211 HD
ENDBRANCH  23  28
BRANCH  24  30
ATOM     30  C   UNL     1      18.905  -4.126 -12.273  1.00  0.00     0.191 C 
BRANCH  30  31
ATOM     31  O   UNL     1      19.596  -5.350 -12.300  1.00  0.00    -0.394 OA
ATOM     32  H   UNL     1      19.595  -5.703 -11.370  1.00  0.00     0.210 HD
ENDBRANCH  30  31
ENDBRANCH  24  30
BRANCH  25  33
ATOM     33  O   UNL     1      17.303  -2.284 -10.756  1.00  0.00    -0.388 OA
ATOM     34  H   UNL     1      17.525  -2.043 -11.693  1.00  0.00     0.211 HD
ENDBRANCH  25  33
ENDBRANCH  11  20
BRANCH  10  35
ATOM     35  O   UNL     1      14.637  -0.930 -11.287  1.00  0.00    -0.507 OA
ATOM     36  H   UNL     1      14.786  -0.456 -10.403  1.00  0.00     0.293 HD
ENDBRANCH  10  35
TORSDOF 9
ENDMDL
MODEL 6
REMARK VINA RESULT:    -5.496      6.503     10.047
REMARK INTER + INTRA:          -7.168
REMARK INTER:                  -7.431
REMARK INTRA:                   0.262
REMARK UNBOUND:                 0.256
REMARK SMILES O=c1c(-c2ccc(O)cc2)coc2c([C@H]3O[C@@H](CO)[C@@H](O)[C@H](O)[C@H]3O)c(O)ccc12
REMARK SMILES IDX 3 1 11 2 12 3 13 4 30 5 2 6 1 7 29 8 28 9 26 10 14 11 4 12
REMARK SMILES IDX 5 13 6 14 7 15 10 16 9 17 8 18 15 20 24 21 16 22 22 23 17 24
REMARK SMILES IDX 20 25 25 26 23 28 18 30 19 31 21 33 27 35
REMARK H PARENT 8 19 25 27 23 29 19 32 21 34 27 36
REMARK Flexibility Score: inf
ROOT
ATOM      1  C   UNL     1      17.991   1.860  -8.475  1.00  0.00     0.065 A 
ATOM      2  C   UNL     1      17.100   1.589  -9.522  1.00  0.00     0.208 A 
ATOM      3  O   UNL     1      16.765   0.342  -9.829  1.00  0.00    -0.463 OA
ATOM      4  C   UNL     1      17.237  -0.722  -9.185  1.00  0.00     0.147 A 
ATOM      5  C   UNL     1      18.122  -0.539  -8.097  1.00  0.00     0.066 A 
ATOM      6  C   UNL     1      18.502   0.774  -7.746  1.00  0.00     0.200 A 
ATOM      7  O   UNL     1      19.278   0.975  -6.772  1.00  0.00    -0.288 OA
ATOM      8  C   UNL     1      18.599  -1.654  -7.399  1.00  0.00     0.020 A 
ATOM      9  C   UNL     1      18.197  -2.932  -7.768  1.00  0.00     0.047 A 
ATOM     10  C   UNL     1      17.324  -3.134  -8.845  1.00  0.00     0.125 A 
ATOM     11  C   UNL     1      16.843  -2.023  -9.597  1.00  0.00     0.069 A 
ENDROOT
BRANCH   1  12
ATOM     12  C   UNL     1      18.368   3.264  -8.161  1.00  0.00    -0.011 A 
ATOM     13  C   UNL     1      17.394   4.197  -7.769  1.00  0.00     0.013 A 
ATOM     14  C   UNL     1      17.756   5.515  -7.465  1.00  0.00     0.047 A 
ATOM     15  C   UNL     1      19.093   5.915  -7.546  1.00  0.00     0.115 A 
ATOM     16  C   UNL     1      19.715   3.669  -8.233  1.00  0.00     0.013 A 
ATOM     17  C   UNL     1      20.075   4.988  -7.932  1.00  0.00     0.047 A 
BRANCH  15  18
ATOM     18  O   UNL     1      19.438   7.228  -7.240  1.00  0.00    -0.508 OA
ATOM     19  H   UNL     1      18.752   7.886  -6.881  1.00  0.00     0.293 HD
ENDBRANCH  15  18
ENDBRANCH   1  12
BRANCH  11  20
ATOM     20  C   UNL     1      15.889  -2.108 -10.809  1.00  0.00     0.188 C 
ATOM     21  C   UNL     1      15.310  -3.453 -11.319  1.00  0.00     0.179 C 
ATOM     22  O   UNL     1      16.404  -1.337 -11.887  1.00  0.00    -0.362 OA
ATOM     23  C   UNL     1      16.351  -4.325 -12.068  1.00  0.00     0.177 C 
ATOM     24  C   UNL     1      17.199  -2.037 -12.844  1.00  0.00     0.176 C 
ATOM     25  C   UNL     1      17.587  -3.498 -12.481  1.00  0.00     0.177 C 
BRANCH  21  26
ATOM     26  O   UNL     1      14.668  -4.152 -10.286  1.00  0.00    -0.387 OA
ATOM     27  H   UNL     1      14.741  -3.588  -9.468  1.00  0.00     0.211 HD
ENDBRANCH  21  26
BRANCH  23  28
ATOM     28  O   UNL     1      15.761  -4.874 -13.222  1.00  0.00    -0.387 OA
ATOM     29  H   UNL     1      14.866  -5.207 -12.960  1.00  0.00     0.211 HD
ENDBRANCH  23  28
BRANCH  24  30
ATOM     30  C   UNL     1      18.455  -1.198 -13.146  1.00  0.00     0.191 C 
BRANCH  30  31
ATOM     31  O   UNL     1      18.874  -0.502 -11.998  1.00  0.00    -0.394 OA
ATOM     32  H   UNL     1      18.380   0.361 -11.988  1.00  0.00     0.210 HD
ENDBRANCH  30  31
ENDBRANCH  24  30
BRANCH  25  33
ATOM     33  O   UNL     1      18.549  -3.521 -11.457  1.00  0.00    -0.388 OA
ATOM     34  H   UNL     1      18.130  -3.939 -10.659  1.00  0.00     0.211 HD
ENDBRANCH  25  33
ENDBRANCH  11  20
BRANCH  10  35
ATOM     35  O   UNL     1      16.964  -4.440  -9.151  1.00  0.00    -0.507 OA
ATOM     36  H   UNL     1      16.101  -4.664  -9.636  1.00  0.00     0.293 HD
ENDBRANCH  10  35
TORSDOF 9
ENDMDL
MODEL 7
REMARK VINA RESULT:    -5.476     11.591     14.713
REMARK INTER + INTRA:          -7.142
REMARK INTER:                  -7.292
REMARK INTRA:                   0.150
REMARK UNBOUND:                 0.256
REMARK SMILES O=c1c(-c2ccc(O)cc2)coc2c([C@H]3O[C@@H](CO)[C@@H](O)[C@H](O)[C@H]3O)c(O)ccc12
REMARK SMILES IDX 3 1 11 2 12 3 13 4 30 5 2 6 1 7 29 8 28 9 26 10 14 11 4 12
REMARK SMILES IDX 5 13 6 14 7 15 10 16 9 17 8 18 15 20 24 21 16 22 22 23 17 24
REMARK SMILES IDX 20 25 25 26 23 28 18 30 19 31 21 33 27 35
REMARK H PARENT 8 19 25 27 23 29 19 32 21 34 27 36
REMARK Flexibility Score: inf
ROOT
ATOM      1  C   UNL     1      10.744   4.159 -17.607  1.00  0.00     0.065 A 
ATOM      2  C   UNL     1      10.454   3.728 -16.305  1.00  0.00     0.208 A 
ATOM      3  O   UNL     1       9.329   3.079 -16.035  1.00  0.00    -0.463 OA
ATOM      4  C   UNL     1       8.410   2.793 -16.953  1.00  0.00     0.147 A 
ATOM      5  C   UNL     1       8.634   3.167 -18.299  1.00  0.00     0.066 A 
ATOM      6  C   UNL     1       9.818   3.863 -18.620  1.00  0.00     0.200 A 
ATOM      7  O   UNL     1      10.057   4.199 -19.813  1.00  0.00    -0.288 OA
ATOM      8  C   UNL     1       7.683   2.844 -19.273  1.00  0.00     0.020 A 
ATOM      9  C   UNL     1       6.531   2.151 -18.921  1.00  0.00     0.047 A 
ATOM     10  C   UNL     1       6.290   1.774 -17.594  1.00  0.00     0.125 A 
ATOM     11  C   UNL     1       7.222   2.114 -16.570  1.00  0.00     0.069 A 
ENDROOT
BRANCH   1  12
ATOM     12  C   UNL     1      12.001   4.903 -17.883  1.00  0.00    -0.011 A 
ATOM     13  C   UNL     1      11.968   6.270 -18.207  1.00  0.00     0.013 A 
ATOM     14  C   UNL     1      13.157   6.969 -18.457  1.00  0.00     0.047 A 
ATOM     15  C   UNL     1      14.388   6.312 -18.382  1.00  0.00     0.115 A 
ATOM     16  C   UNL     1      13.245   4.249 -17.801  1.00  0.00     0.013 A 
ATOM     17  C   UNL     1      14.432   4.948 -18.054  1.00  0.00     0.047 A 
BRANCH  15  18
ATOM     18  O   UNL     1      15.561   7.019 -18.632  1.00  0.00    -0.508 OA
ATOM     19  H   UNL     1      16.389   6.893 -18.056  1.00  0.00     0.293 HD
ENDBRANCH  15  18
ENDBRANCH   1  12
BRANCH  11  20
ATOM     20  C   UNL     1       7.072   1.771 -15.072  1.00  0.00     0.188 C 
ATOM     21  C   UNL     1       5.867   0.965 -14.521  1.00  0.00     0.179 C 
ATOM     22  O   UNL     1       7.312   2.928 -14.282  1.00  0.00    -0.362 OA
ATOM     23  C   UNL     1       4.551   1.785 -14.471  1.00  0.00     0.177 C 
ATOM     24  C   UNL     1       6.164   3.694 -13.914  1.00  0.00     0.176 C 
ATOM     25  C   UNL     1       4.824   3.299 -14.597  1.00  0.00     0.177 C 
BRANCH  21  26
ATOM     26  O   UNL     1       5.717  -0.252 -15.202  1.00  0.00    -0.387 OA
ATOM     27  H   UNL     1       4.738  -0.405 -15.303  1.00  0.00     0.211 HD
ENDBRANCH  21  26
BRANCH  23  28
ATOM     28  O   UNL     1       3.889   1.539 -13.254  1.00  0.00    -0.387 OA
ATOM     29  H   UNL     1       2.964   1.264 -13.478  1.00  0.00     0.211 HD
ENDBRANCH  23  28
BRANCH  24  30
ATOM     30  C   UNL     1       6.475   5.185 -14.144  1.00  0.00     0.191 C 
BRANCH  30  31
ATOM     31  O   UNL     1       7.298   5.351 -15.272  1.00  0.00    -0.394 OA
ATOM     32  H   UNL     1       7.538   4.441 -15.590  1.00  0.00     0.210 HD
ENDBRANCH  30  31
ENDBRANCH  24  30
BRANCH  25  33
ATOM     33  O   UNL     1       4.820   3.681 -15.949  1.00  0.00    -0.388 OA
ATOM     34  H   UNL     1       3.877   3.850 -16.212  1.00  0.00     0.211 HD
ENDBRANCH  25  33
ENDBRANCH  11  20
BRANCH  10  35
ATOM     35  O   UNL     1       5.119   1.079 -17.319  1.00  0.00    -0.507 OA
ATOM     36  H   UNL     1       4.388   1.462 -16.728  1.00  0.00     0.293 HD
ENDBRANCH  10  35
TORSDOF 9
ENDMDL
