MODEL 1
REMARK VINA RESULT:    -3.167      0.000      0.000
REMARK INTER + INTRA:          -3.678
REMARK INTER:                  -3.630
REMARK INTRA:                  -0.048
REMARK UNBOUND:                -0.048
REMARK SMILES CC(C)[C@H]([NH3+])C(=O)[O-]
REMARK SMILES IDX 4 1 5 2 6 6 7 7 8 8 2 9 1 10 3 11
REMARK H PARENT 5 3 5 4 5 5
REMARK Flexibility Score: inf
ROOT
ATOM      1  C   UNL     1      -0.905  13.697  -9.035  1.00  0.00     0.230 C 
ENDROOT
BRANCH   1   2
ATOM      2  N   UNL     1      -0.226  14.906  -9.522  1.00  0.00    -0.350 N 
ATOM      3  H   UNL     1      -0.858  15.436 -10.165  1.00  0.00     0.345 HD
ATOM      4  H   UNL     1       0.658  14.671 -10.026  1.00  0.00     0.345 HD
ATOM      5  H   UNL     1       0.005  15.526  -8.712  1.00  0.00     0.345 HD
ENDBRANCH   1   2
BRANCH   1   6
ATOM      6  C   UNL     1       0.089  12.581  -8.812  1.00  0.00     0.099 C 
ATOM      7  O   UNL     1      -0.315  11.430  -8.501  1.00  0.00    -0.544 OA
ATOM      8  O   UNL     1       1.451  12.804  -8.975  1.00  0.00    -0.544 OA
ENDBRANCH   1   6
BRANCH   1   9
ATOM      9  C   UNL     1      -2.078  13.276  -9.972  1.00  0.00     0.047 C 
ATOM     10  C   UNL     1      -2.152  14.176 -11.215  1.00  0.00     0.014 C 
ATOM     11  C   UNL     1      -3.446  13.235  -9.270  1.00  0.00     0.014 C 
ENDBRANCH   1   9
TORSDOF 3
ENDMDL
MODEL 2
REMARK VINA RESULT:    -3.100      3.975      5.147
REMARK INTER + INTRA:          -3.601
REMARK INTER:                  -3.546
REMARK INTRA:                  -0.055
REMARK UNBOUND:                -0.048
REMARK SMILES CC(C)[C@H]([NH3+])C(=O)[O-]
REMARK SMILES IDX 4 1 5 2 6 6 7 7 8 8 2 9 1 10 3 11
REMARK H PARENT 5 3 5 4 5 5
REMARK Flexibility Score: inf
ROOT
ATOM      1  C   UNL     1       2.497  15.416  -9.455  1.00  0.00     0.230 C 
ENDROOT
BRANCH   1   2
ATOM      2  N   UNL     1       1.200  15.791 -10.036  1.00  0.00    -0.350 N 
ATOM      3  H   UNL     1       1.076  16.829  -9.993  1.00  0.00     0.345 HD
ATOM      4  H   UNL     1       0.409  15.329  -9.535  1.00  0.00     0.345 HD
ATOM      5  H   UNL     1       1.173  15.503 -11.041  1.00  0.00     0.345 HD
ENDBRANCH   1   2
BRANCH   1   6
ATOM      6  C   UNL     1       3.632  15.978 -10.280  1.00  0.00     0.099 C 
ATOM      7  O   UNL     1       4.114  17.107 -10.001  1.00  0.00    -0.544 OA
ATOM      8  O   UNL     1       4.174  15.247 -11.331  1.00  0.00    -0.544 OA
ENDBRANCH   1   6
BRANCH   1   9
ATOM      9  C   UNL     1       2.613  13.876  -9.247  1.00  0.00     0.047 C 
ATOM     10  C   UNL     1       1.295  13.281  -8.727  1.00  0.00     0.014 C 
ATOM     11  C   UNL     1       3.776  13.462  -8.328  1.00  0.00     0.014 C 
ENDBRANCH   1   9
TORSDOF 3
ENDMDL
MODEL 3
REMARK VINA RESULT:    -3.085     10.647     11.847
REMARK INTER + INTRA:          -3.584
REMARK INTER:                  -3.546
REMARK INTRA:                  -0.038
REMARK UNBOUND:                -0.048
REMARK SMILES CC(C)[C@H]([NH3+])C(=O)[O-]
REMARK SMILES IDX 4 1 5 2 6 6 7 7 8 8 2 9 1 10 3 11
REMARK H PARENT 5 3 5 4 5 5
REMARK Flexibility Score: inf
ROOT
ATOM      1  C   UNL     1       8.551   6.401 -10.550  1.00  0.00     0.230 C 
ENDROOT
BRANCH   1   2
ATOM      2  N   UNL     1       9.702   5.511 -10.342  1.00  0.00    -0.350 N 
ATOM      3  H   UNL     1       9.738   4.790 -11.100  1.00  0.00     0.345 HD
ATOM      4  H   UNL     1       9.654   5.033  -9.415  1.00  0.00     0.345 HD
ATOM      5  H   UNL     1      10.586   6.069 -10.385  1.00  0.00     0.345 HD
ENDBRANCH   1   2
BRANCH   1   6
ATOM      6  C   UNL     1       8.727   7.212 -11.813  1.00  0.00     0.099 C 
ATOM      7  O   UNL     1       7.729   7.753 -12.359  1.00  0.00    -0.544 OA
ATOM      8  O   UNL     1       9.989   7.395 -12.367  1.00  0.00    -0.544 OA
ENDBRANCH   1   6
BRANCH   1   9
ATOM      9  C   UNL     1       8.275   7.290  -9.300  1.00  0.00     0.047 C 
ATOM     10  C   UNL     1       9.017   6.763  -8.063  1.00  0.00     0.014 C 
ATOM     11  C   UNL     1       6.780   7.464  -8.983  1.00  0.00     0.014 C 
ENDBRANCH   1   9
TORSDOF 3
ENDMDL
MODEL 4
REMARK VINA RESULT:    -3.047      2.788      4.206
REMARK INTER + INTRA:          -3.541
REMARK INTER:                  -3.497
REMARK INTRA:                  -0.044
REMARK UNBOUND:                -0.048
REMARK SMILES CC(C)[C@H]([NH3+])C(=O)[O-]
REMARK SMILES IDX 4 1 5 2 6 6 7 7 8 8 2 9 1 10 3 11
REMARK H PARENT 5 3 5 4 5 5
REMARK Flexibility Score: inf
ROOT
ATOM      1  C   UNL     1       1.348  13.985  -8.290  1.00  0.00     0.230 C 
ENDROOT
BRANCH   1   2
ATOM      2  N   UNL     1       1.609  13.591  -6.898  1.00  0.00    -0.350 N 
ATOM      3  H   UNL     1       1.741  14.442  -6.305  1.00  0.00     0.345 HD
ATOM      4  H   UNL     1       2.456  12.985  -6.825  1.00  0.00     0.345 HD
ATOM      5  H   UNL     1       0.787  13.061  -6.527  1.00  0.00     0.345 HD
ENDBRANCH   1   2
BRANCH   1   6
ATOM      6  C   UNL     1       0.212  13.173  -8.869  1.00  0.00     0.099 C 
ATOM      7  O   UNL     1      -0.665  13.733  -9.578  1.00  0.00    -0.544 OA
ATOM      8  O   UNL     1       0.138  11.802  -8.651  1.00  0.00    -0.544 OA
ENDBRANCH   1   6
BRANCH   1   9
ATOM      9  C   UNL     1       2.638  13.916  -9.161  1.00  0.00     0.047 C 
ATOM     10  C   UNL     1       3.827  13.367  -8.359  1.00  0.00     0.014 C 
ATOM     11  C   UNL     1       3.017  15.259  -9.811  1.00  0.00     0.014 C 
ENDBRANCH   1   9
TORSDOF 3
ENDMDL
MODEL 5
REMARK VINA RESULT:    -3.020      3.895      4.839
REMARK INTER + INTRA:          -3.510
REMARK INTER:                  -3.460
REMARK INTRA:                  -0.050
REMARK UNBOUND:                -0.048
REMARK SMILES CC(C)[C@H]([NH3+])C(=O)[O-]
REMARK SMILES IDX 4 1 5 2 6 6 7 7 8 8 2 9 1 10 3 11
REMARK H PARENT 5 3 5 4 5 5
REMARK Flexibility Score: inf
ROOT
ATOM      1  C   UNL     1       3.099  13.905  -9.289  1.00  0.00     0.230 C 
ENDROOT
BRANCH   1   2
ATOM      2  N   UNL     1       4.190  13.278  -8.530  1.00  0.00    -0.350 N 
ATOM      3  H   UNL     1       3.799  12.596  -7.840  1.00  0.00     0.345 HD
ATOM      4  H   UNL     1       4.761  13.990  -8.022  1.00  0.00     0.345 HD
ATOM      5  H   UNL     1       4.814  12.754  -9.185  1.00  0.00     0.345 HD
ENDBRANCH   1   2
BRANCH   1   6
ATOM      6  C   UNL     1       3.556  15.211  -9.897  1.00  0.00     0.099 C 
ATOM      7  O   UNL     1       3.433  16.284  -9.250  1.00  0.00    -0.544 OA
ATOM      8  O   UNL     1       4.141  15.239 -11.158  1.00  0.00    -0.544 OA
ENDBRANCH   1   6
BRANCH   1   9
ATOM      9  C   UNL     1       1.811  14.064  -8.425  1.00  0.00     0.047 C 
ATOM     10  C   UNL     1       2.113  13.879  -6.930  1.00  0.00     0.014 C 
ATOM     11  C   UNL     1       0.663  13.132  -8.849  1.00  0.00     0.014 C 
ENDBRANCH   1   9
TORSDOF 3
ENDMDL
MODEL 6
REMARK VINA RESULT:    -2.975      1.762      2.344
REMARK INTER + INTRA:          -3.458
REMARK INTER:                  -3.407
REMARK INTRA:                  -0.050
REMARK UNBOUND:                -0.048
REMARK SMILES CC(C)[C@H]([NH3+])C(=O)[O-]
REMARK SMILES IDX 4 1 5 2 6 6 7 7 8 8 2 9 1 10 3 11
REMARK H PARENT 5 3 5 4 5 5
REMARK Flexibility Score: inf
ROOT
ATOM      1  C   UNL     1      -1.941  13.057  -8.963  1.00  0.00     0.230 C 
ENDROOT
BRANCH   1   2
ATOM      2  N   UNL     1      -1.821  12.753 -10.396  1.00  0.00    -0.350 N 
ATOM      3  H   UNL     1      -2.141  13.572 -10.963  1.00  0.00     0.345 HD
ATOM      4  H   UNL     1      -2.385  11.913 -10.658  1.00  0.00     0.345 HD
ATOM      5  H   UNL     1      -0.819  12.569 -10.631  1.00  0.00     0.345 HD
ENDBRANCH   1   2
BRANCH   1   6
ATOM      6  C   UNL     1      -1.258  11.993  -8.135  1.00  0.00     0.099 C 
ATOM      7  O   UNL     1      -0.209  11.440  -8.561  1.00  0.00    -0.544 OA
ATOM      8  O   UNL     1      -1.759  11.636  -6.889  1.00  0.00    -0.544 OA
ENDBRANCH   1   6
BRANCH   1   9
ATOM      9  C   UNL     1      -3.424  13.284  -8.543  1.00  0.00     0.047 C 
ATOM     10  C   UNL     1      -4.361  13.257  -9.760  1.00  0.00     0.014 C 
ATOM     11  C   UNL     1      -3.646  14.575  -7.736  1.00  0.00     0.014 C 
ENDBRANCH   1   9
TORSDOF 3
ENDMDL
MODEL 7
REMARK VINA RESULT:    -2.921      3.663      4.725
REMARK INTER + INTRA:          -3.396
REMARK INTER:                  -3.341
REMARK INTRA:                  -0.055
REMARK UNBOUND:                -0.048
REMARK SMILES CC(C)[C@H]([NH3+])C(=O)[O-]
REMARK SMILES IDX 4 1 5 2 6 6 7 7 8 8 2 9 1 10 3 11
REMARK H PARENT 5 3 5 4 5 5
REMARK Flexibility Score: inf
ROOT
ATOM      1  C   UNL     1       2.152  14.935  -9.265  1.00  0.00     0.230 C 
ENDROOT
BRANCH   1   2
ATOM      2  N   UNL     1       1.180  15.538  -8.342  1.00  0.00    -0.350 N 
ATOM      3  H   UNL     1       1.357  15.202  -7.368  1.00  0.00     0.345 HD
ATOM      4  H   UNL     1       0.200  15.305  -8.613  1.00  0.00     0.345 HD
ATOM      5  H   UNL     1       1.291  16.578  -8.350  1.00  0.00     0.345 HD
ENDBRANCH   1   2
BRANCH   1   6
ATOM      6  C   UNL     1       2.402  13.489  -8.905  1.00  0.00     0.099 C 
ATOM      7  O   UNL     1       1.483  12.638  -9.043  1.00  0.00    -0.544 OA
ATOM      8  O   UNL     1       3.648  13.077  -8.449  1.00  0.00    -0.544 OA
ENDBRANCH   1   6
BRANCH   1   9
ATOM      9  C   UNL     1       3.467  15.769  -9.345  1.00  0.00     0.047 C 
ATOM     10  C   UNL     1       3.321  17.115  -8.619  1.00  0.00     0.014 C 
ATOM     11  C   UNL     1       3.968  15.997 -10.781  1.00  0.00     0.014 C 
ENDBRANCH   1   9
TORSDOF 3
ENDMDL
MODEL 8
REMARK VINA RESULT:    -2.889      2.608      4.262
REMARK INTER + INTRA:          -3.359
REMARK INTER:                  -3.310
REMARK INTRA:                  -0.049
REMARK UNBOUND:                -0.048
REMARK SMILES CC(C)[C@H]([NH3+])C(=O)[O-]
REMARK SMILES IDX 4 1 5 2 6 6 7 7 8 8 2 9 1 10 3 11
REMARK H PARENT 5 3 5 4 5 5
REMARK Flexibility Score: inf
ROOT
ATOM      1  C   UNL     1       1.400  13.928  -8.866  1.00  0.00     0.230 C 
ENDROOT
BRANCH   1   2
ATOM      2  N   UNL     1       1.202  15.334  -8.488  1.00  0.00    -0.350 N 
ATOM      3  H   UNL     1       0.409  15.743  -9.034  1.00  0.00     0.345 HD
ATOM      4  H   UNL     1       2.063  15.900  -8.656  1.00  0.00     0.345 HD
ATOM      5  H   UNL     1       0.959  15.390  -7.472  1.00  0.00     0.345 HD
ENDBRANCH   1   2
BRANCH   1   6
ATOM      6  C   UNL     1       0.412  13.039  -8.146  1.00  0.00     0.099 C 
ATOM      7  O   UNL     1      -0.128  13.433  -7.079  1.00  0.00    -0.544 OA
ATOM      8  O   UNL     1       0.067  11.797  -8.666  1.00  0.00    -0.544 OA
ENDBRANCH   1   6
BRANCH   1   9
ATOM      9  C   UNL     1       2.877  13.475  -8.656  1.00  0.00     0.047 C 
ATOM     10  C   UNL     1       3.379  13.839  -7.251  1.00  0.00     0.014 C 
ATOM     11  C   UNL     1       3.847  14.019  -9.719  1.00  0.00     0.014 C 
ENDBRANCH   1   9
TORSDOF 3
ENDMDL
MODEL 9
REMARK VINA RESULT:    -2.877      2.690      3.635
REMARK INTER + INTRA:          -3.346
REMARK INTER:                  -3.301
REMARK INTRA:                  -0.045
REMARK UNBOUND:                -0.048
REMARK SMILES CC(C)[C@H]([NH3+])C(=O)[O-]
REMARK SMILES IDX 4 1 5 2 6 6 7 7 8 8 2 9 1 10 3 11
REMARK H PARENT 5 3 5 4 5 5
REMARK Flexibility Score: inf
ROOT
ATOM      1  C   UNL     1       2.168  14.441  -8.709  1.00  0.00     0.230 C 
ENDROOT
BRANCH   1   2
ATOM      2  N   UNL     1       1.723  15.440  -9.691  1.00  0.00    -0.350 N 
ATOM      3  H   UNL     1       2.050  16.392  -9.406  1.00  0.00     0.345 HD
ATOM      4  H   UNL     1       0.683  15.447  -9.785  1.00  0.00     0.345 HD
ATOM      5  H   UNL     1       2.141  15.220 -10.625  1.00  0.00     0.345 HD
ENDBRANCH   1   2
BRANCH   1   6
ATOM      6  C   UNL     1       3.446  13.777  -9.167  1.00  0.00     0.099 C 
ATOM      7  O   UNL     1       3.940  14.068 -10.288  1.00  0.00    -0.544 OA
ATOM      8  O   UNL     1       4.102  12.865  -8.349  1.00  0.00    -0.544 OA
ENDBRANCH   1   6
BRANCH   1   9
ATOM      9  C   UNL     1       1.043  13.414  -8.380  1.00  0.00     0.047 C 
ATOM     10  C   UNL     1      -0.217  13.675  -9.219  1.00  0.00     0.014 C 
ATOM     11  C   UNL     1       0.678  13.355  -6.886  1.00  0.00     0.014 C 
ENDBRANCH   1   9
TORSDOF 3
ENDMDL
