MODEL 1
REMARK VINA RESULT:    -3.628      0.000      0.000
REMARK INTER + INTRA:          -5.708
REMARK INTER:                  -4.901
REMARK INTRA:                  -0.807
REMARK UNBOUND:                -0.807
REMARK SMILES CC(=O)CCC=C(C)CCC=C(C)C
REMARK SMILES IDX 7 1 6 2 8 3 9 4 10 5 11 6 13 7 12 8 14 9 5 10 4 11 2 12 3 13
REMARK SMILES IDX 1 14
REMARK H PARENT
REMARK Flexibility Score: inf
ROOT
ATOM      1  C   UNL     1       9.007 -32.898  13.427  1.00  0.00    -0.077 C 
ATOM      2  C   UNL     1       9.991 -32.006  13.688  1.00  0.00    -0.028 C 
ATOM      3  C   UNL     1       9.297 -34.359  13.178  1.00  0.00     0.039 C 
ENDROOT
BRANCH   1   4
ATOM      4  C   UNL     1       7.567 -32.432  13.435  1.00  0.00     0.034 C 
BRANCH   4   5
ATOM      5  C   UNL     1       6.836 -32.864  14.713  1.00  0.00     0.032 C 
BRANCH   5   6
ATOM      6  C   UNL     1       7.396 -32.167  15.931  1.00  0.00    -0.028 C 
ATOM      7  C   UNL     1       8.686 -31.911  18.006  1.00  0.00     0.039 C 
ATOM      8  C   UNL     1       8.147 -32.761  16.886  1.00  0.00    -0.080 C 
ATOM      9  C   UNL     1       8.460 -34.238  16.857  1.00  0.00     0.039 C 
ENDBRANCH   5   6
ENDBRANCH   4   5
ENDBRANCH   1   4
BRANCH   2  10
ATOM     10  C   UNL     1      11.462 -32.340  13.716  1.00  0.00     0.035 C 
BRANCH  10  11
ATOM     11  C   UNL     1      12.268 -31.190  14.339  1.00  0.00     0.079 C 
BRANCH  11  12
ATOM     12  C   UNL     1      13.702 -31.105  13.867  1.00  0.00     0.130 C 
ATOM     13  O   UNL     1      14.289 -32.144  13.605  1.00  0.00    -0.300 OA
ATOM     14  C   UNL     1      14.438 -29.802  13.711  1.00  0.00     0.087 C 
ENDBRANCH  11  12
ENDBRANCH  10  11
ENDBRANCH   2  10
TORSDOF 6
ENDMDL
MODEL 2
REMARK VINA RESULT:    -3.268      2.903      4.863
REMARK INTER + INTRA:          -5.221
REMARK INTER:                  -4.268
REMARK INTRA:                  -0.953
REMARK UNBOUND:                -0.807
REMARK SMILES CC(=O)CCC=C(C)CCC=C(C)C
REMARK SMILES IDX 7 1 6 2 8 3 9 4 10 5 11 6 13 7 12 8 14 9 5 10 4 11 2 12 3 13
REMARK SMILES IDX 1 14
REMARK H PARENT
REMARK Flexibility Score: inf
ROOT
ATOM      1  C   UNL     1       7.244 -34.241  14.688  1.00  0.00    -0.077 C 
ATOM      2  C   UNL     1       7.850 -33.820  15.822  1.00  0.00    -0.028 C 
ATOM      3  C   UNL     1       6.463 -33.300  13.802  1.00  0.00     0.039 C 
ENDROOT
BRANCH   1   4
ATOM      4  C   UNL     1       7.394 -35.686  14.263  1.00  0.00     0.034 C 
BRANCH   4   5
ATOM      5  C   UNL     1       8.035 -35.808  12.875  1.00  0.00     0.032 C 
BRANCH   5   6
ATOM      6  C   UNL     1       9.504 -36.151  12.974  1.00  0.00    -0.028 C 
ATOM      7  C   UNL     1      11.920 -35.750  13.171  1.00  0.00     0.039 C 
ATOM      8  C   UNL     1      10.509 -35.248  13.002  1.00  0.00    -0.080 C 
ATOM      9  C   UNL     1      10.259 -33.765  12.875  1.00  0.00     0.039 C 
ENDBRANCH   5   6
ENDBRANCH   4   5
ENDBRANCH   1   4
BRANCH   2  10
ATOM     10  C   UNL     1       7.786 -32.410  16.354  1.00  0.00     0.035 C 
BRANCH  10  11
ATOM     11  C   UNL     1       9.153 -31.721  16.235  1.00  0.00     0.079 C 
BRANCH  11  12
ATOM     12  C   UNL     1       9.653 -31.099  17.520  1.00  0.00     0.130 C 
ATOM     13  O   UNL     1      10.534 -30.256  17.452  1.00  0.00    -0.300 OA
ATOM     14  C   UNL     1       9.119 -31.476  18.875  1.00  0.00     0.087 C 
ENDBRANCH  11  12
ENDBRANCH  10  11
ENDBRANCH   2  10
TORSDOF 6
ENDMDL
MODEL 3
REMARK VINA RESULT:    -2.940      2.411      5.143
REMARK INTER + INTRA:          -4.778
REMARK INTER:                  -4.426
REMARK INTRA:                  -0.352
REMARK UNBOUND:                -0.807
REMARK SMILES CC(=O)CCC=C(C)CCC=C(C)C
REMARK SMILES IDX 7 1 6 2 8 3 9 4 10 5 11 6 13 7 12 8 14 9 5 10 4 11 2 12 3 13
REMARK SMILES IDX 1 14
REMARK H PARENT
REMARK Flexibility Score: inf
ROOT
ATOM      1  C   UNL     1       8.669 -32.514  13.855  1.00  0.00    -0.077 C 
ATOM      2  C   UNL     1       8.911 -32.414  15.183  1.00  0.00    -0.028 C 
ATOM      3  C   UNL     1       7.273 -32.419  13.287  1.00  0.00     0.039 C 
ENDROOT
BRANCH   1   4
ATOM      4  C   UNL     1       9.834 -32.672  12.902  1.00  0.00     0.034 C 
BRANCH   4   5
ATOM      5  C   UNL     1      10.982 -33.470  13.532  1.00  0.00     0.032 C 
BRANCH   5   6
ATOM      6  C   UNL     1      12.317 -32.807  13.281  1.00  0.00    -0.028 C 
ATOM      7  C   UNL     1      14.162 -31.221  13.619  1.00  0.00     0.039 C 
ATOM      8  C   UNL     1      12.779 -31.722  13.942  1.00  0.00    -0.080 C 
ATOM      9  C   UNL     1      11.956 -31.009  14.988  1.00  0.00     0.039 C 
ENDBRANCH   5   6
ENDBRANCH   4   5
ENDBRANCH   1   4
BRANCH   2  10
ATOM     10  C   UNL     1       7.844 -32.249  16.237  1.00  0.00     0.035 C 
BRANCH  10  11
ATOM     11  C   UNL     1       8.341 -32.758  17.598  1.00  0.00     0.079 C 
BRANCH  11  12
ATOM     12  C   UNL     1       9.038 -31.712  18.439  1.00  0.00     0.130 C 
ATOM     13  O   UNL     1       8.865 -31.732  19.648  1.00  0.00    -0.300 OA
ATOM     14  C   UNL     1       9.928 -30.649  17.855  1.00  0.00     0.087 C 
ENDBRANCH  11  12
ENDBRANCH  10  11
ENDBRANCH   2  10
TORSDOF 6
ENDMDL
MODEL 4
REMARK VINA RESULT:    -2.810      1.638      2.395
REMARK INTER + INTRA:          -4.602
REMARK INTER:                  -4.068
REMARK INTRA:                  -0.534
REMARK UNBOUND:                -0.807
REMARK SMILES CC(=O)CCC=C(C)CCC=C(C)C
REMARK SMILES IDX 7 1 6 2 8 3 9 4 10 5 11 6 13 7 12 8 14 9 5 10 4 11 2 12 3 13
REMARK SMILES IDX 1 14
REMARK H PARENT
REMARK Flexibility Score: inf
ROOT
ATOM      1  C   UNL     1       8.366 -33.945  14.245  1.00  0.00    -0.077 C 
ATOM      2  C   UNL     1       9.659 -34.332  14.147  1.00  0.00    -0.028 C 
ATOM      3  C   UNL     1       7.598 -33.411  13.059  1.00  0.00     0.039 C 
ENDROOT
BRANCH   1   4
ATOM      4  C   UNL     1       7.647 -34.100  15.569  1.00  0.00     0.034 C 
BRANCH   4   5
ATOM      5  C   UNL     1       7.349 -32.742  16.216  1.00  0.00     0.032 C 
BRANCH   5   6
ATOM      6  C   UNL     1       8.594 -31.891  16.313  1.00  0.00    -0.028 C 
ATOM      7  C   UNL     1      10.459 -30.714  17.395  1.00  0.00     0.039 C 
ATOM      8  C   UNL     1       9.182 -31.508  17.469  1.00  0.00    -0.080 C 
ATOM      9  C   UNL     1       8.599 -31.853  18.818  1.00  0.00     0.039 C 
ENDBRANCH   5   6
ENDBRANCH   4   5
ENDBRANCH   1   4
BRANCH   2  10
ATOM     10  C   UNL     1      10.487 -34.237  12.889  1.00  0.00     0.035 C 
BRANCH  10  11
ATOM     11  C   UNL     1      11.745 -33.390  13.129  1.00  0.00     0.079 C 
BRANCH  11  12
ATOM     12  C   UNL     1      11.469 -31.984  13.611  1.00  0.00     0.130 C 
ATOM     13  O   UNL     1      10.387 -31.482  13.347  1.00  0.00    -0.300 OA
ATOM     14  C   UNL     1      12.466 -31.175  14.396  1.00  0.00     0.087 C 
ENDBRANCH  11  12
ENDBRANCH  10  11
ENDBRANCH   2  10
TORSDOF 6
ENDMDL
MODEL 5
REMARK VINA RESULT:    -2.778      3.065      5.331
REMARK INTER + INTRA:          -4.559
REMARK INTER:                  -4.044
REMARK INTRA:                  -0.515
REMARK UNBOUND:                -0.807
REMARK SMILES CC(=O)CCC=C(C)CCC=C(C)C
REMARK SMILES IDX 7 1 6 2 8 3 9 4 10 5 11 6 13 7 12 8 14 9 5 10 4 11 2 12 3 13
REMARK SMILES IDX 1 14
REMARK H PARENT
REMARK Flexibility Score: inf
ROOT
ATOM      1  C   UNL     1       8.401 -32.849  12.995  1.00  0.00    -0.077 C 
ATOM      2  C   UNL     1       8.646 -34.180  12.995  1.00  0.00    -0.028 C 
ATOM      3  C   UNL     1       6.998 -32.295  12.919  1.00  0.00     0.039 C 
ENDROOT
BRANCH   1   4
ATOM      4  C   UNL     1       9.559 -31.884  13.128  1.00  0.00     0.034 C 
BRANCH   4   5
ATOM      5  C   UNL     1      10.356 -32.124  14.416  1.00  0.00     0.032 C 
BRANCH   5   6
ATOM      6  C   UNL     1       9.441 -32.317  15.603  1.00  0.00    -0.028 C 
ATOM      7  C   UNL     1       8.485 -31.887  17.825  1.00  0.00     0.039 C 
ATOM      8  C   UNL     1       9.516 -31.621  16.759  1.00  0.00    -0.080 C 
ATOM      9  C   UNL     1      10.593 -30.592  17.007  1.00  0.00     0.039 C 
ENDBRANCH   5   6
ENDBRANCH   4   5
ENDBRANCH   1   4
BRANCH   2  10
ATOM     10  C   UNL     1       7.585 -35.246  12.876  1.00  0.00     0.035 C 
BRANCH  10  11
ATOM     11  C   UNL     1       7.732 -36.286  13.995  1.00  0.00     0.079 C 
BRANCH  11  12
ATOM     12  C   UNL     1       6.871 -36.023  15.210  1.00  0.00     0.130 C 
ATOM     13  O   UNL     1       6.458 -34.888  15.393  1.00  0.00    -0.300 OA
ATOM     14  C   UNL     1       6.505 -37.092  16.204  1.00  0.00     0.087 C 
ENDBRANCH  11  12
ENDBRANCH  10  11
ENDBRANCH   2  10
TORSDOF 6
ENDMDL
MODEL 6
REMARK VINA RESULT:    -2.674      2.863      5.924
REMARK INTER + INTRA:          -4.418
REMARK INTER:                  -3.716
REMARK INTRA:                  -0.702
REMARK UNBOUND:                -0.807
REMARK SMILES CC(=O)CCC=C(C)CCC=C(C)C
REMARK SMILES IDX 7 1 6 2 8 3 9 4 10 5 11 6 13 7 12 8 14 9 5 10 4 11 2 12 3 13
REMARK SMILES IDX 1 14
REMARK H PARENT
REMARK Flexibility Score: inf
ROOT
ATOM      1  C   UNL     1       8.266 -32.801  15.729  1.00  0.00    -0.077 C 
ATOM      2  C   UNL     1       7.261 -32.564  14.855  1.00  0.00    -0.028 C 
ATOM      3  C   UNL     1       8.230 -33.963  16.693  1.00  0.00     0.039 C 
ENDROOT
BRANCH   1   4
ATOM      4  C   UNL     1       9.489 -31.909  15.707  1.00  0.00     0.034 C 
BRANCH   4   5
ATOM      5  C   UNL     1      10.163 -31.899  14.329  1.00  0.00     0.032 C 
BRANCH   5   6
ATOM      6  C   UNL     1      11.541 -31.282  14.394  1.00  0.00    -0.028 C 
ATOM      7  C   UNL     1      13.950 -31.060  13.967  1.00  0.00     0.039 C 
ATOM      8  C   UNL     1      12.661 -31.834  13.877  1.00  0.00    -0.080 C 
ATOM      9  C   UNL     1      12.655 -33.191  13.215  1.00  0.00     0.039 C 
ENDBRANCH   5   6
ENDBRANCH   4   5
ENDBRANCH   1   4
BRANCH   2  10
ATOM     10  C   UNL     1       5.993 -33.377  14.768  1.00  0.00     0.035 C 
BRANCH  10  11
ATOM     11  C   UNL     1       5.875 -34.055  13.395  1.00  0.00     0.079 C 
BRANCH  11  12
ATOM     12  C   UNL     1       6.574 -35.392  13.296  1.00  0.00     0.130 C 
ATOM     13  O   UNL     1       5.906 -36.406  13.424  1.00  0.00    -0.300 OA
ATOM     14  C   UNL     1       8.053 -35.528  13.052  1.00  0.00     0.087 C 
ENDBRANCH  11  12
ENDBRANCH  10  11
ENDBRANCH   2  10
TORSDOF 6
ENDMDL
MODEL 7
REMARK VINA RESULT:    -2.618      2.660      6.076
REMARK INTER + INTRA:          -4.343
REMARK INTER:                  -3.654
REMARK INTRA:                  -0.690
REMARK UNBOUND:                -0.807
REMARK SMILES CC(=O)CCC=C(C)CCC=C(C)C
REMARK SMILES IDX 7 1 6 2 8 3 9 4 10 5 11 6 13 7 12 8 14 9 5 10 4 11 2 12 3 13
REMARK SMILES IDX 1 14
REMARK H PARENT
REMARK Flexibility Score: inf
ROOT
ATOM      1  C   UNL     1       8.704 -32.229  13.895  1.00  0.00    -0.077 C 
ATOM      2  C   UNL     1       7.613 -32.474  13.132  1.00  0.00    -0.028 C 
ATOM      3  C   UNL     1       8.682 -32.390  15.397  1.00  0.00     0.039 C 
ENDROOT
BRANCH   1   4
ATOM      4  C   UNL     1      10.001 -31.832  13.223  1.00  0.00     0.034 C 
BRANCH   4   5
ATOM      5  C   UNL     1      11.222 -32.254  14.049  1.00  0.00     0.032 C 
BRANCH   5   6
ATOM      6  C   UNL     1      12.176 -31.099  14.253  1.00  0.00    -0.028 C 
ATOM      7  C   UNL     1      14.286 -29.848  14.123  1.00  0.00     0.039 C 
ATOM      8  C   UNL     1      13.484 -31.106  13.914  1.00  0.00    -0.080 C 
ATOM      9  C   UNL     1      14.156 -32.328  13.335  1.00  0.00     0.039 C 
ENDBRANCH   5   6
ENDBRANCH   4   5
ENDBRANCH   1   4
BRANCH   2  10
ATOM     10  C   UNL     1       6.265 -32.882  13.673  1.00  0.00     0.035 C 
BRANCH  10  11
ATOM     11  C   UNL     1       5.964 -34.349  13.332  1.00  0.00     0.079 C 
BRANCH  11  12
ATOM     12  C   UNL     1       6.702 -35.353  14.189  1.00  0.00     0.130 C 
ATOM     13  O   UNL     1       6.535 -35.318  15.398  1.00  0.00    -0.300 OA
ATOM     14  C   UNL     1       7.635 -36.388  13.620  1.00  0.00     0.087 C 
ENDBRANCH  11  12
ENDBRANCH  10  11
ENDBRANCH   2  10
TORSDOF 6
ENDMDL
MODEL 8
REMARK VINA RESULT:    -2.617      1.249      3.072
REMARK INTER + INTRA:          -4.341
REMARK INTER:                  -3.631
REMARK INTRA:                  -0.710
REMARK UNBOUND:                -0.807
REMARK SMILES CC(=O)CCC=C(C)CCC=C(C)C
REMARK SMILES IDX 7 1 6 2 8 3 9 4 10 5 11 6 13 7 12 8 14 9 5 10 4 11 2 12 3 13
REMARK SMILES IDX 1 14
REMARK H PARENT
REMARK Flexibility Score: inf
ROOT
ATOM      1  C   UNL     1       9.241 -31.805  16.442  1.00  0.00    -0.077 C 
ATOM      2  C   UNL     1      10.060 -31.764  15.366  1.00  0.00    -0.028 C 
ATOM      3  C   UNL     1       9.618 -31.170  17.760  1.00  0.00     0.039 C 
ENDROOT
BRANCH   1   4
ATOM      4  C   UNL     1       7.882 -32.460  16.311  1.00  0.00     0.034 C 
BRANCH   4   5
ATOM      5  C   UNL     1       7.490 -32.670  14.843  1.00  0.00     0.032 C 
BRANCH   5   6
ATOM      6  C   UNL     1       7.159 -34.118  14.563  1.00  0.00    -0.028 C 
ATOM      7  C   UNL     1       7.489 -36.395  13.703  1.00  0.00     0.039 C 
ATOM      8  C   UNL     1       7.927 -34.960  13.836  1.00  0.00    -0.080 C 
ATOM      9  C   UNL     1       9.200 -34.507  13.163  1.00  0.00     0.039 C 
ENDBRANCH   5   6
ENDBRANCH   4   5
ENDBRANCH   1   4
BRANCH   2  10
ATOM     10  C   UNL     1      11.433 -31.139  15.360  1.00  0.00     0.035 C 
BRANCH  10  11
ATOM     11  C   UNL     1      12.010 -31.107  13.937  1.00  0.00     0.079 C 
BRANCH  11  12
ATOM     12  C   UNL     1      13.521 -31.126  13.875  1.00  0.00     0.130 C 
ATOM     13  O   UNL     1      14.084 -32.204  13.777  1.00  0.00    -0.300 OA
ATOM     14  C   UNL     1      14.359 -29.877  13.934  1.00  0.00     0.087 C 
ENDBRANCH  11  12
ENDBRANCH  10  11
ENDBRANCH   2  10
TORSDOF 6
ENDMDL
