MODEL 1
REMARK VINA RESULT:    -5.422      0.000      0.000
REMARK INTER + INTRA:          -8.439
REMARK INTER:                  -7.799
REMARK INTRA:                  -0.639
REMARK UNBOUND:                -0.639
REMARK SMILES O=C(CO)[C@H](O)[C@@H](O)[C@@H](O)CO
REMARK SMILES IDX 7 1 9 2 11 3 12 4 10 6 5 8 2 9 1 10 3 11 4 12 6 14 8 16
REMARK H PARENT 12 5 10 7 4 13 6 15 8 17
REMARK Flexibility Score: inf
ROOT
ATOM      1  C   UNL     1     -25.799 -14.041  19.426  1.00  0.00     0.181 C 
ENDROOT
BRANCH   1   2
ATOM      2  C   UNL     1     -26.175 -12.852  18.503  1.00  0.00     0.171 C 
BRANCH   2   3
ATOM      3  C   UNL     1     -27.517 -12.187  18.861  1.00  0.00     0.190 C 
BRANCH   3   4
ATOM      4  O   UNL     1     -28.569 -12.897  18.266  1.00  0.00    -0.394 OA
ATOM      5  H   UNL     1     -29.154 -12.218  17.838  1.00  0.00     0.210 HD
ENDBRANCH   3   4
ENDBRANCH   2   3
BRANCH   2   6
ATOM      6  O   UNL     1     -26.178 -13.269  17.159  1.00  0.00    -0.388 OA
ATOM      7  H   UNL     1     -26.993 -13.817  17.015  1.00  0.00     0.211 HD
ENDBRANCH   2   6
ENDBRANCH   1   2
BRANCH   1   8
ATOM      8  C   UNL     1     -25.008 -13.601  20.682  1.00  0.00     0.214 C 
BRANCH   8   9
ATOM      9  C   UNL     1     -24.126 -14.724  21.182  1.00  0.00     0.189 C 
ATOM     10  O   UNL     1     -23.922 -15.700  20.475  1.00  0.00    -0.294 OA
BRANCH   9  11
ATOM     11  C   UNL     1     -23.501 -14.655  22.544  1.00  0.00     0.234 C 
BRANCH  11  12
ATOM     12  O   UNL     1     -24.506 -14.665  23.519  1.00  0.00    -0.388 OA
ATOM     13  H   UNL     1     -24.643 -13.718  23.784  1.00  0.00     0.211 HD
ENDBRANCH  11  12
ENDBRANCH   9  11
ENDBRANCH   8   9
BRANCH   8  14
ATOM     14  O   UNL     1     -25.890 -13.213  21.703  1.00  0.00    -0.382 OA
ATOM     15  H   UNL     1     -26.185 -12.288  21.492  1.00  0.00     0.211 HD
ENDBRANCH   8  14
ENDBRANCH   1   8
BRANCH   1  16
ATOM     16  O   UNL     1     -26.961 -14.745  19.798  1.00  0.00    -0.387 OA
ATOM     17  H   UNL     1     -26.696 -15.688  19.955  1.00  0.00     0.211 HD
ENDBRANCH   1  16
TORSDOF 10
ENDMDL
MODEL 2
REMARK VINA RESULT:    -5.307      1.605      2.735
REMARK INTER + INTRA:          -8.273
REMARK INTER:                  -7.449
REMARK INTRA:                  -0.824
REMARK UNBOUND:                -0.639
REMARK SMILES O=C(CO)[C@H](O)[C@@H](O)[C@@H](O)CO
REMARK SMILES IDX 7 1 9 2 11 3 12 4 10 6 5 8 2 9 1 10 3 11 4 12 6 14 8 16
REMARK H PARENT 12 5 10 7 4 13 6 15 8 17
REMARK Flexibility Score: inf
ROOT
ATOM      1  C   UNL     1     -24.906 -14.256  21.752  1.00  0.00     0.181 C 
ENDROOT
BRANCH   1   2
ATOM      2  C   UNL     1     -24.654 -14.431  20.231  1.00  0.00     0.171 C 
BRANCH   2   3
ATOM      3  C   UNL     1     -25.819 -13.947  19.348  1.00  0.00     0.190 C 
BRANCH   3   4
ATOM      4  O   UNL     1     -27.018 -14.517  19.796  1.00  0.00    -0.394 OA
ATOM      5  H   UNL     1     -27.490 -14.843  18.985  1.00  0.00     0.210 HD
ENDBRANCH   3   4
ENDBRANCH   2   3
BRANCH   2   6
ATOM      6  O   UNL     1     -24.348 -15.774  19.946  1.00  0.00    -0.388 OA
ATOM      7  H   UNL     1     -25.206 -16.259  19.820  1.00  0.00     0.211 HD
ENDBRANCH   2   6
ENDBRANCH   1   2
BRANCH   1   8
ATOM      8  C   UNL     1     -23.595 -14.213  22.577  1.00  0.00     0.214 C 
BRANCH   8   9
ATOM      9  C   UNL     1     -23.379 -15.520  23.307  1.00  0.00     0.189 C 
ATOM     10  O   UNL     1     -23.221 -16.554  22.674  1.00  0.00    -0.294 OA
BRANCH   9  11
ATOM     11  C   UNL     1     -23.359 -15.563  24.807  1.00  0.00     0.234 C 
BRANCH  11  12
ATOM     12  O   UNL     1     -24.638 -15.272  25.297  1.00  0.00    -0.388 OA
ATOM     13  H   UNL     1     -24.987 -14.533  24.734  1.00  0.00     0.211 HD
ENDBRANCH  11  12
ENDBRANCH   9  11
ENDBRANCH   8   9
BRANCH   8  14
ATOM     14  O   UNL     1     -23.640 -13.163  23.508  1.00  0.00    -0.382 OA
ATOM     15  H   UNL     1     -24.597 -12.931  23.634  1.00  0.00     0.211 HD
ENDBRANCH   8  14
ENDBRANCH   1   8
BRANCH   1  16
ATOM     16  O   UNL     1     -25.669 -13.096  21.981  1.00  0.00    -0.387 OA
ATOM     17  H   UNL     1     -25.503 -12.813  22.917  1.00  0.00     0.211 HD
ENDBRANCH   1  16
TORSDOF 10
ENDMDL
MODEL 3
REMARK VINA RESULT:    -5.209      1.904      5.779
REMARK INTER + INTRA:          -8.132
REMARK INTER:                  -7.580
REMARK INTRA:                  -0.552
REMARK UNBOUND:                -0.639
REMARK SMILES O=C(CO)[C@H](O)[C@@H](O)[C@@H](O)CO
REMARK SMILES IDX 7 1 9 2 11 3 12 4 10 6 5 8 2 9 1 10 3 11 4 12 6 14 8 16
REMARK H PARENT 12 5 10 7 4 13 6 15 8 17
REMARK Flexibility Score: inf
ROOT
ATOM      1  C   UNL     1     -23.725 -15.341  23.317  1.00  0.00     0.181 C 
ENDROOT
BRANCH   1   2
ATOM      2  C   UNL     1     -23.221 -14.535  24.543  1.00  0.00     0.171 C 
BRANCH   2   3
ATOM      3  C   UNL     1     -22.674 -15.415  25.683  1.00  0.00     0.190 C 
BRANCH   3   4
ATOM      4  O   UNL     1     -23.719 -16.156  26.250  1.00  0.00    -0.394 OA
ATOM      5  H   UNL     1     -23.554 -17.102  26.000  1.00  0.00     0.210 HD
ENDBRANCH   3   4
ENDBRANCH   2   3
BRANCH   2   6
ATOM      6  O   UNL     1     -24.245 -13.696  25.021  1.00  0.00    -0.388 OA
ATOM      7  H   UNL     1     -24.941 -14.274  25.431  1.00  0.00     0.211 HD
ENDBRANCH   2   6
ENDBRANCH   1   2
BRANCH   1   8
ATOM      8  C   UNL     1     -23.467 -14.614  21.973  1.00  0.00     0.214 C 
BRANCH   8   9
ATOM      9  C   UNL     1     -24.727 -13.943  21.475  1.00  0.00     0.189 C 
ATOM     10  O   UNL     1     -25.318 -13.146  22.191  1.00  0.00    -0.294 OA
BRANCH   9  11
ATOM     11  C   UNL     1     -25.266 -14.247  20.108  1.00  0.00     0.234 C 
BRANCH  11  12
ATOM     12  O   UNL     1     -26.665 -14.204  20.139  1.00  0.00    -0.388 OA
ATOM     13  H   UNL     1     -26.915 -13.256  19.987  1.00  0.00     0.211 HD
ENDBRANCH  11  12
ENDBRANCH   9  11
ENDBRANCH   8   9
BRANCH   8  14
ATOM     14  O   UNL     1     -23.013 -15.526  21.006  1.00  0.00    -0.382 OA
ATOM     15  H   UNL     1     -22.462 -16.201  21.483  1.00  0.00     0.211 HD
ENDBRANCH   8  14
ENDBRANCH   1   8
BRANCH   1  16
ATOM     16  O   UNL     1     -23.134 -16.618  23.307  1.00  0.00    -0.387 OA
ATOM     17  H   UNL     1     -23.833 -17.268  23.579  1.00  0.00     0.211 HD
ENDBRANCH   1  16
TORSDOF 10
ENDMDL
MODEL 4
REMARK VINA RESULT:    -5.209      2.296      5.669
REMARK INTER + INTRA:          -8.132
REMARK INTER:                  -7.458
REMARK INTRA:                  -0.674
REMARK UNBOUND:                -0.639
REMARK SMILES O=C(CO)[C@H](O)[C@@H](O)[C@@H](O)CO
REMARK SMILES IDX 7 1 9 2 11 3 12 4 10 6 5 8 2 9 1 10 3 11 4 12 6 14 8 16
REMARK H PARENT 12 5 10 7 4 13 6 15 8 17
REMARK Flexibility Score: inf
ROOT
ATOM      1  C   UNL     1     -22.931 -14.109  23.896  1.00  0.00     0.181 C 
ENDROOT
BRANCH   1   2
ATOM      2  C   UNL     1     -23.284 -15.002  25.114  1.00  0.00     0.171 C 
BRANCH   2   3
ATOM      3  C   UNL     1     -22.793 -16.455  24.984  1.00  0.00     0.190 C 
BRANCH   3   4
ATOM      4  O   UNL     1     -23.502 -17.103  23.964  1.00  0.00    -0.394 OA
ATOM      5  H   UNL     1     -24.315 -17.482  24.389  1.00  0.00     0.210 HD
ENDBRANCH   3   4
ENDBRANCH   2   3
BRANCH   2   6
ATOM      6  O   UNL     1     -24.672 -14.973  25.345  1.00  0.00    -0.388 OA
ATOM      7  H   UNL     1     -25.044 -14.199  24.846  1.00  0.00     0.211 HD
ENDBRANCH   2   6
ENDBRANCH   1   2
BRANCH   1   8
ATOM      8  C   UNL     1     -24.159 -13.790  23.008  1.00  0.00     0.214 C 
BRANCH   8   9
ATOM      9  C   UNL     1     -24.039 -14.469  21.661  1.00  0.00     0.189 C 
ATOM     10  O   UNL     1     -23.166 -15.305  21.476  1.00  0.00    -0.294 OA
BRANCH   9  11
ATOM     11  C   UNL     1     -24.979 -14.123  20.545  1.00  0.00     0.234 C 
BRANCH  11  12
ATOM     12  O   UNL     1     -26.066 -13.404  21.058  1.00  0.00    -0.388 OA
ATOM     13  H   UNL     1     -25.858 -12.445  20.905  1.00  0.00     0.211 HD
ENDBRANCH  11  12
ENDBRANCH   9  11
ENDBRANCH   8   9
BRANCH   8  14
ATOM     14  O   UNL     1     -24.278 -12.403  22.820  1.00  0.00    -0.382 OA
ATOM     15  H   UNL     1     -25.244 -12.184  22.900  1.00  0.00     0.211 HD
ENDBRANCH   8  14
ENDBRANCH   1   8
BRANCH   1  16
ATOM     16  O   UNL     1     -22.319 -12.920  24.335  1.00  0.00    -0.387 OA
ATOM     17  H   UNL     1     -22.307 -12.943  25.327  1.00  0.00     0.211 HD
ENDBRANCH   1  16
TORSDOF 10
ENDMDL
MODEL 5
REMARK VINA RESULT:    -5.066      2.707      4.926
REMARK INTER + INTRA:          -7.927
REMARK INTER:                  -7.239
REMARK INTRA:                  -0.687
REMARK UNBOUND:                -0.639
REMARK SMILES O=C(CO)[C@H](O)[C@@H](O)[C@@H](O)CO
REMARK SMILES IDX 7 1 9 2 11 3 12 4 10 6 5 8 2 9 1 10 3 11 4 12 6 14 8 16
REMARK H PARENT 12 5 10 7 4 13 6 15 8 17
REMARK Flexibility Score: inf
ROOT
ATOM      1  C   UNL     1     -24.422 -13.584  22.342  1.00  0.00     0.181 C 
ENDROOT
BRANCH   1   2
ATOM      2  C   UNL     1     -24.014 -13.099  23.758  1.00  0.00     0.171 C 
BRANCH   2   3
ATOM      3  C   UNL     1     -22.502 -12.855  23.920  1.00  0.00     0.190 C 
BRANCH   3   4
ATOM      4  O   UNL     1     -22.258 -11.483  24.056  1.00  0.00    -0.394 OA
ATOM      5  H   UNL     1     -23.021 -11.115  24.574  1.00  0.00     0.210 HD
ENDBRANCH   3   4
ENDBRANCH   2   3
BRANCH   2   6
ATOM      6  O   UNL     1     -24.469 -14.011  24.728  1.00  0.00    -0.388 OA
ATOM      7  H   UNL     1     -25.459 -14.055  24.660  1.00  0.00     0.211 HD
ENDBRANCH   2   6
ENDBRANCH   1   2
BRANCH   1   8
ATOM      8  C   UNL     1     -23.535 -14.744  21.825  1.00  0.00     0.214 C 
BRANCH   8   9
ATOM      9  C   UNL     1     -24.039 -15.252  20.492  1.00  0.00     0.189 C 
ATOM     10  O   UNL     1     -24.838 -14.587  19.849  1.00  0.00    -0.294 OA
BRANCH   9  11
ATOM     11  C   UNL     1     -23.570 -16.570  19.950  1.00  0.00     0.234 C 
BRANCH  11  12
ATOM     12  O   UNL     1     -22.195 -16.703  20.177  1.00  0.00    -0.388 OA
ATOM     13  H   UNL     1     -22.011 -16.238  21.034  1.00  0.00     0.211 HD
ENDBRANCH  11  12
ENDBRANCH   9  11
ENDBRANCH   8   9
BRANCH   8  14
ATOM     14  O   UNL     1     -23.526 -15.801  22.751  1.00  0.00    -0.382 OA
ATOM     15  H   UNL     1     -24.459 -15.908  23.073  1.00  0.00     0.211 HD
ENDBRANCH   8  14
ENDBRANCH   1   8
BRANCH   1  16
ATOM     16  O   UNL     1     -25.778 -13.962  22.338  1.00  0.00    -0.387 OA
ATOM     17  H   UNL     1     -26.241 -13.390  21.672  1.00  0.00     0.211 HD
ENDBRANCH   1  16
TORSDOF 10
ENDMDL
MODEL 6
REMARK VINA RESULT:    -5.058      1.575      5.212
REMARK INTER + INTRA:          -7.915
REMARK INTER:                  -7.185
REMARK INTRA:                  -0.730
REMARK UNBOUND:                -0.639
REMARK SMILES O=C(CO)[C@H](O)[C@@H](O)[C@@H](O)CO
REMARK SMILES IDX 7 1 9 2 11 3 12 4 10 6 5 8 2 9 1 10 3 11 4 12 6 14 8 16
REMARK H PARENT 12 5 10 7 4 13 6 15 8 17
REMARK Flexibility Score: inf
ROOT
ATOM      1  C   UNL     1     -23.919 -15.078  22.326  1.00  0.00     0.181 C 
ENDROOT
BRANCH   1   2
ATOM      2  C   UNL     1     -23.556 -14.910  23.825  1.00  0.00     0.171 C 
BRANCH   2   3
ATOM      3  C   UNL     1     -23.146 -16.224  24.517  1.00  0.00     0.190 C 
BRANCH   3   4
ATOM      4  O   UNL     1     -23.125 -17.264  23.578  1.00  0.00    -0.394 OA
ATOM      5  H   UNL     1     -24.025 -17.683  23.609  1.00  0.00     0.210 HD
ENDBRANCH   3   4
ENDBRANCH   2   3
BRANCH   2   6
ATOM      6  O   UNL     1     -24.624 -14.308  24.514  1.00  0.00    -0.388 OA
ATOM      7  H   UNL     1     -24.827 -14.870  25.308  1.00  0.00     0.211 HD
ENDBRANCH   2   6
ENDBRANCH   1   2
BRANCH   1   8
ATOM      8  C   UNL     1     -24.933 -14.017  21.831  1.00  0.00     0.214 C 
BRANCH   8   9
ATOM      9  C   UNL     1     -25.197 -14.177  20.350  1.00  0.00     0.189 C 
ATOM     10  O   UNL     1     -24.775 -15.160  19.758  1.00  0.00    -0.294 OA
BRANCH   9  11
ATOM     11  C   UNL     1     -25.972 -13.137  19.596  1.00  0.00     0.234 C 
BRANCH  11  12
ATOM     12  O   UNL     1     -27.275 -13.597  19.375  1.00  0.00    -0.388 OA
ATOM     13  H   UNL     1     -27.453 -13.466  18.407  1.00  0.00     0.211 HD
ENDBRANCH  11  12
ENDBRANCH   9  11
ENDBRANCH   8   9
BRANCH   8  14
ATOM     14  O   UNL     1     -24.446 -12.724  22.079  1.00  0.00    -0.382 OA
ATOM     15  H   UNL     1     -24.636 -12.523  23.033  1.00  0.00     0.211 HD
ENDBRANCH   8  14
ENDBRANCH   1   8
BRANCH   1  16
ATOM     16  O   UNL     1     -22.749 -15.043  21.543  1.00  0.00    -0.387 OA
ATOM     17  H   UNL     1     -23.019 -14.792  20.622  1.00  0.00     0.211 HD
ENDBRANCH   1  16
TORSDOF 10
ENDMDL
MODEL 7
REMARK VINA RESULT:    -4.984      2.692      4.353
REMARK INTER + INTRA:          -7.809
REMARK INTER:                  -6.831
REMARK INTRA:                  -0.979
REMARK UNBOUND:                -0.639
REMARK SMILES O=C(CO)[C@H](O)[C@@H](O)[C@@H](O)CO
REMARK SMILES IDX 7 1 9 2 11 3 12 4 10 6 5 8 2 9 1 10 3 11 4 12 6 14 8 16
REMARK H PARENT 12 5 10 7 4 13 6 15 8 17
REMARK Flexibility Score: inf
ROOT
ATOM      1  C   UNL     1     -24.835 -15.762  19.419  1.00  0.00     0.181 C 
ENDROOT
BRANCH   1   2
ATOM      2  C   UNL     1     -25.580 -14.412  19.595  1.00  0.00     0.171 C 
BRANCH   2   3
ATOM      3  C   UNL     1     -25.077 -13.576  20.787  1.00  0.00     0.190 C 
BRANCH   3   4
ATOM      4  O   UNL     1     -25.871 -13.835  21.912  1.00  0.00    -0.394 OA
ATOM      5  H   UNL     1     -25.339 -14.439  22.493  1.00  0.00     0.210 HD
ENDBRANCH   3   4
ENDBRANCH   2   3
BRANCH   2   6
ATOM      6  O   UNL     1     -26.964 -14.637  19.704  1.00  0.00    -0.388 OA
ATOM      7  H   UNL     1     -27.371 -13.825  20.105  1.00  0.00     0.211 HD
ENDBRANCH   2   6
ENDBRANCH   1   2
BRANCH   1   8
ATOM      8  C   UNL     1     -25.061 -16.395  18.023  1.00  0.00     0.214 C 
BRANCH   8   9
ATOM      9  C   UNL     1     -23.814 -17.109  17.550  1.00  0.00     0.189 C 
ATOM     10  O   UNL     1     -23.440 -18.124  18.118  1.00  0.00    -0.294 OA
BRANCH   9  11
ATOM     11  C   UNL     1     -23.027 -16.579  16.388  1.00  0.00     0.234 C 
BRANCH  11  12
ATOM     12  O   UNL     1     -22.584 -15.283  16.678  1.00  0.00    -0.388 OA
ATOM     13  H   UNL     1     -21.681 -15.204  16.272  1.00  0.00     0.211 HD
ENDBRANCH  11  12
ENDBRANCH   9  11
ENDBRANCH   8   9
BRANCH   8  14
ATOM     14  O   UNL     1     -25.413 -15.406  17.090  1.00  0.00    -0.382 OA
ATOM     15  H   UNL     1     -24.685 -14.731  17.099  1.00  0.00     0.211 HD
ENDBRANCH   8  14
ENDBRANCH   1   8
BRANCH   1  16
ATOM     16  O   UNL     1     -23.460 -15.586  19.662  1.00  0.00    -0.387 OA
ATOM     17  H   UNL     1     -23.184 -14.750  19.204  1.00  0.00     0.211 HD
ENDBRANCH   1  16
TORSDOF 10
ENDMDL
MODEL 8
REMARK VINA RESULT:    -4.929      1.716      4.876
REMARK INTER + INTRA:          -7.729
REMARK INTER:                  -7.457
REMARK INTRA:                  -0.272
REMARK UNBOUND:                -0.639
REMARK SMILES O=C(CO)[C@H](O)[C@@H](O)[C@@H](O)CO
REMARK SMILES IDX 7 1 9 2 11 3 12 4 10 6 5 8 2 9 1 10 3 11 4 12 6 14 8 16
REMARK H PARENT 12 5 10 7 4 13 6 15 8 17
REMARK Flexibility Score: inf
ROOT
ATOM      1  C   UNL     1     -24.154 -13.806  22.198  1.00  0.00     0.181 C 
ENDROOT
BRANCH   1   2
ATOM      2  C   UNL     1     -23.137 -13.606  23.353  1.00  0.00     0.171 C 
BRANCH   2   3
ATOM      3  C   UNL     1     -23.445 -14.448  24.605  1.00  0.00     0.190 C 
BRANCH   3   4
ATOM      4  O   UNL     1     -24.471 -13.840  25.341  1.00  0.00    -0.394 OA
ATOM      5  H   UNL     1     -24.340 -14.123  26.284  1.00  0.00     0.210 HD
ENDBRANCH   3   4
ENDBRANCH   2   3
BRANCH   2   6
ATOM      6  O   UNL     1     -23.053 -12.243  23.688  1.00  0.00    -0.388 OA
ATOM      7  H   UNL     1     -22.538 -12.171  24.534  1.00  0.00     0.211 HD
ENDBRANCH   2   6
ENDBRANCH   1   2
BRANCH   1   8
ATOM      8  C   UNL     1     -23.612 -14.723  21.072  1.00  0.00     0.214 C 
BRANCH   8   9
ATOM      9  C   UNL     1     -24.669 -14.956  20.016  1.00  0.00     0.189 C 
ATOM     10  O   UNL     1     -24.729 -16.033  19.440  1.00  0.00    -0.294 OA
BRANCH   9  11
ATOM     11  C   UNL     1     -25.647 -13.874  19.662  1.00  0.00     0.234 C 
BRANCH  11  12
ATOM     12  O   UNL     1     -26.950 -14.333  19.888  1.00  0.00    -0.388 OA
ATOM     13  H   UNL     1     -27.461 -13.552  20.228  1.00  0.00     0.211 HD
ENDBRANCH  11  12
ENDBRANCH   9  11
ENDBRANCH   8   9
BRANCH   8  14
ATOM     14  O   UNL     1     -23.205 -15.958  21.603  1.00  0.00    -0.382 OA
ATOM     15  H   UNL     1     -22.286 -15.828  21.959  1.00  0.00     0.211 HD
ENDBRANCH   8  14
ENDBRANCH   1   8
BRANCH   1  16
ATOM     16  O   UNL     1     -25.363 -14.315  22.707  1.00  0.00    -0.387 OA
ATOM     17  H   UNL     1     -25.843 -13.561  23.138  1.00  0.00     0.211 HD
ENDBRANCH   1  16
TORSDOF 10
ENDMDL
MODEL 9
REMARK VINA RESULT:    -4.848      1.771      3.045
REMARK INTER + INTRA:          -7.614
REMARK INTER:                  -6.905
REMARK INTRA:                  -0.708
REMARK UNBOUND:                -0.639
REMARK SMILES O=C(CO)[C@H](O)[C@@H](O)[C@@H](O)CO
REMARK SMILES IDX 7 1 9 2 11 3 12 4 10 6 5 8 2 9 1 10 3 11 4 12 6 14 8 16
REMARK H PARENT 12 5 10 7 4 13 6 15 8 17
REMARK Flexibility Score: inf
ROOT
ATOM      1  C   UNL     1     -25.336 -14.136  18.723  1.00  0.00     0.181 C 
ENDROOT
BRANCH   1   2
ATOM      2  C   UNL     1     -26.452 -13.515  19.605  1.00  0.00     0.171 C 
BRANCH   2   3
ATOM      3  C   UNL     1     -27.194 -12.343  18.936  1.00  0.00     0.190 C 
BRANCH   3   4
ATOM      4  O   UNL     1     -28.404 -12.798  18.397  1.00  0.00    -0.394 OA
ATOM      5  H   UNL     1     -28.164 -13.459  17.696  1.00  0.00     0.210 HD
ENDBRANCH   3   4
ENDBRANCH   2   3
BRANCH   2   6
ATOM      6  O   UNL     1     -25.918 -13.114  20.843  1.00  0.00    -0.388 OA
ATOM      7  H   UNL     1     -26.662 -13.098  21.501  1.00  0.00     0.211 HD
ENDBRANCH   2   6
ENDBRANCH   1   2
BRANCH   1   8
ATOM      8  C   UNL     1     -25.137 -15.650  18.983  1.00  0.00     0.214 C 
BRANCH   8   9
ATOM      9  C   UNL     1     -23.851 -15.900  19.739  1.00  0.00     0.189 C 
ATOM     10  O   UNL     1     -23.669 -15.371  20.826  1.00  0.00    -0.294 OA
BRANCH   9  11
ATOM     11  C   UNL     1     -22.788 -16.789  19.164  1.00  0.00     0.234 C 
BRANCH  11  12
ATOM     12  O   UNL     1     -23.280 -18.096  19.062  1.00  0.00    -0.388 OA
ATOM     13  H   UNL     1     -23.285 -18.313  18.093  1.00  0.00     0.211 HD
ENDBRANCH  11  12
ENDBRANCH   9  11
ENDBRANCH   8   9
BRANCH   8  14
ATOM     14  O   UNL     1     -25.106 -16.354  17.769  1.00  0.00    -0.382 OA
ATOM     15  H   UNL     1     -25.132 -15.676  17.043  1.00  0.00     0.211 HD
ENDBRANCH   8  14
ENDBRANCH   1   8
BRANCH   1  16
ATOM     16  O   UNL     1     -25.616 -13.903  17.363  1.00  0.00    -0.387 OA
ATOM     17  H   UNL     1     -26.591 -14.036  17.236  1.00  0.00     0.211 HD
ENDBRANCH   1  16
TORSDOF 10
ENDMDL
