MODEL 1
REMARK VINA RESULT:    -3.864      0.000      0.000
REMARK INTER + INTRA:          -4.997
REMARK INTER:                  -5.446
REMARK INTRA:                   0.449
REMARK UNBOUND:                 0.449
REMARK SMILES CC1=CCC(=C(C)C)C(=O)CC(C)=CCC1
REMARK SMILES IDX 12 1 14 2 13 3 15 4 16 5 2 6 1 7 3 8 11 10 9 11 10 12 5 13
REMARK SMILES IDX 6 14 7 15 8 16 4 17
REMARK H PARENT
REMARK Flexibility Score: 60.00
ROOT
ATOM      1  C   UNL     1     -13.048  14.931 -30.025  1.00  0.00    -0.070 C 
ATOM      2  C   UNL     1     -14.214  15.115 -30.685  1.00  0.00    -0.027 C 
ATOM      3  C   UNL     1     -11.771  15.342 -30.711  1.00  0.00     0.039 C 
ENDROOT
BRANCH   2   4
ATOM      4  C   UNL     1     -15.588  14.795 -30.146  1.00  0.00     0.032 C 
BRANCH   4   5
ATOM      5  C   UNL     1     -15.960  13.318 -30.378  1.00  0.00     0.034 C 
BRANCH   5   6
ATOM      6  C   UNL     1     -16.625  12.694 -29.162  1.00  0.00    -0.077 C 
ATOM      7  C   UNL     1     -18.025  13.122 -28.803  1.00  0.00     0.039 C 
ATOM      8  C   UNL     1     -16.028  11.768 -28.377  1.00  0.00    -0.023 CG0
ATOM      9  G   UNL     1     -14.659  11.171 -28.597  1.00  0.00     0.000 G0
ENDBRANCH   5   6
ENDBRANCH   4   5
ENDBRANCH   2   4
BRANCH   1  10
ATOM     10  C   UNL     1     -12.979  14.360 -28.621  1.00  0.00     0.111 C 
BRANCH  10  11
ATOM     11  C   UNL     1     -12.733  12.875 -28.620  1.00  0.00     0.163 C 
ATOM     12  O   UNL     1     -11.761  12.413 -29.274  1.00  0.00    -0.294 OA
BRANCH  11  13
ATOM     13  C   UNL     1     -13.578  11.942 -27.832  1.00  0.00    -0.002 C 
ATOM     14  C   UNL     1     -13.458  11.883 -26.479  1.00  0.00    -0.069 C 
ATOM     15  C   UNL     1     -12.375  12.657 -25.762  1.00  0.00     0.039 C 
ATOM     16  C   UNL     1     -14.390  11.042 -25.639  1.00  0.00     0.039 C 
BRANCH  13  17
ATOM     17  C   UNL     1     -14.658  11.174 -28.581  1.00  0.00     0.066 CG0
ATOM     18  G   UNL     1     -16.021  11.792 -28.382  1.00  0.00     0.000 G0
ENDBRANCH  13  17
ENDBRANCH  11  13
ENDBRANCH  10  11
ENDBRANCH   1  10
TORSDOF 0
ENDMDL
MODEL 2
REMARK VINA RESULT:    -3.843      1.479      3.668
REMARK INTER + INTRA:          -4.966
REMARK INTER:                  -5.210
REMARK INTRA:                   0.244
REMARK UNBOUND:                 0.449
REMARK SMILES CC1=CCC(=C(C)C)C(=O)CC(C)=CCC1
REMARK SMILES IDX 12 1 14 2 13 3 15 4 16 5 2 6 1 7 3 8 11 10 9 11 10 12 5 13
REMARK SMILES IDX 6 14 7 15 8 16 4 17
REMARK H PARENT
REMARK Flexibility Score: 60.00
ROOT
ATOM      1  C   UNL     1     -14.117  14.903 -30.512  1.00  0.00    -0.070 C 
ATOM      2  C   UNL     1     -12.959  14.730 -29.833  1.00  0.00    -0.027 C 
ATOM      3  C   UNL     1     -14.036  15.352 -31.948  1.00  0.00     0.039 C 
ENDROOT
BRANCH   2   4
ATOM      4  C   UNL     1     -12.843  14.254 -28.405  1.00  0.00     0.032 C 
BRANCH   4   5
ATOM      5  C   UNL     1     -12.706  12.721 -28.326  1.00  0.00     0.034 C 
BRANCH   5   6
ATOM      6  C   UNL     1     -13.662  12.109 -27.315  1.00  0.00    -0.077 C 
ATOM      7  C   UNL     1     -13.348  12.245 -25.847  1.00  0.00     0.039 C 
ATOM      8  C   UNL     1     -14.789  11.444 -27.659  1.00  0.00    -0.023 CG0
ATOM      9  G   UNL     1     -15.305  11.246 -29.065  1.00  0.00     0.000 G0
ENDBRANCH   5   6
ENDBRANCH   4   5
ENDBRANCH   2   4
BRANCH   1  10
ATOM     10  C   UNL     1     -15.478  14.634 -29.900  1.00  0.00     0.111 C 
BRANCH  10  11
ATOM     11  C   UNL     1     -16.063  13.326 -30.361  1.00  0.00     0.163 C 
ATOM     12  O   UNL     1     -16.224  13.126 -31.594  1.00  0.00    -0.294 OA
BRANCH  11  13
ATOM     13  C   UNL     1     -16.410  12.244 -29.406  1.00  0.00    -0.002 C 
ATOM     14  C   UNL     1     -17.689  12.101 -28.965  1.00  0.00    -0.069 C 
ATOM     15  C   UNL     1     -18.751  13.116 -29.323  1.00  0.00     0.039 C 
ATOM     16  C   UNL     1     -18.100  10.935 -28.097  1.00  0.00     0.039 C 
BRANCH  13  17
ATOM     17  C   UNL     1     -15.321  11.238 -29.061  1.00  0.00     0.066 CG0
ATOM     18  G   UNL     1     -14.788  11.451 -27.664  1.00  0.00     0.000 G0
ENDBRANCH  13  17
ENDBRANCH  11  13
ENDBRANCH  10  11
ENDBRANCH   1  10
TORSDOF 0
ENDMDL
MODEL 3
REMARK VINA RESULT:    -3.740      2.158      4.026
REMARK INTER + INTRA:          -4.821
REMARK INTER:                  -5.944
REMARK INTRA:                   1.124
REMARK UNBOUND:                 0.449
REMARK SMILES CC1=CCC(=C(C)C)C(=O)CC(C)=CCC1
REMARK SMILES IDX 12 1 14 2 13 3 15 4 16 5 2 6 1 7 3 8 11 10 9 11 10 12 5 13
REMARK SMILES IDX 6 14 7 15 8 16 4 17
REMARK H PARENT
REMARK Flexibility Score: 60.00
ROOT
ATOM      1  C   UNL     1     -15.184  14.191 -31.699  1.00  0.00    -0.070 C 
ATOM      2  C   UNL     1     -14.017  14.259 -32.381  1.00  0.00    -0.027 C 
ATOM      3  C   UNL     1     -16.223  13.206 -32.168  1.00  0.00     0.039 C 
ENDROOT
BRANCH   2   4
ATOM      4  C   UNL     1     -12.853  15.157 -32.040  1.00  0.00     0.032 C 
BRANCH   4   5
ATOM      5  C   UNL     1     -12.620  15.233 -30.519  1.00  0.00     0.034 C 
BRANCH   5   6
ATOM      6  C   UNL     1     -12.088  13.927 -29.952  1.00  0.00    -0.077 C 
ATOM      7  C   UNL     1     -10.883  13.294 -30.600  1.00  0.00     0.039 C 
ATOM      8  C   UNL     1     -12.637  13.294 -28.890  1.00  0.00    -0.023 CG0
ATOM      9  G   UNL     1     -13.807  13.789 -28.073  1.00  0.00     0.000 G0
ENDBRANCH   5   6
ENDBRANCH   4   5
ENDBRANCH   2   4
BRANCH   1  10
ATOM     10  C   UNL     1     -15.471  15.039 -30.474  1.00  0.00     0.111 C 
BRANCH  10  11
ATOM     11  C   UNL     1     -15.997  14.220 -29.326  1.00  0.00     0.163 C 
ATOM     12  O   UNL     1     -17.208  14.330 -28.997  1.00  0.00    -0.294 OA
BRANCH  11  13
ATOM     13  C   UNL     1     -15.140  13.249 -28.599  1.00  0.00    -0.002 C 
ATOM     14  C   UNL     1     -15.486  11.935 -28.543  1.00  0.00    -0.069 C 
ATOM     15  C   UNL     1     -16.809  11.456 -29.094  1.00  0.00     0.039 C 
ATOM     16  C   UNL     1     -14.571  10.904 -27.924  1.00  0.00     0.039 C 
BRANCH  13  17
ATOM     17  C   UNL     1     -13.815  13.760 -28.052  1.00  0.00     0.066 CG0
ATOM     18  G   UNL     1     -12.648  13.288 -28.887  1.00  0.00     0.000 G0
ENDBRANCH  13  17
ENDBRANCH  11  13
ENDBRANCH  10  11
ENDBRANCH   1  10
TORSDOF 0
ENDMDL
MODEL 4
REMARK VINA RESULT:    -3.686      2.058      4.539
REMARK INTER + INTRA:          -4.746
REMARK INTER:                  -5.393
REMARK INTRA:                   0.647
REMARK UNBOUND:                 0.449
REMARK SMILES CC1=CCC(=C(C)C)C(=O)CC(C)=CCC1
REMARK SMILES IDX 12 1 14 2 13 3 15 4 16 5 2 6 1 7 3 8 11 10 9 11 10 12 5 13
REMARK SMILES IDX 6 14 7 15 8 16 4 17
REMARK H PARENT
REMARK Flexibility Score: 60.00
ROOT
ATOM      1  C   UNL     1     -15.992  13.207 -30.270  1.00  0.00    -0.070 C 
ATOM      2  C   UNL     1     -16.073  12.052 -29.571  1.00  0.00    -0.027 C 
ATOM      3  C   UNL     1     -16.004  13.129 -31.775  1.00  0.00     0.039 C 
ENDROOT
BRANCH   2   4
ATOM      4  C   UNL     1     -16.109  11.937 -28.066  1.00  0.00     0.032 C 
BRANCH   4   5
ATOM      5  C   UNL     1     -15.000  12.779 -27.405  1.00  0.00     0.034 C 
BRANCH   5   6
ATOM      6  C   UNL     1     -13.609  12.333 -27.828  1.00  0.00    -0.077 C 
ATOM      7  C   UNL     1     -13.248  10.875 -27.703  1.00  0.00     0.039 C 
ATOM      8  C   UNL     1     -12.670  13.176 -28.315  1.00  0.00    -0.023 CG0
ATOM      9  G   UNL     1     -12.852  14.654 -28.567  1.00  0.00     0.000 G0
ENDBRANCH   5   6
ENDBRANCH   4   5
ENDBRANCH   2   4
BRANCH   1  10
ATOM     10  C   UNL     1     -15.922  14.568 -29.604  1.00  0.00     0.111 C 
BRANCH  10  11
ATOM     11  C   UNL     1     -14.779  15.399 -30.124  1.00  0.00     0.163 C 
ATOM     12  O   UNL     1     -15.024  16.517 -30.652  1.00  0.00    -0.294 OA
BRANCH  11  13
ATOM     13  C   UNL     1     -13.368  14.960 -29.991  1.00  0.00    -0.002 C 
ATOM     14  C   UNL     1     -12.548  14.941 -31.076  1.00  0.00    -0.069 C 
ATOM     15  C   UNL     1     -13.086  15.231 -32.459  1.00  0.00     0.039 C 
ATOM     16  C   UNL     1     -11.077  14.625 -30.949  1.00  0.00     0.039 C 
BRANCH  13  17
ATOM     17  C   UNL     1     -12.855  14.672 -28.587  1.00  0.00     0.066 CG0
ATOM     18  G   UNL     1     -12.676  13.191 -28.351  1.00  0.00     0.000 G0
ENDBRANCH  13  17
ENDBRANCH  11  13
ENDBRANCH  10  11
ENDBRANCH   1  10
TORSDOF 0
ENDMDL
MODEL 5
REMARK VINA RESULT:    -3.567      1.349      3.625
REMARK INTER + INTRA:          -4.577
REMARK INTER:                  -5.242
REMARK INTRA:                   0.665
REMARK UNBOUND:                 0.449
REMARK SMILES CC1=CCC(=C(C)C)C(=O)CC(C)=CCC1
REMARK SMILES IDX 12 1 14 2 13 3 15 4 16 5 2 6 1 7 3 8 11 10 9 11 10 12 5 13
REMARK SMILES IDX 6 14 7 15 8 16 4 17
REMARK H PARENT
REMARK Flexibility Score: 60.00
ROOT
ATOM      1  C   UNL     1     -13.938  12.295 -27.346  1.00  0.00    -0.070 C 
ATOM      2  C   UNL     1     -15.147  12.085 -26.776  1.00  0.00    -0.027 C 
ATOM      3  C   UNL     1     -13.057  13.371 -26.766  1.00  0.00     0.039 C 
ENDROOT
BRANCH   2   4
ATOM      4  C   UNL     1     -16.146  11.034 -27.197  1.00  0.00     0.032 C 
BRANCH   4   5
ATOM      5  C   UNL     1     -16.458  11.119 -28.704  1.00  0.00     0.034 C 
BRANCH   5   6
ATOM      6  C   UNL     1     -16.930  12.504 -29.117  1.00  0.00    -0.077 C 
ATOM      7  C   UNL     1     -18.096  13.119 -28.386  1.00  0.00     0.039 C 
ATOM      8  C   UNL     1     -16.359  13.222 -30.111  1.00  0.00    -0.023 CG0
ATOM      9  G   UNL     1     -15.155  12.808 -30.923  1.00  0.00     0.000 G0
ENDBRANCH   5   6
ENDBRANCH   4   5
ENDBRANCH   2   4
BRANCH   1  10
ATOM     10  C   UNL     1     -13.427  11.476 -28.516  1.00  0.00     0.111 C 
BRANCH  10  11
ATOM     11  C   UNL     1     -12.958  12.340 -29.656  1.00  0.00     0.163 C 
ATOM     12  O   UNL     1     -11.788  12.192 -30.098  1.00  0.00    -0.294 OA
BRANCH  11  13
ATOM     13  C   UNL     1     -13.852  13.332 -30.305  1.00  0.00    -0.002 C 
ATOM     14  C   UNL     1     -13.457  14.626 -30.445  1.00  0.00    -0.069 C 
ATOM     15  C   UNL     1     -12.168  15.114 -29.823  1.00  0.00     0.039 C 
ATOM     16  C   UNL     1     -14.286  15.626 -31.215  1.00  0.00     0.039 C 
BRANCH  13  17
ATOM     17  C   UNL     1     -15.144  12.812 -30.920  1.00  0.00     0.066 CG0
ATOM     18  G   UNL     1     -16.350  13.217 -30.107  1.00  0.00     0.000 G0
ENDBRANCH  13  17
ENDBRANCH  11  13
ENDBRANCH  10  11
ENDBRANCH   1  10
TORSDOF 0
ENDMDL
MODEL 6
REMARK VINA RESULT:    -3.519     11.026     13.875
REMARK INTER + INTRA:          -4.509
REMARK INTER:                  -5.621
REMARK INTRA:                   1.112
REMARK UNBOUND:                 0.449
REMARK SMILES CC1=CCC(=C(C)C)C(=O)CC(C)=CCC1
REMARK SMILES IDX 12 1 14 2 13 3 15 4 16 5 2 6 1 7 3 8 11 10 9 11 10 12 5 13
REMARK SMILES IDX 6 14 7 15 8 16 4 17
REMARK H PARENT
REMARK Flexibility Score: 60.00
ROOT
ATOM      1  C   UNL     1     -30.047  12.439 -29.651  1.00  0.00    -0.070 C 
ATOM      2  C   UNL     1     -30.333  13.322 -30.636  1.00  0.00    -0.027 C 
ATOM      3  C   UNL     1     -30.555  11.028 -29.793  1.00  0.00     0.039 C 
ENDROOT
BRANCH   2   4
ATOM      4  C   UNL     1     -29.883  14.762 -30.682  1.00  0.00     0.032 C 
BRANCH   4   5
ATOM      5  C   UNL     1     -28.634  14.939 -31.567  1.00  0.00     0.034 C 
BRANCH   5   6
ATOM      6  C   UNL     1     -27.384  15.223 -30.750  1.00  0.00    -0.077 C 
ATOM      7  C   UNL     1     -26.995  16.657 -30.497  1.00  0.00     0.039 C 
ATOM      8  C   UNL     1     -26.594  14.254 -30.231  1.00  0.00    -0.023 CG0
ATOM      9  G   UNL     1     -26.840  12.767 -30.324  1.00  0.00     0.000 G0
ENDBRANCH   5   6
ENDBRANCH   4   5
ENDBRANCH   2   4
BRANCH   1  10
ATOM     10  C   UNL     1     -29.217  12.805 -28.435  1.00  0.00     0.111 C 
BRANCH  10  11
ATOM     11  C   UNL     1     -28.044  11.880 -28.247  1.00  0.00     0.163 C 
ATOM     12  O   UNL     1     -28.163  10.884 -27.484  1.00  0.00    -0.294 OA
BRANCH  11  13
ATOM     13  C   UNL     1     -26.765  12.080 -28.973  1.00  0.00    -0.002 C 
ATOM     14  C   UNL     1     -25.608  11.555 -28.486  1.00  0.00    -0.069 C 
ATOM     15  C   UNL     1     -25.572  10.879 -27.135  1.00  0.00     0.039 C 
ATOM     16  C   UNL     1     -24.317  11.630 -29.266  1.00  0.00     0.039 C 
BRANCH  13  17
ATOM     17  C   UNL     1     -26.831  12.766 -30.330  1.00  0.00     0.066 CG0
ATOM     18  G   UNL     1     -26.589  14.252 -30.216  1.00  0.00     0.000 G0
ENDBRANCH  13  17
ENDBRANCH  11  13
ENDBRANCH  10  11
ENDBRANCH   1  10
TORSDOF 0
ENDMDL
MODEL 7
REMARK VINA RESULT:    -3.502     12.346     15.068
REMARK INTER + INTRA:          -4.485
REMARK INTER:                  -5.012
REMARK INTRA:                   0.527
REMARK UNBOUND:                 0.449
REMARK SMILES CC1=CCC(=C(C)C)C(=O)CC(C)=CCC1
REMARK SMILES IDX 12 1 14 2 13 3 15 4 16 5 2 6 1 7 3 8 11 10 9 11 10 12 5 13
REMARK SMILES IDX 6 14 7 15 8 16 4 17
REMARK H PARENT
REMARK Flexibility Score: 60.00
ROOT
ATOM      1  C   UNL     1     -25.735  16.710 -30.728  1.00  0.00    -0.070 C 
ATOM      2  C   UNL     1     -25.653  15.415 -30.344  1.00  0.00    -0.027 C 
ATOM      3  C   UNL     1     -24.509  17.352 -31.325  1.00  0.00     0.039 C 
ENDROOT
BRANCH   2   4
ATOM      4  C   UNL     1     -26.782  14.601 -29.761  1.00  0.00     0.032 C 
BRANCH   4   5
ATOM      5  C   UNL     1     -27.592  13.884 -30.859  1.00  0.00     0.034 C 
BRANCH   5   6
ATOM      6  C   UNL     1     -29.058  14.287 -30.849  1.00  0.00    -0.077 C 
ATOM      7  C   UNL     1     -29.965  13.693 -29.802  1.00  0.00     0.039 C 
ATOM      8  C   UNL     1     -29.600  15.157 -31.733  1.00  0.00    -0.023 CG0
ATOM      9  G   UNL     1     -28.854  15.897 -32.816  1.00  0.00     0.000 G0
ENDBRANCH   5   6
ENDBRANCH   4   5
ENDBRANCH   2   4
BRANCH   1  10
ATOM     10  C   UNL     1     -27.009  17.524 -30.612  1.00  0.00     0.111 C 
BRANCH  10  11
ATOM     11  C   UNL     1     -27.536  17.954 -31.955  1.00  0.00     0.163 C 
ATOM     12  O   UNL     1     -26.868  18.770 -32.644  1.00  0.00    -0.294 OA
BRANCH  11  13
ATOM     13  C   UNL     1     -28.798  17.407 -32.512  1.00  0.00    -0.002 C 
ATOM     14  C   UNL     1     -29.815  18.241 -32.859  1.00  0.00    -0.069 C 
ATOM     15  C   UNL     1     -29.740  19.721 -32.560  1.00  0.00     0.039 C 
ATOM     16  C   UNL     1     -31.058  17.728 -33.548  1.00  0.00     0.039 C 
BRANCH  13  17
ATOM     17  C   UNL     1     -28.846  15.913 -32.801  1.00  0.00     0.066 CG0
ATOM     18  G   UNL     1     -29.615  15.164 -31.738  1.00  0.00     0.000 G0
ENDBRANCH  13  17
ENDBRANCH  11  13
ENDBRANCH  10  11
ENDBRANCH   1  10
TORSDOF 0
ENDMDL
MODEL 8
REMARK VINA RESULT:    -3.343      1.788      4.551
REMARK INTER + INTRA:          -4.262
REMARK INTER:                  -5.445
REMARK INTRA:                   1.183
REMARK UNBOUND:                 0.449
REMARK SMILES CC1=CCC(=C(C)C)C(=O)CC(C)=CCC1
REMARK SMILES IDX 12 1 14 2 13 3 15 4 16 5 2 6 1 7 3 8 11 10 9 11 10 12 5 13
REMARK SMILES IDX 6 14 7 15 8 16 4 17
REMARK H PARENT
REMARK Flexibility Score: 60.00
ROOT
ATOM      1  C   UNL     1     -16.471  12.929 -28.294  1.00  0.00    -0.070 C 
ATOM      2  C   UNL     1     -16.270  12.649 -26.986  1.00  0.00    -0.027 C 
ATOM      3  C   UNL     1     -17.143  14.231 -28.646  1.00  0.00     0.039 C 
ENDROOT
BRANCH   2   4
ATOM      4  C   UNL     1     -15.587  11.415 -26.447  1.00  0.00     0.032 C 
BRANCH   4   5
ATOM      5  C   UNL     1     -14.342  11.047 -27.278  1.00  0.00     0.034 C 
BRANCH   5   6
ATOM      6  C   UNL     1     -13.238  12.085 -27.153  1.00  0.00    -0.077 C 
ATOM      7  C   UNL     1     -12.794  12.506 -25.776  1.00  0.00     0.039 C 
ATOM      8  C   UNL     1     -12.627  12.657 -28.216  1.00  0.00    -0.023 CG0
ATOM      9  G   UNL     1     -12.888  12.333 -29.667  1.00  0.00     0.000 G0
ENDBRANCH   5   6
ENDBRANCH   4   5
ENDBRANCH   2   4
BRANCH   1  10
ATOM     10  C   UNL     1     -16.023  12.006 -29.411  1.00  0.00     0.111 C 
BRANCH  10  11
ATOM     11  C   UNL     1     -15.286  12.742 -30.498  1.00  0.00     0.163 C 
ATOM     12  O   UNL     1     -15.860  12.945 -31.601  1.00  0.00    -0.294 OA
BRANCH  11  13
ATOM     13  C   UNL     1     -13.918  13.279 -30.290  1.00  0.00    -0.002 C 
ATOM     14  C   UNL     1     -13.651  14.592 -30.525  1.00  0.00    -0.069 C 
ATOM     15  C   UNL     1     -14.698  15.500 -31.131  1.00  0.00     0.039 C 
ATOM     16  C   UNL     1     -12.305  15.195 -30.200  1.00  0.00     0.039 C 
BRANCH  13  17
ATOM     17  C   UNL     1     -12.884  12.343 -29.681  1.00  0.00     0.066 CG0
ATOM     18  G   UNL     1     -12.626  12.666 -28.229  1.00  0.00     0.000 G0
ENDBRANCH  13  17
ENDBRANCH  11  13
ENDBRANCH  10  11
ENDBRANCH   1  10
TORSDOF 0
ENDMDL
MODEL 9
REMARK VINA RESULT:    -3.327      1.418      2.610
REMARK INTER + INTRA:          -4.239
REMARK INTER:                  -5.253
REMARK INTRA:                   1.014
REMARK UNBOUND:                 0.449
REMARK SMILES CC1=CCC(=C(C)C)C(=O)CC(C)=CCC1
REMARK SMILES IDX 12 1 14 2 13 3 15 4 16 5 2 6 1 7 3 8 11 10 9 11 10 12 5 13
REMARK SMILES IDX 6 14 7 15 8 16 4 17
REMARK H PARENT
REMARK Flexibility Score: 60.00
ROOT
ATOM      1  C   UNL     1     -16.100  13.881 -30.494  1.00  0.00    -0.070 C 
ATOM      2  C   UNL     1     -17.315  13.359 -30.206  1.00  0.00    -0.027 C 
ATOM      3  C   UNL     1     -15.786  15.267 -29.992  1.00  0.00     0.039 C 
ENDROOT
BRANCH   2   4
ATOM      4  C   UNL     1     -17.792  11.980 -30.593  1.00  0.00     0.032 C 
BRANCH   4   5
ATOM      5  C   UNL     1     -17.006  10.879 -29.856  1.00  0.00     0.034 C 
BRANCH   5   6
ATOM      6  C   UNL     1     -16.731  11.241 -28.406  1.00  0.00    -0.077 C 
ATOM      7  C   UNL     1     -17.894  11.342 -27.452  1.00  0.00     0.039 C 
ATOM      8  C   UNL     1     -15.492  11.478 -27.917  1.00  0.00    -0.023 CG0
ATOM      9  G   UNL     1     -14.200  11.375 -28.692  1.00  0.00     0.000 G0
ENDBRANCH   5   6
ENDBRANCH   4   5
ENDBRANCH   2   4
BRANCH   1  10
ATOM     10  C   UNL     1     -15.041  13.120 -31.268  1.00  0.00     0.111 C 
BRANCH  10  11
ATOM     11  C   UNL     1     -13.723  13.079 -30.541  1.00  0.00     0.163 C 
ATOM     12  O   UNL     1     -12.671  13.395 -31.158  1.00  0.00    -0.294 OA
BRANCH  11  13
ATOM     13  C   UNL     1     -13.633  12.721 -29.103  1.00  0.00    -0.002 C 
ATOM     14  C   UNL     1     -13.187  13.630 -28.195  1.00  0.00    -0.069 C 
ATOM     15  C   UNL     1     -12.644  14.969 -28.640  1.00  0.00     0.039 C 
ATOM     16  C   UNL     1     -13.206  13.341 -26.713  1.00  0.00     0.039 C 
BRANCH  13  17
ATOM     17  C   UNL     1     -14.185  11.365 -28.684  1.00  0.00     0.066 CG0
ATOM     18  G   UNL     1     -15.486  11.502 -27.929  1.00  0.00     0.000 G0
ENDBRANCH  13  17
ENDBRANCH  11  13
ENDBRANCH  10  11
ENDBRANCH   1  10
TORSDOF 0
ENDMDL
