MODEL 1
REMARK VINA RESULT:    -4.201      0.000      0.000
REMARK INTER + INTRA:          -7.276
REMARK INTER:                  -6.412
REMARK INTRA:                  -0.864
REMARK UNBOUND:                -0.864
REMARK SMILES O=C([O-])CCCCCCCCC(=O)[O-]
REMARK SMILES IDX 7 1 6 2 5 3 4 4 2 5 1 6 3 7 8 8 9 9 10 10 11 11 12 12 13 13
REMARK SMILES IDX 14 14
REMARK H PARENT
REMARK Flexibility Score: inf
ROOT
ATOM      1  C   UNL     1      25.284   5.153   7.019  1.00  0.00     0.000 C 
ENDROOT
BRANCH   1   2
ATOM      2  C   UNL     1      26.186   6.239   6.411  1.00  0.00     0.000 C 
BRANCH   2   3
ATOM      3  C   UNL     1      25.750   7.661   6.805  1.00  0.00     0.006 C 
BRANCH   3   4
ATOM      4  C   UNL     1      26.241   8.047   8.207  1.00  0.00     0.053 C 
BRANCH   4   5
ATOM      5  C   UNL     1      25.105   8.216   9.168  1.00  0.00     0.041 C 
ATOM      6  O   UNL     1      24.694   7.236   9.843  1.00  0.00    -0.550 OA
ATOM      7  O   UNL     1      24.518   9.464   9.340  1.00  0.00    -0.550 OA
ENDBRANCH   4   5
ENDBRANCH   3   4
ENDBRANCH   2   3
ENDBRANCH   1   2
BRANCH   1   8
ATOM      8  C   UNL     1      26.043   3.848   7.311  1.00  0.00     0.000 C 
BRANCH   8   9
ATOM      9  C   UNL     1      27.357   4.133   8.053  1.00  0.00     0.000 C 
BRANCH   9  10
ATOM     10  C   UNL     1      27.137   4.601   9.503  1.00  0.00     0.006 C 
BRANCH  10  11
ATOM     11  C   UNL     1      28.310   5.398  10.097  1.00  0.00     0.053 C 
BRANCH  11  12
ATOM     12  C   UNL     1      28.728   4.870  11.435  1.00  0.00     0.041 C 
ATOM     13  O   UNL     1      28.976   5.664  12.380  1.00  0.00    -0.550 OA
ATOM     14  O   UNL     1      28.878   3.502  11.627  1.00  0.00    -0.550 OA
ENDBRANCH  11  12
ENDBRANCH  10  11
ENDBRANCH   9  10
ENDBRANCH   8   9
ENDBRANCH   1   8
TORSDOF 9
ENDMDL
MODEL 2
REMARK VINA RESULT:    -4.087      2.196      5.291
REMARK INTER + INTRA:          -7.101
REMARK INTER:                  -6.346
REMARK INTRA:                  -0.756
REMARK UNBOUND:                -0.864
REMARK SMILES O=C([O-])CCCCCCCCC(=O)[O-]
REMARK SMILES IDX 7 1 6 2 5 3 4 4 2 5 1 6 3 7 8 8 9 9 10 10 11 11 12 12 13 13
REMARK SMILES IDX 14 14
REMARK H PARENT
REMARK Flexibility Score: inf
ROOT
ATOM      1  C   UNL     1      24.914   6.524   9.917  1.00  0.00     0.000 C 
ENDROOT
BRANCH   1   2
ATOM      2  C   UNL     1      25.933   5.547  10.525  1.00  0.00     0.000 C 
BRANCH   2   3
ATOM      3  C   UNL     1      27.388   5.935  10.209  1.00  0.00     0.006 C 
BRANCH   3   4
ATOM      4  C   UNL     1      28.385   5.261  11.161  1.00  0.00     0.053 C 
BRANCH   4   5
ATOM      5  C   UNL     1      28.566   3.809  10.841  1.00  0.00     0.041 C 
ATOM      6  O   UNL     1      28.338   3.382   9.678  1.00  0.00    -0.550 OA
ATOM      7  O   UNL     1      29.014   2.931  11.820  1.00  0.00    -0.550 OA
ENDBRANCH   4   5
ENDBRANCH   3   4
ENDBRANCH   2   3
ENDBRANCH   1   2
BRANCH   1   8
ATOM      8  C   UNL     1      25.533   7.889   9.576  1.00  0.00     0.000 C 
BRANCH   8   9
ATOM      9  C   UNL     1      25.405   8.189   8.075  1.00  0.00     0.000 C 
BRANCH   9  10
ATOM     10  C   UNL     1      26.662   7.798   7.276  1.00  0.00     0.006 C 
BRANCH  10  11
ATOM     11  C   UNL     1      26.387   6.888   6.068  1.00  0.00     0.053 C 
BRANCH  11  12
ATOM     12  C   UNL     1      25.880   5.541   6.483  1.00  0.00     0.041 C 
ATOM     13  O   UNL     1      24.650   5.279   6.417  1.00  0.00    -0.550 OA
ATOM     14  O   UNL     1      26.762   4.587   6.974  1.00  0.00    -0.550 OA
ENDBRANCH  11  12
ENDBRANCH  10  11
ENDBRANCH   9  10
ENDBRANCH   8   9
ENDBRANCH   1   8
TORSDOF 9
ENDMDL
MODEL 3
REMARK VINA RESULT:    -4.044      3.545      5.372
REMARK INTER + INTRA:          -7.036
REMARK INTER:                  -6.477
REMARK INTRA:                  -0.559
REMARK UNBOUND:                -0.864
REMARK SMILES O=C([O-])CCCCCCCCC(=O)[O-]
REMARK SMILES IDX 7 1 6 2 5 3 4 4 2 5 1 6 3 7 8 8 9 9 10 10 11 11 12 12 13 13
REMARK SMILES IDX 14 14
REMARK H PARENT
REMARK Flexibility Score: inf
ROOT
ATOM      1  C   UNL     1      25.859   3.058   8.142  1.00  0.00     0.000 C 
ENDROOT
BRANCH   1   2
ATOM      2  C   UNL     1      26.916   4.168   8.251  1.00  0.00     0.000 C 
BRANCH   2   3
ATOM      3  C   UNL     1      26.946   4.824   9.643  1.00  0.00     0.006 C 
BRANCH   3   4
ATOM      4  C   UNL     1      28.364   5.242  10.053  1.00  0.00     0.053 C 
BRANCH   4   5
ATOM      5  C   UNL     1      28.769   4.630  11.359  1.00  0.00     0.041 C 
ATOM      6  O   UNL     1      29.088   5.363  12.332  1.00  0.00    -0.550 OA
ATOM      7  O   UNL     1      28.766   3.249  11.511  1.00  0.00    -0.550 OA
ENDBRANCH   4   5
ENDBRANCH   3   4
ENDBRANCH   2   3
ENDBRANCH   1   2
BRANCH   1   8
ATOM      8  C   UNL     1      26.472   1.686   7.820  1.00  0.00     0.000 C 
BRANCH   8   9
ATOM      9  C   UNL     1      27.970   1.663   8.157  1.00  0.00     0.000 C 
BRANCH   9  10
ATOM     10  C   UNL     1      28.372   0.448   9.015  1.00  0.00     0.006 C 
BRANCH  10  11
ATOM     11  C   UNL     1      27.939  -0.908   8.435  1.00  0.00     0.053 C 
BRANCH  11  12
ATOM     12  C   UNL     1      27.746  -1.940   9.503  1.00  0.00     0.041 C 
ATOM     13  O   UNL     1      27.576  -1.589  10.701  1.00  0.00    -0.550 OA
ATOM     14  O   UNL     1      27.788  -3.291   9.181  1.00  0.00    -0.550 OA
ENDBRANCH  11  12
ENDBRANCH  10  11
ENDBRANCH   9  10
ENDBRANCH   8   9
ENDBRANCH   1   8
TORSDOF 9
ENDMDL
MODEL 4
REMARK VINA RESULT:    -4.017      2.228      2.982
REMARK INTER + INTRA:          -6.995
REMARK INTER:                  -6.142
REMARK INTRA:                  -0.853
REMARK UNBOUND:                -0.864
REMARK SMILES O=C([O-])CCCCCCCCC(=O)[O-]
REMARK SMILES IDX 7 1 6 2 5 3 4 4 2 5 1 6 3 7 8 8 9 9 10 10 11 11 12 12 13 13
REMARK SMILES IDX 14 14
REMARK H PARENT
REMARK Flexibility Score: inf
ROOT
ATOM      1  C   UNL     1      23.701   6.445   9.976  1.00  0.00     0.000 C 
ENDROOT
BRANCH   1   2
ATOM      2  C   UNL     1      23.963   7.823   9.346  1.00  0.00     0.000 C 
BRANCH   2   3
ATOM      3  C   UNL     1      25.103   7.795   8.313  1.00  0.00     0.006 C 
BRANCH   3   4
ATOM      4  C   UNL     1      24.839   6.783   7.189  1.00  0.00     0.053 C 
BRANCH   4   5
ATOM      5  C   UNL     1      25.519   7.177   5.914  1.00  0.00     0.041 C 
ATOM      6  O   UNL     1      26.776   7.196   5.845  1.00  0.00    -0.550 OA
ATOM      7  O   UNL     1      24.763   7.496   4.793  1.00  0.00    -0.550 OA
ENDBRANCH   4   5
ENDBRANCH   3   4
ENDBRANCH   2   3
ENDBRANCH   1   2
BRANCH   1   8
ATOM      8  C   UNL     1      24.806   6.022  10.957  1.00  0.00     0.000 C 
BRANCH   8   9
ATOM      9  C   UNL     1      25.339   4.623  10.612  1.00  0.00     0.000 C 
BRANCH   9  10
ATOM     10  C   UNL     1      26.629   4.664   9.772  1.00  0.00     0.006 C 
BRANCH  10  11
ATOM     11  C   UNL     1      27.690   5.649  10.289  1.00  0.00     0.053 C 
BRANCH  11  12
ATOM     12  C   UNL     1      28.523   5.055  11.383  1.00  0.00     0.041 C 
ATOM     13  O   UNL     1      28.951   5.779  12.319  1.00  0.00    -0.550 OA
ATOM     14  O   UNL     1      28.854   3.705  11.350  1.00  0.00    -0.550 OA
ENDBRANCH  11  12
ENDBRANCH  10  11
ENDBRANCH   9  10
ENDBRANCH   8   9
ENDBRANCH   1   8
TORSDOF 9
ENDMDL
MODEL 5
REMARK VINA RESULT:    -4.009      1.867      2.460
REMARK INTER + INTRA:          -6.982
REMARK INTER:                  -6.269
REMARK INTRA:                  -0.713
REMARK UNBOUND:                -0.864
REMARK SMILES O=C([O-])CCCCCCCCC(=O)[O-]
REMARK SMILES IDX 7 1 6 2 5 3 4 4 2 5 1 6 3 7 8 8 9 9 10 10 11 11 12 12 13 13
REMARK SMILES IDX 14 14
REMARK H PARENT
REMARK Flexibility Score: inf
ROOT
ATOM      1  C   UNL     1      26.576   3.552   6.605  1.00  0.00     0.000 C 
ENDROOT
BRANCH   1   2
ATOM      2  C   UNL     1      25.042   3.537   6.693  1.00  0.00     0.000 C 
BRANCH   2   3
ATOM      3  C   UNL     1      24.442   4.947   6.834  1.00  0.00     0.006 C 
BRANCH   3   4
ATOM      4  C   UNL     1      25.340   5.877   7.661  1.00  0.00     0.053 C 
BRANCH   4   5
ATOM      5  C   UNL     1      25.730   7.102   6.893  1.00  0.00     0.041 C 
ATOM      6  O   UNL     1      25.506   7.174   5.656  1.00  0.00    -0.550 OA
ATOM      7  O   UNL     1      26.317   8.177   7.549  1.00  0.00    -0.550 OA
ENDBRANCH   4   5
ENDBRANCH   3   4
ENDBRANCH   2   3
ENDBRANCH   1   2
BRANCH   1   8
ATOM      8  C   UNL     1      27.210   2.238   7.087  1.00  0.00     0.000 C 
BRANCH   8   9
ATOM      9  C   UNL     1      27.557   2.312   8.582  1.00  0.00     0.000 C 
BRANCH   9  10
ATOM     10  C   UNL     1      28.020   3.714   9.020  1.00  0.00     0.006 C 
BRANCH  10  11
ATOM     11  C   UNL     1      28.315   3.842  10.523  1.00  0.00     0.053 C 
BRANCH  11  12
ATOM     12  C   UNL     1      28.281   5.268  10.983  1.00  0.00     0.041 C 
ATOM     13  O   UNL     1      27.717   6.147  10.280  1.00  0.00    -0.550 OA
ATOM     14  O   UNL     1      28.901   5.630  12.172  1.00  0.00    -0.550 OA
ENDBRANCH  11  12
ENDBRANCH  10  11
ENDBRANCH   9  10
ENDBRANCH   8   9
ENDBRANCH   1   8
TORSDOF 9
ENDMDL
MODEL 6
REMARK VINA RESULT:    -3.988      2.784      4.039
REMARK INTER + INTRA:          -6.951
REMARK INTER:                  -5.894
REMARK INTRA:                  -1.056
REMARK UNBOUND:                -0.864
REMARK SMILES O=C([O-])CCCCCCCCC(=O)[O-]
REMARK SMILES IDX 7 1 6 2 5 3 4 4 2 5 1 6 3 7 8 8 9 9 10 10 11 11 12 12 13 13
REMARK SMILES IDX 14 14
REMARK H PARENT
REMARK Flexibility Score: inf
ROOT
ATOM      1  C   UNL     1      26.741   5.341  10.696  1.00  0.00     0.000 C 
ENDROOT
BRANCH   1   2
ATOM      2  C   UNL     1      27.000   6.396   9.609  1.00  0.00     0.000 C 
BRANCH   2   3
ATOM      3  C   UNL     1      25.703   7.024   9.071  1.00  0.00     0.006 C 
BRANCH   3   4
ATOM      4  C   UNL     1      25.953   7.897   7.834  1.00  0.00     0.053 C 
BRANCH   4   5
ATOM      5  C   UNL     1      25.697   7.147   6.563  1.00  0.00     0.041 C 
ATOM      6  O   UNL     1      26.659   6.774   5.841  1.00  0.00    -0.550 OA
ATOM      7  O   UNL     1      24.395   6.836   6.189  1.00  0.00    -0.550 OA
ENDBRANCH   4   5
ENDBRANCH   3   4
ENDBRANCH   2   3
ENDBRANCH   1   2
BRANCH   1   8
ATOM      8  C   UNL     1      27.783   4.211  10.687  1.00  0.00     0.000 C 
BRANCH   8   9
ATOM      9  C   UNL     1      28.317   3.970   9.266  1.00  0.00     0.000 C 
BRANCH   9  10
ATOM     10  C   UNL     1      27.487   2.936   8.483  1.00  0.00     0.006 C 
BRANCH  10  11
ATOM     11  C   UNL     1      26.791   3.499   7.233  1.00  0.00     0.053 C 
BRANCH  11  12
ATOM     12  C   UNL     1      25.300   3.499   7.372  1.00  0.00     0.041 C 
ATOM     13  O   UNL     1      24.770   3.487   8.514  1.00  0.00    -0.550 OA
ATOM     14  O   UNL     1      24.495   3.477   6.240  1.00  0.00    -0.550 OA
ENDBRANCH  11  12
ENDBRANCH  10  11
ENDBRANCH   9  10
ENDBRANCH   8   9
ENDBRANCH   1   8
TORSDOF 9
ENDMDL
MODEL 7
REMARK VINA RESULT:    -3.973      2.624      3.619
REMARK INTER + INTRA:          -6.928
REMARK INTER:                  -6.243
REMARK INTRA:                  -0.684
REMARK UNBOUND:                -0.864
REMARK SMILES O=C([O-])CCCCCCCCC(=O)[O-]
REMARK SMILES IDX 7 1 6 2 5 3 4 4 2 5 1 6 3 7 8 8 9 9 10 10 11 11 12 12 13 13
REMARK SMILES IDX 14 14
REMARK H PARENT
REMARK Flexibility Score: inf
ROOT
ATOM      1  C   UNL     1      25.858   7.051   9.596  1.00  0.00     0.000 C 
ENDROOT
BRANCH   1   2
ATOM      2  C   UNL     1      25.716   8.087   8.469  1.00  0.00     0.000 C 
BRANCH   2   3
ATOM      3  C   UNL     1      26.632   7.788   7.270  1.00  0.00     0.006 C 
BRANCH   3   4
ATOM      4  C   UNL     1      25.834   7.467   5.999  1.00  0.00     0.053 C 
BRANCH   4   5
ATOM      5  C   UNL     1      24.839   6.371   6.229  1.00  0.00     0.041 C 
ATOM      6  O   UNL     1      23.608   6.589   6.078  1.00  0.00    -0.550 OA
ATOM      7  O   UNL     1      25.274   5.099   6.581  1.00  0.00    -0.550 OA
ENDBRANCH   4   5
ENDBRANCH   3   4
ENDBRANCH   2   3
ENDBRANCH   1   2
BRANCH   1   8
ATOM      8  C   UNL     1      27.206   6.315   9.557  1.00  0.00     0.000 C 
BRANCH   8   9
ATOM      9  C   UNL     1      27.271   5.232  10.644  1.00  0.00     0.000 C 
BRANCH   9  10
ATOM     10  C   UNL     1      27.858   3.904  10.132  1.00  0.00     0.006 C 
BRANCH  10  11
ATOM     11  C   UNL     1      27.890   3.774   8.600  1.00  0.00     0.053 C 
BRANCH  11  12
ATOM     12  C   UNL     1      27.697   2.358   8.152  1.00  0.00     0.041 C 
ATOM     13  O   UNL     1      27.971   1.404   8.927  1.00  0.00    -0.550 OA
ATOM     14  O   UNL     1      27.247   2.091   6.865  1.00  0.00    -0.550 OA
ENDBRANCH  11  12
ENDBRANCH  10  11
ENDBRANCH   9  10
ENDBRANCH   8   9
ENDBRANCH   1   8
TORSDOF 9
ENDMDL
MODEL 8
REMARK VINA RESULT:    -3.947      2.761      3.955
REMARK INTER + INTRA:          -6.888
REMARK INTER:                  -6.044
REMARK INTRA:                  -0.844
REMARK UNBOUND:                -0.864
REMARK SMILES O=C([O-])CCCCCCCCC(=O)[O-]
REMARK SMILES IDX 7 1 6 2 5 3 4 4 2 5 1 6 3 7 8 8 9 9 10 10 11 11 12 12 13 13
REMARK SMILES IDX 14 14
REMARK H PARENT
REMARK Flexibility Score: inf
ROOT
ATOM      1  C   UNL     1      26.477   5.441  10.718  1.00  0.00     0.000 C 
ENDROOT
BRANCH   1   2
ATOM      2  C   UNL     1      26.044   6.264   9.494  1.00  0.00     0.000 C 
BRANCH   2   3
ATOM      3  C   UNL     1      25.390   5.402   8.401  1.00  0.00     0.006 C 
BRANCH   3   4
ATOM      4  C   UNL     1      26.167   5.457   7.079  1.00  0.00     0.053 C 
BRANCH   4   5
ATOM      5  C   UNL     1      25.767   6.636   6.246  1.00  0.00     0.041 C 
ATOM      6  O   UNL     1      26.628   7.482   5.888  1.00  0.00    -0.550 OA
ATOM      7  O   UNL     1      24.446   6.784   5.840  1.00  0.00    -0.550 OA
ENDBRANCH   4   5
ENDBRANCH   3   4
ENDBRANCH   2   3
ENDBRANCH   1   2
BRANCH   1   8
ATOM      8  C   UNL     1      27.989   5.520  10.981  1.00  0.00     0.000 C 
BRANCH   8   9
ATOM      9  C   UNL     1      28.744   4.465  10.158  1.00  0.00     0.000 C 
BRANCH   9  10
ATOM     10  C   UNL     1      28.021   3.106  10.118  1.00  0.00     0.006 C 
BRANCH  10  11
ATOM     11  C   UNL     1      27.816   2.539   8.704  1.00  0.00     0.053 C 
BRANCH  11  12
ATOM     12  C   UNL     1      28.012   1.054   8.660  1.00  0.00     0.041 C 
ATOM     13  O   UNL     1      27.583   0.387   7.682  1.00  0.00    -0.550 OA
ATOM     14  O   UNL     1      28.637   0.404   9.717  1.00  0.00    -0.550 OA
ENDBRANCH  11  12
ENDBRANCH  10  11
ENDBRANCH   9  10
ENDBRANCH   8   9
ENDBRANCH   1   8
TORSDOF 9
ENDMDL
MODEL 9
REMARK VINA RESULT:    -3.933      1.887      4.666
REMARK INTER + INTRA:          -6.867
REMARK INTER:                  -6.089
REMARK INTRA:                  -0.777
REMARK UNBOUND:                -0.864
REMARK SMILES O=C([O-])CCCCCCCCC(=O)[O-]
REMARK SMILES IDX 7 1 6 2 5 3 4 4 2 5 1 6 3 7 8 8 9 9 10 10 11 11 12 12 13 13
REMARK SMILES IDX 14 14
REMARK H PARENT
REMARK Flexibility Score: inf
ROOT
ATOM      1  C   UNL     1      26.674   2.148   7.324  1.00  0.00     0.000 C 
ENDROOT
BRANCH   1   2
ATOM      2  C   UNL     1      27.785   2.268   8.380  1.00  0.00     0.000 C 
BRANCH   2   3
ATOM      3  C   UNL     1      27.997   3.716   8.855  1.00  0.00     0.006 C 
BRANCH   3   4
ATOM      4  C   UNL     1      27.674   3.888  10.345  1.00  0.00     0.053 C 
BRANCH   4   5
ATOM      5  C   UNL     1      28.086   5.236  10.853  1.00  0.00     0.041 C 
ATOM      6  O   UNL     1      28.875   5.333  11.829  1.00  0.00    -0.550 OA
ATOM      7  O   UNL     1      27.619   6.386  10.228  1.00  0.00    -0.550 OA
ENDBRANCH   4   5
ENDBRANCH   3   4
ENDBRANCH   2   3
ENDBRANCH   1   2
BRANCH   1   8
ATOM      8  C   UNL     1      26.369   3.485   6.631  1.00  0.00     0.000 C 
BRANCH   8   9
ATOM      9  C   UNL     1      24.860   3.771   6.632  1.00  0.00     0.000 C 
BRANCH   9  10
ATOM     10  C   UNL     1      24.536   5.276   6.620  1.00  0.00     0.006 C 
BRANCH  10  11
ATOM     11  C   UNL     1      25.262   6.089   7.704  1.00  0.00     0.053 C 
BRANCH  11  12
ATOM     12  C   UNL     1      26.099   7.185   7.119  1.00  0.00     0.041 C 
ATOM     13  O   UNL     1      26.302   8.244   7.769  1.00  0.00    -0.550 OA
ATOM     14  O   UNL     1      26.626   7.051   5.840  1.00  0.00    -0.550 OA
ENDBRANCH  11  12
ENDBRANCH  10  11
ENDBRANCH   9  10
ENDBRANCH   8   9
ENDBRANCH   1   8
TORSDOF 9
ENDMDL
