MODEL 1
REMARK VINA RESULT:    -3.844      0.000      0.000
REMARK INTER + INTRA:          -4.433
REMARK INTER:                  -4.182
REMARK INTRA:                  -0.251
REMARK UNBOUND:                -0.251
REMARK SMILES O=C([O-])c1ccccc1O
REMARK SMILES IDX 4 1 9 2 5 3 8 4 6 5 7 6 2 7 1 8 3 9 10 10
REMARK H PARENT 10 11
REMARK Flexibility Score: inf
ROOT
ATOM      1  C   UNL     1      50.404  45.903  57.125  1.00  0.00     0.039 A 
ATOM      2  C   UNL     1      51.753  45.585  56.842  1.00  0.00     0.124 A 
ATOM      3  C   UNL     1      49.550  46.252  56.059  1.00  0.00     0.014 A 
ATOM      4  C   UNL     1      52.217  45.623  55.517  1.00  0.00     0.047 A 
ATOM      5  C   UNL     1      50.025  46.286  54.746  1.00  0.00     0.001 A 
ATOM      6  C   UNL     1      51.356  45.972  54.475  1.00  0.00     0.004 A 
ENDROOT
BRANCH   1   7
ATOM      7  C   UNL     1      49.870  45.876  58.511  1.00  0.00     0.075 C 
ATOM      8  O   UNL     1      50.070  44.877  59.252  1.00  0.00    -0.545 OA
ATOM      9  O   UNL     1      49.144  46.947  59.021  1.00  0.00    -0.545 OA
ENDBRANCH   1   7
BRANCH   2  10
ATOM     10  O   UNL     1      52.635  45.234  57.863  1.00  0.00    -0.507 OA
ATOM     11  H   UNL     1      52.350  44.635  58.629  1.00  0.00     0.293 HD
ENDBRANCH   2  10
TORSDOF 2
ENDMDL
MODEL 2
REMARK VINA RESULT:    -3.804     16.354     16.930
REMARK INTER + INTRA:          -4.388
REMARK INTER:                  -4.202
REMARK INTRA:                  -0.187
REMARK UNBOUND:                -0.251
REMARK SMILES O=C([O-])c1ccccc1O
REMARK SMILES IDX 4 1 9 2 5 3 8 4 6 5 7 6 2 7 1 8 3 9 10 10
REMARK H PARENT 10 11
REMARK Flexibility Score: inf
ROOT
ATOM      1  C   UNL     1      43.951  48.178  41.709  1.00  0.00     0.039 A 
ATOM      2  C   UNL     1      45.086  47.348  41.555  1.00  0.00     0.124 A 
ATOM      3  C   UNL     1      42.670  47.625  41.500  1.00  0.00     0.014 A 
ATOM      4  C   UNL     1      44.923  45.999  41.201  1.00  0.00     0.047 A 
ATOM      5  C   UNL     1      42.524  46.281  41.148  1.00  0.00     0.001 A 
ATOM      6  C   UNL     1      43.647  45.470  40.999  1.00  0.00     0.004 A 
ENDROOT
BRANCH   1   7
ATOM      7  C   UNL     1      44.076  49.611  42.082  1.00  0.00     0.075 C 
ATOM      8  O   UNL     1      43.672  50.014  43.205  1.00  0.00    -0.545 OA
ATOM      9  O   UNL     1      44.637  50.534  41.207  1.00  0.00    -0.545 OA
ENDBRANCH   1   7
BRANCH   2  10
ATOM     10  O   UNL     1      46.371  47.851  41.751  1.00  0.00    -0.507 OA
ATOM     11  H   UNL     1      47.090  47.765  41.043  1.00  0.00     0.293 HD
ENDBRANCH   2  10
TORSDOF 2
ENDMDL
MODEL 3
REMARK VINA RESULT:    -3.786      2.018      3.567
REMARK INTER + INTRA:          -4.369
REMARK INTER:                  -4.120
REMARK INTRA:                  -0.249
REMARK UNBOUND:                -0.251
REMARK SMILES O=C([O-])c1ccccc1O
REMARK SMILES IDX 4 1 9 2 5 3 8 4 6 5 7 6 2 7 1 8 3 9 10 10
REMARK H PARENT 10 11
REMARK Flexibility Score: inf
ROOT
ATOM      1  C   UNL     1      50.479  45.733  56.129  1.00  0.00     0.039 A 
ATOM      2  C   UNL     1      51.077  45.733  57.412  1.00  0.00     0.124 A 
ATOM      3  C   UNL     1      49.120  45.374  56.013  1.00  0.00     0.014 A 
ATOM      4  C   UNL     1      50.317  45.378  58.538  1.00  0.00     0.047 A 
ATOM      5  C   UNL     1      48.376  45.023  57.142  1.00  0.00     0.001 A 
ATOM      6  C   UNL     1      48.973  45.025  58.402  1.00  0.00     0.004 A 
ENDROOT
BRANCH   1   7
ATOM      7  C   UNL     1      51.245  46.101  54.910  1.00  0.00     0.075 C 
ATOM      8  O   UNL     1      50.812  46.991  54.131  1.00  0.00    -0.545 OA
ATOM      9  O   UNL     1      52.448  45.477  54.604  1.00  0.00    -0.545 OA
ENDBRANCH   1   7
BRANCH   2  10
ATOM     10  O   UNL     1      52.417  46.080  57.575  1.00  0.00    -0.507 OA
ATOM     11  H   UNL     1      52.845  46.821  57.032  1.00  0.00     0.293 HD
ENDBRANCH   2  10
TORSDOF 2
ENDMDL
MODEL 4
REMARK VINA RESULT:    -3.781      1.967      2.647
REMARK INTER + INTRA:          -4.363
REMARK INTER:                  -4.112
REMARK INTRA:                  -0.252
REMARK UNBOUND:                -0.251
REMARK SMILES O=C([O-])c1ccccc1O
REMARK SMILES IDX 4 1 9 2 5 3 8 4 6 5 7 6 2 7 1 8 3 9 10 10
REMARK H PARENT 10 11
REMARK Flexibility Score: inf
ROOT
ATOM      1  C   UNL     1      49.966  45.633  57.065  1.00  0.00     0.039 A 
ATOM      2  C   UNL     1      50.261  45.775  55.689  1.00  0.00     0.124 A 
ATOM      3  C   UNL     1      51.032  45.486  57.977  1.00  0.00     0.014 A 
ATOM      4  C   UNL     1      51.596  45.768  55.255  1.00  0.00     0.047 A 
ATOM      5  C   UNL     1      52.356  45.480  57.531  1.00  0.00     0.001 A 
ATOM      6  C   UNL     1      52.638  45.621  56.173  1.00  0.00     0.004 A 
ENDROOT
BRANCH   1   7
ATOM      7  C   UNL     1      48.568  45.634  57.569  1.00  0.00     0.075 C 
ATOM      8  O   UNL     1      48.276  46.243  58.633  1.00  0.00    -0.545 OA
ATOM      9  O   UNL     1      47.558  44.969  56.884  1.00  0.00    -0.545 OA
ENDBRANCH   1   7
BRANCH   2  10
ATOM     10  O   UNL     1      49.239  45.922  54.751  1.00  0.00    -0.507 OA
ATOM     11  H   UNL     1      48.537  45.206  54.612  1.00  0.00     0.293 HD
ENDBRANCH   2  10
TORSDOF 2
ENDMDL
MODEL 5
REMARK VINA RESULT:    -3.777     15.821     16.941
REMARK INTER + INTRA:          -4.359
REMARK INTER:                  -4.106
REMARK INTRA:                  -0.253
REMARK UNBOUND:                -0.251
REMARK SMILES O=C([O-])c1ccccc1O
REMARK SMILES IDX 4 1 9 2 5 3 8 4 6 5 7 6 2 7 1 8 3 9 10 10
REMARK H PARENT 10 11
REMARK Flexibility Score: inf
ROOT
ATOM      1  C   UNL     1      45.036  47.178  41.473  1.00  0.00     0.039 A 
ATOM      2  C   UNL     1      44.842  48.559  41.236  1.00  0.00     0.124 A 
ATOM      3  C   UNL     1      43.905  46.352  41.640  1.00  0.00     0.014 A 
ATOM      4  C   UNL     1      43.540  49.082  41.172  1.00  0.00     0.047 A 
ATOM      5  C   UNL     1      42.616  46.886  41.575  1.00  0.00     0.001 A 
ATOM      6  C   UNL     1      42.434  48.248  41.340  1.00  0.00     0.004 A 
ENDROOT
BRANCH   1   7
ATOM      7  C   UNL     1      46.395  46.582  41.549  1.00  0.00     0.075 C 
ATOM      8  O   UNL     1      46.678  45.556  40.875  1.00  0.00    -0.545 OA
ATOM      9  O   UNL     1      47.378  47.138  42.359  1.00  0.00    -0.545 OA
ENDBRANCH   1   7
BRANCH   2  10
ATOM     10  O   UNL     1      45.930  49.415  41.064  1.00  0.00    -0.507 OA
ATOM     11  H   UNL     1      45.806  50.398  40.853  1.00  0.00     0.293 HD
ENDBRANCH   2  10
TORSDOF 2
ENDMDL
MODEL 6
REMARK VINA RESULT:    -3.761     15.772     16.780
REMARK INTER + INTRA:          -4.342
REMARK INTER:                  -4.090
REMARK INTRA:                  -0.251
REMARK UNBOUND:                -0.251
REMARK SMILES O=C([O-])c1ccccc1O
REMARK SMILES IDX 4 1 9 2 5 3 8 4 6 5 7 6 2 7 1 8 3 9 10 10
REMARK H PARENT 10 11
REMARK Flexibility Score: inf
ROOT
ATOM      1  C   UNL     1      45.168  47.489  41.603  1.00  0.00     0.039 A 
ATOM      2  C   UNL     1      44.282  46.386  41.618  1.00  0.00     0.124 A 
ATOM      3  C   UNL     1      44.630  48.793  41.598  1.00  0.00     0.014 A 
ATOM      4  C   UNL     1      42.895  46.604  41.629  1.00  0.00     0.047 A 
ATOM      5  C   UNL     1      43.248  48.994  41.609  1.00  0.00     0.001 A 
ATOM      6  C   UNL     1      42.382  47.902  41.624  1.00  0.00     0.004 A 
ENDROOT
BRANCH   1   7
ATOM      7  C   UNL     1      46.643  47.307  41.590  1.00  0.00     0.075 C 
ATOM      8  O   UNL     1      47.370  48.047  40.875  1.00  0.00    -0.545 OA
ATOM      9  O   UNL     1      47.250  46.324  42.362  1.00  0.00    -0.545 OA
ENDBRANCH   1   7
BRANCH   2  10
ATOM     10  O   UNL     1      44.768  45.079  41.623  1.00  0.00    -0.507 OA
ATOM     11  H   UNL     1      44.422  44.381  40.976  1.00  0.00     0.293 HD
ENDBRANCH   2  10
TORSDOF 2
ENDMDL
MODEL 7
REMARK VINA RESULT:    -3.716     16.390     17.173
REMARK INTER + INTRA:          -4.293
REMARK INTER:                  -4.077
REMARK INTRA:                  -0.217
REMARK UNBOUND:                -0.251
REMARK SMILES O=C([O-])c1ccccc1O
REMARK SMILES IDX 4 1 9 2 5 3 8 4 6 5 7 6 2 7 1 8 3 9 10 10
REMARK H PARENT 10 11
REMARK Flexibility Score: inf
ROOT
ATOM      1  C   UNL     1      44.154  47.983  41.636  1.00  0.00     0.039 A 
ATOM      2  C   UNL     1      42.960  47.238  41.493  1.00  0.00     0.124 A 
ATOM      3  C   UNL     1      45.390  47.318  41.502  1.00  0.00     0.014 A 
ATOM      4  C   UNL     1      43.022  45.861  41.224  1.00  0.00     0.047 A 
ATOM      5  C   UNL     1      45.437  45.948  41.235  1.00  0.00     0.001 A 
ATOM      6  C   UNL     1      44.256  45.221  41.096  1.00  0.00     0.004 A 
ENDROOT
BRANCH   1   7
ATOM      7  C   UNL     1      44.136  49.441  41.921  1.00  0.00     0.075 C 
ATOM      8  O   UNL     1      43.697  49.869  43.021  1.00  0.00    -0.545 OA
ATOM      9  O   UNL     1      44.601  50.361  40.988  1.00  0.00    -0.545 OA
ENDBRANCH   1   7
BRANCH   2  10
ATOM     10  O   UNL     1      41.715  47.853  41.618  1.00  0.00    -0.507 OA
ATOM     11  H   UNL     1      41.493  48.711  41.126  1.00  0.00     0.293 HD
ENDBRANCH   2  10
TORSDOF 2
ENDMDL
MODEL 8
REMARK VINA RESULT:    -3.568      2.131      3.820
REMARK INTER + INTRA:          -4.132
REMARK INTER:                  -3.925
REMARK INTRA:                  -0.207
REMARK UNBOUND:                -0.251
REMARK SMILES O=C([O-])c1ccccc1O
REMARK SMILES IDX 4 1 9 2 5 3 8 4 6 5 7 6 2 7 1 8 3 9 10 10
REMARK H PARENT 10 11
REMARK Flexibility Score: inf
ROOT
ATOM      1  C   UNL     1      50.375  45.458  56.701  1.00  0.00     0.039 A 
ATOM      2  C   UNL     1      49.305  45.069  55.862  1.00  0.00     0.124 A 
ATOM      3  C   UNL     1      50.128  45.643  58.077  1.00  0.00     0.014 A 
ATOM      4  C   UNL     1      48.025  44.875  56.405  1.00  0.00     0.047 A 
ATOM      5  C   UNL     1      48.849  45.447  58.604  1.00  0.00     0.001 A 
ATOM      6  C   UNL     1      47.799  45.064  57.770  1.00  0.00     0.004 A 
ENDROOT
BRANCH   1   7
ATOM      7  C   UNL     1      51.746  45.675  56.170  1.00  0.00     0.075 C 
ATOM      8  O   UNL     1      51.917  45.997  54.964  1.00  0.00    -0.545 OA
ATOM      9  O   UNL     1      52.862  45.530  56.985  1.00  0.00    -0.545 OA
ENDBRANCH   1   7
BRANCH   2  10
ATOM     10  O   UNL     1      49.502  44.875  54.495  1.00  0.00    -0.507 OA
ATOM     11  H   UNL     1      50.428  44.739  54.105  1.00  0.00     0.293 HD
ENDBRANCH   2  10
TORSDOF 2
ENDMDL
