MODEL 1
REMARK VINA RESULT:    -5.524      0.000      0.000
REMARK INTER + INTRA:          -6.108
REMARK INTER:                  -6.008
REMARK INTRA:                  -0.100
REMARK UNBOUND:                -0.100
REMARK SMILES Cc1ccc(C(C)C)cc1O
REMARK SMILES IDX 1 1 2 2 10 3 9 4 5 5 4 6 3 7 11 8 6 10 7 11 8 12
REMARK H PARENT 11 9
REMARK Flexibility Score: inf
ROOT
ATOM      1  C   UNL     1      -1.894 -28.308 -23.655  1.00  0.00     0.048 C 
ATOM      2  C   UNL     1      -3.300 -28.841 -23.651  1.00  0.00    -0.009 A 
ATOM      3  C   UNL     1      -4.219 -28.473 -22.644  1.00  0.00     0.118 A 
ATOM      4  C   UNL     1      -5.521 -28.986 -22.669  1.00  0.00     0.050 A 
ATOM      5  C   UNL     1      -5.932 -29.866 -23.686  1.00  0.00    -0.042 A 
ATOM      6  C   UNL     1      -5.012 -30.228 -24.683  1.00  0.00     0.004 A 
ATOM      7  C   UNL     1      -3.712 -29.720 -24.666  1.00  0.00     0.007 A 
ENDROOT
BRANCH   3   8
ATOM      8  O   UNL     1      -3.871 -27.603 -21.609  1.00  0.00    -0.508 OA
ATOM      9  H   UNL     1      -3.624 -26.634 -21.763  1.00  0.00     0.293 HD
ENDBRANCH   3   8
BRANCH   5  10
ATOM     10  C   UNL     1      -7.342 -30.425 -23.717  1.00  0.00     0.013 C 
ATOM     11  C   UNL     1      -8.376 -29.336 -23.406  1.00  0.00     0.012 C 
ATOM     12  C   UNL     1      -7.487 -31.614 -22.759  1.00  0.00     0.012 C 
ENDBRANCH   5  10
TORSDOF 2
ENDMDL
MODEL 2
REMARK VINA RESULT:    -5.166     13.387     14.955
REMARK INTER + INTRA:          -5.719
REMARK INTER:                  -5.598
REMARK INTRA:                  -0.121
REMARK UNBOUND:                -0.100
REMARK SMILES Cc1ccc(C(C)C)cc1O
REMARK SMILES IDX 1 1 2 2 10 3 9 4 5 5 4 6 3 7 11 8 6 10 7 11 8 12
REMARK H PARENT 11 9
REMARK Flexibility Score: inf
ROOT
ATOM      1  C   UNL     1     -16.990 -26.648 -32.142  1.00  0.00     0.048 C 
ATOM      2  C   UNL     1     -15.844 -27.174 -32.961  1.00  0.00    -0.009 A 
ATOM      3  C   UNL     1     -15.833 -27.052 -34.367  1.00  0.00     0.118 A 
ATOM      4  C   UNL     1     -14.752 -27.552 -35.101  1.00  0.00     0.050 A 
ATOM      5  C   UNL     1     -13.669 -28.178 -34.458  1.00  0.00    -0.042 A 
ATOM      6  C   UNL     1     -13.687 -28.296 -33.059  1.00  0.00     0.004 A 
ATOM      7  C   UNL     1     -14.762 -27.800 -32.319  1.00  0.00     0.007 A 
ENDROOT
BRANCH   3   8
ATOM      8  O   UNL     1     -16.878 -26.441 -35.063  1.00  0.00    -0.508 OA
ATOM      9  H   UNL     1     -16.729 -25.765 -35.802  1.00  0.00     0.293 HD
ENDBRANCH   3   8
BRANCH   5  10
ATOM     10  C   UNL     1     -12.494 -28.722 -35.248  1.00  0.00     0.013 C 
ATOM     11  C   UNL     1     -11.163 -28.215 -34.680  1.00  0.00     0.012 C 
ATOM     12  C   UNL     1     -12.624 -28.380 -36.738  1.00  0.00     0.012 C 
ENDBRANCH   5  10
TORSDOF 2
ENDMDL
MODEL 3
REMARK VINA RESULT:    -5.067      1.768      4.445
REMARK INTER + INTRA:          -5.612
REMARK INTER:                  -5.508
REMARK INTRA:                  -0.104
REMARK UNBOUND:                -0.100
REMARK SMILES Cc1ccc(C(C)C)cc1O
REMARK SMILES IDX 1 1 2 2 10 3 9 4 5 5 4 6 3 7 11 8 6 10 7 11 8 12
REMARK H PARENT 11 9
REMARK Flexibility Score: inf
ROOT
ATOM      1  C   UNL     1      -7.203 -31.554 -22.745  1.00  0.00     0.048 C 
ATOM      2  C   UNL     1      -5.905 -30.885 -23.107  1.00  0.00    -0.009 A 
ATOM      3  C   UNL     1      -4.862 -30.753 -22.164  1.00  0.00     0.118 A 
ATOM      4  C   UNL     1      -3.667 -30.126 -22.531  1.00  0.00     0.050 A 
ATOM      5  C   UNL     1      -3.485 -29.621 -23.831  1.00  0.00    -0.042 A 
ATOM      6  C   UNL     1      -4.527 -29.755 -24.763  1.00  0.00     0.004 A 
ATOM      7  C   UNL     1      -5.722 -30.380 -24.405  1.00  0.00     0.007 A 
ENDROOT
BRANCH   3   8
ATOM      8  O   UNL     1      -4.982 -31.234 -20.858  1.00  0.00    -0.508 OA
ATOM      9  H   UNL     1      -5.794 -31.740 -20.529  1.00  0.00     0.293 HD
ENDBRANCH   3   8
BRANCH   5  10
ATOM     10  C   UNL     1      -2.191 -28.940 -24.235  1.00  0.00     0.013 C 
ATOM     11  C   UNL     1      -0.993 -29.540 -23.488  1.00  0.00     0.012 C 
ATOM     12  C   UNL     1      -2.273 -27.423 -24.017  1.00  0.00     0.012 C 
ENDBRANCH   5  10
TORSDOF 2
ENDMDL
MODEL 4
REMARK VINA RESULT:    -4.989     13.041     14.518
REMARK INTER + INTRA:          -5.526
REMARK INTER:                  -5.407
REMARK INTRA:                  -0.120
REMARK UNBOUND:                -0.100
REMARK SMILES Cc1ccc(C(C)C)cc1O
REMARK SMILES IDX 1 1 2 2 10 3 9 4 5 5 4 6 3 7 11 8 6 10 7 11 8 12
REMARK H PARENT 11 9
REMARK Flexibility Score: inf
ROOT
ATOM      1  C   UNL     1     -11.105 -28.977 -34.400  1.00  0.00     0.048 C 
ATOM      2  C   UNL     1     -12.541 -28.568 -34.222  1.00  0.00    -0.009 A 
ATOM      3  C   UNL     1     -13.319 -28.133 -35.317  1.00  0.00     0.118 A 
ATOM      4  C   UNL     1     -14.653 -27.759 -35.118  1.00  0.00     0.050 A 
ATOM      5  C   UNL     1     -15.235 -27.810 -33.840  1.00  0.00    -0.042 A 
ATOM      6  C   UNL     1     -14.455 -28.244 -32.755  1.00  0.00     0.004 A 
ATOM      7  C   UNL     1     -13.124 -28.618 -32.945  1.00  0.00     0.007 A 
ENDROOT
BRANCH   3   8
ATOM      8  O   UNL     1     -12.798 -28.061 -36.611  1.00  0.00    -0.508 OA
ATOM      9  H   UNL     1     -13.294 -27.636 -37.383  1.00  0.00     0.293 HD
ENDBRANCH   3   8
BRANCH   5  10
ATOM     10  C   UNL     1     -16.681 -27.406 -33.618  1.00  0.00     0.013 C 
ATOM     11  C   UNL     1     -17.315 -26.890 -34.916  1.00  0.00     0.012 C 
ATOM     12  C   UNL     1     -16.800 -26.369 -32.495  1.00  0.00     0.012 C 
ENDBRANCH   5  10
TORSDOF 2
ENDMDL
MODEL 5
REMARK VINA RESULT:    -4.904      6.799      7.540
REMARK INTER + INTRA:          -5.435
REMARK INTER:                  -5.307
REMARK INTRA:                  -0.128
REMARK UNBOUND:                -0.100
REMARK SMILES Cc1ccc(C(C)C)cc1O
REMARK SMILES IDX 1 1 2 2 10 3 9 4 5 5 4 6 3 7 11 8 6 10 7 11 8 12
REMARK H PARENT 11 9
REMARK Flexibility Score: inf
ROOT
ATOM      1  C   UNL     1      -2.736 -23.031 -24.357  1.00  0.00     0.048 C 
ATOM      2  C   UNL     1      -4.122 -22.686 -23.885  1.00  0.00    -0.009 A 
ATOM      3  C   UNL     1      -4.926 -21.762 -24.587  1.00  0.00     0.118 A 
ATOM      4  C   UNL     1      -6.211 -21.463 -24.121  1.00  0.00     0.050 A 
ATOM      5  C   UNL     1      -6.718 -22.070 -22.959  1.00  0.00    -0.042 A 
ATOM      6  C   UNL     1      -5.913 -22.988 -22.266  1.00  0.00     0.004 A 
ATOM      7  C   UNL     1      -4.630 -23.292 -22.724  1.00  0.00     0.007 A 
ENDROOT
BRANCH   3   8
ATOM      8  O   UNL     1      -4.478 -21.127 -25.747  1.00  0.00    -0.508 OA
ATOM      9  H   UNL     1      -3.535 -20.779 -25.857  1.00  0.00     0.293 HD
ENDBRANCH   3   8
BRANCH   5  10
ATOM     10  C   UNL     1      -8.111 -21.750 -22.450  1.00  0.00     0.013 C 
ATOM     11  C   UNL     1      -8.203 -21.943 -20.931  1.00  0.00     0.012 C 
ATOM     12  C   UNL     1      -9.172 -22.586 -23.177  1.00  0.00     0.012 C 
ENDBRANCH   5  10
TORSDOF 2
ENDMDL
MODEL 6
REMARK VINA RESULT:    -4.890      7.238      8.193
REMARK INTER + INTRA:          -5.420
REMARK INTER:                  -5.311
REMARK INTRA:                  -0.108
REMARK UNBOUND:                -0.100
REMARK SMILES Cc1ccc(C(C)C)cc1O
REMARK SMILES IDX 1 1 2 2 10 3 9 4 5 5 4 6 3 7 11 8 6 10 7 11 8 12
REMARK H PARENT 11 9
REMARK Flexibility Score: inf
ROOT
ATOM      1  C   UNL     1      -6.445 -23.192 -17.882  1.00  0.00     0.048 C 
ATOM      2  C   UNL     1      -6.770 -22.795 -19.295  1.00  0.00    -0.009 A 
ATOM      3  C   UNL     1      -5.899 -23.108 -20.362  1.00  0.00     0.118 A 
ATOM      4  C   UNL     1      -6.230 -22.724 -21.666  1.00  0.00     0.050 A 
ATOM      5  C   UNL     1      -7.422 -22.027 -21.934  1.00  0.00    -0.042 A 
ATOM      6  C   UNL     1      -8.282 -21.718 -20.868  1.00  0.00     0.004 A 
ATOM      7  C   UNL     1      -7.959 -22.098 -19.564  1.00  0.00     0.007 A 
ENDROOT
BRANCH   3   8
ATOM      8  O   UNL     1      -4.703 -23.799 -20.159  1.00  0.00    -0.508 OA
ATOM      9  H   UNL     1      -4.594 -24.521 -19.460  1.00  0.00     0.293 HD
ENDBRANCH   3   8
BRANCH   5  10
ATOM     10  C   UNL     1      -7.786 -21.608 -23.346  1.00  0.00     0.013 C 
ATOM     11  C   UNL     1      -8.855 -22.534 -23.939  1.00  0.00     0.012 C 
ATOM     12  C   UNL     1      -6.543 -21.554 -24.244  1.00  0.00     0.012 C 
ENDBRANCH   5  10
TORSDOF 2
ENDMDL
MODEL 7
REMARK VINA RESULT:    -4.887      1.325      2.344
REMARK INTER + INTRA:          -5.416
REMARK INTER:                  -5.292
REMARK INTRA:                  -0.124
REMARK UNBOUND:                -0.100
REMARK SMILES Cc1ccc(C(C)C)cc1O
REMARK SMILES IDX 1 1 2 2 10 3 9 4 5 5 4 6 3 7 11 8 6 10 7 11 8 12
REMARK H PARENT 11 9
REMARK Flexibility Score: inf
ROOT
ATOM      1  C   UNL     1      -2.071 -25.732 -22.350  1.00  0.00     0.048 C 
ATOM      2  C   UNL     1      -2.806 -26.957 -22.819  1.00  0.00    -0.009 A 
ATOM      3  C   UNL     1      -3.887 -27.489 -22.083  1.00  0.00     0.118 A 
ATOM      4  C   UNL     1      -4.550 -28.631 -22.546  1.00  0.00     0.050 A 
ATOM      5  C   UNL     1      -4.156 -29.260 -23.740  1.00  0.00    -0.042 A 
ATOM      6  C   UNL     1      -3.081 -28.726 -24.467  1.00  0.00     0.004 A 
ATOM      7  C   UNL     1      -2.414 -27.587 -24.011  1.00  0.00     0.007 A 
ENDROOT
BRANCH   3   8
ATOM      8  O   UNL     1      -4.325 -26.908 -20.891  1.00  0.00    -0.508 OA
ATOM      9  H   UNL     1      -5.200 -27.155 -20.445  1.00  0.00     0.293 HD
ENDBRANCH   3   8
BRANCH   5  10
ATOM     10  C   UNL     1      -4.872 -30.499 -24.248  1.00  0.00     0.013 C 
ATOM     11  C   UNL     1      -5.017 -30.467 -25.775  1.00  0.00     0.012 C 
ATOM     12  C   UNL     1      -6.237 -30.666 -23.568  1.00  0.00     0.012 C 
ENDBRANCH   5  10
TORSDOF 2
ENDMDL
MODEL 8
REMARK VINA RESULT:    -4.853      6.492      7.216
REMARK INTER + INTRA:          -5.379
REMARK INTER:                  -5.275
REMARK INTRA:                  -0.105
REMARK UNBOUND:                -0.100
REMARK SMILES Cc1ccc(C(C)C)cc1O
REMARK SMILES IDX 1 1 2 2 10 3 9 4 5 5 4 6 3 7 11 8 6 10 7 11 8 12
REMARK H PARENT 11 9
REMARK Flexibility Score: inf
ROOT
ATOM      1  C   UNL     1      -2.622 -22.921 -24.287  1.00  0.00     0.048 C 
ATOM      2  C   UNL     1      -4.028 -22.632 -23.839  1.00  0.00    -0.009 A 
ATOM      3  C   UNL     1      -4.581 -23.269 -22.706  1.00  0.00     0.118 A 
ATOM      4  C   UNL     1      -5.893 -22.978 -22.315  1.00  0.00     0.050 A 
ATOM      5  C   UNL     1      -6.674 -22.057 -23.035  1.00  0.00    -0.042 A 
ATOM      6  C   UNL     1      -6.118 -21.428 -24.161  1.00  0.00     0.004 A 
ATOM      7  C   UNL     1      -4.810 -21.713 -24.557  1.00  0.00     0.007 A 
ENDROOT
BRANCH   3   8
ATOM      8  O   UNL     1      -3.855 -24.191 -21.950  1.00  0.00    -0.508 OA
ATOM      9  H   UNL     1      -4.117 -25.165 -21.866  1.00  0.00     0.293 HD
ENDBRANCH   3   8
BRANCH   5  10
ATOM     10  C   UNL     1      -8.098 -21.738 -22.616  1.00  0.00     0.013 C 
ATOM     11  C   UNL     1      -8.269 -21.871 -21.098  1.00  0.00     0.012 C 
ATOM     12  C   UNL     1      -9.105 -22.620 -23.365  1.00  0.00     0.012 C 
ENDBRANCH   5  10
TORSDOF 2
ENDMDL
MODEL 9
REMARK VINA RESULT:    -4.822      7.837      9.081
REMARK INTER + INTRA:          -5.345
REMARK INTER:                  -5.246
REMARK INTRA:                  -0.099
REMARK UNBOUND:                -0.100
REMARK SMILES Cc1ccc(C(C)C)cc1O
REMARK SMILES IDX 1 1 2 2 10 3 9 4 5 5 4 6 3 7 11 8 6 10 7 11 8 12
REMARK H PARENT 11 9
REMARK Flexibility Score: inf
ROOT
ATOM      1  C   UNL     1      -7.980 -19.084 -19.674  1.00  0.00     0.048 C 
ATOM      2  C   UNL     1      -7.506 -20.478 -19.371  1.00  0.00    -0.009 A 
ATOM      3  C   UNL     1      -7.899 -21.575 -20.170  1.00  0.00     0.118 A 
ATOM      4  C   UNL     1      -7.440 -22.860 -19.862  1.00  0.00     0.050 A 
ATOM      5  C   UNL     1      -6.590 -23.080 -18.764  1.00  0.00    -0.042 A 
ATOM      6  C   UNL     1      -6.203 -21.985 -17.974  1.00  0.00     0.004 A 
ATOM      7  C   UNL     1      -6.656 -20.700 -18.275  1.00  0.00     0.007 A 
ENDROOT
BRANCH   3   8
ATOM      8  O   UNL     1      -8.741 -21.420 -21.273  1.00  0.00    -0.508 OA
ATOM      9  H   UNL     1      -9.741 -21.291 -21.191  1.00  0.00     0.293 HD
ENDBRANCH   3   8
BRANCH   5  10
ATOM     10  C   UNL     1      -6.089 -24.472 -18.425  1.00  0.00     0.013 C 
ATOM     11  C   UNL     1      -5.422 -25.130 -19.639  1.00  0.00     0.012 C 
ATOM     12  C   UNL     1      -7.222 -25.348 -17.875  1.00  0.00     0.012 C 
ENDBRANCH   5  10
TORSDOF 2
ENDMDL
