MODEL 1
REMARK VINA RESULT:    -3.202      0.000      0.000
REMARK INTER + INTRA:          -5.214
REMARK INTER:                  -4.886
REMARK INTRA:                  -0.328
REMARK UNBOUND:                -0.328
REMARK SMILES CC1=CCC[C@H](C)C(=O)C[C@H](C(C)C)C(=O)C1
REMARK SMILES IDX 8 1 9 2 6 3 7 4 5 5 4 6 3 7 2 8 1 9 10 11 11 12 15 13 16 14
REMARK SMILES IDX 17 15 12 17 13 18 14 19
REMARK H PARENT
REMARK Flexibility Score: 70.00
ROOT
ATOM      1  C   UNL     1      97.606 142.339 134.656  1.00  0.00     0.136 C 
ATOM      2  O   UNL     1      97.053 143.056 133.834  1.00  0.00    -0.299 OA
ENDROOT
BRANCH   1   3
ATOM      3  C   UNL     1      98.489 141.186 134.166  1.00  0.00     0.053 C 
ATOM      4  C   UNL     1      99.804 141.092 134.960  1.00  0.00     0.016 C 
BRANCH   3   5
ATOM      5  C   UNL     1      97.753 139.817 134.207  1.00  0.00     0.015 C 
BRANCH   5   6
ATOM      6  C   UNL     1      97.615 139.160 135.596  1.00  0.00     0.028 C 
BRANCH   6   7
ATOM      7  C   UNL     1      96.223 138.860 136.118  1.00  0.00    -0.028 C 
ATOM      8  C   UNL     1      95.630 139.356 137.232  1.00  0.00    -0.070 CG0
ATOM      9  C   UNL     1      94.302 138.765 137.636  1.00  0.00     0.039 C 
ATOM     10  G   UNL     1      96.156 140.534 138.037  1.00  0.00     0.000 G0
ENDBRANCH   6   7
ENDBRANCH   5   6
ENDBRANCH   3   5
ENDBRANCH   1   3
BRANCH   1  11
ATOM     11  C   UNL     1      97.297 142.587 136.129  1.00  0.00     0.087 C 
BRANCH  11  12
ATOM     12  C   UNL     1      95.786 142.667 136.472  1.00  0.00     0.066 C 
BRANCH  12  13
ATOM     13  C   UNL     1      95.423 141.828 137.687  1.00  0.00     0.140 C 
ATOM     14  O   UNL     1      94.569 142.262 138.449  1.00  0.00    -0.299 OA
BRANCH  13  15
ATOM     15  C   UNL     1      96.150 140.541 138.041  1.00  0.00     0.106 CG0
ATOM     16  G   UNL     1      95.630 139.370 137.224  1.00  0.00     0.000 G0
ENDBRANCH  13  15
ENDBRANCH  12  13
BRANCH  12  17
ATOM     17  C   UNL     1      95.294 144.139 136.663  1.00  0.00    -0.006 C 
ATOM     18  C   UNL     1      94.340 144.562 135.529  1.00  0.00     0.008 C 
ATOM     19  C   UNL     1      96.458 145.145 136.731  1.00  0.00     0.008 C 
ENDBRANCH  12  17
ENDBRANCH  11  12
ENDBRANCH   1  11
TORSDOF 1
ENDMDL
MODEL 2
REMARK VINA RESULT:    -3.000      2.936      4.698
REMARK INTER + INTRA:          -4.907
REMARK INTER:                  -4.734
REMARK INTRA:                  -0.173
REMARK UNBOUND:                -0.328
REMARK SMILES CC1=CCC[C@H](C)C(=O)C[C@H](C(C)C)C(=O)C1
REMARK SMILES IDX 8 1 9 2 6 3 7 4 5 5 4 6 3 7 2 8 1 9 10 11 11 12 15 13 16 14
REMARK SMILES IDX 17 15 12 17 13 18 14 19
REMARK H PARENT
REMARK Flexibility Score: 70.00
ROOT
ATOM      1  C   UNL     1      97.568 141.319 135.795  1.00  0.00     0.136 C 
ATOM      2  O   UNL     1      96.914 142.346 135.674  1.00  0.00    -0.299 OA
ENDROOT
BRANCH   1   3
ATOM      3  C   UNL     1      98.474 140.873 134.643  1.00  0.00     0.053 C 
ATOM      4  C   UNL     1      98.111 141.572 133.321  1.00  0.00     0.016 C 
BRANCH   3   5
ATOM      5  C   UNL     1      99.982 141.092 134.955  1.00  0.00     0.015 C 
BRANCH   5   6
ATOM      6  C   UNL     1     100.339 141.354 136.434  1.00  0.00     0.028 C 
BRANCH   6   7
ATOM      7  C   UNL     1     101.219 140.350 137.154  1.00  0.00    -0.028 C 
ATOM      8  C   UNL     1     100.893 139.574 138.217  1.00  0.00    -0.070 CG0
ATOM      9  C   UNL     1     102.002 138.784 138.868  1.00  0.00     0.039 C 
ATOM     10  G   UNL     1      99.477 139.363 138.728  1.00  0.00     0.000 G0
ENDBRANCH   6   7
ENDBRANCH   5   6
ENDBRANCH   3   5
ENDBRANCH   1   3
BRANCH   1  11
ATOM     11  C   UNL     1      97.359 140.495 137.062  1.00  0.00     0.087 C 
BRANCH  11  12
ATOM     12  C   UNL     1      97.583 138.970 136.891  1.00  0.00     0.066 C 
BRANCH  12  13
ATOM     13  C   UNL     1      98.661 138.436 137.820  1.00  0.00     0.140 C 
ATOM     14  O   UNL     1      98.818 137.224 137.879  1.00  0.00    -0.299 OA
BRANCH  13  15
ATOM     15  C   UNL     1      99.465 139.335 138.745  1.00  0.00     0.106 CG0
ATOM     16  G   UNL     1     100.865 139.575 138.201  1.00  0.00     0.000 G0
ENDBRANCH  13  15
ENDBRANCH  12  13
BRANCH  12  17
ATOM     17  C   UNL     1      96.263 138.150 137.063  1.00  0.00    -0.006 C 
ATOM     18  C   UNL     1      95.665 137.760 135.698  1.00  0.00     0.008 C 
ATOM     19  C   UNL     1      95.197 138.912 137.871  1.00  0.00     0.008 C 
ENDBRANCH  12  17
ENDBRANCH  11  12
ENDBRANCH   1  11
TORSDOF 1
ENDMDL
MODEL 3
REMARK VINA RESULT:    -2.974      1.484      1.691
REMARK INTER + INTRA:          -4.866
REMARK INTER:                  -4.449
REMARK INTRA:                  -0.417
REMARK UNBOUND:                -0.328
REMARK SMILES CC1=CCC[C@H](C)C(=O)C[C@H](C(C)C)C(=O)C1
REMARK SMILES IDX 8 1 9 2 6 3 7 4 5 5 4 6 3 7 2 8 1 9 10 11 11 12 15 13 16 14
REMARK SMILES IDX 17 15 12 17 13 18 14 19
REMARK H PARENT
REMARK Flexibility Score: 70.00
ROOT
ATOM      1  C   UNL     1      97.971 141.570 136.078  1.00  0.00     0.136 C 
ATOM      2  O   UNL     1      99.173 141.518 136.299  1.00  0.00    -0.299 OA
ENDROOT
BRANCH   1   3
ATOM      3  C   UNL     1      97.403 140.829 134.864  1.00  0.00     0.053 C 
ATOM      4  C   UNL     1      98.150 141.190 133.568  1.00  0.00     0.016 C 
BRANCH   3   5
ATOM      5  C   UNL     1      97.404 139.286 135.058  1.00  0.00     0.015 C 
BRANCH   5   6
ATOM      6  C   UNL     1      96.145 138.682 135.715  1.00  0.00     0.028 C 
BRANCH   6   7
ATOM      7  C   UNL     1      96.222 138.257 137.169  1.00  0.00    -0.028 C 
ATOM      8  C   UNL     1      95.654 138.864 138.241  1.00  0.00    -0.070 CG0
ATOM      9  C   UNL     1      96.027 138.349 139.610  1.00  0.00     0.039 C 
ATOM     10  G   UNL     1      94.592 139.948 138.156  1.00  0.00     0.000 G0
ENDBRANCH   6   7
ENDBRANCH   5   6
ENDBRANCH   3   5
ENDBRANCH   1   3
BRANCH   1  11
ATOM     11  C   UNL     1      97.127 142.462 136.984  1.00  0.00     0.087 C 
BRANCH  11  12
ATOM     12  C   UNL     1      95.613 142.127 137.000  1.00  0.00     0.066 C 
BRANCH  12  13
ATOM     13  C   UNL     1      95.208 141.338 138.235  1.00  0.00     0.140 C 
ATOM     14  O   UNL     1      95.472 141.813 139.331  1.00  0.00    -0.299 OA
BRANCH  13  15
ATOM     15  C   UNL     1      94.593 139.950 138.155  1.00  0.00     0.106 CG0
ATOM     16  G   UNL     1      95.655 138.869 138.273  1.00  0.00     0.000 G0
ENDBRANCH  13  15
ENDBRANCH  12  13
BRANCH  12  17
ATOM     17  C   UNL     1      94.718 143.400 136.851  1.00  0.00    -0.006 C 
ATOM     18  C   UNL     1      93.272 143.026 136.472  1.00  0.00     0.008 C 
ATOM     19  C   UNL     1      95.265 144.386 135.803  1.00  0.00     0.008 C 
ENDBRANCH  12  17
ENDBRANCH  11  12
ENDBRANCH   1  11
TORSDOF 1
ENDMDL
MODEL 4
REMARK VINA RESULT:    -2.970      3.180      4.219
REMARK INTER + INTRA:          -4.861
REMARK INTER:                  -4.402
REMARK INTRA:                  -0.459
REMARK UNBOUND:                -0.328
REMARK SMILES CC1=CCC[C@H](C)C(=O)C[C@H](C(C)C)C(=O)C1
REMARK SMILES IDX 8 1 9 2 6 3 7 4 5 5 4 6 3 7 2 8 1 9 10 11 11 12 15 13 16 14
REMARK SMILES IDX 17 15 12 17 13 18 14 19
REMARK H PARENT
REMARK Flexibility Score: 70.00
ROOT
ATOM      1  C   UNL     1      99.602 141.093 138.001  1.00  0.00     0.136 C 
ATOM      2  O   UNL     1      99.738 141.762 139.016  1.00  0.00    -0.299 OA
ENDROOT
BRANCH   1   3
ATOM      3  C   UNL     1     100.848 140.628 137.241  1.00  0.00     0.053 C 
ATOM      4  C   UNL     1     101.986 141.662 137.315  1.00  0.00     0.016 C 
BRANCH   3   5
ATOM      5  C   UNL     1     101.363 139.246 137.735  1.00  0.00     0.015 C 
BRANCH   5   6
ATOM      6  C   UNL     1     100.416 138.462 138.669  1.00  0.00     0.028 C 
BRANCH   6   7
ATOM      7  C   UNL     1      99.809 137.169 138.161  1.00  0.00    -0.028 C 
ATOM      8  C   UNL     1      98.498 136.896 137.947  1.00  0.00    -0.070 CG0
ATOM      9  C   UNL     1      98.129 135.472 137.609  1.00  0.00     0.039 C 
ATOM     10  G   UNL     1      97.394 137.941 137.918  1.00  0.00     0.000 G0
ENDBRANCH   6   7
ENDBRANCH   5   6
ENDBRANCH   3   5
ENDBRANCH   1   3
BRANCH   1  11
ATOM     11  C   UNL     1      98.180 140.849 137.504  1.00  0.00     0.087 C 
BRANCH  11  12
ATOM     12  C   UNL     1      98.074 139.920 136.267  1.00  0.00     0.066 C 
BRANCH  12  13
ATOM     13  C   UNL     1      97.298 138.647 136.564  1.00  0.00     0.140 C 
ATOM     14  O   UNL     1      96.514 138.242 135.716  1.00  0.00    -0.299 OA
BRANCH  13  15
ATOM     15  C   UNL     1      97.380 137.931 137.903  1.00  0.00     0.106 CG0
ATOM     16  G   UNL     1      98.513 136.918 137.918  1.00  0.00     0.000 G0
ENDBRANCH  13  15
ENDBRANCH  12  13
BRANCH  12  17
ATOM     17  C   UNL     1      97.465 140.648 135.024  1.00  0.00    -0.006 C 
ATOM     18  C   UNL     1      98.571 141.188 134.095  1.00  0.00     0.008 C 
ATOM     19  C   UNL     1      96.538 141.812 135.418  1.00  0.00     0.008 C 
ENDBRANCH  12  17
ENDBRANCH  11  12
ENDBRANCH   1  11
TORSDOF 1
ENDMDL
MODEL 5
REMARK VINA RESULT:    -2.967      1.769      4.139
REMARK INTER + INTRA:          -4.856
REMARK INTER:                  -4.437
REMARK INTRA:                  -0.419
REMARK UNBOUND:                -0.328
REMARK SMILES CC1=CCC[C@H](C)C(=O)C[C@H](C(C)C)C(=O)C1
REMARK SMILES IDX 8 1 9 2 6 3 7 4 5 5 4 6 3 7 2 8 1 9 10 11 11 12 15 13 16 14
REMARK SMILES IDX 17 15 12 17 13 18 14 19
REMARK H PARENT
REMARK Flexibility Score: 70.00
ROOT
ATOM      1  C   UNL     1      96.508 143.116 136.862  1.00  0.00     0.136 C 
ATOM      2  O   UNL     1      97.550 143.422 137.426  1.00  0.00    -0.299 OA
ENDROOT
BRANCH   1   3
ATOM      3  C   UNL     1      95.174 143.566 137.464  1.00  0.00     0.053 C 
ATOM      4  C   UNL     1      93.975 143.101 136.618  1.00  0.00     0.016 C 
BRANCH   3   5
ATOM      5  C   UNL     1      94.995 143.091 138.933  1.00  0.00     0.015 C 
BRANCH   5   6
ATOM      6  C   UNL     1      94.328 141.712 139.125  1.00  0.00     0.028 C 
BRANCH   6   7
ATOM      7  C   UNL     1      95.217 140.492 139.261  1.00  0.00    -0.028 C 
ATOM      8  C   UNL     1      95.511 139.570 138.310  1.00  0.00    -0.070 CG0
ATOM      9  C   UNL     1      96.279 138.345 138.743  1.00  0.00     0.039 C 
ATOM     10  G   UNL     1      95.216 139.735 136.828  1.00  0.00     0.000 G0
ENDBRANCH   6   7
ENDBRANCH   5   6
ENDBRANCH   3   5
ENDBRANCH   1   3
BRANCH   1  11
ATOM     11  C   UNL     1      96.611 142.213 135.636  1.00  0.00     0.087 C 
BRANCH  11  12
ATOM     12  C   UNL     1      97.415 140.906 135.856  1.00  0.00     0.066 C 
BRANCH  12  13
ATOM     13  C   UNL     1      96.513 139.690 136.003  1.00  0.00     0.140 C 
ATOM     14  O   UNL     1      96.801 138.683 135.369  1.00  0.00    -0.299 OA
BRANCH  13  15
ATOM     15  C   UNL     1      95.227 139.717 136.811  1.00  0.00     0.106 CG0
ATOM     16  G   UNL     1      95.507 139.578 138.299  1.00  0.00     0.000 G0
ENDBRANCH  13  15
ENDBRANCH  12  13
BRANCH  12  17
ATOM     17  C   UNL     1      98.476 140.661 134.734  1.00  0.00    -0.006 C 
ATOM     18  C   UNL     1      99.890 141.049 135.208  1.00  0.00     0.008 C 
ATOM     19  C   UNL     1      98.158 141.436 133.442  1.00  0.00     0.008 C 
ENDBRANCH  12  17
ENDBRANCH  11  12
ENDBRANCH   1  11
TORSDOF 1
ENDMDL
MODEL 6
REMARK VINA RESULT:    -2.780      1.697      2.645
REMARK INTER + INTRA:          -4.571
REMARK INTER:                  -4.399
REMARK INTRA:                  -0.172
REMARK UNBOUND:                -0.328
REMARK SMILES CC1=CCC[C@H](C)C(=O)C[C@H](C(C)C)C(=O)C1
REMARK SMILES IDX 8 1 9 2 6 3 7 4 5 5 4 6 3 7 2 8 1 9 10 11 11 12 15 13 16 14
REMARK SMILES IDX 17 15 12 17 13 18 14 19
REMARK H PARENT
REMARK Flexibility Score: 70.00
ROOT
ATOM      1  C   UNL     1      96.877 143.218 136.469  1.00  0.00     0.136 C 
ATOM      2  O   UNL     1      97.771 143.962 136.849  1.00  0.00    -0.299 OA
ENDROOT
BRANCH   1   3
ATOM      3  C   UNL     1      96.779 142.868 134.981  1.00  0.00     0.053 C 
ATOM      4  C   UNL     1      96.658 144.125 134.101  1.00  0.00     0.016 C 
BRANCH   3   5
ATOM      5  C   UNL     1      97.976 142.001 134.496  1.00  0.00     0.015 C 
BRANCH   5   6
ATOM      6  C   UNL     1      97.671 140.513 134.223  1.00  0.00     0.028 C 
BRANCH   6   7
ATOM      7  C   UNL     1      97.988 139.501 135.307  1.00  0.00    -0.028 C 
ATOM      8  C   UNL     1      97.164 139.047 136.285  1.00  0.00    -0.070 CG0
ATOM      9  C   UNL     1      97.771 138.173 137.355  1.00  0.00     0.039 C 
ATOM     10  G   UNL     1      95.660 139.268 136.317  1.00  0.00     0.000 G0
ENDBRANCH   6   7
ENDBRANCH   5   6
ENDBRANCH   3   5
ENDBRANCH   1   3
BRANCH   1  11
ATOM     11  C   UNL     1      95.852 142.764 137.505  1.00  0.00     0.087 C 
BRANCH  11  12
ATOM     12  C   UNL     1      94.840 141.704 136.997  1.00  0.00     0.066 C 
BRANCH  12  13
ATOM     13  C   UNL     1      95.261 140.286 137.349  1.00  0.00     0.140 C 
ATOM     14  O   UNL     1      95.357 139.994 138.533  1.00  0.00    -0.299 OA
BRANCH  13  15
ATOM     15  C   UNL     1      95.667 139.267 136.297  1.00  0.00     0.106 CG0
ATOM     16  G   UNL     1      97.173 139.061 136.280  1.00  0.00     0.000 G0
ENDBRANCH  13  15
ENDBRANCH  12  13
BRANCH  12  17
ATOM     17  C   UNL     1      93.385 141.979 137.500  1.00  0.00    -0.006 C 
ATOM     18  C   UNL     1      92.507 142.568 136.379  1.00  0.00     0.008 C 
ATOM     19  C   UNL     1      93.350 142.932 138.709  1.00  0.00     0.008 C 
ENDBRANCH  12  17
ENDBRANCH  11  12
ENDBRANCH   1  11
TORSDOF 1
ENDMDL
MODEL 7
REMARK VINA RESULT:    -2.745      2.177      3.262
REMARK INTER + INTRA:          -4.517
REMARK INTER:                  -4.228
REMARK INTRA:                  -0.289
REMARK UNBOUND:                -0.328
REMARK SMILES CC1=CCC[C@H](C)C(=O)C[C@H](C(C)C)C(=O)C1
REMARK SMILES IDX 8 1 9 2 6 3 7 4 5 5 4 6 3 7 2 8 1 9 10 11 11 12 15 13 16 14
REMARK SMILES IDX 17 15 12 17 13 18 14 19
REMARK H PARENT
REMARK Flexibility Score: 70.00
ROOT
ATOM      1  C   UNL     1      97.721 142.160 134.136  1.00  0.00     0.136 C 
ATOM      2  O   UNL     1      97.814 142.152 132.917  1.00  0.00    -0.299 OA
ENDROOT
BRANCH   1   3
ATOM      3  C   UNL     1      98.298 140.989 134.936  1.00  0.00     0.053 C 
ATOM      4  C   UNL     1      97.808 139.631 134.404  1.00  0.00     0.016 C 
BRANCH   3   5
ATOM      5  C   UNL     1      99.853 141.006 134.976  1.00  0.00     0.015 C 
BRANCH   5   6
ATOM      6  C   UNL     1     100.495 141.264 136.356  1.00  0.00     0.028 C 
BRANCH   6   7
ATOM      7  C   UNL     1      99.601 141.262 137.580  1.00  0.00    -0.028 C 
ATOM      8  C   UNL     1      99.008 142.327 138.176  1.00  0.00    -0.070 CG0
ATOM      9  C   UNL     1      98.309 142.088 139.492  1.00  0.00     0.039 C 
ATOM     10  G   UNL     1      98.906 143.713 137.559  1.00  0.00     0.000 G0
ENDBRANCH   6   7
ENDBRANCH   5   6
ENDBRANCH   3   5
ENDBRANCH   1   3
BRANCH   1  11
ATOM     11  C   UNL     1      96.940 143.306 134.775  1.00  0.00     0.087 C 
BRANCH  11  12
ATOM     12  C   UNL     1      96.644 143.127 136.286  1.00  0.00     0.066 C 
BRANCH  12  13
ATOM     13  C   UNL     1      97.479 144.055 137.154  1.00  0.00     0.140 C 
ATOM     14  O   UNL     1      97.005 145.144 137.450  1.00  0.00    -0.299 OA
BRANCH  13  15
ATOM     15  C   UNL     1      98.904 143.728 137.568  1.00  0.00     0.106 CG0
ATOM     16  G   UNL     1      98.999 142.332 138.163  1.00  0.00     0.000 G0
ENDBRANCH  13  15
ENDBRANCH  12  13
BRANCH  12  17
ATOM     17  C   UNL     1      95.125 143.293 136.621  1.00  0.00    -0.006 C 
ATOM     18  C   UNL     1      94.461 141.931 136.897  1.00  0.00     0.008 C 
ATOM     19  C   UNL     1      94.349 144.004 135.497  1.00  0.00     0.008 C 
ENDBRANCH  12  17
ENDBRANCH  11  12
ENDBRANCH   1  11
TORSDOF 1
ENDMDL
MODEL 8
REMARK VINA RESULT:    -2.744      1.968      2.877
REMARK INTER + INTRA:          -4.516
REMARK INTER:                  -4.287
REMARK INTRA:                  -0.228
REMARK UNBOUND:                -0.328
REMARK SMILES CC1=CCC[C@H](C)C(=O)C[C@H](C(C)C)C(=O)C1
REMARK SMILES IDX 8 1 9 2 6 3 7 4 5 5 4 6 3 7 2 8 1 9 10 11 11 12 15 13 16 14
REMARK SMILES IDX 17 15 12 17 13 18 14 19
REMARK H PARENT
REMARK Flexibility Score: 70.00
ROOT
ATOM      1  C   UNL     1      97.587 143.055 136.186  1.00  0.00     0.136 C 
ATOM      2  O   UNL     1      97.593 144.253 136.438  1.00  0.00    -0.299 OA
ENDROOT
BRANCH   1   3
ATOM      3  C   UNL     1      96.964 142.573 134.872  1.00  0.00     0.053 C 
ATOM      4  C   UNL     1      96.352 143.731 134.066  1.00  0.00     0.016 C 
BRANCH   3   5
ATOM      5  C   UNL     1      97.979 141.795 133.986  1.00  0.00     0.015 C 
BRANCH   5   6
ATOM      6  C   UNL     1      98.280 140.342 134.413  1.00  0.00     0.028 C 
BRANCH   6   7
ATOM      7  C   UNL     1      97.126 139.470 134.870  1.00  0.00    -0.028 C 
ATOM      8  C   UNL     1      96.966 138.874 136.077  1.00  0.00    -0.070 CG0
ATOM      9  C   UNL     1      95.817 137.906 136.228  1.00  0.00     0.039 C 
ATOM     10  G   UNL     1      97.792 139.193 137.313  1.00  0.00     0.000 G0
ENDBRANCH   6   7
ENDBRANCH   5   6
ENDBRANCH   3   5
ENDBRANCH   1   3
BRANCH   1  11
ATOM     11  C   UNL     1      98.119 142.108 137.257  1.00  0.00     0.087 C 
BRANCH  11  12
ATOM     12  C   UNL     1      97.049 141.576 138.246  1.00  0.00     0.066 C 
BRANCH  12  13
ATOM     13  C   UNL     1      97.018 140.058 138.303  1.00  0.00     0.140 C 
ATOM     14  O   UNL     1      96.409 139.531 139.225  1.00  0.00    -0.299 OA
BRANCH  13  15
ATOM     15  C   UNL     1      97.795 139.184 137.332  1.00  0.00     0.106 CG0
ATOM     16  G   UNL     1      96.976 138.879 136.087  1.00  0.00     0.000 G0
ENDBRANCH  13  15
ENDBRANCH  12  13
BRANCH  12  17
ATOM     17  C   UNL     1      97.217 142.170 139.683  1.00  0.00    -0.006 C 
ATOM     18  C   UNL     1      96.425 143.482 139.843  1.00  0.00     0.008 C 
ATOM     19  C   UNL     1      98.690 142.435 140.043  1.00  0.00     0.008 C 
ENDBRANCH  12  17
ENDBRANCH  11  12
ENDBRANCH   1  11
TORSDOF 1
ENDMDL
MODEL 9
REMARK VINA RESULT:    -2.723      2.007      4.024
REMARK INTER + INTRA:          -4.484
REMARK INTER:                  -4.157
REMARK INTRA:                  -0.327
REMARK UNBOUND:                -0.328
REMARK SMILES CC1=CCC[C@H](C)C(=O)C[C@H](C(C)C)C(=O)C1
REMARK SMILES IDX 8 1 9 2 6 3 7 4 5 5 4 6 3 7 2 8 1 9 10 11 11 12 15 13 16 14
REMARK SMILES IDX 17 15 12 17 13 18 14 19
REMARK H PARENT
REMARK Flexibility Score: 70.00
ROOT
ATOM      1  C   UNL     1      97.686 139.798 136.130  1.00  0.00     0.136 C 
ATOM      2  O   UNL     1      98.228 138.766 136.502  1.00  0.00    -0.299 OA
ENDROOT
BRANCH   1   3
ATOM      3  C   UNL     1      98.555 140.976 135.678  1.00  0.00     0.053 C 
ATOM      4  C   UNL     1     100.043 140.749 135.997  1.00  0.00     0.016 C 
BRANCH   3   5
ATOM      5  C   UNL     1      98.385 141.293 134.165  1.00  0.00     0.015 C 
BRANCH   5   6
ATOM      6  C   UNL     1      97.434 142.457 133.817  1.00  0.00     0.028 C 
BRANCH   6   7
ATOM      7  C   UNL     1      97.077 143.449 134.907  1.00  0.00    -0.028 C 
ATOM      8  C   UNL     1      95.904 143.556 135.579  1.00  0.00    -0.070 CG0
ATOM      9  C   UNL     1      95.732 144.743 136.495  1.00  0.00     0.039 C 
ATOM     10  G   UNL     1      94.799 142.512 135.557  1.00  0.00     0.000 G0
ENDBRANCH   6   7
ENDBRANCH   5   6
ENDBRANCH   3   5
ENDBRANCH   1   3
BRANCH   1  11
ATOM     11  C   UNL     1      96.165 139.872 136.234  1.00  0.00     0.087 C 
BRANCH  11  12
ATOM     12  C   UNL     1      95.635 140.748 137.399  1.00  0.00     0.066 C 
BRANCH  12  13
ATOM     13  C   UNL     1      94.666 141.819 136.923  1.00  0.00     0.140 C 
ATOM     14  O   UNL     1      93.699 142.071 137.629  1.00  0.00    -0.299 OA
BRANCH  13  15
ATOM     15  C   UNL     1      94.796 142.499 135.570  1.00  0.00     0.106 CG0
ATOM     16  G   UNL     1      95.899 143.544 135.580  1.00  0.00     0.000 G0
ENDBRANCH  13  15
ENDBRANCH  12  13
BRANCH  12  17
ATOM     17  C   UNL     1      94.986 139.897 138.539  1.00  0.00    -0.006 C 
ATOM     18  C   UNL     1      95.455 140.373 139.928  1.00  0.00     0.008 C 
ATOM     19  C   UNL     1      95.294 138.395 138.401  1.00  0.00     0.008 C 
ENDBRANCH  12  17
ENDBRANCH  11  12
ENDBRANCH   1  11
TORSDOF 1
ENDMDL
