MODEL 1
REMARK VINA RESULT:    -4.454      0.000      0.000
REMARK INTER + INTRA:         -10.897
REMARK INTER:                  -8.621
REMARK INTRA:                  -2.276
REMARK UNBOUND:                -2.276
REMARK SMILES CCCCCCCCCCCCCCCCCC(=O)[O-]
REMARK SMILES IDX 10 1 11 2 12 3 13 4 14 5 15 6 16 7 17 8 18 9 19 10 20 11
REMARK SMILES IDX 9 12 8 13 7 14 6 15 5 16 4 17 3 18 2 19 1 20
REMARK H PARENT
REMARK Flexibility Score: inf
ROOT
ATOM      1  C   UNL     1     -48.882  11.940 -29.619  1.00  0.00     0.000 C 
ENDROOT
BRANCH   1   2
ATOM      2  C   UNL     1     -49.577  11.556 -30.938  1.00  0.00     0.000 C 
BRANCH   2   3
ATOM      3  C   UNL     1     -51.073  11.910 -30.954  1.00  0.00     0.000 C 
BRANCH   3   4
ATOM      4  C   UNL     1     -51.736  11.762 -29.574  1.00  0.00     0.000 C 
BRANCH   4   5
ATOM      5  C   UNL     1     -52.616  12.966 -29.176  1.00  0.00     0.000 C 
BRANCH   5   6
ATOM      6  C   UNL     1     -51.812  14.271 -29.095  1.00  0.00     0.000 C 
BRANCH   6   7
ATOM      7  C   UNL     1     -52.605  15.446 -29.683  1.00  0.00     0.006 C 
BRANCH   7   8
ATOM      8  C   UNL     1     -52.255  15.706 -31.154  1.00  0.00     0.053 C 
BRANCH   8   9
ATOM      9  C   UNL     1     -50.840  16.172 -31.313  1.00  0.00     0.041 C 
ATOM     10  O   UNL     1     -49.991  15.440 -31.886  1.00  0.00    -0.550 OA
ATOM     11  O   UNL     1     -50.452  17.403 -30.800  1.00  0.00    -0.550 OA
ENDBRANCH   8   9
ENDBRANCH   7   8
ENDBRANCH   6   7
ENDBRANCH   5   6
ENDBRANCH   4   5
ENDBRANCH   3   4
ENDBRANCH   2   3
ENDBRANCH   1   2
BRANCH   1  12
ATOM     12  C   UNL     1     -48.126  10.797 -28.918  1.00  0.00     0.000 C 
BRANCH  12  13
ATOM     13  C   UNL     1     -48.267   9.449 -29.640  1.00  0.00    -0.000 C 
BRANCH  13  14
ATOM     14  C   UNL     1     -46.893   8.855 -29.972  1.00  0.00    -0.000 C 
BRANCH  14  15
ATOM     15  C   UNL     1     -46.699   8.725 -31.489  1.00  0.00    -0.000 C 
BRANCH  15  16
ATOM     16  C   UNL     1     -47.301   7.429 -32.066  1.00  0.00    -0.000 C 
BRANCH  16  17
ATOM     17  C   UNL     1     -48.146   7.611 -33.340  1.00  0.00    -0.000 C 
BRANCH  17  18
ATOM     18  C   UNL     1     -49.004   8.888 -33.312  1.00  0.00    -0.000 C 
BRANCH  18  19
ATOM     19  C   UNL     1     -50.501   8.585 -33.149  1.00  0.00    -0.003 C 
ATOM     20  C   UNL     1     -50.864   8.125 -31.736  1.00  0.00     0.004 C 
ENDBRANCH  18  19
ENDBRANCH  17  18
ENDBRANCH  16  17
ENDBRANCH  15  16
ENDBRANCH  14  15
ENDBRANCH  13  14
ENDBRANCH  12  13
ENDBRANCH   1  12
TORSDOF 16
ENDMDL
MODEL 2
REMARK VINA RESULT:    -4.428     14.143     15.605
REMARK INTER + INTRA:         -10.846
REMARK INTER:                  -8.397
REMARK INTRA:                  -2.448
REMARK UNBOUND:                -2.276
REMARK SMILES CCCCCCCCCCCCCCCCCC(=O)[O-]
REMARK SMILES IDX 10 1 11 2 12 3 13 4 14 5 15 6 16 7 17 8 18 9 19 10 20 11
REMARK SMILES IDX 9 12 8 13 7 14 6 15 5 16 4 17 3 18 2 19 1 20
REMARK H PARENT
REMARK Flexibility Score: inf
ROOT
ATOM      1  C   UNL     1     -34.442  21.088 -29.198  1.00  0.00     0.000 C 
ENDROOT
BRANCH   1   2
ATOM      2  C   UNL     1     -35.145  22.440 -29.415  1.00  0.00     0.000 C 
BRANCH   2   3
ATOM      3  C   UNL     1     -35.676  22.618 -30.847  1.00  0.00     0.000 C 
BRANCH   3   4
ATOM      4  C   UNL     1     -35.394  21.399 -31.743  1.00  0.00     0.000 C 
BRANCH   4   5
ATOM      5  C   UNL     1     -36.653  20.832 -32.432  1.00  0.00     0.000 C 
BRANCH   5   6
ATOM      6  C   UNL     1     -37.938  21.172 -31.664  1.00  0.00     0.000 C 
BRANCH   6   7
ATOM      7  C   UNL     1     -38.418  19.975 -30.831  1.00  0.00     0.006 C 
BRANCH   7   8
ATOM      8  C   UNL     1     -38.720  20.362 -29.377  1.00  0.00     0.053 C 
BRANCH   8   9
ATOM      9  C   UNL     1     -39.227  19.195 -28.586  1.00  0.00     0.041 C 
ATOM     10  O   UNL     1     -40.464  19.035 -28.413  1.00  0.00    -0.550 OA
ATOM     11  O   UNL     1     -38.331  18.302 -28.013  1.00  0.00    -0.550 OA
ENDBRANCH   8   9
ENDBRANCH   7   8
ENDBRANCH   6   7
ENDBRANCH   5   6
ENDBRANCH   4   5
ENDBRANCH   3   4
ENDBRANCH   2   3
ENDBRANCH   1   2
BRANCH   1  12
ATOM     12  C   UNL     1     -35.236  20.061 -28.370  1.00  0.00     0.000 C 
BRANCH  12  13
ATOM     13  C   UNL     1     -34.680  18.634 -28.486  1.00  0.00    -0.000 C 
BRANCH  13  14
ATOM     14  C   UNL     1     -33.903  18.450 -29.794  1.00  0.00    -0.000 C 
BRANCH  14  15
ATOM     15  C   UNL     1     -34.603  17.439 -30.714  1.00  0.00    -0.000 C 
BRANCH  15  16
ATOM     16  C   UNL     1     -36.137  17.574 -30.702  1.00  0.00    -0.000 C 
BRANCH  16  17
ATOM     17  C   UNL     1     -36.907  16.255 -30.507  1.00  0.00    -0.000 C 
BRANCH  17  18
ATOM     18  C   UNL     1     -35.981  15.031 -30.397  1.00  0.00    -0.000 C 
BRANCH  18  19
ATOM     19  C   UNL     1     -36.584  13.914 -29.531  1.00  0.00    -0.003 C 
ATOM     20  C   UNL     1     -37.252  12.816 -30.359  1.00  0.00     0.004 C 
ENDBRANCH  18  19
ENDBRANCH  17  18
ENDBRANCH  16  17
ENDBRANCH  15  16
ENDBRANCH  14  15
ENDBRANCH  13  14
ENDBRANCH  12  13
ENDBRANCH   1  12
TORSDOF 16
ENDMDL
MODEL 3
REMARK VINA RESULT:    -4.342      2.950      6.746
REMARK INTER + INTRA:         -10.679
REMARK INTER:                  -8.186
REMARK INTRA:                  -2.493
REMARK UNBOUND:                -2.276
REMARK SMILES CCCCCCCCCCCCCCCCCC(=O)[O-]
REMARK SMILES IDX 10 1 11 2 12 3 13 4 14 5 15 6 16 7 17 8 18 9 19 10 20 11
REMARK SMILES IDX 9 12 8 13 7 14 6 15 5 16 4 17 3 18 2 19 1 20
REMARK H PARENT
REMARK Flexibility Score: inf
ROOT
ATOM      1  C   UNL     1     -53.408  14.226 -29.133  1.00  0.00     0.000 C 
ENDROOT
BRANCH   1   2
ATOM      2  C   UNL     1     -53.397  12.715 -28.836  1.00  0.00     0.000 C 
BRANCH   2   3
ATOM      3  C   UNL     1     -53.326  11.853 -30.107  1.00  0.00     0.000 C 
BRANCH   3   4
ATOM      4  C   UNL     1     -52.234  10.773 -30.034  1.00  0.00     0.000 C 
BRANCH   4   5
ATOM      5  C   UNL     1     -52.177   9.863 -31.280  1.00  0.00     0.000 C 
BRANCH   5   6
ATOM      6  C   UNL     1     -50.915  10.107 -32.119  1.00  0.00     0.000 C 
BRANCH   6   7
ATOM      7  C   UNL     1     -49.931   8.935 -31.989  1.00  0.00     0.006 C 
BRANCH   7   8
ATOM      8  C   UNL     1     -48.530   9.294 -32.502  1.00  0.00     0.053 C 
BRANCH   8   9
ATOM      9  C   UNL     1     -47.478   8.410 -31.906  1.00  0.00     0.041 C 
ATOM     10  O   UNL     1     -46.571   8.901 -31.183  1.00  0.00    -0.550 OA
ATOM     11  O   UNL     1     -47.479   7.047 -32.176  1.00  0.00    -0.550 OA
ENDBRANCH   8   9
ENDBRANCH   7   8
ENDBRANCH   6   7
ENDBRANCH   5   6
ENDBRANCH   4   5
ENDBRANCH   3   4
ENDBRANCH   2   3
ENDBRANCH   1   2
BRANCH   1  12
ATOM     12  C   UNL     1     -52.261  15.029 -28.494  1.00  0.00     0.000 C 
BRANCH  12  13
ATOM     13  C   UNL     1     -52.110  16.439 -29.083  1.00  0.00    -0.000 C 
BRANCH  13  14
ATOM     14  C   UNL     1     -52.161  16.405 -30.615  1.00  0.00    -0.000 C 
BRANCH  14  15
ATOM     15  C   UNL     1     -50.747  16.417 -31.214  1.00  0.00    -0.000 C 
BRANCH  15  16
ATOM     16  C   UNL     1     -50.496  15.253 -32.190  1.00  0.00    -0.000 C 
BRANCH  16  17
ATOM     17  C   UNL     1     -50.560  13.848 -31.562  1.00  0.00    -0.000 C 
BRANCH  17  18
ATOM     18  C   UNL     1     -49.237  13.430 -30.895  1.00  0.00    -0.000 C 
BRANCH  18  19
ATOM     19  C   UNL     1     -49.460  12.645 -29.593  1.00  0.00    -0.003 C 
ATOM     20  C   UNL     1     -48.454  11.509 -29.406  1.00  0.00     0.004 C 
ENDBRANCH  18  19
ENDBRANCH  17  18
ENDBRANCH  16  17
ENDBRANCH  15  16
ENDBRANCH  14  15
ENDBRANCH  13  14
ENDBRANCH  12  13
ENDBRANCH   1  12
TORSDOF 16
ENDMDL
MODEL 4
REMARK VINA RESULT:    -4.341     14.221     16.442
REMARK INTER + INTRA:         -10.678
REMARK INTER:                  -8.293
REMARK INTRA:                  -2.384
REMARK UNBOUND:                -2.276
REMARK SMILES CCCCCCCCCCCCCCCCCC(=O)[O-]
REMARK SMILES IDX 10 1 11 2 12 3 13 4 14 5 15 6 16 7 17 8 18 9 19 10 20 11
REMARK SMILES IDX 9 12 8 13 7 14 6 15 5 16 4 17 3 18 2 19 1 20
REMARK H PARENT
REMARK Flexibility Score: inf
ROOT
ATOM      1  C   UNL     1     -35.682  21.653 -28.820  1.00  0.00     0.000 C 
ENDROOT
BRANCH   1   2
ATOM      2  C   UNL     1     -34.692  20.609 -28.269  1.00  0.00     0.000 C 
BRANCH   2   3
ATOM      3  C   UNL     1     -35.183  19.164 -28.448  1.00  0.00     0.000 C 
BRANCH   3   4
ATOM      4  C   UNL     1     -34.327  18.362 -29.443  1.00  0.00     0.000 C 
BRANCH   4   5
ATOM      5  C   UNL     1     -35.146  17.697 -30.571  1.00  0.00     0.000 C 
BRANCH   5   6
ATOM      6  C   UNL     1     -36.463  17.099 -30.055  1.00  0.00     0.000 C 
BRANCH   6   7
ATOM      7  C   UNL     1     -36.750  15.744 -30.717  1.00  0.00     0.006 C 
BRANCH   7   8
ATOM      8  C   UNL     1     -36.444  14.565 -29.784  1.00  0.00     0.053 C 
BRANCH   8   9
ATOM      9  C   UNL     1     -36.714  13.249 -30.446  1.00  0.00     0.041 C 
ATOM     10  O   UNL     1     -35.796  12.650 -31.065  1.00  0.00    -0.550 OA
ATOM     11  O   UNL     1     -37.990  12.700 -30.408  1.00  0.00    -0.550 OA
ENDBRANCH   8   9
ENDBRANCH   7   8
ENDBRANCH   6   7
ENDBRANCH   5   6
ENDBRANCH   4   5
ENDBRANCH   3   4
ENDBRANCH   2   3
ENDBRANCH   1   2
BRANCH   1  12
ATOM     12  C   UNL     1     -35.056  22.749 -29.702  1.00  0.00     0.000 C 
BRANCH  12  13
ATOM     13  C   UNL     1     -35.424  22.610 -31.186  1.00  0.00    -0.000 C 
BRANCH  13  14
ATOM     14  C   UNL     1     -35.566  21.136 -31.584  1.00  0.00    -0.000 C 
BRANCH  14  15
ATOM     15  C   UNL     1     -36.873  20.896 -32.354  1.00  0.00    -0.000 C 
BRANCH  15  16
ATOM     16  C   UNL     1     -37.999  20.331 -31.469  1.00  0.00    -0.000 C 
BRANCH  16  17
ATOM     17  C   UNL     1     -38.974  21.380 -30.901  1.00  0.00    -0.000 C 
BRANCH  17  18
ATOM     18  C   UNL     1     -39.290  21.158 -29.412  1.00  0.00    -0.000 C 
BRANCH  18  19
ATOM     19  C   UNL     1     -38.941  19.738 -28.943  1.00  0.00    -0.003 C 
ATOM     20  C   UNL     1     -40.168  18.940 -28.498  1.00  0.00     0.004 C 
ENDBRANCH  18  19
ENDBRANCH  17  18
ENDBRANCH  16  17
ENDBRANCH  15  16
ENDBRANCH  14  15
ENDBRANCH  13  14
ENDBRANCH  12  13
ENDBRANCH   1  12
TORSDOF 16
ENDMDL
MODEL 5
REMARK VINA RESULT:    -4.340      1.384      2.444
REMARK INTER + INTRA:         -10.676
REMARK INTER:                  -8.444
REMARK INTRA:                  -2.232
REMARK UNBOUND:                -2.276
REMARK SMILES CCCCCCCCCCCCCCCCCC(=O)[O-]
REMARK SMILES IDX 10 1 11 2 12 3 13 4 14 5 15 6 16 7 17 8 18 9 19 10 20 11
REMARK SMILES IDX 9 12 8 13 7 14 6 15 5 16 4 17 3 18 2 19 1 20
REMARK H PARENT
REMARK Flexibility Score: inf
ROOT
ATOM      1  C   UNL     1     -48.416   9.926 -29.575  1.00  0.00     0.000 C 
ENDROOT
BRANCH   1   2
ATOM      2  C   UNL     1     -48.237  11.428 -29.293  1.00  0.00     0.000 C 
BRANCH   2   3
ATOM      3  C   UNL     1     -49.489  12.255 -29.627  1.00  0.00     0.000 C 
BRANCH   3   4
ATOM      4  C   UNL     1     -49.268  13.222 -30.803  1.00  0.00     0.000 C 
BRANCH   4   5
ATOM      5  C   UNL     1     -50.575  13.811 -31.376  1.00  0.00     0.000 C 
BRANCH   5   6
ATOM      6  C   UNL     1     -51.797  13.455 -30.517  1.00  0.00     0.000 C 
BRANCH   6   7
ATOM      7  C   UNL     1     -52.611  14.709 -30.167  1.00  0.00     0.006 C 
BRANCH   7   8
ATOM      8  C   UNL     1     -52.058  15.435 -28.934  1.00  0.00     0.053 C 
BRANCH   8   9
ATOM      9  C   UNL     1     -52.081  16.923 -29.110  1.00  0.00     0.041 C 
ATOM     10  O   UNL     1     -51.125  17.510 -29.681  1.00  0.00    -0.550 OA
ATOM     11  O   UNL     1     -53.145  17.665 -28.612  1.00  0.00    -0.550 OA
ENDBRANCH   8   9
ENDBRANCH   7   8
ENDBRANCH   6   7
ENDBRANCH   5   6
ENDBRANCH   4   5
ENDBRANCH   3   4
ENDBRANCH   2   3
ENDBRANCH   1   2
BRANCH   1  12
ATOM     12  C   UNL     1     -47.110   9.139 -29.793  1.00  0.00     0.000 C 
BRANCH  12  13
ATOM     13  C   UNL     1     -46.798   8.888 -31.275  1.00  0.00    -0.000 C 
BRANCH  13  14
ATOM     14  C   UNL     1     -47.416   7.570 -31.754  1.00  0.00    -0.000 C 
BRANCH  14  15
ATOM     15  C   UNL     1     -48.040   7.727 -33.148  1.00  0.00    -0.000 C 
BRANCH  15  16
ATOM     16  C   UNL     1     -48.873   9.014 -33.294  1.00  0.00    -0.000 C 
BRANCH  16  17
ATOM     17  C   UNL     1     -50.381   8.849 -33.027  1.00  0.00    -0.000 C 
BRANCH  17  18
ATOM     18  C   UNL     1     -51.004  10.076 -32.337  1.00  0.00    -0.000 C 
BRANCH  18  19
ATOM     19  C   UNL     1     -51.741   9.709 -31.040  1.00  0.00    -0.003 C 
ATOM     20  C   UNL     1     -51.764   8.203 -30.776  1.00  0.00     0.004 C 
ENDBRANCH  18  19
ENDBRANCH  17  18
ENDBRANCH  16  17
ENDBRANCH  15  16
ENDBRANCH  14  15
ENDBRANCH  13  14
ENDBRANCH  12  13
ENDBRANCH   1  12
TORSDOF 16
ENDMDL
MODEL 6
REMARK VINA RESULT:    -4.308      1.540      2.748
REMARK INTER + INTRA:         -10.613
REMARK INTER:                  -8.302
REMARK INTRA:                  -2.311
REMARK UNBOUND:                -2.276
REMARK SMILES CCCCCCCCCCCCCCCCCC(=O)[O-]
REMARK SMILES IDX 10 1 11 2 12 3 13 4 14 5 15 6 16 7 17 8 18 9 19 10 20 11
REMARK SMILES IDX 9 12 8 13 7 14 6 15 5 16 4 17 3 18 2 19 1 20
REMARK H PARENT
REMARK Flexibility Score: inf
ROOT
ATOM      1  C   UNL     1     -51.171  13.604 -31.468  1.00  0.00     0.000 C 
ENDROOT
BRANCH   1   2
ATOM      2  C   UNL     1     -52.047  12.363 -31.719  1.00  0.00     0.000 C 
BRANCH   2   3
ATOM      3  C   UNL     1     -52.988  12.045 -30.546  1.00  0.00     0.000 C 
BRANCH   3   4
ATOM      4  C   UNL     1     -52.673  12.873 -29.288  1.00  0.00     0.000 C 
BRANCH   4   5
ATOM      5  C   UNL     1     -53.914  13.540 -28.658  1.00  0.00     0.000 C 
BRANCH   5   6
ATOM      6  C   UNL     1     -53.681  15.027 -28.353  1.00  0.00     0.000 C 
BRANCH   6   7
ATOM      7  C   UNL     1     -52.193  15.388 -28.467  1.00  0.00     0.006 C 
BRANCH   7   8
ATOM      8  C   UNL     1     -51.976  16.882 -28.740  1.00  0.00     0.053 C 
BRANCH   8   9
ATOM      9  C   UNL     1     -51.824  17.162 -30.204  1.00  0.00     0.041 C 
ATOM     10  O   UNL     1     -52.841  17.356 -30.921  1.00  0.00    -0.550 OA
ATOM     11  O   UNL     1     -50.562  17.175 -30.782  1.00  0.00    -0.550 OA
ENDBRANCH   8   9
ENDBRANCH   7   8
ENDBRANCH   6   7
ENDBRANCH   5   6
ENDBRANCH   4   5
ENDBRANCH   3   4
ENDBRANCH   2   3
ENDBRANCH   1   2
BRANCH   1  12
ATOM     12  C   UNL     1     -49.665  13.324 -31.312  1.00  0.00     0.000 C 
BRANCH  12  13
ATOM     13  C   UNL     1     -49.239  13.118 -29.851  1.00  0.00    -0.000 C 
BRANCH  13  14
ATOM     14  C   UNL     1     -48.605  11.737 -29.650  1.00  0.00    -0.000 C 
BRANCH  14  15
ATOM     15  C   UNL     1     -49.671  10.686 -29.304  1.00  0.00    -0.000 C 
BRANCH  15  16
ATOM     16  C   UNL     1     -49.898   9.664 -30.433  1.00  0.00    -0.000 C 
BRANCH  16  17
ATOM     17  C   UNL     1     -48.817   9.650 -31.530  1.00  0.00    -0.000 C 
BRANCH  17  18
ATOM     18  C   UNL     1     -49.375   9.280 -32.916  1.00  0.00    -0.000 C 
BRANCH  18  19
ATOM     19  C   UNL     1     -49.382   7.763 -33.159  1.00  0.00    -0.003 C 
ATOM     20  C   UNL     1     -47.985   7.198 -33.424  1.00  0.00     0.004 C 
ENDBRANCH  18  19
ENDBRANCH  17  18
ENDBRANCH  16  17
ENDBRANCH  15  16
ENDBRANCH  14  15
ENDBRANCH  13  14
ENDBRANCH  12  13
ENDBRANCH   1  12
TORSDOF 16
ENDMDL
MODEL 7
REMARK VINA RESULT:    -4.293      1.418      2.581
REMARK INTER + INTRA:         -10.586
REMARK INTER:                  -8.184
REMARK INTRA:                  -2.402
REMARK UNBOUND:                -2.276
REMARK SMILES CCCCCCCCCCCCCCCCCC(=O)[O-]
REMARK SMILES IDX 10 1 11 2 12 3 13 4 14 5 15 6 16 7 17 8 18 9 19 10 20 11
REMARK SMILES IDX 9 12 8 13 7 14 6 15 5 16 4 17 3 18 2 19 1 20
REMARK H PARENT
REMARK Flexibility Score: inf
ROOT
ATOM      1  C   UNL     1     -46.992   9.504 -30.164  1.00  0.00     0.000 C 
ENDROOT
BRANCH   1   2
ATOM      2  C   UNL     1     -47.871  10.436 -29.310  1.00  0.00     0.000 C 
BRANCH   2   3
ATOM      3  C   UNL     1     -49.353  10.404 -29.717  1.00  0.00     0.000 C 
BRANCH   3   4
ATOM      4  C   UNL     1     -49.611  11.073 -31.079  1.00  0.00     0.000 C 
BRANCH   4   5
ATOM      5  C   UNL     1     -51.084  11.478 -31.301  1.00  0.00     0.000 C 
BRANCH   5   6
ATOM      6  C   UNL     1     -51.216  12.910 -31.840  1.00  0.00     0.000 C 
BRANCH   6   7
ATOM      7  C   UNL     1     -50.592  13.925 -30.872  1.00  0.00     0.006 C 
BRANCH   7   8
ATOM      8  C   UNL     1     -50.209  15.235 -31.571  1.00  0.00     0.053 C 
BRANCH   8   9
ATOM      9  C   UNL     1     -51.116  16.361 -31.176  1.00  0.00     0.041 C 
ATOM     10  O   UNL     1     -52.362  16.185 -31.130  1.00  0.00    -0.550 OA
ATOM     11  O   UNL     1     -50.586  17.612 -30.890  1.00  0.00    -0.550 OA
ENDBRANCH   8   9
ENDBRANCH   7   8
ENDBRANCH   6   7
ENDBRANCH   5   6
ENDBRANCH   4   5
ENDBRANCH   3   4
ENDBRANCH   2   3
ENDBRANCH   1   2
BRANCH   1  12
ATOM     12  C   UNL     1     -47.270   8.000 -29.991  1.00  0.00     0.000 C 
BRANCH  12  13
ATOM     13  C   UNL     1     -47.453   7.263 -31.326  1.00  0.00    -0.000 C 
BRANCH  13  14
ATOM     14  C   UNL     1     -47.298   8.224 -32.512  1.00  0.00    -0.000 C 
BRANCH  14  15
ATOM     15  C   UNL     1     -48.613   8.349 -33.295  1.00  0.00    -0.000 C 
BRANCH  15  16
ATOM     16  C   UNL     1     -49.222   6.986 -33.672  1.00  0.00    -0.000 C 
BRANCH  16  17
ATOM     17  C   UNL     1     -50.599   6.689 -33.047  1.00  0.00    -0.000 C 
BRANCH  17  18
ATOM     18  C   UNL     1     -51.202   7.906 -32.325  1.00  0.00    -0.000 C 
BRANCH  18  19
ATOM     19  C   UNL     1     -51.336   7.683 -30.811  1.00  0.00    -0.003 C 
ATOM     20  C   UNL     1     -50.889   6.286 -30.375  1.00  0.00     0.004 C 
ENDBRANCH  18  19
ENDBRANCH  17  18
ENDBRANCH  16  17
ENDBRANCH  15  16
ENDBRANCH  14  15
ENDBRANCH  13  14
ENDBRANCH  12  13
ENDBRANCH   1  12
TORSDOF 16
ENDMDL
MODEL 8
REMARK VINA RESULT:    -4.253      1.421      3.167
REMARK INTER + INTRA:         -10.508
REMARK INTER:                  -8.282
REMARK INTRA:                  -2.226
REMARK UNBOUND:                -2.276
REMARK SMILES CCCCCCCCCCCCCCCCCC(=O)[O-]
REMARK SMILES IDX 10 1 11 2 12 3 13 4 14 5 15 6 16 7 17 8 18 9 19 10 20 11
REMARK SMILES IDX 9 12 8 13 7 14 6 15 5 16 4 17 3 18 2 19 1 20
REMARK H PARENT
REMARK Flexibility Score: inf
ROOT
ATOM      1  C   UNL     1     -50.692   8.703 -31.337  1.00  0.00     0.000 C 
ENDROOT
BRANCH   1   2
ATOM      2  C   UNL     1     -51.657   9.415 -30.372  1.00  0.00     0.000 C 
BRANCH   2   3
ATOM      3  C   UNL     1     -52.374  10.613 -31.014  1.00  0.00     0.000 C 
BRANCH   3   4
ATOM      4  C   UNL     1     -51.891  11.964 -30.458  1.00  0.00     0.000 C 
BRANCH   4   5
ATOM      5  C   UNL     1     -51.254  12.882 -31.524  1.00  0.00     0.000 C 
BRANCH   5   6
ATOM      6  C   UNL     1     -49.808  13.260 -31.174  1.00  0.00     0.000 C 
BRANCH   6   7
ATOM      7  C   UNL     1     -49.521  14.728 -31.522  1.00  0.00     0.006 C 
BRANCH   7   8
ATOM      8  C   UNL     1     -50.793  15.491 -31.912  1.00  0.00     0.053 C 
BRANCH   8   9
ATOM      9  C   UNL     1     -51.201  16.469 -30.853  1.00  0.00     0.041 C 
ATOM     10  O   UNL     1     -51.594  16.059 -29.729  1.00  0.00    -0.550 OA
ATOM     11  O   UNL     1     -51.178  17.832 -31.119  1.00  0.00    -0.550 OA
ENDBRANCH   8   9
ENDBRANCH   7   8
ENDBRANCH   6   7
ENDBRANCH   5   6
ENDBRANCH   4   5
ENDBRANCH   3   4
ENDBRANCH   2   3
ENDBRANCH   1   2
BRANCH   1  12
ATOM     12  C   UNL     1     -50.302   9.510 -32.589  1.00  0.00     0.000 C 
BRANCH  12  13
ATOM     13  C   UNL     1     -49.162   8.865 -33.391  1.00  0.00    -0.000 C 
BRANCH  13  14
ATOM     14  C   UNL     1     -49.272   7.336 -33.374  1.00  0.00    -0.000 C 
BRANCH  14  15
ATOM     15  C   UNL     1     -47.945   6.693 -32.947  1.00  0.00    -0.000 C 
BRANCH  15  16
ATOM     16  C   UNL     1     -47.020   7.663 -32.188  1.00  0.00    -0.000 C 
BRANCH  16  17
ATOM     17  C   UNL     1     -47.161   7.636 -30.655  1.00  0.00    -0.000 C 
BRANCH  17  18
ATOM     18  C   UNL     1     -46.527   8.862 -29.974  1.00  0.00    -0.000 C 
BRANCH  18  19
ATOM     19  C   UNL     1     -47.427  10.104 -30.048  1.00  0.00    -0.003 C 
ATOM     20  C   UNL     1     -48.348  10.245 -28.835  1.00  0.00     0.004 C 
ENDBRANCH  18  19
ENDBRANCH  17  18
ENDBRANCH  16  17
ENDBRANCH  15  16
ENDBRANCH  14  15
ENDBRANCH  13  14
ENDBRANCH  12  13
ENDBRANCH   1  12
TORSDOF 16
ENDMDL
MODEL 9
REMARK VINA RESULT:    -4.219      2.426      6.780
REMARK INTER + INTRA:         -10.440
REMARK INTER:                  -8.246
REMARK INTRA:                  -2.195
REMARK UNBOUND:                -2.276
REMARK SMILES CCCCCCCCCCCCCCCCCC(=O)[O-]
REMARK SMILES IDX 10 1 11 2 12 3 13 4 14 5 15 6 16 7 17 8 18 9 19 10 20 11
REMARK SMILES IDX 9 12 8 13 7 14 6 15 5 16 4 17 3 18 2 19 1 20
REMARK H PARENT
REMARK Flexibility Score: inf
ROOT
ATOM      1  C   UNL     1     -48.151  10.985 -28.952  1.00  0.00     0.000 C 
ENDROOT
BRANCH   1   2
ATOM      2  C   UNL     1     -48.146   9.564 -29.544  1.00  0.00     0.000 C 
BRANCH   2   3
ATOM      3  C   UNL     1     -46.750   9.109 -30.001  1.00  0.00     0.000 C 
BRANCH   3   4
ATOM      4  C   UNL     1     -46.702   8.743 -31.494  1.00  0.00     0.000 C 
BRANCH   4   5
ATOM      5  C   UNL     1     -47.228   7.324 -31.803  1.00  0.00     0.000 C 
BRANCH   5   6
ATOM      6  C   UNL     1     -48.004   7.269 -33.126  1.00  0.00     0.000 C 
BRANCH   6   7
ATOM      7  C   UNL     1     -49.189   8.247 -33.112  1.00  0.00     0.006 C 
BRANCH   7   8
ATOM      8  C   UNL     1     -50.297   7.803 -32.149  1.00  0.00     0.053 C 
BRANCH   8   9
ATOM      9  C   UNL     1     -51.584   8.523 -32.415  1.00  0.00     0.041 C 
ATOM     10  O   UNL     1     -52.662   8.098 -31.923  1.00  0.00    -0.550 OA
ATOM     11  O   UNL     1     -51.596   9.646 -33.233  1.00  0.00    -0.550 OA
ENDBRANCH   8   9
ENDBRANCH   7   8
ENDBRANCH   6   7
ENDBRANCH   5   6
ENDBRANCH   4   5
ENDBRANCH   3   4
ENDBRANCH   2   3
ENDBRANCH   1   2
BRANCH   1  12
ATOM     12  C   UNL     1     -49.101  11.980 -29.642  1.00  0.00     0.000 C 
BRANCH  12  13
ATOM     13  C   UNL     1     -50.222  11.292 -30.435  1.00  0.00    -0.000 C 
BRANCH  13  14
ATOM     14  C   UNL     1     -51.479  11.117 -29.576  1.00  0.00    -0.000 C 
BRANCH  14  15
ATOM     15  C   UNL     1     -52.749  11.386 -30.395  1.00  0.00    -0.000 C 
BRANCH  15  16
ATOM     16  C   UNL     1     -52.716  12.738 -31.132  1.00  0.00    -0.000 C 
BRANCH  16  17
ATOM     17  C   UNL     1     -52.936  13.975 -30.240  1.00  0.00    -0.000 C 
BRANCH  17  18
ATOM     18  C   UNL     1     -51.646  14.782 -30.009  1.00  0.00    -0.000 C 
BRANCH  18  19
ATOM     19  C   UNL     1     -51.190  15.532 -31.269  1.00  0.00    -0.003 C 
ATOM     20  C   UNL     1     -49.956  14.904 -31.920  1.00  0.00     0.004 C 
ENDBRANCH  18  19
ENDBRANCH  17  18
ENDBRANCH  16  17
ENDBRANCH  15  16
ENDBRANCH  14  15
ENDBRANCH  13  14
ENDBRANCH  12  13
ENDBRANCH   1  12
TORSDOF 16
ENDMDL
