MODEL 1
REMARK VINA RESULT:    -4.739      0.000      0.000
REMARK INTER + INTRA:          -9.747
REMARK INTER:                  -8.340
REMARK INTRA:                  -1.407
REMARK UNBOUND:                -1.407
REMARK SMILES CCCCCCCCCCCCCCC(=O)[O-]
REMARK SMILES IDX 9 1 10 2 11 3 12 4 13 5 14 6 15 7 16 8 17 9 8 10 7 11 6 12
REMARK SMILES IDX 5 13 4 14 3 15 2 16 1 17
REMARK H PARENT
REMARK Flexibility Score: inf
ROOT
ATOM      1  C   UNL     1      13.960  31.047  59.167  1.00  0.00     0.000 C 
ENDROOT
BRANCH   1   2
ATOM      2  C   UNL     1      12.829  30.591  58.234  1.00  0.00     0.000 C 
BRANCH   2   3
ATOM      3  C   UNL     1      11.461  30.557  58.933  1.00  0.00     0.000 C 
BRANCH   3   4
ATOM      4  C   UNL     1      10.806  29.167  58.887  1.00  0.00     0.000 C 
BRANCH   4   5
ATOM      5  C   UNL     1       9.838  28.978  60.063  1.00  0.00     0.006 C 
BRANCH   5   6
ATOM      6  C   UNL     1       8.738  30.044  60.046  1.00  0.00     0.053 C 
BRANCH   6   7
ATOM      7  C   UNL     1       7.934  29.985  61.305  1.00  0.00     0.041 C 
ATOM      8  O   UNL     1       8.458  29.572  62.374  1.00  0.00    -0.550 OA
ATOM      9  O   UNL     1       6.619  30.433  61.312  1.00  0.00    -0.550 OA
ENDBRANCH   6   7
ENDBRANCH   5   6
ENDBRANCH   4   5
ENDBRANCH   3   4
ENDBRANCH   2   3
ENDBRANCH   1   2
BRANCH   1  10
ATOM     10  C   UNL     1      14.354  29.925  60.140  1.00  0.00     0.000 C 
BRANCH  10  11
ATOM     11  C   UNL     1      13.783  30.136  61.552  1.00  0.00    -0.000 C 
BRANCH  11  12
ATOM     12  C   UNL     1      13.014  28.911  62.068  1.00  0.00    -0.000 C 
BRANCH  12  13
ATOM     13  C   UNL     1      13.956  27.934  62.784  1.00  0.00    -0.000 C 
BRANCH  13  14
ATOM     14  C   UNL     1      15.048  28.684  63.553  1.00  0.00    -0.000 C 
BRANCH  14  15
ATOM     15  C   UNL     1      16.400  27.974  63.423  1.00  0.00    -0.000 C 
BRANCH  15  16
ATOM     16  C   UNL     1      17.188  28.503  62.218  1.00  0.00    -0.003 C 
ATOM     17  C   UNL     1      17.303  30.023  62.259  1.00  0.00     0.004 C 
ENDBRANCH  15  16
ENDBRANCH  14  15
ENDBRANCH  13  14
ENDBRANCH  12  13
ENDBRANCH  11  12
ENDBRANCH  10  11
ENDBRANCH   1  10
TORSDOF 13
ENDMDL
MODEL 2
REMARK VINA RESULT:    -4.700      3.126      6.372
REMARK INTER + INTRA:          -9.679
REMARK INTER:                  -8.241
REMARK INTRA:                  -1.437
REMARK UNBOUND:                -1.407
REMARK SMILES CCCCCCCCCCCCCCC(=O)[O-]
REMARK SMILES IDX 9 1 10 2 11 3 12 4 13 5 14 6 15 7 16 8 17 9 8 10 7 11 6 12
REMARK SMILES IDX 5 13 4 14 3 15 2 16 1 17
REMARK H PARENT
REMARK Flexibility Score: inf
ROOT
ATOM      1  C   UNL     1      11.297  29.747  61.757  1.00  0.00     0.000 C 
ENDROOT
BRANCH   1   2
ATOM      2  C   UNL     1      12.640  29.001  61.773  1.00  0.00     0.000 C 
BRANCH   2   3
ATOM      3  C   UNL     1      13.810  29.896  62.212  1.00  0.00     0.000 C 
BRANCH   3   4
ATOM      4  C   UNL     1      15.149  29.469  61.590  1.00  0.00     0.000 C 
BRANCH   4   5
ATOM      5  C   UNL     1      16.304  29.686  62.576  1.00  0.00     0.006 C 
BRANCH   5   6
ATOM      6  C   UNL     1      15.934  29.187  63.976  1.00  0.00     0.053 C 
BRANCH   6   7
ATOM      7  C   UNL     1      15.909  27.692  64.008  1.00  0.00     0.041 C 
ATOM      8  O   UNL     1      14.821  27.079  64.173  1.00  0.00    -0.550 OA
ATOM      9  O   UNL     1      17.080  26.973  63.805  1.00  0.00    -0.550 OA
ENDBRANCH   6   7
ENDBRANCH   5   6
ENDBRANCH   4   5
ENDBRANCH   3   4
ENDBRANCH   2   3
ENDBRANCH   1   2
BRANCH   1  10
ATOM     10  C   UNL     1      10.307  29.070  60.796  1.00  0.00     0.000 C 
BRANCH  10  11
ATOM     11  C   UNL     1      10.775  29.115  59.333  1.00  0.00    -0.000 C 
BRANCH  11  12
ATOM     12  C   UNL     1      11.152  30.531  58.875  1.00  0.00    -0.000 C 
BRANCH  12  13
ATOM     13  C   UNL     1      12.564  30.556  58.274  1.00  0.00    -0.000 C 
BRANCH  13  14
ATOM     14  C   UNL     1      13.439  31.607  58.965  1.00  0.00    -0.000 C 
BRANCH  14  15
ATOM     15  C   UNL     1      14.856  31.614  58.379  1.00  0.00    -0.000 C 
BRANCH  15  16
ATOM     16  C   UNL     1      15.202  32.986  57.790  1.00  0.00    -0.003 C 
ATOM     17  C   UNL     1      14.585  33.165  56.406  1.00  0.00     0.004 C 
ENDBRANCH  15  16
ENDBRANCH  14  15
ENDBRANCH  13  14
ENDBRANCH  12  13
ENDBRANCH  11  12
ENDBRANCH  10  11
ENDBRANCH   1  10
TORSDOF 13
ENDMDL
MODEL 3
REMARK VINA RESULT:    -4.640      4.919      8.652
REMARK INTER + INTRA:          -9.573
REMARK INTER:                  -9.004
REMARK INTRA:                  -0.568
REMARK UNBOUND:                -1.407
REMARK SMILES CCCCCCCCCCCCCCC(=O)[O-]
REMARK SMILES IDX 9 1 10 2 11 3 12 4 13 5 14 6 15 7 16 8 17 9 8 10 7 11 6 12
REMARK SMILES IDX 5 13 4 14 3 15 2 16 1 17
REMARK H PARENT
REMARK Flexibility Score: inf
ROOT
ATOM      1  C   UNL     1      15.312  30.024  62.608  1.00  0.00     0.000 C 
ENDROOT
BRANCH   1   2
ATOM      2  C   UNL     1      15.636  28.956  63.663  1.00  0.00     0.000 C 
BRANCH   2   3
ATOM      3  C   UNL     1      16.734  27.984  63.205  1.00  0.00     0.000 C 
BRANCH   3   4
ATOM      4  C   UNL     1      16.883  26.773  64.139  1.00  0.00     0.000 C 
BRANCH   4   5
ATOM      5  C   UNL     1      18.203  26.037  63.877  1.00  0.00     0.006 C 
BRANCH   5   6
ATOM      6  C   UNL     1      18.832  26.489  62.556  1.00  0.00     0.053 C 
BRANCH   6   7
ATOM      7  C   UNL     1      20.324  26.446  62.644  1.00  0.00     0.041 C 
ATOM      8  O   UNL     1      21.008  27.457  62.334  1.00  0.00    -0.550 OA
ATOM      9  O   UNL     1      20.959  25.305  63.117  1.00  0.00    -0.550 OA
ENDBRANCH   6   7
ENDBRANCH   5   6
ENDBRANCH   4   5
ENDBRANCH   3   4
ENDBRANCH   2   3
ENDBRANCH   1   2
BRANCH   1  10
ATOM     10  C   UNL     1      13.829  29.967  62.210  1.00  0.00     0.000 C 
BRANCH  10  11
ATOM     11  C   UNL     1      13.627  29.742  60.703  1.00  0.00    -0.000 C 
BRANCH  11  12
ATOM     12  C   UNL     1      12.464  28.786  60.397  1.00  0.00    -0.000 C 
BRANCH  12  13
ATOM     13  C   UNL     1      11.113  29.482  60.602  1.00  0.00    -0.000 C 
BRANCH  13  14
ATOM     14  C   UNL     1      10.164  29.198  59.433  1.00  0.00    -0.000 C 
BRANCH  14  15
ATOM     15  C   UNL     1       8.765  28.824  59.937  1.00  0.00    -0.000 C 
BRANCH  15  16
ATOM     16  C   UNL     1       8.499  29.428  61.321  1.00  0.00    -0.003 C 
ATOM     17  C   UNL     1       7.212  30.247  61.328  1.00  0.00     0.004 C 
ENDBRANCH  15  16
ENDBRANCH  14  15
ENDBRANCH  13  14
ENDBRANCH  12  13
ENDBRANCH  11  12
ENDBRANCH  10  11
ENDBRANCH   1  10
TORSDOF 13
ENDMDL
MODEL 4
REMARK VINA RESULT:    -4.639      3.797      6.524
REMARK INTER + INTRA:          -9.571
REMARK INTER:                  -7.888
REMARK INTRA:                  -1.683
REMARK UNBOUND:                -1.407
REMARK SMILES CCCCCCCCCCCCCCC(=O)[O-]
REMARK SMILES IDX 9 1 10 2 11 3 12 4 13 5 14 6 15 7 16 8 17 9 8 10 7 11 6 12
REMARK SMILES IDX 5 13 4 14 3 15 2 16 1 17
REMARK H PARENT
REMARK Flexibility Score: inf
ROOT
ATOM      1  C   UNL     1      15.024  29.393  61.774  1.00  0.00     0.000 C 
ENDROOT
BRANCH   1   2
ATOM      2  C   UNL     1      15.947  29.781  60.609  1.00  0.00     0.000 C 
BRANCH   2   3
ATOM      3  C   UNL     1      15.200  30.498  59.474  1.00  0.00     0.000 C 
BRANCH   3   4
ATOM      4  C   UNL     1      14.787  29.545  58.341  1.00  0.00     0.000 C 
BRANCH   4   5
ATOM      5  C   UNL     1      14.586  30.310  57.027  1.00  0.00     0.006 C 
BRANCH   5   6
ATOM      6  C   UNL     1      15.893  30.962  56.566  1.00  0.00     0.053 C 
BRANCH   6   7
ATOM      7  C   UNL     1      15.747  32.450  56.519  1.00  0.00     0.041 C 
ATOM      8  O   UNL     1      16.660  33.162  56.023  1.00  0.00    -0.550 OA
ATOM      9  O   UNL     1      14.581  33.048  56.979  1.00  0.00    -0.550 OA
ENDBRANCH   6   7
ENDBRANCH   5   6
ENDBRANCH   4   5
ENDBRANCH   3   4
ENDBRANCH   2   3
ENDBRANCH   1   2
BRANCH   1  10
ATOM     10  C   UNL     1      13.883  30.410  61.930  1.00  0.00     0.000 C 
BRANCH  10  11
ATOM     11  C   UNL     1      12.494  29.752  61.915  1.00  0.00    -0.000 C 
BRANCH  11  12
ATOM     12  C   UNL     1      12.495  28.383  61.219  1.00  0.00    -0.000 C 
BRANCH  12  13
ATOM     13  C   UNL     1      11.601  28.400  59.973  1.00  0.00    -0.000 C 
BRANCH  13  14
ATOM     14  C   UNL     1      11.174  29.829  59.620  1.00  0.00    -0.000 C 
BRANCH  14  15
ATOM     15  C   UNL     1       9.653  29.924  59.458  1.00  0.00    -0.000 C 
BRANCH  15  16
ATOM     16  C   UNL     1       8.939  28.882  60.327  1.00  0.00    -0.003 C 
ATOM     17  C   UNL     1       8.400  29.508  61.609  1.00  0.00     0.004 C 
ENDBRANCH  15  16
ENDBRANCH  14  15
ENDBRANCH  13  14
ENDBRANCH  12  13
ENDBRANCH  11  12
ENDBRANCH  10  11
ENDBRANCH   1  10
TORSDOF 13
ENDMDL
MODEL 5
REMARK VINA RESULT:    -4.634      0.987      2.276
REMARK INTER + INTRA:          -9.562
REMARK INTER:                  -8.030
REMARK INTRA:                  -1.532
REMARK UNBOUND:                -1.407
REMARK SMILES CCCCCCCCCCCCCCC(=O)[O-]
REMARK SMILES IDX 9 1 10 2 11 3 12 4 13 5 14 6 15 7 16 8 17 9 8 10 7 11 6 12
REMARK SMILES IDX 5 13 4 14 3 15 2 16 1 17
REMARK H PARENT
REMARK Flexibility Score: inf
ROOT
ATOM      1  C   UNL     1      14.984  31.330  58.612  1.00  0.00     0.000 C 
ENDROOT
BRANCH   1   2
ATOM      2  C   UNL     1      13.480  31.578  58.804  1.00  0.00     0.000 C 
BRANCH   2   3
ATOM      3  C   UNL     1      12.667  30.275  58.859  1.00  0.00     0.000 C 
BRANCH   3   4
ATOM      4  C   UNL     1      11.187  30.483  58.502  1.00  0.00     0.000 C 
BRANCH   4   5
ATOM      5  C   UNL     1      10.282  29.621  59.392  1.00  0.00     0.006 C 
BRANCH   5   6
ATOM      6  C   UNL     1       8.935  30.309  59.635  1.00  0.00     0.053 C 
BRANCH   6   7
ATOM      7  C   UNL     1       8.400  29.949  60.984  1.00  0.00     0.041 C 
ATOM      8  O   UNL     1       9.176  29.527  61.882  1.00  0.00    -0.550 OA
ATOM      9  O   UNL     1       7.052  30.127  61.268  1.00  0.00    -0.550 OA
ENDBRANCH   6   7
ENDBRANCH   5   6
ENDBRANCH   4   5
ENDBRANCH   3   4
ENDBRANCH   2   3
ENDBRANCH   1   2
BRANCH   1  10
ATOM     10  C   UNL     1      15.443  30.100  59.410  1.00  0.00     0.000 C 
BRANCH  10  11
ATOM     11  C   UNL     1      16.533  30.434  60.440  1.00  0.00    -0.000 C 
BRANCH  11  12
ATOM     12  C   UNL     1      16.706  29.333  61.497  1.00  0.00    -0.000 C 
BRANCH  12  13
ATOM     13  C   UNL     1      16.443  29.879  62.906  1.00  0.00    -0.000 C 
BRANCH  13  14
ATOM     14  C   UNL     1      15.020  29.551  63.368  1.00  0.00    -0.000 C 
BRANCH  14  15
ATOM     15  C   UNL     1      14.454  28.352  62.599  1.00  0.00    -0.000 C 
BRANCH  15  16
ATOM     16  C   UNL     1      13.039  28.643  62.087  1.00  0.00    -0.003 C 
ATOM     17  C   UNL     1      12.699  30.125  62.214  1.00  0.00     0.004 C 
ENDBRANCH  15  16
ENDBRANCH  14  15
ENDBRANCH  13  14
ENDBRANCH  12  13
ENDBRANCH  11  12
ENDBRANCH  10  11
ENDBRANCH   1  10
TORSDOF 13
ENDMDL
MODEL 6
REMARK VINA RESULT:    -4.602      4.381      7.628
REMARK INTER + INTRA:          -9.507
REMARK INTER:                  -8.444
REMARK INTRA:                  -1.063
REMARK UNBOUND:                -1.407
REMARK SMILES CCCCCCCCCCCCCCC(=O)[O-]
REMARK SMILES IDX 9 1 10 2 11 3 12 4 13 5 14 6 15 7 16 8 17 9 8 10 7 11 6 12
REMARK SMILES IDX 5 13 4 14 3 15 2 16 1 17
REMARK H PARENT
REMARK Flexibility Score: inf
ROOT
ATOM      1  C   UNL     1      15.687  29.757  60.587  1.00  0.00     0.000 C 
ENDROOT
BRANCH   1   2
ATOM      2  C   UNL     1      14.698  29.990  61.739  1.00  0.00     0.000 C 
BRANCH   2   3
ATOM      3  C   UNL     1      14.730  28.864  62.785  1.00  0.00     0.000 C 
BRANCH   3   4
ATOM      4  C   UNL     1      16.029  28.853  63.605  1.00  0.00     0.000 C 
BRANCH   4   5
ATOM      5  C   UNL     1      16.732  27.493  63.500  1.00  0.00     0.006 C 
BRANCH   5   6
ATOM      6  C   UNL     1      17.997  27.593  62.642  1.00  0.00     0.053 C 
BRANCH   6   7
ATOM      7  C   UNL     1      18.759  26.307  62.682  1.00  0.00     0.041 C 
ATOM      8  O   UNL     1      19.300  25.857  61.637  1.00  0.00    -0.550 OA
ATOM      9  O   UNL     1      18.916  25.629  63.884  1.00  0.00    -0.550 OA
ENDBRANCH   6   7
ENDBRANCH   5   6
ENDBRANCH   4   5
ENDBRANCH   3   4
ENDBRANCH   2   3
ENDBRANCH   1   2
BRANCH   1  10
ATOM     10  C   UNL     1      15.101  30.248  59.255  1.00  0.00     0.000 C 
BRANCH  10  11
ATOM     11  C   UNL     1      13.802  31.049  59.437  1.00  0.00    -0.000 C 
BRANCH  11  12
ATOM     12  C   UNL     1      12.783  30.788  58.317  1.00  0.00    -0.000 C 
BRANCH  12  13
ATOM     13  C   UNL     1      11.422  30.384  58.897  1.00  0.00    -0.000 C 
BRANCH  13  14
ATOM     14  C   UNL     1      11.589  29.411  60.069  1.00  0.00    -0.000 C 
BRANCH  14  15
ATOM     15  C   UNL     1      10.359  29.436  60.985  1.00  0.00    -0.000 C 
BRANCH  15  16
ATOM     16  C   UNL     1       9.070  29.605  60.172  1.00  0.00    -0.003 C 
ATOM     17  C   UNL     1       7.867  29.822  61.085  1.00  0.00     0.004 C 
ENDBRANCH  15  16
ENDBRANCH  14  15
ENDBRANCH  13  14
ENDBRANCH  12  13
ENDBRANCH  11  12
ENDBRANCH  10  11
ENDBRANCH   1  10
TORSDOF 13
ENDMDL
MODEL 7
REMARK VINA RESULT:    -4.551      3.913      5.481
REMARK INTER + INTRA:          -9.417
REMARK INTER:                  -8.010
REMARK INTRA:                  -1.407
REMARK UNBOUND:                -1.407
REMARK SMILES CCCCCCCCCCCCCCC(=O)[O-]
REMARK SMILES IDX 9 1 10 2 11 3 12 4 13 5 14 6 15 7 16 8 17 9 8 10 7 11 6 12
REMARK SMILES IDX 5 13 4 14 3 15 2 16 1 17
REMARK H PARENT
REMARK Flexibility Score: inf
ROOT
ATOM      1  C   UNL     1      10.955  29.352  59.277  1.00  0.00     0.000 C 
ENDROOT
BRANCH   1   2
ATOM      2  C   UNL     1      11.578  30.633  58.703  1.00  0.00     0.000 C 
BRANCH   2   3
ATOM      3  C   UNL     1      13.092  30.504  58.471  1.00  0.00     0.000 C 
BRANCH   3   4
ATOM      4  C   UNL     1      13.879  31.709  59.008  1.00  0.00     0.000 C 
BRANCH   4   5
ATOM      5  C   UNL     1      14.490  32.521  57.858  1.00  0.00     0.006 C 
BRANCH   5   6
ATOM      6  C   UNL     1      16.019  32.450  57.887  1.00  0.00     0.053 C 
BRANCH   6   7
ATOM      7  C   UNL     1      16.528  31.659  56.725  1.00  0.00     0.041 C 
ATOM      8  O   UNL     1      17.536  32.054  56.081  1.00  0.00    -0.550 OA
ATOM      9  O   UNL     1      15.919  30.459  56.381  1.00  0.00    -0.550 OA
ENDBRANCH   6   7
ENDBRANCH   5   6
ENDBRANCH   4   5
ENDBRANCH   3   4
ENDBRANCH   2   3
ENDBRANCH   1   2
BRANCH   1  10
ATOM     10  C   UNL     1      11.785  28.820  60.455  1.00  0.00     0.000 C 
BRANCH  10  11
ATOM     11  C   UNL     1      11.644  29.682  61.719  1.00  0.00    -0.000 C 
BRANCH  11  12
ATOM     12  C   UNL     1      12.999  30.135  62.282  1.00  0.00    -0.000 C 
BRANCH  12  13
ATOM     13  C   UNL     1      14.055  29.032  62.124  1.00  0.00    -0.000 C 
BRANCH  13  14
ATOM     14  C   UNL     1      15.403  29.617  61.693  1.00  0.00    -0.000 C 
BRANCH  14  15
ATOM     15  C   UNL     1      16.556  28.978  62.477  1.00  0.00    -0.000 C 
BRANCH  15  16
ATOM     16  C   UNL     1      16.100  28.550  63.877  1.00  0.00    -0.003 C 
ATOM     17  C   UNL     1      16.509  27.111  64.174  1.00  0.00     0.004 C 
ENDBRANCH  15  16
ENDBRANCH  14  15
ENDBRANCH  13  14
ENDBRANCH  12  13
ENDBRANCH  11  12
ENDBRANCH  10  11
ENDBRANCH   1  10
TORSDOF 13
ENDMDL
MODEL 8
REMARK VINA RESULT:    -4.491      3.941      5.318
REMARK INTER + INTRA:          -9.312
REMARK INTER:                  -7.678
REMARK INTRA:                  -1.634
REMARK UNBOUND:                -1.407
REMARK SMILES CCCCCCCCCCCCCCC(=O)[O-]
REMARK SMILES IDX 9 1 10 2 11 3 12 4 13 5 14 6 15 7 16 8 17 9 8 10 7 11 6 12
REMARK SMILES IDX 5 13 4 14 3 15 2 16 1 17
REMARK H PARENT
REMARK Flexibility Score: inf
ROOT
ATOM      1  C   UNL     1      12.503  30.563  58.260  1.00  0.00     0.000 C 
ENDROOT
BRANCH   1   2
ATOM      2  C   UNL     1      13.450  31.604  58.878  1.00  0.00     0.000 C 
BRANCH   2   3
ATOM      3  C   UNL     1      14.917  31.379  58.483  1.00  0.00     0.000 C 
BRANCH   3   4
ATOM      4  C   UNL     1      15.121  30.096  57.661  1.00  0.00     0.000 C 
BRANCH   4   5
ATOM      5  C   UNL     1      15.724  30.416  56.287  1.00  0.00     0.006 C 
BRANCH   5   6
ATOM      6  C   UNL     1      14.719  30.131  55.166  1.00  0.00     0.053 C 
BRANCH   6   7
ATOM      7  C   UNL     1      14.273  31.407  54.527  1.00  0.00     0.041 C 
ATOM      8  O   UNL     1      14.598  31.669  53.338  1.00  0.00    -0.550 OA
ATOM      9  O   UNL     1      13.457  32.287  55.227  1.00  0.00    -0.550 OA
ENDBRANCH   6   7
ENDBRANCH   5   6
ENDBRANCH   4   5
ENDBRANCH   3   4
ENDBRANCH   2   3
ENDBRANCH   1   2
BRANCH   1  10
ATOM     10  C   UNL     1      11.436  30.124  59.274  1.00  0.00     0.000 C 
BRANCH  10  11
ATOM     11  C   UNL     1      11.861  28.892  60.088  1.00  0.00    -0.000 C 
BRANCH  11  12
ATOM     12  C   UNL     1      12.358  29.255  61.495  1.00  0.00    -0.000 C 
BRANCH  12  13
ATOM     13  C   UNL     1      13.123  28.084  62.125  1.00  0.00    -0.000 C 
BRANCH  13  14
ATOM     14  C   UNL     1      14.510  28.525  62.605  1.00  0.00    -0.000 C 
BRANCH  14  15
ATOM     15  C   UNL     1      15.004  29.742  61.813  1.00  0.00    -0.000 C 
BRANCH  15  16
ATOM     16  C   UNL     1      16.469  29.569  61.394  1.00  0.00    -0.003 C 
ATOM     17  C   UNL     1      17.160  28.497  62.232  1.00  0.00     0.004 C 
ENDBRANCH  15  16
ENDBRANCH  14  15
ENDBRANCH  13  14
ENDBRANCH  12  13
ENDBRANCH  11  12
ENDBRANCH  10  11
ENDBRANCH   1  10
TORSDOF 13
ENDMDL
MODEL 9
REMARK VINA RESULT:    -4.469      3.031      5.501
REMARK INTER + INTRA:          -9.273
REMARK INTER:                  -7.161
REMARK INTRA:                  -2.111
REMARK UNBOUND:                -1.407
REMARK SMILES CCCCCCCCCCCCCCC(=O)[O-]
REMARK SMILES IDX 9 1 10 2 11 3 12 4 13 5 14 6 15 7 16 8 17 9 8 10 7 11 6 12
REMARK SMILES IDX 5 13 4 14 3 15 2 16 1 17
REMARK H PARENT
REMARK Flexibility Score: inf
ROOT
ATOM      1  C   UNL     1      14.540  30.170  56.947  1.00  0.00     0.000 C 
ENDROOT
BRANCH   1   2
ATOM      2  C   UNL     1      13.379  30.814  57.720  1.00  0.00     0.000 C 
BRANCH   2   3
ATOM      3  C   UNL     1      13.791  31.291  59.121  1.00  0.00     0.000 C 
BRANCH   3   4
ATOM      4  C   UNL     1      14.430  30.175  59.963  1.00  0.00     0.000 C 
BRANCH   4   5
ATOM      5  C   UNL     1      13.583  29.872  61.206  1.00  0.00     0.006 C 
BRANCH   5   6
ATOM      6  C   UNL     1      12.487  28.850  60.889  1.00  0.00     0.053 C 
BRANCH   6   7
ATOM      7  C   UNL     1      11.140  29.499  60.925  1.00  0.00     0.041 C 
ATOM      8  O   UNL     1      10.518  29.729  59.854  1.00  0.00    -0.550 OA
ATOM      9  O   UNL     1      10.549  29.805  62.144  1.00  0.00    -0.550 OA
ENDBRANCH   6   7
ENDBRANCH   5   6
ENDBRANCH   4   5
ENDBRANCH   3   4
ENDBRANCH   2   3
ENDBRANCH   1   2
BRANCH   1  10
ATOM     10  C   UNL     1      14.477  30.539  55.457  1.00  0.00     0.000 C 
BRANCH  10  11
ATOM     11  C   UNL     1      13.788  31.890  55.208  1.00  0.00    -0.000 C 
BRANCH  11  12
ATOM     12  C   UNL     1      14.783  33.056  55.122  1.00  0.00    -0.000 C 
BRANCH  12  13
ATOM     13  C   UNL     1      14.732  33.916  56.391  1.00  0.00    -0.000 C 
BRANCH  13  14
ATOM     14  C   UNL     1      16.060  33.854  57.154  1.00  0.00    -0.000 C 
BRANCH  14  15
ATOM     15  C   UNL     1      17.154  33.200  56.301  1.00  0.00    -0.000 C 
BRANCH  15  16
ATOM     16  C   UNL     1      17.775  32.001  57.027  1.00  0.00    -0.003 C 
ATOM     17  C   UNL     1      17.406  31.999  58.507  1.00  0.00     0.004 C 
ENDBRANCH  15  16
ENDBRANCH  14  15
ENDBRANCH  13  14
ENDBRANCH  12  13
ENDBRANCH  11  12
ENDBRANCH  10  11
ENDBRANCH   1  10
TORSDOF 13
ENDMDL
