MODEL 1
REMARK VINA RESULT:    -5.728      0.000      0.000
REMARK INTER + INTRA:         -10.418
REMARK INTER:                  -9.076
REMARK INTRA:                  -1.342
REMARK UNBOUND:                -1.342
REMARK SMILES CCCCCCCCCCCC(=O)[O-]
REMARK SMILES IDX 7 1 8 2 9 3 10 4 11 5 12 6 13 7 14 8 6 9 5 10 4 11 3 12 2 13
REMARK SMILES IDX 1 14
REMARK H PARENT
REMARK Flexibility Score: inf
ROOT
ATOM      1  C   UNL     1     -16.143 -11.861 -10.796  1.00  0.00     0.000 C 
ENDROOT
BRANCH   1   2
ATOM      2  C   UNL     1     -15.114 -11.364  -9.764  1.00  0.00     0.000 C 
BRANCH   2   3
ATOM      3  C   UNL     1     -14.888 -12.367  -8.620  1.00  0.00     0.000 C 
BRANCH   3   4
ATOM      4  C   UNL     1     -14.348 -11.698  -7.341  1.00  0.00     0.006 C 
BRANCH   4   5
ATOM      5  C   UNL     1     -13.760 -10.293  -7.559  1.00  0.00     0.053 C 
BRANCH   5   6
ATOM      6  C   UNL     1     -12.642  -9.998  -6.606  1.00  0.00     0.041 C 
ATOM      7  O   UNL     1     -12.527 -10.659  -5.540  1.00  0.00    -0.550 OA
ATOM      8  O   UNL     1     -11.710  -9.014  -6.910  1.00  0.00    -0.550 OA
ENDBRANCH   5   6
ENDBRANCH   4   5
ENDBRANCH   3   4
ENDBRANCH   2   3
ENDBRANCH   1   2
BRANCH   1   9
ATOM      9  C   UNL     1     -17.533 -11.197 -10.715  1.00  0.00     0.000 C 
BRANCH   9  10
ATOM     10  C   UNL     1     -17.519  -9.660 -10.632  1.00  0.00    -0.000 C 
BRANCH  10  11
ATOM     11  C   UNL     1     -18.047  -9.130  -9.291  1.00  0.00    -0.000 C 
BRANCH  11  12
ATOM     12  C   UNL     1     -16.932  -8.443  -8.495  1.00  0.00    -0.000 C 
BRANCH  12  13
ATOM     13  C   UNL     1     -17.047  -8.758  -6.999  1.00  0.00    -0.003 C 
ATOM     14  C   UNL     1     -17.561 -10.176  -6.772  1.00  0.00     0.004 C 
ENDBRANCH  12  13
ENDBRANCH  11  12
ENDBRANCH  10  11
ENDBRANCH   9  10
ENDBRANCH   1   9
TORSDOF 10
ENDMDL
MODEL 2
REMARK VINA RESULT:    -5.720      3.607      5.832
REMARK INTER + INTRA:         -10.406
REMARK INTER:                  -9.223
REMARK INTRA:                  -1.183
REMARK UNBOUND:                -1.342
REMARK SMILES CCCCCCCCCCCC(=O)[O-]
REMARK SMILES IDX 7 1 8 2 9 3 10 4 11 5 12 6 13 7 14 8 6 9 5 10 4 11 3 12 2 13
REMARK SMILES IDX 1 14
REMARK H PARENT
REMARK Flexibility Score: inf
ROOT
ATOM      1  C   UNL     1     -16.947  -8.654  -7.325  1.00  0.00     0.000 C 
ENDROOT
BRANCH   1   2
ATOM      2  C   UNL     1     -16.592  -8.070  -8.705  1.00  0.00     0.000 C 
BRANCH   2   3
ATOM      3  C   UNL     1     -16.826  -9.068  -9.852  1.00  0.00     0.000 C 
BRANCH   3   4
ATOM      4  C   UNL     1     -18.060  -9.960  -9.620  1.00  0.00     0.006 C 
BRANCH   4   5
ATOM      5  C   UNL     1     -19.058  -9.981 -10.790  1.00  0.00     0.053 C 
BRANCH   5   6
ATOM      6  C   UNL     1     -18.858 -11.170 -11.679  1.00  0.00     0.041 C 
ATOM      7  O   UNL     1     -18.025 -12.062 -11.366  1.00  0.00    -0.550 OA
ATOM      8  O   UNL     1     -19.613 -11.309 -12.836  1.00  0.00    -0.550 OA
ENDBRANCH   5   6
ENDBRANCH   4   5
ENDBRANCH   3   4
ENDBRANCH   2   3
ENDBRANCH   1   2
BRANCH   1   9
ATOM      9  C   UNL     1     -15.749  -9.156  -6.493  1.00  0.00     0.000 C 
BRANCH   9  10
ATOM     10  C   UNL     1     -14.407  -9.207  -7.244  1.00  0.00    -0.000 C 
BRANCH  10  11
ATOM     11  C   UNL     1     -13.880 -10.638  -7.427  1.00  0.00    -0.000 C 
BRANCH  11  12
ATOM     12  C   UNL     1     -15.009 -11.663  -7.272  1.00  0.00    -0.000 C 
BRANCH  12  13
ATOM     13  C   UNL     1     -14.918 -12.750  -8.349  1.00  0.00    -0.003 C 
ATOM     14  C   UNL     1     -14.831 -12.138  -9.744  1.00  0.00     0.004 C 
ENDBRANCH  12  13
ENDBRANCH  11  12
ENDBRANCH  10  11
ENDBRANCH   9  10
ENDBRANCH   1   9
TORSDOF 10
ENDMDL
MODEL 3
REMARK VINA RESULT:    -5.686      2.259      3.992
REMARK INTER + INTRA:         -10.352
REMARK INTER:                  -9.508
REMARK INTRA:                  -0.843
REMARK UNBOUND:                -1.342
REMARK SMILES CCCCCCCCCCCC(=O)[O-]
REMARK SMILES IDX 7 1 8 2 9 3 10 4 11 5 12 6 13 7 14 8 6 9 5 10 4 11 3 12 2 13
REMARK SMILES IDX 1 14
REMARK H PARENT
REMARK Flexibility Score: inf
ROOT
ATOM      1  C   UNL     1     -16.975  -8.844  -7.256  1.00  0.00     0.000 C 
ENDROOT
BRANCH   1   2
ATOM      2  C   UNL     1     -15.787  -9.342  -6.413  1.00  0.00     0.000 C 
BRANCH   2   3
ATOM      3  C   UNL     1     -14.428  -9.083  -7.086  1.00  0.00     0.000 C 
BRANCH   3   4
ATOM      4  C   UNL     1     -13.666 -10.383  -7.406  1.00  0.00     0.006 C 
BRANCH   4   5
ATOM      5  C   UNL     1     -14.511 -11.662  -7.280  1.00  0.00     0.053 C 
BRANCH   5   6
ATOM      6  C   UNL     1     -14.782 -12.290  -8.613  1.00  0.00     0.041 C 
ATOM      7  O   UNL     1     -15.080 -13.511  -8.689  1.00  0.00    -0.550 OA
ATOM      8  O   UNL     1     -14.737 -11.519  -9.768  1.00  0.00    -0.550 OA
ENDBRANCH   5   6
ENDBRANCH   4   5
ENDBRANCH   3   4
ENDBRANCH   2   3
ENDBRANCH   1   2
BRANCH   1   9
ATOM      9  C   UNL     1     -16.597  -8.113  -8.560  1.00  0.00     0.000 C 
BRANCH   9  10
ATOM     10  C   UNL     1     -16.919  -8.877  -9.857  1.00  0.00    -0.000 C 
BRANCH  10  11
ATOM     11  C   UNL     1     -18.213  -9.698  -9.759  1.00  0.00    -0.000 C 
BRANCH  11  12
ATOM     12  C   UNL     1     -18.324 -10.688 -10.924  1.00  0.00    -0.000 C 
BRANCH  12  13
ATOM     13  C   UNL     1     -19.566 -10.399 -11.776  1.00  0.00    -0.003 C 
ATOM     14  C   UNL     1     -19.814 -11.515 -12.786  1.00  0.00     0.004 C 
ENDBRANCH  12  13
ENDBRANCH  11  12
ENDBRANCH  10  11
ENDBRANCH   9  10
ENDBRANCH   1   9
TORSDOF 10
ENDMDL
MODEL 4
REMARK VINA RESULT:    -5.586      2.246      4.068
REMARK INTER + INTRA:         -10.194
REMARK INTER:                  -9.139
REMARK INTRA:                  -1.055
REMARK UNBOUND:                -1.342
REMARK SMILES CCCCCCCCCCCC(=O)[O-]
REMARK SMILES IDX 7 1 8 2 9 3 10 4 11 5 12 6 13 7 14 8 6 9 5 10 4 11 3 12 2 13
REMARK SMILES IDX 1 14
REMARK H PARENT
REMARK Flexibility Score: inf
ROOT
ATOM      1  C   UNL     1     -16.255  -8.465  -8.808  1.00  0.00     0.000 C 
ENDROOT
BRANCH   1   2
ATOM      2  C   UNL     1     -15.580  -8.654  -7.437  1.00  0.00     0.000 C 
BRANCH   2   3
ATOM      3  C   UNL     1     -16.424  -9.501  -6.469  1.00  0.00     0.000 C 
BRANCH   3   4
ATOM      4  C   UNL     1     -16.190 -11.013  -6.644  1.00  0.00     0.006 C 
BRANCH   4   5
ATOM      5  C   UNL     1     -14.774 -11.387  -7.114  1.00  0.00     0.053 C 
BRANCH   5   6
ATOM      6  C   UNL     1     -14.796 -12.202  -8.372  1.00  0.00     0.041 C 
ATOM      7  O   UNL     1     -14.397 -11.703  -9.457  1.00  0.00    -0.550 OA
ATOM      8  O   UNL     1     -15.228 -13.522  -8.338  1.00  0.00    -0.550 OA
ENDBRANCH   5   6
ENDBRANCH   4   5
ENDBRANCH   3   4
ENDBRANCH   2   3
ENDBRANCH   1   2
BRANCH   1   9
ATOM      9  C   UNL     1     -17.796  -8.419  -8.783  1.00  0.00     0.000 C 
BRANCH   9  10
ATOM     10  C   UNL     1     -18.498  -9.502  -9.622  1.00  0.00    -0.000 C 
BRANCH  10  11
ATOM     11  C   UNL     1     -17.514 -10.500 -10.249  1.00  0.00    -0.000 C 
BRANCH  11  12
ATOM     12  C   UNL     1     -18.172 -11.271 -11.399  1.00  0.00    -0.000 C 
BRANCH  12  13
ATOM     13  C   UNL     1     -19.461 -10.580 -11.859  1.00  0.00    -0.003 C 
ATOM     14  C   UNL     1     -20.133 -11.359 -12.985  1.00  0.00     0.004 C 
ENDBRANCH  12  13
ENDBRANCH  11  12
ENDBRANCH  10  11
ENDBRANCH   9  10
ENDBRANCH   1   9
TORSDOF 10
ENDMDL
MODEL 5
REMARK VINA RESULT:    -5.586      0.909      3.036
REMARK INTER + INTRA:         -10.194
REMARK INTER:                  -8.854
REMARK INTRA:                  -1.340
REMARK UNBOUND:                -1.342
REMARK SMILES CCCCCCCCCCCC(=O)[O-]
REMARK SMILES IDX 7 1 8 2 9 3 10 4 11 5 12 6 13 7 14 8 6 9 5 10 4 11 3 12 2 13
REMARK SMILES IDX 1 14
REMARK H PARENT
REMARK Flexibility Score: inf
ROOT
ATOM      1  C   UNL     1     -18.341  -9.265  -9.089  1.00  0.00     0.000 C 
ENDROOT
BRANCH   1   2
ATOM      2  C   UNL     1     -17.743  -9.819  -7.783  1.00  0.00     0.000 C 
BRANCH   2   3
ATOM      3  C   UNL     1     -16.914  -8.774  -7.016  1.00  0.00     0.000 C 
BRANCH   3   4
ATOM      4  C   UNL     1     -15.608  -9.355  -6.443  1.00  0.00     0.006 C 
BRANCH   4   5
ATOM      5  C   UNL     1     -14.389  -9.214  -7.371  1.00  0.00     0.053 C 
BRANCH   5   6
ATOM      6  C   UNL     1     -13.177  -9.897  -6.813  1.00  0.00     0.041 C 
ATOM      7  O   UNL     1     -13.263 -11.067  -6.355  1.00  0.00    -0.550 OA
ATOM      8  O   UNL     1     -11.947  -9.253  -6.830  1.00  0.00    -0.550 OA
ENDBRANCH   5   6
ENDBRANCH   4   5
ENDBRANCH   3   4
ENDBRANCH   2   3
ENDBRANCH   1   2
BRANCH   1   9
ATOM      9  C   UNL     1     -17.553  -9.604 -10.371  1.00  0.00     0.000 C 
BRANCH   9  10
ATOM     10  C   UNL     1     -17.826 -11.001 -10.957  1.00  0.00    -0.000 C 
BRANCH  10  11
ATOM     11  C   UNL     1     -16.603 -11.927 -10.884  1.00  0.00    -0.000 C 
BRANCH  11  12
ATOM     12  C   UNL     1     -15.387 -11.187 -10.314  1.00  0.00    -0.000 C 
BRANCH  12  13
ATOM     13  C   UNL     1     -14.482 -12.141  -9.526  1.00  0.00    -0.003 C 
ATOM     14  C   UNL     1     -15.277 -12.924  -8.487  1.00  0.00     0.004 C 
ENDBRANCH  12  13
ENDBRANCH  11  12
ENDBRANCH  10  11
ENDBRANCH   9  10
ENDBRANCH   1   9
TORSDOF 10
ENDMDL
MODEL 6
REMARK VINA RESULT:    -5.578      4.295      6.291
REMARK INTER + INTRA:         -10.181
REMARK INTER:                  -9.219
REMARK INTRA:                  -0.962
REMARK UNBOUND:                -1.342
REMARK SMILES CCCCCCCCCCCC(=O)[O-]
REMARK SMILES IDX 7 1 8 2 9 3 10 4 11 5 12 6 13 7 14 8 6 9 5 10 4 11 3 12 2 13
REMARK SMILES IDX 1 14
REMARK H PARENT
REMARK Flexibility Score: inf
ROOT
ATOM      1  C   UNL     1     -17.333  -8.357  -8.344  1.00  0.00     0.000 C 
ENDROOT
BRANCH   1   2
ATOM      2  C   UNL     1     -16.670  -8.729  -9.683  1.00  0.00     0.000 C 
BRANCH   2   3
ATOM      3  C   UNL     1     -17.106 -10.111 -10.200  1.00  0.00     0.000 C 
BRANCH   3   4
ATOM      4  C   UNL     1     -18.587 -10.146 -10.623  1.00  0.00     0.006 C 
BRANCH   4   5
ATOM      5  C   UNL     1     -18.976 -11.368 -11.473  1.00  0.00     0.053 C 
BRANCH   5   6
ATOM      6  C   UNL     1     -19.992 -11.024 -12.519  1.00  0.00     0.041 C 
ATOM      7  O   UNL     1     -20.106 -11.738 -13.551  1.00  0.00    -0.550 OA
ATOM      8  O   UNL     1     -20.834  -9.934 -12.340  1.00  0.00    -0.550 OA
ENDBRANCH   5   6
ENDBRANCH   4   5
ENDBRANCH   3   4
ENDBRANCH   2   3
ENDBRANCH   1   2
BRANCH   1   9
ATOM      9  C   UNL     1     -16.639  -8.919  -7.086  1.00  0.00     0.000 C 
BRANCH   9  10
ATOM     10  C   UNL     1     -15.116  -8.707  -7.030  1.00  0.00    -0.000 C 
BRANCH  10  11
ATOM     11  C   UNL     1     -14.355  -9.963  -6.579  1.00  0.00    -0.000 C 
BRANCH  11  12
ATOM     12  C   UNL     1     -14.056 -10.880  -7.771  1.00  0.00    -0.000 C 
BRANCH  12  13
ATOM     13  C   UNL     1     -14.955 -12.122  -7.749  1.00  0.00    -0.003 C 
ATOM     14  C   UNL     1     -14.876 -12.883  -9.068  1.00  0.00     0.004 C 
ENDBRANCH  12  13
ENDBRANCH  11  12
ENDBRANCH  10  11
ENDBRANCH   9  10
ENDBRANCH   1   9
TORSDOF 10
ENDMDL
MODEL 7
REMARK VINA RESULT:    -5.545      1.182      3.227
REMARK INTER + INTRA:         -10.129
REMARK INTER:                  -9.168
REMARK INTRA:                  -0.961
REMARK UNBOUND:                -1.342
REMARK SMILES CCCCCCCCCCCC(=O)[O-]
REMARK SMILES IDX 7 1 8 2 9 3 10 4 11 5 12 6 13 7 14 8 6 9 5 10 4 11 3 12 2 13
REMARK SMILES IDX 1 14
REMARK H PARENT
REMARK Flexibility Score: inf
ROOT
ATOM      1  C   UNL     1     -17.594  -9.583  -7.360  1.00  0.00     0.000 C 
ENDROOT
BRANCH   1   2
ATOM      2  C   UNL     1     -16.402 -10.051  -6.505  1.00  0.00     0.000 C 
BRANCH   2   3
ATOM      3  C   UNL     1     -15.808 -11.385  -6.989  1.00  0.00     0.000 C 
BRANCH   3   4
ATOM      4  C   UNL     1     -14.416 -11.218  -7.628  1.00  0.00     0.006 C 
BRANCH   4   5
ATOM      5  C   UNL     1     -13.794  -9.824  -7.441  1.00  0.00     0.053 C 
BRANCH   5   6
ATOM      6  C   UNL     1     -12.547  -9.871  -6.612  1.00  0.00     0.041 C 
ATOM      7  O   UNL     1     -11.597  -9.079  -6.849  1.00  0.00    -0.550 OA
ATOM      8  O   UNL     1     -12.448 -10.769  -5.556  1.00  0.00    -0.550 OA
ENDBRANCH   5   6
ENDBRANCH   4   5
ENDBRANCH   3   4
ENDBRANCH   2   3
ENDBRANCH   1   2
BRANCH   1   9
ATOM      9  C   UNL     1     -17.309  -8.386  -8.290  1.00  0.00     0.000 C 
BRANCH   9  10
ATOM     10  C   UNL     1     -16.706  -8.750  -9.659  1.00  0.00    -0.000 C 
BRANCH  10  11
ATOM     11  C   UNL     1     -17.251 -10.072 -10.218  1.00  0.00    -0.000 C 
BRANCH  11  12
ATOM     12  C   UNL     1     -18.684  -9.900 -10.734  1.00  0.00    -0.000 C 
BRANCH  12  13
ATOM     13  C   UNL     1     -18.831 -10.467 -12.152  1.00  0.00    -0.003 C 
ATOM     14  C   UNL     1     -19.597 -11.785 -12.142  1.00  0.00     0.004 C 
ENDBRANCH  12  13
ENDBRANCH  11  12
ENDBRANCH  10  11
ENDBRANCH   9  10
ENDBRANCH   1   9
TORSDOF 10
ENDMDL
MODEL 8
REMARK VINA RESULT:    -5.490      2.424      4.110
REMARK INTER + INTRA:         -10.042
REMARK INTER:                  -8.918
REMARK INTRA:                  -1.125
REMARK UNBOUND:                -1.342
REMARK SMILES CCCCCCCCCCCC(=O)[O-]
REMARK SMILES IDX 7 1 8 2 9 3 10 4 11 5 12 6 13 7 14 8 6 9 5 10 4 11 3 12 2 13
REMARK SMILES IDX 1 14
REMARK H PARENT
REMARK Flexibility Score: inf
ROOT
ATOM      1  C   UNL     1     -15.057 -12.424  -8.003  1.00  0.00     0.000 C 
ENDROOT
BRANCH   1   2
ATOM      2  C   UNL     1     -14.465 -11.421  -6.996  1.00  0.00     0.000 C 
BRANCH   2   3
ATOM      3  C   UNL     1     -13.834 -10.195  -7.678  1.00  0.00     0.000 C 
BRANCH   3   4
ATOM      4  C   UNL     1     -14.576  -8.886  -7.349  1.00  0.00     0.006 C 
BRANCH   4   5
ATOM      5  C   UNL     1     -15.747  -9.048  -6.365  1.00  0.00     0.053 C 
BRANCH   5   6
ATOM      6  C   UNL     1     -17.070  -9.088  -7.068  1.00  0.00     0.041 C 
ATOM      7  O   UNL     1     -17.394  -8.165  -7.861  1.00  0.00    -0.550 OA
ATOM      8  O   UNL     1     -17.931 -10.159  -6.870  1.00  0.00    -0.550 OA
ENDBRANCH   5   6
ENDBRANCH   4   5
ENDBRANCH   3   4
ENDBRANCH   2   3
ENDBRANCH   1   2
BRANCH   1   9
ATOM      9  C   UNL     1     -14.679 -12.178  -9.478  1.00  0.00     0.000 C 
BRANCH   9  10
ATOM     10  C   UNL     1     -15.869 -11.963 -10.431  1.00  0.00    -0.000 C 
BRANCH  10  11
ATOM     11  C   UNL     1     -16.462 -10.550 -10.336  1.00  0.00    -0.000 C 
BRANCH  11  12
ATOM     12  C   UNL     1     -17.990 -10.587 -10.443  1.00  0.00    -0.000 C 
BRANCH  12  13
ATOM     13  C   UNL     1     -18.446 -11.642 -11.458  1.00  0.00    -0.003 C 
ATOM     14  C   UNL     1     -19.215 -11.003 -12.610  1.00  0.00     0.004 C 
ENDBRANCH  12  13
ENDBRANCH  11  12
ENDBRANCH  10  11
ENDBRANCH   9  10
ENDBRANCH   1   9
TORSDOF 10
ENDMDL
MODEL 9
REMARK VINA RESULT:    -5.456      3.778      5.943
REMARK INTER + INTRA:          -9.988
REMARK INTER:                  -8.994
REMARK INTRA:                  -0.995
REMARK UNBOUND:                -1.342
REMARK SMILES CCCCCCCCCCCC(=O)[O-]
REMARK SMILES IDX 7 1 8 2 9 3 10 4 11 5 12 6 13 7 14 8 6 9 5 10 4 11 3 12 2 13
REMARK SMILES IDX 1 14
REMARK H PARENT
REMARK Flexibility Score: inf
ROOT
ATOM      1  C   UNL     1     -17.466  -9.421  -7.286  1.00  0.00     0.000 C 
ENDROOT
BRANCH   1   2
ATOM      2  C   UNL     1     -17.030  -8.285  -8.230  1.00  0.00     0.000 C 
BRANCH   2   3
ATOM      3  C   UNL     1     -16.830  -8.759  -9.679  1.00  0.00     0.000 C 
BRANCH   3   4
ATOM      4  C   UNL     1     -17.619 -10.043  -9.999  1.00  0.00     0.006 C 
BRANCH   4   5
ATOM      5  C   UNL     1     -19.001  -9.799 -10.629  1.00  0.00     0.053 C 
BRANCH   5   6
ATOM      6  C   UNL     1     -19.357 -10.857 -11.629  1.00  0.00     0.041 C 
ATOM      7  O   UNL     1     -20.299 -10.667 -12.442  1.00  0.00    -0.550 OA
ATOM      8  O   UNL     1     -18.628 -12.037 -11.683  1.00  0.00    -0.550 OA
ENDBRANCH   5   6
ENDBRANCH   4   5
ENDBRANCH   3   4
ENDBRANCH   2   3
ENDBRANCH   1   2
BRANCH   1   9
ATOM      9  C   UNL     1     -16.340 -10.034  -6.428  1.00  0.00     0.000 C 
BRANCH   9  10
ATOM     10  C   UNL     1     -15.761 -11.358  -6.957  1.00  0.00    -0.000 C 
BRANCH  10  11
ATOM     11  C   UNL     1     -14.365 -11.194  -7.576  1.00  0.00    -0.000 C 
BRANCH  11  12
ATOM     12  C   UNL     1     -13.826  -9.778  -7.346  1.00  0.00    -0.000 C 
BRANCH  12  13
ATOM     13  C   UNL     1     -12.464  -9.814  -6.643  1.00  0.00    -0.003 C 
ATOM     14  C   UNL     1     -12.450 -10.846  -5.520  1.00  0.00     0.004 C 
ENDBRANCH  12  13
ENDBRANCH  11  12
ENDBRANCH  10  11
ENDBRANCH   9  10
ENDBRANCH   1   9
TORSDOF 10
ENDMDL
