MODEL 1
REMARK VINA RESULT:    -4.213      0.000      0.000
REMARK INTER + INTRA:          -6.463
REMARK INTER:                  -5.691
REMARK INTRA:                  -0.773
REMARK UNBOUND:                -0.773
REMARK SMILES CC(=O)CCC=C(C)CCC=C(C)C
REMARK SMILES IDX 7 1 6 2 8 3 9 4 10 5 11 6 13 7 12 8 14 9 5 10 4 11 2 12 3 13
REMARK SMILES IDX 1 14
REMARK H PARENT
REMARK Flexibility Score: inf
ROOT
ATOM      1  C   UNL     1      56.430   0.471  21.895  1.00  0.00    -0.077 C 
ATOM      2  C   UNL     1      55.213  -0.095  21.727  1.00  0.00    -0.028 C 
ATOM      3  C   UNL     1      56.596   1.833  22.525  1.00  0.00     0.039 C 
ENDROOT
BRANCH   1   4
ATOM      4  C   UNL     1      57.657  -0.275  21.421  1.00  0.00     0.034 C 
BRANCH   4   5
ATOM      5  C   UNL     1      57.663  -1.710  21.961  1.00  0.00     0.032 C 
BRANCH   5   6
ATOM      6  C   UNL     1      58.851  -1.939  22.862  1.00  0.00    -0.028 C 
ATOM      7  C   UNL     1      60.137  -1.928  24.956  1.00  0.00     0.039 C 
ATOM      8  C   UNL     1      58.862  -1.689  24.190  1.00  0.00    -0.080 C 
ATOM      9  C   UNL     1      57.635  -1.195  24.922  1.00  0.00     0.039 C 
ENDBRANCH   5   6
ENDBRANCH   4   5
ENDBRANCH   1   4
BRANCH   2  10
ATOM     10  C   UNL     1      53.917   0.518  22.196  1.00  0.00     0.035 C 
BRANCH  10  11
ATOM     11  C   UNL     1      52.974   0.759  21.013  1.00  0.00     0.079 C 
BRANCH  11  12
ATOM     12  C   UNL     1      51.955  -0.345  20.910  1.00  0.00     0.130 C 
ATOM     13  O   UNL     1      51.907  -1.203  21.778  1.00  0.00    -0.300 OA
ATOM     14  C   UNL     1      50.987  -0.410  19.765  1.00  0.00     0.087 C 
ENDBRANCH  11  12
ENDBRANCH  10  11
ENDBRANCH   2  10
TORSDOF 6
ENDMDL
MODEL 2
REMARK VINA RESULT:    -4.012     19.382     20.563
REMARK INTER + INTRA:          -6.192
REMARK INTER:                  -5.552
REMARK INTRA:                  -0.640
REMARK UNBOUND:                -0.773
REMARK SMILES CC(=O)CCC=C(C)CCC=C(C)C
REMARK SMILES IDX 7 1 6 2 8 3 9 4 10 5 11 6 13 7 12 8 14 9 5 10 4 11 2 12 3 13
REMARK SMILES IDX 1 14
REMARK H PARENT
REMARK Flexibility Score: inf
ROOT
ATOM      1  C   UNL     1      56.344 -15.222   9.241  1.00  0.00    -0.077 C 
ATOM      2  C   UNL     1      55.644 -15.870   8.281  1.00  0.00    -0.028 C 
ATOM      3  C   UNL     1      57.434 -14.232   8.902  1.00  0.00     0.039 C 
ENDROOT
BRANCH   1   4
ATOM      4  C   UNL     1      56.039 -15.511  10.693  1.00  0.00     0.034 C 
BRANCH   4   5
ATOM      5  C   UNL     1      56.967 -16.605  11.236  1.00  0.00     0.032 C 
BRANCH   5   6
ATOM      6  C   UNL     1      56.761 -16.795  12.717  1.00  0.00    -0.028 C 
ATOM      7  C   UNL     1      57.393 -16.948  15.088  1.00  0.00     0.039 C 
ATOM      8  C   UNL     1      57.739 -16.691  13.644  1.00  0.00    -0.080 C 
ATOM      9  C   UNL     1      59.155 -16.311  13.274  1.00  0.00     0.039 C 
ENDBRANCH   5   6
ENDBRANCH   4   5
ENDBRANCH   1   4
BRANCH   2  10
ATOM     10  C   UNL     1      55.814 -15.639   6.800  1.00  0.00     0.035 C 
BRANCH  10  11
ATOM     11  C   UNL     1      56.716 -16.715   6.186  1.00  0.00     0.079 C 
BRANCH  11  12
ATOM     12  C   UNL     1      58.023 -16.119   5.735  1.00  0.00     0.130 C 
ATOM     13  O   UNL     1      58.019 -15.131   5.017  1.00  0.00    -0.300 OA
ATOM     14  C   UNL     1      59.337 -16.710   6.156  1.00  0.00     0.087 C 
ENDBRANCH  11  12
ENDBRANCH  10  11
ENDBRANCH   2  10
TORSDOF 6
ENDMDL
MODEL 3
REMARK VINA RESULT:    -3.987     20.405     22.283
REMARK INTER + INTRA:          -6.158
REMARK INTER:                  -5.321
REMARK INTRA:                  -0.837
REMARK UNBOUND:                -0.773
REMARK SMILES CC(=O)CCC=C(C)CCC=C(C)C
REMARK SMILES IDX 7 1 6 2 8 3 9 4 10 5 11 6 13 7 12 8 14 9 5 10 4 11 2 12 3 13
REMARK SMILES IDX 1 14
REMARK H PARENT
REMARK Flexibility Score: inf
ROOT
ATOM      1  C   UNL     1      66.181 -15.813  12.472  1.00  0.00    -0.077 C 
ATOM      2  C   UNL     1      66.587 -16.932  11.830  1.00  0.00    -0.028 C 
ATOM      3  C   UNL     1      66.056 -14.486  11.760  1.00  0.00     0.039 C 
ENDROOT
BRANCH   1   4
ATOM      4  C   UNL     1      65.861 -15.888  13.948  1.00  0.00     0.034 C 
BRANCH   4   5
ATOM      5  C   UNL     1      66.801 -14.985  14.755  1.00  0.00     0.032 C 
BRANCH   5   6
ATOM      6  C   UNL     1      68.201 -15.544  14.767  1.00  0.00    -0.028 C 
ATOM      7  C   UNL     1      70.125 -16.807  15.629  1.00  0.00     0.039 C 
ATOM      8  C   UNL     1      68.690 -16.358  15.729  1.00  0.00    -0.080 C 
ATOM      9  C   UNL     1      67.838 -16.837  16.881  1.00  0.00     0.039 C 
ENDBRANCH   5   6
ENDBRANCH   4   5
ENDBRANCH   1   4
BRANCH   2  10
ATOM     10  C   UNL     1      66.890 -17.006  10.355  1.00  0.00     0.035 C 
BRANCH  10  11
ATOM     11  C   UNL     1      68.399 -17.125  10.118  1.00  0.00     0.079 C 
BRANCH  11  12
ATOM     12  C   UNL     1      68.896 -15.986   9.268  1.00  0.00     0.130 C 
ATOM     13  O   UNL     1      68.903 -16.100   8.052  1.00  0.00    -0.300 OA
ATOM     14  C   UNL     1      69.377 -14.704   9.884  1.00  0.00     0.087 C 
ENDBRANCH  11  12
ENDBRANCH  10  11
ENDBRANCH   2  10
TORSDOF 6
ENDMDL
MODEL 4
REMARK VINA RESULT:    -3.888     19.415     21.052
REMARK INTER + INTRA:          -6.024
REMARK INTER:                  -5.126
REMARK INTRA:                  -0.898
REMARK UNBOUND:                -0.773
REMARK SMILES CC(=O)CCC=C(C)CCC=C(C)C
REMARK SMILES IDX 7 1 6 2 8 3 9 4 10 5 11 6 13 7 12 8 14 9 5 10 4 11 2 12 3 13
REMARK SMILES IDX 1 14
REMARK H PARENT
REMARK Flexibility Score: inf
ROOT
ATOM      1  C   UNL     1      57.380 -14.912   8.766  1.00  0.00    -0.077 C 
ATOM      2  C   UNL     1      57.523 -16.106   9.385  1.00  0.00    -0.028 C 
ATOM      3  C   UNL     1      56.571 -13.790   9.374  1.00  0.00     0.039 C 
ENDROOT
BRANCH   1   4
ATOM      4  C   UNL     1      58.035 -14.700   7.419  1.00  0.00     0.034 C 
BRANCH   4   5
ATOM      5  C   UNL     1      57.666 -15.831   6.452  1.00  0.00     0.032 C 
BRANCH   5   6
ATOM      6  C   UNL     1      56.463 -15.455   5.623  1.00  0.00    -0.028 C 
ATOM      7  C   UNL     1      54.123 -15.517   4.875  1.00  0.00     0.039 C 
ATOM      8  C   UNL     1      55.221 -15.955   5.809  1.00  0.00    -0.080 C 
ATOM      9  C   UNL     1      54.906 -16.919   6.929  1.00  0.00     0.039 C 
ENDBRANCH   5   6
ENDBRANCH   4   5
ENDBRANCH   1   4
BRANCH   2  10
ATOM     10  C   UNL     1      56.966 -16.432  10.747  1.00  0.00     0.035 C 
BRANCH  10  11
ATOM     11  C   UNL     1      58.095 -16.764  11.729  1.00  0.00     0.079 C 
BRANCH  11  12
ATOM     12  C   UNL     1      57.605 -16.684  13.150  1.00  0.00     0.130 C 
ATOM     13  O   UNL     1      58.412 -16.558  14.059  1.00  0.00    -0.300 OA
ATOM     14  C   UNL     1      56.142 -16.747  13.477  1.00  0.00     0.087 C 
ENDBRANCH  11  12
ENDBRANCH  10  11
ENDBRANCH   2  10
TORSDOF 6
ENDMDL
MODEL 5
REMARK VINA RESULT:    -3.881     20.377     22.389
REMARK INTER + INTRA:          -6.015
REMARK INTER:                  -5.297
REMARK INTRA:                  -0.718
REMARK UNBOUND:                -0.773
REMARK SMILES CC(=O)CCC=C(C)CCC=C(C)C
REMARK SMILES IDX 7 1 6 2 8 3 9 4 10 5 11 6 13 7 12 8 14 9 5 10 4 11 2 12 3 13
REMARK SMILES IDX 1 14
REMARK H PARENT
REMARK Flexibility Score: inf
ROOT
ATOM      1  C   UNL     1      65.997 -14.994  12.051  1.00  0.00    -0.077 C 
ATOM      2  C   UNL     1      66.957 -15.714  11.427  1.00  0.00    -0.028 C 
ATOM      3  C   UNL     1      65.589 -13.622  11.568  1.00  0.00     0.039 C 
ENDROOT
BRANCH   1   4
ATOM      4  C   UNL     1      65.325 -15.573  13.276  1.00  0.00     0.034 C 
BRANCH   4   5
ATOM      5  C   UNL     1      65.956 -16.917  13.658  1.00  0.00     0.032 C 
BRANCH   5   6
ATOM      6  C   UNL     1      66.428 -16.899  15.090  1.00  0.00    -0.028 C 
ATOM      7  C   UNL     1      68.040 -16.739  16.939  1.00  0.00     0.039 C 
ATOM      8  C   UNL     1      67.708 -16.688  15.470  1.00  0.00    -0.080 C 
ATOM      9  C   UNL     1      68.801 -16.390  14.470  1.00  0.00     0.039 C 
ENDBRANCH   5   6
ENDBRANCH   4   5
ENDBRANCH   1   4
BRANCH   2  10
ATOM     10  C   UNL     1      67.670 -15.277  10.172  1.00  0.00     0.035 C 
BRANCH  10  11
ATOM     11  C   UNL     1      68.063 -16.490   9.323  1.00  0.00     0.079 C 
BRANCH  11  12
ATOM     12  C   UNL     1      69.096 -16.110   8.296  1.00  0.00     0.130 C 
ATOM     13  O   UNL     1      70.020 -15.377   8.615  1.00  0.00    -0.300 OA
ATOM     14  C   UNL     1      69.021 -16.618   6.886  1.00  0.00     0.087 C 
ENDBRANCH  11  12
ENDBRANCH  10  11
ENDBRANCH   2  10
TORSDOF 6
ENDMDL
MODEL 6
REMARK VINA RESULT:    -3.739     20.193     22.449
REMARK INTER + INTRA:          -5.822
REMARK INTER:                  -5.142
REMARK INTRA:                  -0.681
REMARK UNBOUND:                -0.773
REMARK SMILES CC(=O)CCC=C(C)CCC=C(C)C
REMARK SMILES IDX 7 1 6 2 8 3 9 4 10 5 11 6 13 7 12 8 14 9 5 10 4 11 2 12 3 13
REMARK SMILES IDX 1 14
REMARK H PARENT
REMARK Flexibility Score: inf
ROOT
ATOM      1  C   UNL     1      66.071 -15.541  12.274  1.00  0.00    -0.077 C 
ATOM      2  C   UNL     1      65.978 -16.383  13.329  1.00  0.00    -0.028 C 
ATOM      3  C   UNL     1      66.134 -14.043  12.453  1.00  0.00     0.039 C 
ENDROOT
BRANCH   1   4
ATOM      4  C   UNL     1      66.092 -16.116  10.875  1.00  0.00     0.034 C 
BRANCH   4   5
ATOM      5  C   UNL     1      67.236 -17.125  10.721  1.00  0.00     0.032 C 
BRANCH   5   6
ATOM      6  C   UNL     1      67.884 -16.997   9.365  1.00  0.00    -0.028 C 
ATOM      7  C   UNL     1      69.340 -16.032   7.636  1.00  0.00     0.039 C 
ATOM      8  C   UNL     1      68.810 -16.066   9.045  1.00  0.00    -0.080 C 
ATOM      9  C   UNL     1      69.335 -15.078  10.062  1.00  0.00     0.039 C 
ENDBRANCH   5   6
ENDBRANCH   4   5
ENDBRANCH   1   4
BRANCH   2  10
ATOM     10  C   UNL     1      65.996 -15.946  14.772  1.00  0.00     0.035 C 
BRANCH  10  11
ATOM     11  C   UNL     1      66.642 -17.020  15.654  1.00  0.00     0.079 C 
BRANCH  11  12
ATOM     12  C   UNL     1      68.014 -16.588  16.098  1.00  0.00     0.130 C 
ATOM     13  O   UNL     1      68.332 -16.706  17.272  1.00  0.00    -0.300 OA
ATOM     14  C   UNL     1      69.008 -16.022  15.127  1.00  0.00     0.087 C 
ENDBRANCH  11  12
ENDBRANCH  10  11
ENDBRANCH   2  10
TORSDOF 6
ENDMDL
MODEL 7
REMARK VINA RESULT:    -3.680      1.824      6.532
REMARK INTER + INTRA:          -5.744
REMARK INTER:                  -5.212
REMARK INTRA:                  -0.532
REMARK UNBOUND:                -0.773
REMARK SMILES CC(=O)CCC=C(C)CCC=C(C)C
REMARK SMILES IDX 7 1 6 2 8 3 9 4 10 5 11 6 13 7 12 8 14 9 5 10 4 11 2 12 3 13
REMARK SMILES IDX 1 14
REMARK H PARENT
REMARK Flexibility Score: inf
ROOT
ATOM      1  C   UNL     1      55.706   0.904  22.334  1.00  0.00    -0.077 C 
ATOM      2  C   UNL     1      56.243  -0.137  21.656  1.00  0.00    -0.028 C 
ATOM      3  C   UNL     1      56.561   1.869  23.121  1.00  0.00     0.039 C 
ENDROOT
BRANCH   1   4
ATOM      4  C   UNL     1      54.206   1.094  22.317  1.00  0.00     0.034 C 
BRANCH   4   5
ATOM      5  C   UNL     1      53.538   0.064  21.398  1.00  0.00     0.032 C 
BRANCH   5   6
ATOM      6  C   UNL     1      52.469   0.713  20.555  1.00  0.00    -0.028 C 
ATOM      7  C   UNL     1      50.299   0.921  19.421  1.00  0.00     0.039 C 
ATOM      8  C   UNL     1      51.252   0.176  20.319  1.00  0.00    -0.080 C 
ATOM      9  C   UNL     1      50.820  -1.133  20.940  1.00  0.00     0.039 C 
ENDBRANCH   5   6
ENDBRANCH   4   5
ENDBRANCH   1   4
BRANCH   2  10
ATOM     10  C   UNL     1      57.723  -0.413  21.551  1.00  0.00     0.035 C 
BRANCH  10  11
ATOM     11  C   UNL     1      58.068  -1.759  22.196  1.00  0.00     0.079 C 
BRANCH  11  12
ATOM     12  C   UNL     1      58.294  -1.599  23.676  1.00  0.00     0.130 C 
ATOM     13  O   UNL     1      57.337  -1.423  24.415  1.00  0.00    -0.300 OA
ATOM     14  C   UNL     1      59.671  -1.658  24.267  1.00  0.00     0.087 C 
ENDBRANCH  11  12
ENDBRANCH  10  11
ENDBRANCH   2  10
TORSDOF 6
ENDMDL
MODEL 8
REMARK VINA RESULT:    -3.672      2.647      6.311
REMARK INTER + INTRA:          -5.732
REMARK INTER:                  -4.643
REMARK INTRA:                  -1.089
REMARK UNBOUND:                -0.773
REMARK SMILES CC(=O)CCC=C(C)CCC=C(C)C
REMARK SMILES IDX 7 1 6 2 8 3 9 4 10 5 11 6 13 7 12 8 14 9 5 10 4 11 2 12 3 13
REMARK SMILES IDX 1 14
REMARK H PARENT
REMARK Flexibility Score: inf
ROOT
ATOM      1  C   UNL     1      56.158   0.831  22.697  1.00  0.00    -0.077 C 
ATOM      2  C   UNL     1      56.202   0.320  23.949  1.00  0.00    -0.028 C 
ATOM      3  C   UNL     1      56.861   0.164  21.538  1.00  0.00     0.039 C 
ENDROOT
BRANCH   1   4
ATOM      4  C   UNL     1      55.400   2.117  22.455  1.00  0.00     0.034 C 
BRANCH   4   5
ATOM      5  C   UNL     1      53.899   1.916  22.698  1.00  0.00     0.032 C 
BRANCH   5   6
ATOM      6  C   UNL     1      53.200   1.517  21.424  1.00  0.00    -0.028 C 
ATOM      7  C   UNL     1      52.155   0.000  19.796  1.00  0.00     0.039 C 
ATOM      8  C   UNL     1      52.809   0.257  21.129  1.00  0.00    -0.080 C 
ATOM      9  C   UNL     1      52.994  -0.886  22.100  1.00  0.00     0.039 C 
ENDBRANCH   5   6
ENDBRANCH   4   5
ENDBRANCH   1   4
BRANCH   2  10
ATOM     10  C   UNL     1      56.880  -0.976  24.316  1.00  0.00     0.035 C 
BRANCH  10  11
ATOM     11  C   UNL     1      58.273  -0.712  24.897  1.00  0.00     0.079 C 
BRANCH  11  12
ATOM     12  C   UNL     1      59.293  -1.626  24.272  1.00  0.00     0.130 C 
ATOM     13  O   UNL     1      60.406  -1.715  24.767  1.00  0.00    -0.300 OA
ATOM     14  C   UNL     1      58.969  -2.441  23.054  1.00  0.00     0.087 C 
ENDBRANCH  11  12
ENDBRANCH  10  11
ENDBRANCH   2  10
TORSDOF 6
ENDMDL
