MODEL 1
REMARK VINA RESULT:    -4.664      0.000      0.000
REMARK INTER + INTRA:          -5.869
REMARK INTER:                  -5.754
REMARK INTRA:                  -0.115
REMARK UNBOUND:                -0.115
REMARK SMILES CCCCCC(=O)[O-]
REMARK SMILES IDX 4 1 5 2 6 3 7 4 8 5 3 6 2 7 1 8
REMARK H PARENT
REMARK Flexibility Score: inf
ROOT
ATOM      1  C   UNL     1     -13.317   2.277  -9.480  1.00  0.00     0.006 C 
ENDROOT
BRANCH   1   2
ATOM      2  C   UNL     1     -12.169   3.278  -9.664  1.00  0.00     0.053 C 
BRANCH   2   3
ATOM      3  C   UNL     1     -11.712   3.847  -8.356  1.00  0.00     0.041 C 
ATOM      4  O   UNL     1     -10.502   3.772  -8.020  1.00  0.00    -0.550 OA
ATOM      5  O   UNL     1     -12.630   4.432  -7.492  1.00  0.00    -0.550 OA
ENDBRANCH   2   3
ENDBRANCH   1   2
BRANCH   1   6
ATOM      6  C   UNL     1     -12.966   0.884 -10.024  1.00  0.00     0.000 C 
BRANCH   6   7
ATOM      7  C   UNL     1     -11.455   0.637  -9.971  1.00  0.00    -0.003 C 
ATOM      8  C   UNL     1     -11.031  -0.416 -10.990  1.00  0.00     0.004 C 
ENDBRANCH   6   7
ENDBRANCH   1   6
TORSDOF 4
ENDMDL
MODEL 2
REMARK VINA RESULT:    -4.575      0.724      1.415
REMARK INTER + INTRA:          -5.760
REMARK INTER:                  -5.669
REMARK INTRA:                  -0.091
REMARK UNBOUND:                -0.115
REMARK SMILES CCCCCC(=O)[O-]
REMARK SMILES IDX 4 1 5 2 6 3 7 4 8 5 3 6 2 7 1 8
REMARK H PARENT
REMARK Flexibility Score: inf
ROOT
ATOM      1  C   UNL     1     -12.003   1.670  -9.583  1.00  0.00     0.006 C 
ENDROOT
BRANCH   1   2
ATOM      2  C   UNL     1     -12.430   3.140  -9.481  1.00  0.00     0.053 C 
BRANCH   2   3
ATOM      3  C   UNL     1     -11.843   3.807  -8.275  1.00  0.00     0.041 C 
ATOM      4  O   UNL     1     -12.579   4.462  -7.492  1.00  0.00    -0.550 OA
ATOM      5  O   UNL     1     -10.476   3.733  -8.034  1.00  0.00    -0.550 OA
ENDBRANCH   2   3
ENDBRANCH   1   2
BRANCH   1   6
ATOM      6  C   UNL     1     -13.144   0.765 -10.072  1.00  0.00     0.000 C 
BRANCH   6   7
ATOM      7  C   UNL     1     -12.596  -0.442 -10.842  1.00  0.00    -0.003 C 
ATOM      8  C   UNL     1     -11.077  -0.374 -10.966  1.00  0.00     0.004 C 
ENDBRANCH   6   7
ENDBRANCH   1   6
TORSDOF 4
ENDMDL
MODEL 3
REMARK VINA RESULT:    -4.533      1.097      2.153
REMARK INTER + INTRA:          -5.707
REMARK INTER:                  -5.559
REMARK INTRA:                  -0.149
REMARK UNBOUND:                -0.115
REMARK SMILES CCCCCC(=O)[O-]
REMARK SMILES IDX 4 1 5 2 6 3 7 4 8 5 3 6 2 7 1 8
REMARK H PARENT
REMARK Flexibility Score: inf
ROOT
ATOM      1  C   UNL     1     -11.830   1.650  -9.466  1.00  0.00     0.006 C 
ENDROOT
BRANCH   1   2
ATOM      2  C   UNL     1     -12.046   3.164  -9.590  1.00  0.00     0.053 C 
BRANCH   2   3
ATOM      3  C   UNL     1     -11.707   3.880  -8.318  1.00  0.00     0.041 C 
ATOM      4  O   UNL     1     -10.529   3.861  -7.875  1.00  0.00    -0.550 OA
ATOM      5  O   UNL     1     -12.700   4.541  -7.604  1.00  0.00    -0.550 OA
ENDBRANCH   2   3
ENDBRANCH   1   2
BRANCH   1   6
ATOM      6  C   UNL     1     -13.022   0.846 -10.004  1.00  0.00     0.000 C 
BRANCH   6   7
ATOM      7  C   UNL     1     -14.308   1.680  -9.970  1.00  0.00    -0.003 C 
ATOM      8  C   UNL     1     -15.125   1.382  -8.716  1.00  0.00     0.004 C 
ENDBRANCH   6   7
ENDBRANCH   1   6
TORSDOF 4
ENDMDL
MODEL 4
REMARK VINA RESULT:    -4.227      3.266      4.740
REMARK INTER + INTRA:          -5.330
REMARK INTER:                  -5.251
REMARK INTRA:                  -0.079
REMARK UNBOUND:                -0.115
REMARK SMILES CCCCCC(=O)[O-]
REMARK SMILES IDX 4 1 5 2 6 3 7 4 8 5 3 6 2 7 1 8
REMARK H PARENT
REMARK Flexibility Score: inf
ROOT
ATOM      1  C   UNL     1     -11.191   0.812  -9.691  1.00  0.00     0.006 C 
ENDROOT
BRANCH   1   2
ATOM      2  C   UNL     1     -11.363  -0.365 -10.660  1.00  0.00     0.053 C 
BRANCH   2   3
ATOM      3  C   UNL     1     -11.113  -1.680  -9.988  1.00  0.00     0.041 C 
ATOM      4  O   UNL     1     -11.771  -2.698 -10.324  1.00  0.00    -0.550 OA
ATOM      5  O   UNL     1     -10.175  -1.773  -8.967  1.00  0.00    -0.550 OA
ENDBRANCH   2   3
ENDBRANCH   1   2
BRANCH   1   6
ATOM      6  C   UNL     1     -12.471   1.651  -9.560  1.00  0.00     0.000 C 
BRANCH   6   7
ATOM      7  C   UNL     1     -12.141   3.144  -9.460  1.00  0.00    -0.003 C 
ATOM      8  C   UNL     1     -11.024   3.397  -8.452  1.00  0.00     0.004 C 
ENDBRANCH   6   7
ENDBRANCH   1   6
TORSDOF 4
ENDMDL
MODEL 5
REMARK VINA RESULT:    -4.204      3.143      4.553
REMARK INTER + INTRA:          -5.302
REMARK INTER:                  -5.238
REMARK INTRA:                  -0.064
REMARK UNBOUND:                -0.115
REMARK SMILES CCCCCC(=O)[O-]
REMARK SMILES IDX 4 1 5 2 6 3 7 4 8 5 3 6 2 7 1 8
REMARK H PARENT
REMARK Flexibility Score: inf
ROOT
ATOM      1  C   UNL     1     -11.683   1.252  -9.625  1.00  0.00     0.006 C 
ENDROOT
BRANCH   1   2
ATOM      2  C   UNL     1     -12.328   0.092 -10.395  1.00  0.00     0.053 C 
BRANCH   2   3
ATOM      3  C   UNL     1     -11.448  -1.120 -10.414  1.00  0.00     0.041 C 
ATOM      4  O   UNL     1     -10.196  -0.994 -10.460  1.00  0.00    -0.550 OA
ATOM      5  O   UNL     1     -12.011  -2.391 -10.415  1.00  0.00    -0.550 OA
ENDBRANCH   2   3
ENDBRANCH   1   2
BRANCH   1   6
ATOM      6  C   UNL     1     -12.648   2.430  -9.432  1.00  0.00     0.000 C 
BRANCH   6   7
ATOM      7  C   UNL     1     -11.895   3.766  -9.453  1.00  0.00    -0.003 C 
ATOM      8  C   UNL     1     -10.852   3.828  -8.342  1.00  0.00     0.004 C 
ENDBRANCH   6   7
ENDBRANCH   1   6
TORSDOF 4
ENDMDL
MODEL 6
REMARK VINA RESULT:    -4.186      3.536      4.869
REMARK INTER + INTRA:          -5.280
REMARK INTER:                  -5.161
REMARK INTRA:                  -0.119
REMARK UNBOUND:                -0.115
REMARK SMILES CCCCCC(=O)[O-]
REMARK SMILES IDX 4 1 5 2 6 3 7 4 8 5 3 6 2 7 1 8
REMARK H PARENT
REMARK Flexibility Score: inf
ROOT
ATOM      1  C   UNL     1     -11.058   0.533  -9.522  1.00  0.00     0.006 C 
ENDROOT
BRANCH   1   2
ATOM      2  C   UNL     1     -11.205  -0.593 -10.553  1.00  0.00     0.053 C 
BRANCH   2   3
ATOM      3  C   UNL     1     -11.006  -1.943  -9.934  1.00  0.00     0.041 C 
ATOM      4  O   UNL     1     -11.716  -2.917 -10.297  1.00  0.00    -0.550 OA
ATOM      5  O   UNL     1     -10.058  -2.117  -8.933  1.00  0.00    -0.550 OA
ENDBRANCH   2   3
ENDBRANCH   1   2
BRANCH   1   6
ATOM      6  C   UNL     1     -12.200   1.556  -9.610  1.00  0.00     0.000 C 
BRANCH   6   7
ATOM      7  C   UNL     1     -13.499   0.890 -10.079  1.00  0.00    -0.003 C 
ATOM      8  C   UNL     1     -14.715   1.517  -9.405  1.00  0.00     0.004 C 
ENDBRANCH   6   7
ENDBRANCH   1   6
TORSDOF 4
ENDMDL
MODEL 7
REMARK VINA RESULT:    -3.972      1.699      2.275
REMARK INTER + INTRA:          -5.015
REMARK INTER:                  -4.879
REMARK INTRA:                  -0.136
REMARK UNBOUND:                -0.115
REMARK SMILES CCCCCC(=O)[O-]
REMARK SMILES IDX 4 1 5 2 6 3 7 4 8 5 3 6 2 7 1 8
REMARK H PARENT
REMARK Flexibility Score: inf
ROOT
ATOM      1  C   UNL     1     -11.431   1.114  -9.244  1.00  0.00     0.006 C 
ENDROOT
BRANCH   1   2
ATOM      2  C   UNL     1     -11.787   2.562  -9.603  1.00  0.00     0.053 C 
BRANCH   2   3
ATOM      3  C   UNL     1     -13.204   2.891  -9.247  1.00  0.00     0.041 C 
ATOM      4  O   UNL     1     -14.153   2.438  -9.940  1.00  0.00    -0.550 OA
ATOM      5  O   UNL     1     -13.477   3.726  -8.170  1.00  0.00    -0.550 OA
ENDBRANCH   2   3
ENDBRANCH   1   2
BRANCH   1   6
ATOM      6  C   UNL     1     -11.240   0.235 -10.489  1.00  0.00     0.000 C 
BRANCH   6   7
ATOM      7  C   UNL     1     -12.525  -0.533 -10.821  1.00  0.00    -0.003 C 
ATOM      8  C   UNL     1     -12.352  -2.029 -10.575  1.00  0.00     0.004 C 
ENDBRANCH   6   7
ENDBRANCH   1   6
TORSDOF 4
ENDMDL
MODEL 8
REMARK VINA RESULT:    -3.894      4.397      5.775
REMARK INTER + INTRA:          -4.919
REMARK INTER:                  -4.804
REMARK INTRA:                  -0.114
REMARK UNBOUND:                -0.115
REMARK SMILES CCCCCC(=O)[O-]
REMARK SMILES IDX 4 1 5 2 6 3 7 4 8 5 3 6 2 7 1 8
REMARK H PARENT
REMARK Flexibility Score: inf
ROOT
ATOM      1  C   UNL     1     -11.417  -2.332 -10.010  1.00  0.00     0.006 C 
ENDROOT
BRANCH   1   2
ATOM      2  C   UNL     1     -10.100  -2.125  -9.250  1.00  0.00     0.053 C 
BRANCH   2   3
ATOM      3  C   UNL     1      -9.629  -3.389  -8.599  1.00  0.00     0.041 C 
ATOM      4  O   UNL     1      -8.735  -4.088  -9.144  1.00  0.00    -0.550 OA
ATOM      5  O   UNL     1     -10.202  -3.814  -7.407  1.00  0.00    -0.550 OA
ENDBRANCH   2   3
ENDBRANCH   1   2
BRANCH   1   6
ATOM      6  C   UNL     1     -11.880  -1.057 -10.731  1.00  0.00     0.000 C 
BRANCH   6   7
ATOM      7  C   UNL     1     -11.056   0.156 -10.285  1.00  0.00    -0.003 C 
ATOM      8  C   UNL     1     -11.948   1.237  -9.683  1.00  0.00     0.004 C 
ENDBRANCH   6   7
ENDBRANCH   1   6
TORSDOF 4
ENDMDL
MODEL 9
REMARK VINA RESULT:    -3.764      2.551      3.547
REMARK INTER + INTRA:          -4.758
REMARK INTER:                  -4.688
REMARK INTRA:                  -0.070
REMARK UNBOUND:                -0.115
REMARK SMILES CCCCCC(=O)[O-]
REMARK SMILES IDX 4 1 5 2 6 3 7 4 8 5 3 6 2 7 1 8
REMARK H PARENT
REMARK Flexibility Score: inf
ROOT
ATOM      1  C   UNL     1     -10.597  -0.609 -10.383  1.00  0.00     0.006 C 
ENDROOT
BRANCH   1   2
ATOM      2  C   UNL     1     -11.977   0.057 -10.442  1.00  0.00     0.053 C 
BRANCH   2   3
ATOM      3  C   UNL     1     -12.009   1.340  -9.669  1.00  0.00     0.041 C 
ATOM      4  O   UNL     1     -11.032   1.668  -8.947  1.00  0.00    -0.550 OA
ATOM      5  O   UNL     1     -13.132   2.157  -9.720  1.00  0.00    -0.550 OA
ENDBRANCH   2   3
ENDBRANCH   1   2
BRANCH   1   6
ATOM      6  C   UNL     1     -10.576  -1.823  -9.442  1.00  0.00     0.000 C 
BRANCH   6   7
ATOM      7  C   UNL     1      -9.515  -2.839  -9.879  1.00  0.00    -0.003 C 
ATOM      8  C   UNL     1      -8.973  -3.619  -8.685  1.00  0.00     0.004 C 
ENDBRANCH   6   7
ENDBRANCH   1   6
TORSDOF 4
ENDMDL
