MODEL 1
REMARK VINA RESULT:    -3.871      0.000      0.000
REMARK INTER + INTRA:          -7.025
REMARK INTER:                  -6.361
REMARK INTRA:                  -0.664
REMARK UNBOUND:                -0.664
REMARK SMILES C[C@@H]1O[C@H](OC[C@@H]2O[C@@H](Oc3c(-c4ccc(O)c(O)c4)oc4cc(O)cc(O)c4c3=O)[C@@H](O)[C@@H](O)[C@H]2O)[C@@H](O)[C@H](O)[C@H]1O
REMARK SMILES IDX 7 1 36 2 34 3 32 4 9 5 8 6 6 7 5 8 4 9 1 10 2 11 42 12 3 13
REMARK SMILES IDX 40 14 38 15 43 16 41 18 39 20 37 22 35 24 10 26 11 27 12 28
REMARK SMILES IDX 30 29 21 30 29 31 31 32 22 33 27 34 23 35 26 36 24 37 13 38
REMARK SMILES IDX 20 39 14 40 18 41 15 42 16 43 19 44 17 46 28 48 25 50 33 52
REMARK H PARENT 43 17 41 19 39 21 37 23 35 25 19 45 17 47 28 49 25 51 33 53
REMARK Flexibility Score: inf
ROOT
ATOM      1  C   UNL     1     -12.964   8.437   7.792  1.00  0.00     0.180 C 
ATOM      2  C   UNL     1     -14.504   8.391   7.974  1.00  0.00     0.177 C 
ATOM      3  C   UNL     1     -15.125   9.762   7.645  1.00  0.00     0.180 C 
ATOM      4  C   UNL     1     -14.390  10.858   8.433  1.00  0.00     0.214 C 
ATOM      5  C   UNL     1     -12.872  10.752   8.205  1.00  0.00     0.339 C 
ATOM      6  O   UNL     1     -12.391   9.473   8.578  1.00  0.00    -0.332 OA
ENDROOT
BRANCH   1   7
ATOM      7  C   UNL     1     -12.317   7.110   8.224  1.00  0.00     0.198 C 
BRANCH   7   8
ATOM      8  O   UNL     1     -10.986   7.041   7.732  1.00  0.00    -0.347 OA
BRANCH   8   9
ATOM      9  C   UNL     1     -10.801   5.904   6.913  1.00  0.00     0.281 C 
ATOM     10  C   UNL     1     -13.295   3.978   5.032  1.00  0.00     0.041 C 
ATOM     11  C   UNL     1     -11.909   4.366   5.557  1.00  0.00     0.150 C 
ATOM     12  C   UNL     1     -10.895   4.513   4.394  1.00  0.00     0.174 C 
ATOM     13  O   UNL     1     -12.027   5.586   6.272  1.00  0.00    -0.344 OA
ATOM     14  C   UNL     1      -9.536   4.999   4.946  1.00  0.00     0.179 C 
ATOM     15  C   UNL     1      -9.731   6.226   5.862  1.00  0.00     0.202 C 
BRANCH  12  16
ATOM     16  O   UNL     1     -10.737   3.269   3.754  1.00  0.00    -0.388 OA
ATOM     17  H   UNL     1     -10.732   2.577   4.465  1.00  0.00     0.211 HD
ENDBRANCH  12  16
BRANCH  14  18
ATOM     18  O   UNL     1      -8.642   5.286   3.902  1.00  0.00    -0.387 OA
ATOM     19  H   UNL     1      -8.910   4.739   3.119  1.00  0.00     0.211 HD
ENDBRANCH  14  18
BRANCH  15  20
ATOM     20  O   UNL     1      -8.523   6.538   6.510  1.00  0.00    -0.385 OA
ATOM     21  H   UNL     1      -8.097   5.677   6.751  1.00  0.00     0.211 HD
ENDBRANCH  15  20
ENDBRANCH   8   9
ENDBRANCH   7   8
ENDBRANCH   1   7
BRANCH   2  22
ATOM     22  O   UNL     1     -15.062   7.408   7.141  1.00  0.00    -0.387 OA
ATOM     23  H   UNL     1     -14.925   7.718   6.210  1.00  0.00     0.211 HD
ENDBRANCH   2  22
BRANCH   3  24
ATOM     24  O   UNL     1     -15.037   9.999   6.261  1.00  0.00    -0.387 OA
ATOM     25  H   UNL     1     -14.971  10.983   6.134  1.00  0.00     0.211 HD
ENDBRANCH   3  24
BRANCH   5  26
ATOM     26  O   UNL     1     -12.543  11.053   6.846  1.00  0.00    -0.454 OA
BRANCH  26  27
ATOM     27  C   UNL     1     -11.218  11.139   6.402  1.00  0.00     0.214 A 
ATOM     28  C   UNL     1     -10.888  10.956   5.050  1.00  0.00     0.180 A 
ATOM     29  C   UNL     1     -10.195  11.399   7.323  1.00  0.00     0.239 A 
ATOM     30  O   UNL     1      -9.618  10.962   4.668  1.00  0.00    -0.452 OA
ATOM     31  C   UNL     1      -8.842  11.403   6.893  1.00  0.00     0.111 A 
ATOM     32  O   UNL     1     -10.513  11.607   8.522  1.00  0.00    -0.285 OA
ATOM     33  C   UNL     1      -8.609  11.174   5.506  1.00  0.00     0.146 A 
ATOM     34  C   UNL     1      -7.712  11.625   7.741  1.00  0.00     0.134 A 
ATOM     35  C   UNL     1      -7.311  11.173   4.992  1.00  0.00     0.094 A 
ATOM     36  C   UNL     1      -6.426  11.632   7.188  1.00  0.00     0.093 A 
ATOM     37  C   UNL     1      -6.220  11.401   5.824  1.00  0.00     0.123 A 
BRANCH  28  38
ATOM     38  C   UNL     1     -11.927  10.796   4.024  1.00  0.00     0.025 A 
ATOM     39  C   UNL     1     -12.838   9.732   4.109  1.00  0.00     0.062 A 
ATOM     40  C   UNL     1     -12.047  11.728   2.987  1.00  0.00     0.016 A 
ATOM     41  C   UNL     1     -13.872   9.610   3.177  1.00  0.00     0.158 A 
ATOM     42  C   UNL     1     -13.060  11.589   2.036  1.00  0.00     0.051 A 
ATOM     43  C   UNL     1     -13.978  10.535   2.127  1.00  0.00     0.157 A 
BRANCH  41  44
ATOM     44  O   UNL     1     -14.796   8.576   3.321  1.00  0.00    -0.504 OA
ATOM     45  H   UNL     1     -15.395   8.497   4.132  1.00  0.00     0.293 HD
ENDBRANCH  41  44
BRANCH  43  46
ATOM     46  O   UNL     1     -15.001  10.413   1.186  1.00  0.00    -0.504 OA
ATOM     47  H   UNL     1     -14.856  10.634   0.208  1.00  0.00     0.293 HD
ENDBRANCH  43  46
ENDBRANCH  28  38
BRANCH  34  48
ATOM     48  O   UNL     1      -7.782  11.839   9.124  1.00  0.00    -0.507 OA
ATOM     49  H   UNL     1      -7.712  11.124   9.835  1.00  0.00     0.293 HD
ENDBRANCH  34  48
BRANCH  37  50
ATOM     50  O   UNL     1      -4.933  11.395   5.287  1.00  0.00    -0.508 OA
ATOM     51  H   UNL     1      -4.142  11.023   5.807  1.00  0.00     0.293 HD
ENDBRANCH  37  50
ENDBRANCH  26  27
ENDBRANCH   5  26
BRANCH   4  52
ATOM     52  O   UNL     1     -14.860  12.124   8.050  1.00  0.00    -0.384 OA
ATOM     53  H   UNL     1     -15.850  12.077   8.069  1.00  0.00     0.211 HD
ENDBRANCH   4  52
TORSDOF 16
ENDMDL
MODEL 2
REMARK VINA RESULT:    -3.651      1.519      1.706
REMARK INTER + INTRA:          -6.663
REMARK INTER:                  -7.176
REMARK INTRA:                   0.513
REMARK UNBOUND:                -0.664
REMARK SMILES C[C@@H]1O[C@H](OC[C@@H]2O[C@@H](Oc3c(-c4ccc(O)c(O)c4)oc4cc(O)cc(O)c4c3=O)[C@@H](O)[C@@H](O)[C@H]2O)[C@@H](O)[C@H](O)[C@H]1O
REMARK SMILES IDX 7 1 36 2 34 3 32 4 9 5 8 6 6 7 5 8 4 9 1 10 2 11 42 12 3 13
REMARK SMILES IDX 40 14 38 15 43 16 41 18 39 20 37 22 35 24 10 26 11 27 12 28
REMARK SMILES IDX 30 29 21 30 29 31 31 32 22 33 27 34 23 35 26 36 24 37 13 38
REMARK SMILES IDX 20 39 14 40 18 41 15 42 16 43 19 44 17 46 28 48 25 50 33 52
REMARK H PARENT 43 17 41 19 39 21 37 23 35 25 19 45 17 47 28 49 25 51 33 53
REMARK Flexibility Score: inf
ROOT
ATOM      1  C   UNL     1     -12.713   8.752   7.200  1.00  0.00     0.180 C 
ATOM      2  C   UNL     1     -14.249   8.537   7.242  1.00  0.00     0.177 C 
ATOM      3  C   UNL     1     -14.983   9.887   7.151  1.00  0.00     0.180 C 
ATOM      4  C   UNL     1     -14.413  10.851   8.205  1.00  0.00     0.214 C 
ATOM      5  C   UNL     1     -12.881  10.926   8.084  1.00  0.00     0.339 C 
ATOM      6  O   UNL     1     -12.297   9.644   8.226  1.00  0.00    -0.332 OA
ENDROOT
BRANCH   1   7
ATOM      7  C   UNL     1     -11.963   7.424   7.402  1.00  0.00     0.198 C 
BRANCH   7   8
ATOM      8  O   UNL     1     -12.829   6.468   7.999  1.00  0.00    -0.347 OA
BRANCH   8   9
ATOM      9  C   UNL     1     -12.775   5.232   7.315  1.00  0.00     0.281 C 
ATOM     10  C   UNL     1     -12.997   4.569   3.713  1.00  0.00     0.041 C 
ATOM     11  C   UNL     1     -12.846   4.249   5.204  1.00  0.00     0.150 C 
ATOM     12  C   UNL     1     -11.591   3.375   5.461  1.00  0.00     0.174 C 
ATOM     13  O   UNL     1     -12.755   5.472   5.917  1.00  0.00    -0.344 OA
ATOM     14  C   UNL     1     -11.415   3.153   6.980  1.00  0.00     0.179 C 
ATOM     15  C   UNL     1     -11.497   4.495   7.737  1.00  0.00     0.202 C 
BRANCH  12  16
ATOM     16  O   UNL     1     -11.745   2.137   4.809  1.00  0.00    -0.388 OA
ATOM     17  H   UNL     1     -10.844   1.855   4.507  1.00  0.00     0.211 HD
ENDBRANCH  12  16
BRANCH  14  18
ATOM     18  O   UNL     1     -10.206   2.493   7.253  1.00  0.00    -0.387 OA
ATOM     19  H   UNL     1     -10.117   2.424   8.238  1.00  0.00     0.211 HD
ENDBRANCH  14  18
BRANCH  15  20
ATOM     20  O   UNL     1     -11.531   4.264   9.123  1.00  0.00    -0.385 OA
ATOM     21  H   UNL     1     -10.594   4.117   9.411  1.00  0.00     0.211 HD
ENDBRANCH  15  20
ENDBRANCH   8   9
ENDBRANCH   7   8
ENDBRANCH   1   7
BRANCH   2  22
ATOM     22  O   UNL     1     -14.652   7.708   6.183  1.00  0.00    -0.387 OA
ATOM     23  H   UNL     1     -13.893   7.675   5.547  1.00  0.00     0.211 HD
ENDBRANCH   2  22
BRANCH   3  24
ATOM     24  O   UNL     1     -14.834  10.419   5.857  1.00  0.00    -0.387 OA
ATOM     25  H   UNL     1     -15.667  10.211   5.356  1.00  0.00     0.211 HD
ENDBRANCH   3  24
BRANCH   5  26
ATOM     26  O   UNL     1     -12.500  11.535   6.847  1.00  0.00    -0.454 OA
BRANCH  26  27
ATOM     27  C   UNL     1     -11.175  11.534   6.394  1.00  0.00     0.214 A 
ATOM     28  C   UNL     1     -10.873  11.490   5.023  1.00  0.00     0.180 A 
ATOM     29  C   UNL     1     -10.126  11.565   7.321  1.00  0.00     0.239 A 
ATOM     30  O   UNL     1      -9.612  11.408   4.623  1.00  0.00    -0.452 OA
ATOM     31  C   UNL     1      -8.783  11.480   6.871  1.00  0.00     0.111 A 
ATOM     32  O   UNL     1     -10.415  11.653   8.543  1.00  0.00    -0.285 OA
ATOM     33  C   UNL     1      -8.582  11.403   5.462  1.00  0.00     0.146 A 
ATOM     34  C   UNL     1      -7.632  11.471   7.720  1.00  0.00     0.134 A 
ATOM     35  C   UNL     1      -7.294  11.329   4.928  1.00  0.00     0.094 A 
ATOM     36  C   UNL     1      -6.355  11.411   7.148  1.00  0.00     0.093 A 
ATOM     37  C   UNL     1      -6.181  11.333   5.763  1.00  0.00     0.123 A 
BRANCH  28  38
ATOM     38  C   UNL     1     -11.928  11.572   4.005  1.00  0.00     0.025 A 
ATOM     39  C   UNL     1     -11.691  11.090   2.709  1.00  0.00     0.062 A 
ATOM     40  C   UNL     1     -13.189  12.082   4.333  1.00  0.00     0.016 A 
ATOM     41  C   UNL     1     -12.710  11.101   1.752  1.00  0.00     0.158 A 
ATOM     42  C   UNL     1     -14.199  12.124   3.368  1.00  0.00     0.051 A 
ATOM     43  C   UNL     1     -13.967  11.632   2.078  1.00  0.00     0.157 A 
BRANCH  41  44
ATOM     44  O   UNL     1     -12.460  10.563   0.490  1.00  0.00    -0.504 OA
ATOM     45  H   UNL     1     -11.554  10.626   0.047  1.00  0.00     0.293 HD
ENDBRANCH  41  44
BRANCH  43  46
ATOM     46  O   UNL     1     -14.986  11.656   1.125  1.00  0.00    -0.504 OA
ATOM     47  H   UNL     1     -15.885  11.221   1.293  1.00  0.00     0.293 HD
ENDBRANCH  43  46
ENDBRANCH  28  38
BRANCH  34  48
ATOM     48  O   UNL     1      -7.672  11.514   9.120  1.00  0.00    -0.507 OA
ATOM     49  H   UNL     1      -8.300  12.079   9.674  1.00  0.00     0.293 HD
ENDBRANCH  34  48
BRANCH  37  50
ATOM     50  O   UNL     1      -4.905  11.257   5.207  1.00  0.00    -0.508 OA
ATOM     51  H   UNL     1      -4.127  11.790   5.587  1.00  0.00     0.293 HD
ENDBRANCH  37  50
ENDBRANCH  26  27
ENDBRANCH   5  26
BRANCH   4  52
ATOM     52  O   UNL     1     -14.984  12.124   8.051  1.00  0.00    -0.384 OA
ATOM     53  H   UNL     1     -14.258  12.782   8.208  1.00  0.00     0.211 HD
ENDBRANCH   4  52
TORSDOF 16
ENDMDL
