MODEL 1
REMARK VINA RESULT:    -0.190      0.000      0.000
REMARK INTER + INTRA:          -0.124
REMARK INTER:                  -0.206
REMARK INTRA:                   0.082
REMARK UNBOUND:                 0.082
REMARK SMILES CC1(C)CC[C@@]2(C(=O)[O-])CC[C@@]3(C)C(=CC[C@H]4[C@]5(C)CC[C@H](O)C(C)(C)[C@H]5CC[C@]43C)[C@@H]2C1
REMARK SMILES IDX 6 1 5 2 10 3 32 4 4 5 11 6 14 7 33 8 2 9 12 10 15 11 1 12
REMARK SMILES IDX 3 13 13 14 30 15 16 16 17 17 29 18 31 19 18 20 28 21 27 22
REMARK SMILES IDX 20 23 19 24 24 25 21 26 22 27 25 28 26 29 7 30 8 31 9 32
REMARK SMILES IDX 23 33
REMARK H PARENT 23 34
REMARK Flexibility Score: inf
ROOT
ATOM      1  C   UNL     1      25.611  30.293  50.804  1.00  0.00     0.017 C 
ATOM      2  C   UNL     1      26.242  31.585  51.454  1.00  0.00     0.014 C 
ATOM      3  C   UNL     1      24.041  30.360  50.861  1.00  0.00     0.014 C 
ATOM      4  C   UNL     1      26.108  30.194  49.329  1.00  0.00     0.028 C 
ATOM      5  C   UNL     1      27.463  32.177  50.714  1.00  0.00     0.007 C 
ATOM      6  C   UNL     1      23.333  30.481  49.490  1.00  0.00     0.013 C 
ATOM      7  C   UNL     1      25.282  29.189  48.522  1.00  0.00    -0.064 C 
ATOM      8  C   UNL     1      27.655  30.057  49.250  1.00  0.00     0.015 C 
ATOM      9  C   UNL     1      28.426  31.117  50.113  1.00  0.00    -0.035 C 
ATOM     10  C   UNL     1      23.782  29.453  48.372  1.00  0.00    -0.006 C 
ATOM     11  C   UNL     1      25.849  28.178  47.840  1.00  0.00    -0.027 C 
ATOM     12  C   UNL     1      29.209  30.427  51.253  1.00  0.00     0.011 C 
ATOM     13  C   UNL     1      29.453  31.850  49.221  1.00  0.00     0.011 C 
ATOM     14  C   UNL     1      23.598  30.215  47.021  1.00  0.00     0.017 C 
ATOM     15  C   UNL     1      22.943  28.063  48.373  1.00  0.00    -0.020 C 
ATOM     16  C   UNL     1      25.049  27.304  46.929  1.00  0.00     0.032 C 
ATOM     17  C   UNL     1      23.668  26.899  47.523  1.00  0.00     0.006 C 
ATOM     18  C   UNL     1      22.726  27.560  49.829  1.00  0.00     0.008 C 
ATOM     19  C   UNL     1      21.520  28.336  47.776  1.00  0.00     0.012 C 
ATOM     20  C   UNL     1      23.677  25.428  48.166  1.00  0.00    -0.025 C 
ATOM     21  C   UNL     1      21.989  26.214  49.968  1.00  0.00     0.005 C 
ATOM     22  C   UNL     1      22.278  25.192  48.835  1.00  0.00     0.003 C 
ATOM     23  C   UNL     1      23.858  24.382  47.008  1.00  0.00     0.010 C 
ATOM     24  C   UNL     1      24.843  25.246  49.198  1.00  0.00     0.012 C 
ATOM     25  C   UNL     1      21.898  23.701  49.207  1.00  0.00    -0.006 C 
ATOM     26  C   UNL     1      23.536  22.931  47.396  1.00  0.00     0.033 C 
ATOM     27  C   UNL     1      22.120  22.787  47.960  1.00  0.00     0.120 C 
ATOM     28  C   UNL     1      22.686  23.119  50.413  1.00  0.00     0.014 C 
ATOM     29  C   UNL     1      20.396  23.635  49.597  1.00  0.00     0.014 C 
ENDROOT
BRANCH   1  30
ATOM     30  C   UNL     1      26.026  29.054  51.606  1.00  0.00     0.048 C 
ATOM     31  O   UNL     1      26.511  29.181  52.762  1.00  0.00    -0.550 OA
ATOM     32  O   UNL     1      25.759  27.773  51.139  1.00  0.00    -0.550 OA
ENDBRANCH   1  30
BRANCH  27  33
ATOM     33  O   UNL     1      21.200  23.097  46.937  1.00  0.00    -0.393 OA
ATOM     34  H   UNL     1      20.893  22.239  46.544  1.00  0.00     0.210 HD
ENDBRANCH  27  33
TORSDOF 2
ENDMDL
MODEL 2
REMARK VINA RESULT:    -0.187      1.861      2.571
REMARK INTER + INTRA:          -0.121
REMARK INTER:                  -0.200
REMARK INTRA:                   0.079
REMARK UNBOUND:                 0.082
REMARK SMILES CC1(C)CC[C@@]2(C(=O)[O-])CC[C@@]3(C)C(=CC[C@H]4[C@]5(C)CC[C@H](O)C(C)(C)[C@H]5CC[C@]43C)[C@@H]2C1
REMARK SMILES IDX 6 1 5 2 10 3 32 4 4 5 11 6 14 7 33 8 2 9 12 10 15 11 1 12
REMARK SMILES IDX 3 13 13 14 30 15 16 16 17 17 29 18 31 19 18 20 28 21 27 22
REMARK SMILES IDX 20 23 19 24 24 25 21 26 22 27 25 28 26 29 7 30 8 31 9 32
REMARK SMILES IDX 23 33
REMARK H PARENT 23 34
REMARK Flexibility Score: inf
ROOT
ATOM      1  C   UNL     1      25.112  27.926  50.857  1.00  0.00     0.017 C 
ATOM      2  C   UNL     1      26.166  28.886  51.535  1.00  0.00     0.014 C 
ATOM      3  C   UNL     1      23.662  28.520  50.992  1.00  0.00     0.014 C 
ATOM      4  C   UNL     1      25.502  27.754  49.356  1.00  0.00     0.028 C 
ATOM      5  C   UNL     1      27.494  29.070  50.765  1.00  0.00     0.007 C 
ATOM      6  C   UNL     1      22.999  28.957  49.664  1.00  0.00     0.013 C 
ATOM      7  C   UNL     1      24.359  27.140  48.544  1.00  0.00    -0.064 C 
ATOM      8  C   UNL     1      26.905  27.104  49.196  1.00  0.00     0.015 C 
ATOM      9  C   UNL     1      28.018  27.784  50.070  1.00  0.00    -0.035 C 
ATOM     10  C   UNL     1      23.035  27.908  48.479  1.00  0.00    -0.006 C 
ATOM     11  C   UNL     1      24.524  26.040  47.789  1.00  0.00    -0.027 C 
ATOM     12  C   UNL     1      28.550  26.801  51.138  1.00  0.00     0.011 C 
ATOM     13  C   UNL     1      29.207  28.176  49.165  1.00  0.00     0.011 C 
ATOM     14  C   UNL     1      23.084  28.766  47.175  1.00  0.00     0.017 C 
ATOM     15  C   UNL     1      21.772  26.888  48.456  1.00  0.00    -0.020 C 
ATOM     16  C   UNL     1      23.447  25.546  46.879  1.00  0.00     0.032 C 
ATOM     17  C   UNL     1      22.029  25.601  47.519  1.00  0.00     0.006 C 
ATOM     18  C   UNL     1      21.439  26.402  49.895  1.00  0.00     0.008 C 
ATOM     19  C   UNL     1      20.511  27.665  47.941  1.00  0.00     0.012 C 
ATOM     20  C   UNL     1      21.553  24.179  48.091  1.00  0.00    -0.025 C 
ATOM     21  C   UNL     1      20.290  25.381  50.007  1.00  0.00     0.005 C 
ATOM     22  C   UNL     1      20.178  24.393  48.815  1.00  0.00     0.003 C 
ATOM     23  C   UNL     1      21.331  23.205  46.878  1.00  0.00     0.010 C 
ATOM     24  C   UNL     1      22.616  23.548  49.056  1.00  0.00     0.012 C 
ATOM     25  C   UNL     1      19.321  23.101  49.134  1.00  0.00    -0.006 C 
ATOM     26  C   UNL     1      20.543  21.930  47.213  1.00  0.00     0.033 C 
ATOM     27  C   UNL     1      19.181  22.243  47.837  1.00  0.00     0.120 C 
ATOM     28  C   UNL     1      19.898  22.214  50.272  1.00  0.00     0.014 C 
ATOM     29  C   UNL     1      17.900  23.526  49.593  1.00  0.00     0.014 C 
ENDROOT
BRANCH   1  30
ATOM     30  C   UNL     1      25.101  26.575  51.579  1.00  0.00     0.048 C 
ATOM     31  O   UNL     1      25.636  26.458  52.714  1.00  0.00    -0.550 OA
ATOM     32  O   UNL     1      24.396  25.493  51.068  1.00  0.00    -0.550 OA
ENDBRANCH   1  30
BRANCH  27  33
ATOM     33  O   UNL     1      18.393  22.908  46.875  1.00  0.00    -0.393 OA
ATOM     34  H   UNL     1      18.792  23.806  46.734  1.00  0.00     0.210 HD
ENDBRANCH  27  33
TORSDOF 2
ENDMDL
MODEL 3
REMARK VINA RESULT:    -0.184      2.620      7.285
REMARK INTER + INTRA:          -0.118
REMARK INTER:                  -0.198
REMARK INTRA:                   0.079
REMARK UNBOUND:                 0.082
REMARK SMILES CC1(C)CC[C@@]2(C(=O)[O-])CC[C@@]3(C)C(=CC[C@H]4[C@]5(C)CC[C@H](O)C(C)(C)[C@H]5CC[C@]43C)[C@@H]2C1
REMARK SMILES IDX 6 1 5 2 10 3 32 4 4 5 11 6 14 7 33 8 2 9 12 10 15 11 1 12
REMARK SMILES IDX 3 13 13 14 30 15 16 16 17 17 29 18 31 19 18 20 28 21 27 22
REMARK SMILES IDX 20 23 19 24 24 25 21 26 22 27 25 28 26 29 7 30 8 31 9 32
REMARK SMILES IDX 23 33
REMARK H PARENT 23 34
REMARK Flexibility Score: inf
ROOT
ATOM      1  C   UNL     1      23.775  25.750  47.866  1.00  0.00     0.017 C 
ATOM      2  C   UNL     1      24.196  24.596  46.875  1.00  0.00     0.014 C 
ATOM      3  C   UNL     1      23.959  27.155  47.183  1.00  0.00     0.014 C 
ATOM      4  C   UNL     1      22.287  25.525  48.276  1.00  0.00     0.028 C 
ATOM      5  C   UNL     1      23.282  23.349  46.875  1.00  0.00     0.007 C 
ATOM      6  C   UNL     1      22.651  27.935  46.911  1.00  0.00     0.013 C 
ATOM      7  C   UNL     1      21.691  26.768  48.941  1.00  0.00    -0.064 C 
ATOM      8  C   UNL     1      22.091  24.171  49.016  1.00  0.00     0.015 C 
ATOM      9  C   UNL     1      22.740  22.949  48.275  1.00  0.00    -0.035 C 
ATOM     10  C   UNL     1      21.640  28.061  48.122  1.00  0.00    -0.006 C 
ATOM     11  C   UNL     1      21.098  26.724  50.146  1.00  0.00    -0.027 C 
ATOM     12  C   UNL     1      23.887  22.346  49.118  1.00  0.00     0.011 C 
ATOM     13  C   UNL     1      21.676  21.847  48.082  1.00  0.00     0.011 C 
ATOM     14  C   UNL     1      20.223  28.116  47.467  1.00  0.00     0.017 C 
ATOM     15  C   UNL     1      21.893  29.358  49.066  1.00  0.00    -0.020 C 
ATOM     16  C   UNL     1      20.380  27.907  50.710  1.00  0.00     0.032 C 
ATOM     17  C   UNL     1      21.139  29.248  50.488  1.00  0.00     0.006 C 
ATOM     18  C   UNL     1      23.414  29.558  49.319  1.00  0.00     0.008 C 
ATOM     19  C   UNL     1      21.392  30.635  48.307  1.00  0.00     0.012 C 
ATOM     20  C   UNL     1      21.963  29.716  51.784  1.00  0.00    -0.025 C 
ATOM     21  C   UNL     1      23.789  30.727  50.250  1.00  0.00     0.005 C 
ATOM     22  C   UNL     1      22.776  30.999  51.394  1.00  0.00     0.003 C 
ATOM     23  C   UNL     1      20.938  30.099  52.912  1.00  0.00     0.010 C 
ATOM     24  C   UNL     1      22.904  28.583  52.322  1.00  0.00     0.012 C 
ATOM     25  C   UNL     1      23.368  31.866  52.579  1.00  0.00    -0.006 C 
ATOM     26  C   UNL     1      21.535  30.895  54.081  1.00  0.00     0.033 C 
ATOM     27  C   UNL     1      22.234  32.173  53.609  1.00  0.00     0.120 C 
ATOM     28  C   UNL     1      24.565  31.208  53.320  1.00  0.00     0.014 C 
ATOM     29  C   UNL     1      23.893  33.216  52.018  1.00  0.00     0.014 C 
ENDROOT
BRANCH   1  30
ATOM     30  C   UNL     1      24.690  25.737  49.095  1.00  0.00     0.048 C 
ATOM     31  O   UNL     1      25.776  25.100  49.070  1.00  0.00    -0.550 OA
ATOM     32  O   UNL     1      24.413  26.524  50.206  1.00  0.00    -0.550 OA
ENDBRANCH   1  30
BRANCH  27  33
ATOM     33  O   UNL     1      21.264  33.030  53.051  1.00  0.00    -0.393 OA
ATOM     34  H   UNL     1      21.526  33.202  52.108  1.00  0.00     0.210 HD
ENDBRANCH  27  33
TORSDOF 2
ENDMDL
MODEL 4
REMARK VINA RESULT:    -0.179      3.406      6.358
REMARK INTER + INTRA:          -0.112
REMARK INTER:                  -0.194
REMARK INTRA:                   0.082
REMARK UNBOUND:                 0.082
REMARK SMILES CC1(C)CC[C@@]2(C(=O)[O-])CC[C@@]3(C)C(=CC[C@H]4[C@]5(C)CC[C@H](O)C(C)(C)[C@H]5CC[C@]43C)[C@@H]2C1
REMARK SMILES IDX 6 1 5 2 10 3 32 4 4 5 11 6 14 7 33 8 2 9 12 10 15 11 1 12
REMARK SMILES IDX 3 13 13 14 30 15 16 16 17 17 29 18 31 19 18 20 28 21 27 22
REMARK SMILES IDX 20 23 19 24 24 25 21 26 22 27 25 28 26 29 7 30 8 31 9 32
REMARK SMILES IDX 23 33
REMARK H PARENT 23 34
REMARK Flexibility Score: inf
ROOT
ATOM      1  C   UNL     1      25.266  24.459  47.849  1.00  0.00     0.017 C 
ATOM      2  C   UNL     1      26.433  23.460  47.485  1.00  0.00     0.014 C 
ATOM      3  C   UNL     1      24.044  24.252  46.881  1.00  0.00     0.014 C 
ATOM      4  C   UNL     1      24.848  24.204  49.330  1.00  0.00     0.028 C 
ATOM      5  C   UNL     1      27.160  22.816  48.688  1.00  0.00     0.007 C 
ATOM      6  C   UNL     1      22.762  23.694  47.543  1.00  0.00     0.013 C 
ATOM      7  C   UNL     1      23.507  24.865  49.659  1.00  0.00    -0.064 C 
ATOM      8  C   UNL     1      26.022  24.469  50.314  1.00  0.00     0.015 C 
ATOM      9  C   UNL     1      27.363  23.765  49.900  1.00  0.00    -0.035 C 
ATOM     10  C   UNL     1      22.277  24.421  48.863  1.00  0.00    -0.006 C 
ATOM     11  C   UNL     1      23.356  25.705  50.698  1.00  0.00    -0.027 C 
ATOM     12  C   UNL     1      28.447  24.814  49.559  1.00  0.00     0.011 C 
ATOM     13  C   UNL     1      27.884  22.925  51.087  1.00  0.00     0.011 C 
ATOM     14  C   UNL     1      21.579  23.308  49.709  1.00  0.00     0.017 C 
ATOM     15  C   UNL     1      21.270  25.668  48.604  1.00  0.00    -0.020 C 
ATOM     16  C   UNL     1      22.012  26.216  51.103  1.00  0.00     0.032 C 
ATOM     17  C   UNL     1      21.121  26.625  49.893  1.00  0.00     0.006 C 
ATOM     18  C   UNL     1      21.761  26.522  47.400  1.00  0.00     0.008 C 
ATOM     19  C   UNL     1      19.863  25.102  48.208  1.00  0.00     0.012 C 
ATOM     20  C   UNL     1      21.126  28.208  49.627  1.00  0.00    -0.025 C 
ATOM     21  C   UNL     1      20.922  27.774  47.081  1.00  0.00     0.005 C 
ATOM     22  C   UNL     1      20.301  28.474  48.320  1.00  0.00     0.003 C 
ATOM     23  C   UNL     1      20.399  28.915  50.828  1.00  0.00     0.010 C 
ATOM     24  C   UNL     1      22.582  28.779  49.513  1.00  0.00     0.012 C 
ATOM     25  C   UNL     1      19.841  29.964  48.048  1.00  0.00    -0.006 C 
ATOM     26  C   UNL     1      20.004  30.376  50.570  1.00  0.00     0.033 C 
ATOM     27  C   UNL     1      19.130  30.524  49.322  1.00  0.00     0.120 C 
ATOM     28  C   UNL     1      20.990  30.927  47.641  1.00  0.00     0.014 C 
ATOM     29  C   UNL     1      18.823  29.983  46.876  1.00  0.00     0.014 C 
ENDROOT
BRANCH   1  30
ATOM     30  C   UNL     1      25.740  25.903  47.655  1.00  0.00     0.048 C 
ATOM     31  O   UNL     1      26.785  26.143  46.993  1.00  0.00    -0.550 OA
ATOM     32  O   UNL     1      24.969  26.976  48.083  1.00  0.00    -0.550 OA
ENDBRANCH   1  30
BRANCH  27  33
ATOM     33  O   UNL     1      17.909  29.859  49.552  1.00  0.00    -0.393 OA
ATOM     34  H   UNL     1      17.855  29.105  48.908  1.00  0.00     0.210 HD
ENDBRANCH  27  33
TORSDOF 2
ENDMDL
MODEL 5
REMARK VINA RESULT:    -0.177      2.953      4.225
REMARK INTER + INTRA:          -0.110
REMARK INTER:                  -0.197
REMARK INTRA:                   0.087
REMARK UNBOUND:                 0.082
REMARK SMILES CC1(C)CC[C@@]2(C(=O)[O-])CC[C@@]3(C)C(=CC[C@H]4[C@]5(C)CC[C@H](O)C(C)(C)[C@H]5CC[C@]43C)[C@@H]2C1
REMARK SMILES IDX 6 1 5 2 10 3 32 4 4 5 11 6 14 7 33 8 2 9 12 10 15 11 1 12
REMARK SMILES IDX 3 13 13 14 30 15 16 16 17 17 29 18 31 19 18 20 28 21 27 22
REMARK SMILES IDX 20 23 19 24 24 25 21 26 22 27 25 28 26 29 7 30 8 31 9 32
REMARK SMILES IDX 23 33
REMARK H PARENT 23 34
REMARK Flexibility Score: inf
ROOT
ATOM      1  C   UNL     1      21.380  29.196  50.925  1.00  0.00     0.017 C 
ATOM      2  C   UNL     1      20.496  30.309  51.612  1.00  0.00     0.014 C 
ATOM      3  C   UNL     1      20.674  27.794  51.027  1.00  0.00     0.014 C 
ATOM      4  C   UNL     1      21.600  29.598  49.434  1.00  0.00     0.028 C 
ATOM      5  C   UNL     1      20.423  31.660  50.865  1.00  0.00     0.007 C 
ATOM      6  C   UNL     1      20.204  27.190  49.683  1.00  0.00     0.013 C 
ATOM      7  C   UNL     1      22.134  28.425  48.608  1.00  0.00    -0.064 C 
ATOM      8  C   UNL     1      22.358  30.949  49.307  1.00  0.00     0.015 C 
ATOM      9  C   UNL     1      21.754  32.096  50.193  1.00  0.00    -0.035 C 
ATOM     10  C   UNL     1      21.267  27.166  48.510  1.00  0.00    -0.006 C 
ATOM     11  C   UNL     1      23.253  28.518  47.868  1.00  0.00    -0.027 C 
ATOM     12  C   UNL     1      22.762  32.532  51.281  1.00  0.00     0.011 C 
ATOM     13  C   UNL     1      21.465  33.327  49.306  1.00  0.00     0.011 C 
ATOM     14  C   UNL     1      20.431  27.303  47.198  1.00  0.00     0.017 C 
ATOM     15  C   UNL     1      22.188  25.828  48.475  1.00  0.00    -0.020 C 
ATOM     16  C   UNL     1      23.673  27.423  46.943  1.00  0.00     0.032 C 
ATOM     17  C   UNL     1      23.502  26.002  47.556  1.00  0.00     0.006 C 
ATOM     18  C   UNL     1      22.629  25.434  49.913  1.00  0.00     0.008 C 
ATOM     19  C   UNL     1      21.323  24.640  47.929  1.00  0.00     0.012 C 
ATOM     20  C   UNL     1      24.876  25.408  48.135  1.00  0.00    -0.025 C 
ATOM     21  C   UNL     1      23.557  24.208  50.015  1.00  0.00     0.005 C 
ATOM     22  C   UNL     1      24.548  24.041  48.832  1.00  0.00     0.003 C 
ATOM     23  C   UNL     1      25.845  25.132  46.929  1.00  0.00     0.010 C 
ATOM     24  C   UNL     1      25.575  26.402  49.126  1.00  0.00     0.012 C 
ATOM     25  C   UNL     1      25.767  23.082  49.149  1.00  0.00    -0.006 C 
ATOM     26  C   UNL     1      27.051  24.243  47.263  1.00  0.00     0.033 C 
ATOM     27  C   UNL     1      26.628  22.898  47.859  1.00  0.00     0.120 C 
ATOM     28  C   UNL     1      26.682  23.569  50.307  1.00  0.00     0.014 C 
ATOM     29  C   UNL     1      25.229  21.690  49.577  1.00  0.00     0.014 C 
ENDROOT
BRANCH   1  30
ATOM     30  C   UNL     1      22.717  29.069  51.661  1.00  0.00     0.048 C 
ATOM     31  O   UNL     1      22.845  29.528  52.827  1.00  0.00    -0.550 OA
ATOM     32  O   UNL     1      23.768  28.336  51.122  1.00  0.00    -0.550 OA
ENDBRANCH   1  30
BRANCH  27  33
ATOM     33  O   UNL     1      25.916  22.181  46.876  1.00  0.00    -0.393 OA
ATOM     34  H   UNL     1      25.397  22.840  46.343  1.00  0.00     0.210 HD
ENDBRANCH  27  33
TORSDOF 2
ENDMDL
MODEL 6
REMARK VINA RESULT:    -0.174      0.934      1.017
REMARK INTER + INTRA:          -0.107
REMARK INTER:                  -0.186
REMARK INTRA:                   0.078
REMARK UNBOUND:                 0.082
REMARK SMILES CC1(C)CC[C@@]2(C(=O)[O-])CC[C@@]3(C)C(=CC[C@H]4[C@]5(C)CC[C@H](O)C(C)(C)[C@H]5CC[C@]43C)[C@@H]2C1
REMARK SMILES IDX 6 1 5 2 10 3 32 4 4 5 11 6 14 7 33 8 2 9 12 10 15 11 1 12
REMARK SMILES IDX 3 13 13 14 30 15 16 16 17 17 29 18 31 19 18 20 28 21 27 22
REMARK SMILES IDX 20 23 19 24 24 25 21 26 22 27 25 28 26 29 7 30 8 31 9 32
REMARK SMILES IDX 23 33
REMARK H PARENT 23 34
REMARK Flexibility Score: inf
ROOT
ATOM      1  C   UNL     1      25.174  30.905  50.848  1.00  0.00     0.017 C 
ATOM      2  C   UNL     1      25.574  32.288  51.496  1.00  0.00     0.014 C 
ATOM      3  C   UNL     1      23.667  30.571  51.154  1.00  0.00     0.014 C 
ATOM      4  C   UNL     1      25.419  30.997  49.310  1.00  0.00     0.028 C 
ATOM      5  C   UNL     1      26.469  33.199  50.626  1.00  0.00     0.007 C 
ATOM      6  C   UNL     1      22.728  30.565  49.925  1.00  0.00     0.013 C 
ATOM      7  C   UNL     1      24.736  29.849  48.562  1.00  0.00    -0.064 C 
ATOM      8  C   UNL     1      26.915  31.258  48.980  1.00  0.00     0.015 C 
ATOM      9  C   UNL     1      27.543  32.443  49.797  1.00  0.00    -0.035 C 
ATOM     10  C   UNL     1      23.213  29.731  48.670  1.00  0.00    -0.006 C 
ATOM     11  C   UNL     1      25.405  29.043  47.719  1.00  0.00    -0.027 C 
ATOM     12  C   UNL     1      28.654  31.927  50.740  1.00  0.00     0.011 C 
ATOM     13  C   UNL     1      28.192  33.448  48.819  1.00  0.00     0.011 C 
ATOM     14  C   UNL     1      22.621  30.476  47.431  1.00  0.00     0.017 C 
ATOM     15  C   UNL     1      22.750  28.174  48.687  1.00  0.00    -0.020 C 
ATOM     16  C   UNL     1      24.698  28.033  46.875  1.00  0.00     0.032 C 
ATOM     17  C   UNL     1      23.579  27.268  47.641  1.00  0.00     0.006 C 
ATOM     18  C   UNL     1      22.915  27.574  50.112  1.00  0.00     0.008 C 
ATOM     19  C   UNL     1      21.222  28.103  48.344  1.00  0.00     0.012 C 
ATOM     20  C   UNL     1      24.055  25.822  48.152  1.00  0.00    -0.025 C 
ATOM     21  C   UNL     1      22.562  26.081  50.253  1.00  0.00     0.005 C 
ATOM     22  C   UNL     1      22.891  25.213  49.009  1.00  0.00     0.003 C 
ATOM     23  C   UNL     1      24.283  24.904  46.897  1.00  0.00     0.010 C 
ATOM     24  C   UNL     1      25.390  25.899  48.970  1.00  0.00     0.012 C 
ATOM     25  C   UNL     1      22.953  23.660  49.311  1.00  0.00    -0.006 C 
ATOM     26  C   UNL     1      24.394  23.405  47.209  1.00  0.00     0.033 C 
ATOM     27  C   UNL     1      23.174  22.884  47.973  1.00  0.00     0.120 C 
ATOM     28  C   UNL     1      24.054  23.248  50.327  1.00  0.00     0.014 C 
ATOM     29  C   UNL     1      21.603  23.200  49.923  1.00  0.00     0.014 C 
ENDROOT
BRANCH   1  30
ATOM     30  C   UNL     1      26.008  29.781  51.470  1.00  0.00     0.048 C 
ATOM     31  O   UNL     1      26.634  29.977  52.545  1.00  0.00    -0.550 OA
ATOM     32  O   UNL     1      25.987  28.495  50.944  1.00  0.00    -0.550 OA
ENDBRANCH   1  30
BRANCH  27  33
ATOM     33  O   UNL     1      22.045  22.993  47.136  1.00  0.00    -0.393 OA
ATOM     34  H   UNL     1      21.909  22.109  46.703  1.00  0.00     0.210 HD
ENDBRANCH  27  33
TORSDOF 2
ENDMDL
MODEL 7
REMARK VINA RESULT:    -0.171      2.722      7.482
REMARK INTER + INTRA:          -0.104
REMARK INTER:                  -0.187
REMARK INTRA:                   0.083
REMARK UNBOUND:                 0.082
REMARK SMILES CC1(C)CC[C@@]2(C(=O)[O-])CC[C@@]3(C)C(=CC[C@H]4[C@]5(C)CC[C@H](O)C(C)(C)[C@H]5CC[C@]43C)[C@@H]2C1
REMARK SMILES IDX 6 1 5 2 10 3 32 4 4 5 11 6 14 7 33 8 2 9 12 10 15 11 1 12
REMARK SMILES IDX 3 13 13 14 30 15 16 16 17 17 29 18 31 19 18 20 28 21 27 22
REMARK SMILES IDX 20 23 19 24 24 25 21 26 22 27 25 28 26 29 7 30 8 31 9 32
REMARK SMILES IDX 23 33
REMARK H PARENT 23 34
REMARK Flexibility Score: inf
ROOT
ATOM      1  C   UNL     1      22.611  23.970  48.070  1.00  0.00     0.017 C 
ATOM      2  C   UNL     1      21.475  23.319  47.188  1.00  0.00     0.014 C 
ATOM      3  C   UNL     1      24.026  23.671  47.451  1.00  0.00     0.014 C 
ATOM      4  C   UNL     1      22.353  25.507  48.144  1.00  0.00     0.028 C 
ATOM      5  C   UNL     1      20.211  24.185  46.982  1.00  0.00     0.007 C 
ATOM      6  C   UNL     1      24.784  24.904  46.903  1.00  0.00     0.013 C 
ATOM      7  C   UNL     1      23.579  26.259  48.669  1.00  0.00    -0.064 C 
ATOM      8  C   UNL     1      20.989  25.830  48.816  1.00  0.00     0.015 C 
ATOM      9  C   UNL     1      19.787  25.010  48.227  1.00  0.00    -0.035 C 
ATOM     10  C   UNL     1      24.878  26.158  47.865  1.00  0.00    -0.006 C 
ATOM     11  C   UNL     1      23.510  27.100  49.716  1.00  0.00    -0.027 C 
ATOM     12  C   UNL     1      19.198  24.062  49.298  1.00  0.00     0.011 C 
ATOM     13  C   UNL     1      18.666  25.983  47.801  1.00  0.00     0.011 C 
ATOM     14  C   UNL     1      24.912  27.399  46.917  1.00  0.00     0.017 C 
ATOM     15  C   UNL     1      26.170  26.144  48.849  1.00  0.00    -0.020 C 
ATOM     16  C   UNL     1      24.674  27.948  50.116  1.00  0.00     0.032 C 
ATOM     17  C   UNL     1      26.032  27.187  50.072  1.00  0.00     0.006 C 
ATOM     18  C   UNL     1      26.398  24.719  49.429  1.00  0.00     0.008 C 
ATOM     19  C   UNL     1      27.445  26.494  48.006  1.00  0.00     0.012 C 
ATOM     20  C   UNL     1      26.503  26.676  51.519  1.00  0.00    -0.025 C 
ATOM     21  C   UNL     1      27.564  24.581  50.426  1.00  0.00     0.005 C 
ATOM     22  C   UNL     1      27.805  25.824  51.323  1.00  0.00     0.003 C 
ATOM     23  C   UNL     1      26.855  27.930  52.397  1.00  0.00     0.010 C 
ATOM     24  C   UNL     1      25.383  25.851  52.243  1.00  0.00     0.012 C 
ATOM     25  C   UNL     1      28.672  25.524  52.613  1.00  0.00    -0.006 C 
ATOM     26  C   UNL     1      27.651  27.619  53.673  1.00  0.00     0.033 C 
ATOM     27  C   UNL     1      28.947  26.861  53.372  1.00  0.00     0.120 C 
ATOM     28  C   UNL     1      28.030  24.503  53.594  1.00  0.00     0.014 C 
ATOM     29  C   UNL     1      30.037  24.917  52.187  1.00  0.00     0.014 C 
ENDROOT
BRANCH   1  30
ATOM     30  C   UNL     1      22.604  23.345  49.469  1.00  0.00     0.048 C 
ATOM     31  O   UNL     1      21.984  22.269  49.679  1.00  0.00    -0.550 OA
ATOM     32  O   UNL     1      23.379  23.871  50.495  1.00  0.00    -0.550 OA
ENDBRANCH   1  30
BRANCH  27  33
ATOM     33  O   UNL     1      29.791  27.703  52.620  1.00  0.00    -0.393 OA
ATOM     34  H   UNL     1      30.414  27.122  52.110  1.00  0.00     0.210 HD
ENDBRANCH  27  33
TORSDOF 2
ENDMDL
MODEL 8
REMARK VINA RESULT:    -0.170      2.403      3.793
REMARK INTER + INTRA:          -0.103
REMARK INTER:                  -0.185
REMARK INTRA:                   0.082
REMARK UNBOUND:                 0.082
REMARK SMILES CC1(C)CC[C@@]2(C(=O)[O-])CC[C@@]3(C)C(=CC[C@H]4[C@]5(C)CC[C@H](O)C(C)(C)[C@H]5CC[C@]43C)[C@@H]2C1
REMARK SMILES IDX 6 1 5 2 10 3 32 4 4 5 11 6 14 7 33 8 2 9 12 10 15 11 1 12
REMARK SMILES IDX 3 13 13 14 30 15 16 16 17 17 29 18 31 19 18 20 28 21 27 22
REMARK SMILES IDX 20 23 19 24 24 25 21 26 22 27 25 28 26 29 7 30 8 31 9 32
REMARK SMILES IDX 23 33
REMARK H PARENT 23 34
REMARK Flexibility Score: inf
ROOT
ATOM      1  C   UNL     1      23.777  30.791  48.170  1.00  0.00     0.017 C 
ATOM      2  C   UNL     1      24.377  32.223  47.885  1.00  0.00     0.014 C 
ATOM      3  C   UNL     1      23.851  29.897  46.877  1.00  0.00     0.014 C 
ATOM      4  C   UNL     1      24.584  30.144  49.337  1.00  0.00     0.028 C 
ATOM      5  C   UNL     1      25.255  32.815  49.012  1.00  0.00     0.007 C 
ATOM      6  C   UNL     1      24.811  28.687  46.964  1.00  0.00     0.013 C 
ATOM      7  C   UNL     1      24.314  28.642  49.445  1.00  0.00    -0.064 C 
ATOM      8  C   UNL     1      24.469  30.974  50.647  1.00  0.00     0.015 C 
ATOM      9  C   UNL     1      24.751  32.506  50.448  1.00  0.00    -0.035 C 
ATOM     10  C   UNL     1      24.668  27.763  48.241  1.00  0.00    -0.006 C 
ATOM     11  C   UNL     1      23.913  28.064  50.591  1.00  0.00    -0.027 C 
ATOM     12  C   UNL     1      23.479  33.336  50.738  1.00  0.00     0.011 C 
ATOM     13  C   UNL     1      25.839  32.957  51.448  1.00  0.00     0.011 C 
ATOM     14  C   UNL     1      26.103  27.206  48.505  1.00  0.00     0.017 C 
ATOM     15  C   UNL     1      23.599  26.553  48.070  1.00  0.00    -0.020 C 
ATOM     16  C   UNL     1      23.808  26.580  50.725  1.00  0.00     0.032 C 
ATOM     17  C   UNL     1      23.174  25.894  49.479  1.00  0.00     0.006 C 
ATOM     18  C   UNL     1      22.319  27.058  47.346  1.00  0.00     0.008 C 
ATOM     19  C   UNL     1      24.232  25.453  47.149  1.00  0.00     0.012 C 
ATOM     20  C   UNL     1      21.619  25.555  49.683  1.00  0.00    -0.025 C 
ATOM     21  C   UNL     1      21.196  26.016  47.169  1.00  0.00     0.005 C 
ATOM     22  C   UNL     1      21.073  24.989  48.326  1.00  0.00     0.003 C 
ATOM     23  C   UNL     1      21.494  24.433  50.776  1.00  0.00     0.010 C 
ATOM     24  C   UNL     1      20.801  26.808  50.151  1.00  0.00     0.012 C 
ATOM     25  C   UNL     1      19.681  24.235  48.365  1.00  0.00    -0.006 C 
ATOM     26  C   UNL     1      20.123  23.746  50.840  1.00  0.00     0.033 C 
ATOM     27  C   UNL     1      19.715  23.151  49.489  1.00  0.00     0.120 C 
ATOM     28  C   UNL     1      18.455  25.164  48.589  1.00  0.00     0.014 C 
ATOM     29  C   UNL     1      19.443  23.521  47.007  1.00  0.00     0.014 C 
ENDROOT
BRANCH   1  30
ATOM     30  C   UNL     1      22.293  30.914  48.532  1.00  0.00     0.048 C 
ATOM     31  O   UNL     1      21.665  31.976  48.278  1.00  0.00    -0.550 OA
ATOM     32  O   UNL     1      21.580  29.826  49.021  1.00  0.00    -0.550 OA
ENDBRANCH   1  30
BRANCH  27  33
ATOM     33  O   UNL     1      20.618  22.118  49.167  1.00  0.00    -0.393 OA
ATOM     34  H   UNL     1      21.126  22.407  48.364  1.00  0.00     0.210 HD
ENDBRANCH  27  33
TORSDOF 2
ENDMDL
MODEL 9
REMARK VINA RESULT:    -0.169      1.812      7.595
REMARK INTER + INTRA:          -0.102
REMARK INTER:                  -0.186
REMARK INTRA:                   0.084
REMARK UNBOUND:                 0.082
REMARK SMILES CC1(C)CC[C@@]2(C(=O)[O-])CC[C@@]3(C)C(=CC[C@H]4[C@]5(C)CC[C@H](O)C(C)(C)[C@H]5CC[C@]43C)[C@@H]2C1
REMARK SMILES IDX 6 1 5 2 10 3 32 4 4 5 11 6 14 7 33 8 2 9 12 10 15 11 1 12
REMARK SMILES IDX 3 13 13 14 30 15 16 16 17 17 29 18 31 19 18 20 28 21 27 22
REMARK SMILES IDX 20 23 19 24 24 25 21 26 22 27 25 28 26 29 7 30 8 31 9 32
REMARK SMILES IDX 23 33
REMARK H PARENT 23 34
REMARK Flexibility Score: inf
ROOT
ATOM      1  C   UNL     1      24.077  26.680  48.185  1.00  0.00     0.017 C 
ATOM      2  C   UNL     1      23.487  25.527  47.283  1.00  0.00     0.014 C 
ATOM      3  C   UNL     1      25.539  27.040  47.728  1.00  0.00     0.014 C 
ATOM      4  C   UNL     1      23.140  27.920  48.070  1.00  0.00     0.028 C 
ATOM      5  C   UNL     1      22.005  25.691  46.875  1.00  0.00     0.007 C 
ATOM      6  C   UNL     1      25.713  28.452  47.119  1.00  0.00     0.013 C 
ATOM      7  C   UNL     1      23.808  29.185  48.616  1.00  0.00    -0.064 C 
ATOM      8  C   UNL     1      21.705  27.608  48.582  1.00  0.00     0.015 C 
ATOM      9  C   UNL     1      21.096  26.291  47.983  1.00  0.00    -0.035 C 
ATOM     10  C   UNL     1      25.101  29.657  47.945  1.00  0.00    -0.006 C 
ATOM     11  C   UNL     1      23.231  29.953  49.556  1.00  0.00    -0.027 C 
ATOM     12  C   UNL     1      20.874  25.238  49.093  1.00  0.00     0.011 C 
ATOM     13  C   UNL     1      19.719  26.605  47.358  1.00  0.00     0.011 C 
ATOM     14  C   UNL     1      24.685  30.716  46.875  1.00  0.00     0.017 C 
ATOM     15  C   UNL     1      26.120  30.300  49.034  1.00  0.00    -0.020 C 
ATOM     16  C   UNL     1      23.818  31.266  49.963  1.00  0.00     0.032 C 
ATOM     17  C   UNL     1      25.366  31.224  50.120  1.00  0.00     0.006 C 
ATOM     18  C   UNL     1      26.897  29.179  49.781  1.00  0.00     0.008 C 
ATOM     19  C   UNL     1      27.190  31.157  48.272  1.00  0.00     0.012 C 
ATOM     20  C   UNL     1      25.830  31.072  51.649  1.00  0.00    -0.025 C 
ATOM     21  C   UNL     1      27.860  29.655  50.885  1.00  0.00     0.005 C 
ATOM     22  C   UNL     1      27.391  30.916  51.661  1.00  0.00     0.003 C 
ATOM     23  C   UNL     1      25.456  32.392  52.415  1.00  0.00     0.010 C 
ATOM     24  C   UNL     1      25.128  29.862  52.358  1.00  0.00     0.012 C 
ATOM     25  C   UNL     1      28.127  31.125  53.046  1.00  0.00    -0.006 C 
ATOM     26  C   UNL     1      26.136  32.558  53.781  1.00  0.00     0.033 C 
ATOM     27  C   UNL     1      27.662  32.475  53.678  1.00  0.00     0.120 C 
ATOM     28  C   UNL     1      27.903  29.979  54.071  1.00  0.00     0.014 C 
ATOM     29  C   UNL     1      29.660  31.201  52.809  1.00  0.00     0.014 C 
ENDROOT
BRANCH   1  30
ATOM     30  C   UNL     1      24.178  26.201  49.637  1.00  0.00     0.048 C 
ATOM     31  O   UNL     1      24.144  24.970  49.903  1.00  0.00    -0.550 OA
ATOM     32  O   UNL     1      24.439  27.092  50.671  1.00  0.00    -0.550 OA
ENDBRANCH   1  30
BRANCH  27  33
ATOM     33  O   UNL     1      28.116  33.571  52.916  1.00  0.00    -0.393 OA
ATOM     34  H   UNL     1      27.940  33.363  51.961  1.00  0.00     0.210 HD
ENDBRANCH  27  33
TORSDOF 2
ENDMDL
