MODEL 1
REMARK VINA RESULT:    -6.125      0.000      0.000
REMARK INTER + INTRA:          -6.125
REMARK INTER:                  -6.125
REMARK INTRA:                   0.000
REMARK UNBOUND:                 0.000
REMARK SMILES O=c1ccc2ccccc2o1
REMARK SMILES IDX 7 1 8 2 9 3 10 4 5 5 6 6 4 7 3 8 2 9 1 10 11 11
REMARK H PARENT
REMARK Flexibility Score: inf
ROOT
ATOM      1  C   UNL     1      48.017  58.973  76.626  1.00  0.00     0.001 A 
ATOM      2  C   UNL     1      48.431  58.763  75.306  1.00  0.00     0.004 A 
ATOM      3  C   UNL     1      49.771  58.948  74.950  1.00  0.00     0.048 A 
ATOM      4  C   UNL     1      50.704  59.343  75.915  1.00  0.00     0.138 A 
ATOM      5  C   UNL     1      50.287  59.556  77.249  1.00  0.00     0.018 A 
ATOM      6  C   UNL     1      48.942  59.370  77.599  1.00  0.00     0.012 A 
ATOM      7  C   UNL     1      51.242  59.951  78.191  1.00  0.00     0.019 A 
ATOM      8  C   UNL     1      52.567  60.122  77.790  1.00  0.00     0.094 A 
ATOM      9  C   UNL     1      52.907  59.894  76.453  1.00  0.00     0.336 A 
ATOM     10  O   UNL     1      54.098  60.043  76.074  1.00  0.00    -0.246 OA
ATOM     11  O   UNL     1      51.979  59.518  75.576  1.00  0.00    -0.423 OA
ENDROOT
TORSDOF 0
ENDMDL
MODEL 2
REMARK VINA RESULT:    -5.910      1.889      4.353
REMARK INTER + INTRA:          -5.910
REMARK INTER:                  -5.910
REMARK INTRA:                   0.000
REMARK UNBOUND:                 0.000
REMARK SMILES O=c1ccc2ccccc2o1
REMARK SMILES IDX 7 1 8 2 9 3 10 4 5 5 6 6 4 7 3 8 2 9 1 10 11 11
REMARK H PARENT
REMARK Flexibility Score: inf
ROOT
ATOM      1  C   UNL     1      53.223  60.079  76.158  1.00  0.00     0.001 A 
ATOM      2  C   UNL     1      52.920  60.275  77.510  1.00  0.00     0.004 A 
ATOM      3  C   UNL     1      51.624  60.041  77.981  1.00  0.00     0.048 A 
ATOM      4  C   UNL     1      50.625  59.608  77.101  1.00  0.00     0.138 A 
ATOM      5  C   UNL     1      50.931  59.410  75.736  1.00  0.00     0.018 A 
ATOM      6  C   UNL     1      52.232  59.647  75.269  1.00  0.00     0.012 A 
ATOM      7  C   UNL     1      49.912  58.978  74.881  1.00  0.00     0.019 A 
ATOM      8  C   UNL     1      48.635  58.757  75.396  1.00  0.00     0.094 A 
ATOM      9  C   UNL     1      48.405  58.975  76.758  1.00  0.00     0.336 A 
ATOM     10  O   UNL     1      47.259  58.780  77.241  1.00  0.00    -0.246 OA
ATOM     11  O   UNL     1      49.393  59.386  77.551  1.00  0.00    -0.423 OA
ENDROOT
TORSDOF 0
ENDMDL
MODEL 3
REMARK VINA RESULT:    -5.891      1.455      3.762
REMARK INTER + INTRA:          -5.891
REMARK INTER:                  -5.891
REMARK INTRA:                   0.000
REMARK UNBOUND:                 0.000
REMARK SMILES O=c1ccc2ccccc2o1
REMARK SMILES IDX 7 1 8 2 9 3 10 4 5 5 6 6 4 7 3 8 2 9 1 10 11 11
REMARK H PARENT
REMARK Flexibility Score: inf
ROOT
ATOM      1  C   UNL     1      52.548  60.319  77.913  1.00  0.00     0.001 A 
ATOM      2  C   UNL     1      53.209  60.169  76.688  1.00  0.00     0.004 A 
ATOM      3  C   UNL     1      52.515  59.702  75.567  1.00  0.00     0.048 A 
ATOM      4  C   UNL     1      51.155  59.385  75.666  1.00  0.00     0.138 A 
ATOM      5  C   UNL     1      50.488  59.536  76.903  1.00  0.00     0.018 A 
ATOM      6  C   UNL     1      51.189  60.003  78.023  1.00  0.00     0.012 A 
ATOM      7  C   UNL     1      49.129  59.210  76.971  1.00  0.00     0.019 A 
ATOM      8  C   UNL     1      48.479  58.748  75.827  1.00  0.00     0.094 A 
ATOM      9  C   UNL     1      49.204  58.623  74.637  1.00  0.00     0.336 A 
ATOM     10  O   UNL     1      48.633  58.209  73.595  1.00  0.00    -0.246 OA
ATOM     11  O   UNL     1      50.496  58.940  74.599  1.00  0.00    -0.423 OA
ENDROOT
TORSDOF 0
ENDMDL
MODEL 4
REMARK VINA RESULT:    -5.841      1.005      2.185
REMARK INTER + INTRA:          -5.841
REMARK INTER:                  -5.841
REMARK INTRA:                   0.000
REMARK UNBOUND:                 0.000
REMARK SMILES O=c1ccc2ccccc2o1
REMARK SMILES IDX 7 1 8 2 9 3 10 4 5 5 6 6 4 7 3 8 2 9 1 10 11 11
REMARK H PARENT
REMARK Flexibility Score: inf
ROOT
ATOM      1  C   UNL     1      47.822  58.784  76.222  1.00  0.00     0.001 A 
ATOM      2  C   UNL     1      48.253  59.121  77.510  1.00  0.00     0.004 A 
ATOM      3  C   UNL     1      49.587  59.477  77.734  1.00  0.00     0.048 A 
ATOM      4  C   UNL     1      50.496  59.498  76.670  1.00  0.00     0.138 A 
ATOM      5  C   UNL     1      50.060  59.157  75.370  1.00  0.00     0.018 A 
ATOM      6  C   UNL     1      48.722  58.800  75.151  1.00  0.00     0.012 A 
ATOM      7  C   UNL     1      50.992  59.186  74.326  1.00  0.00     0.019 A 
ATOM      8  C   UNL     1      52.311  59.547  74.598  1.00  0.00     0.094 A 
ATOM      9  C   UNL     1      52.670  59.872  75.910  1.00  0.00     0.336 A 
ATOM     10  O   UNL     1      53.856  60.201  76.173  1.00  0.00    -0.246 OA
ATOM     11  O   UNL     1      51.765  59.836  76.885  1.00  0.00    -0.423 OA
ENDROOT
TORSDOF 0
ENDMDL
MODEL 5
REMARK VINA RESULT:    -5.766     12.243     12.984
REMARK INTER + INTRA:          -5.766
REMARK INTER:                  -5.766
REMARK INTRA:                   0.000
REMARK UNBOUND:                 0.000
REMARK SMILES O=c1ccc2ccccc2o1
REMARK SMILES IDX 7 1 8 2 9 3 10 4 5 5 6 6 4 7 3 8 2 9 1 10 11 11
REMARK H PARENT
REMARK Flexibility Score: inf
ROOT
ATOM      1  C   UNL     1      42.758  55.567  85.411  1.00  0.00     0.001 A 
ATOM      2  C   UNL     1      43.107  55.350  86.749  1.00  0.00     0.004 A 
ATOM      3  C   UNL     1      43.933  54.276  87.095  1.00  0.00     0.048 A 
ATOM      4  C   UNL     1      44.417  53.415  86.102  1.00  0.00     0.138 A 
ATOM      5  C   UNL     1      44.065  53.634  84.752  1.00  0.00     0.018 A 
ATOM      6  C   UNL     1      43.235  54.712  84.411  1.00  0.00     0.012 A 
ATOM      7  C   UNL     1      44.562  52.757  83.783  1.00  0.00     0.019 A 
ATOM      8  C   UNL     1      45.383  51.701  84.175  1.00  0.00     0.094 A 
ATOM      9  C   UNL     1      45.689  51.545  85.530  1.00  0.00     0.336 A 
ATOM     10  O   UNL     1      46.430  50.597  85.902  1.00  0.00    -0.246 OA
ATOM     11  O   UNL     1      45.203  52.394  86.433  1.00  0.00    -0.423 OA
ENDROOT
TORSDOF 0
ENDMDL
MODEL 6
REMARK VINA RESULT:    -5.699     10.428     12.134
REMARK INTER + INTRA:          -5.699
REMARK INTER:                  -5.699
REMARK INTRA:                   0.000
REMARK UNBOUND:                 0.000
REMARK SMILES O=c1ccc2ccccc2o1
REMARK SMILES IDX 7 1 8 2 9 3 10 4 5 5 6 6 4 7 3 8 2 9 1 10 11 11
REMARK H PARENT
REMARK Flexibility Score: inf
ROOT
ATOM      1  C   UNL     1      58.854  55.239  85.614  1.00  0.00     0.001 A 
ATOM      2  C   UNL     1      58.473  55.305  86.959  1.00  0.00     0.004 A 
ATOM      3  C   UNL     1      57.655  56.348  87.407  1.00  0.00     0.048 A 
ATOM      4  C   UNL     1      57.215  57.328  86.511  1.00  0.00     0.138 A 
ATOM      5  C   UNL     1      57.600  57.262  85.153  1.00  0.00     0.018 A 
ATOM      6  C   UNL     1      58.420  56.215  84.709  1.00  0.00     0.012 A 
ATOM      7  C   UNL     1      57.145  58.256  84.281  1.00  0.00     0.019 A 
ATOM      8  C   UNL     1      56.331  59.276  84.773  1.00  0.00     0.094 A 
ATOM      9  C   UNL     1      55.991  59.279  86.130  1.00  0.00     0.336 A 
ATOM     10  O   UNL     1      55.256  60.191  86.591  1.00  0.00    -0.246 OA
ATOM     11  O   UNL     1      56.437  58.320  86.939  1.00  0.00    -0.423 OA
ENDROOT
TORSDOF 0
ENDMDL
MODEL 7
REMARK VINA RESULT:    -5.594     10.478     12.093
REMARK INTER + INTRA:          -5.594
REMARK INTER:                  -5.594
REMARK INTRA:                   0.000
REMARK UNBOUND:                 0.000
REMARK SMILES O=c1ccc2ccccc2o1
REMARK SMILES IDX 7 1 8 2 9 3 10 4 5 5 6 6 4 7 3 8 2 9 1 10 11 11
REMARK H PARENT
REMARK Flexibility Score: inf
ROOT
ATOM      1  C   UNL     1      55.843  59.618  86.074  1.00  0.00     0.001 A 
ATOM      2  C   UNL     1      56.305  59.382  84.774  1.00  0.00     0.004 A 
ATOM      3  C   UNL     1      57.112  58.272  84.506  1.00  0.00     0.048 A 
ATOM      4  C   UNL     1      57.459  57.392  85.538  1.00  0.00     0.138 A 
ATOM      5  C   UNL     1      56.993  57.631  86.850  1.00  0.00     0.018 A 
ATOM      6  C   UNL     1      56.186  58.746  87.113  1.00  0.00     0.012 A 
ATOM      7  C   UNL     1      57.358  56.734  87.860  1.00  0.00     0.019 A 
ATOM      8  C   UNL     1      58.164  55.641  87.545  1.00  0.00     0.094 A 
ATOM      9  C   UNL     1      58.589  55.468  86.224  1.00  0.00     0.336 A 
ATOM     10  O   UNL     1      59.316  54.486  85.921  1.00  0.00    -0.246 OA
ATOM     11  O   UNL     1      58.228  56.336  85.281  1.00  0.00    -0.423 OA
ENDROOT
TORSDOF 0
ENDMDL
MODEL 8
REMARK VINA RESULT:    -5.513      5.775      6.657
REMARK INTER + INTRA:          -5.513
REMARK INTER:                  -5.513
REMARK INTRA:                   0.000
REMARK UNBOUND:                 0.000
REMARK SMILES O=c1ccc2ccccc2o1
REMARK SMILES IDX 7 1 8 2 9 3 10 4 5 5 6 6 4 7 3 8 2 9 1 10 11 11
REMARK H PARENT
REMARK Flexibility Score: inf
ROOT
ATOM      1  C   UNL     1      50.068  52.266  77.311  1.00  0.00     0.001 A 
ATOM      2  C   UNL     1      48.751  52.089  76.872  1.00  0.00     0.004 A 
ATOM      3  C   UNL     1      48.297  52.750  75.726  1.00  0.00     0.048 A 
ATOM      4  C   UNL     1      49.159  53.592  75.014  1.00  0.00     0.138 A 
ATOM      5  C   UNL     1      50.488  53.771  75.457  1.00  0.00     0.018 A 
ATOM      6  C   UNL     1      50.938  53.107  76.607  1.00  0.00     0.012 A 
ATOM      7  C   UNL     1      51.326  54.619  74.725  1.00  0.00     0.019 A 
ATOM      8  C   UNL     1      50.829  55.257  73.589  1.00  0.00     0.094 A 
ATOM      9  C   UNL     1      49.502  55.032  73.210  1.00  0.00     0.336 A 
ATOM     10  O   UNL     1      49.037  55.599  72.187  1.00  0.00    -0.246 OA
ATOM     11  O   UNL     1      48.725  54.221  73.924  1.00  0.00    -0.423 OA
ENDROOT
TORSDOF 0
ENDMDL
MODEL 9
REMARK VINA RESULT:    -5.489      1.872      3.782
REMARK INTER + INTRA:          -5.489
REMARK INTER:                  -5.489
REMARK INTRA:                   0.000
REMARK UNBOUND:                 0.000
REMARK SMILES O=c1ccc2ccccc2o1
REMARK SMILES IDX 7 1 8 2 9 3 10 4 5 5 6 6 4 7 3 8 2 9 1 10 11 11
REMARK H PARENT
REMARK Flexibility Score: inf
ROOT
ATOM      1  C   UNL     1      53.455  60.131  76.372  1.00  0.00     0.001 A 
ATOM      2  C   UNL     1      52.914  59.766  75.135  1.00  0.00     0.004 A 
ATOM      3  C   UNL     1      51.565  59.410  75.034  1.00  0.00     0.048 A 
ATOM      4  C   UNL     1      50.751  59.421  76.172  1.00  0.00     0.138 A 
ATOM      5  C   UNL     1      51.297  59.789  77.422  1.00  0.00     0.018 A 
ATOM      6  C   UNL     1      52.650  60.144  77.517  1.00  0.00     0.012 A 
ATOM      7  C   UNL     1      50.458  59.790  78.542  1.00  0.00     0.019 A 
ATOM      8  C   UNL     1      49.120  59.428  78.393  1.00  0.00     0.094 A 
ATOM      9  C   UNL     1      48.649  59.074  77.124  1.00  0.00     0.336 A 
ATOM     10  O   UNL     1      47.443  58.746  76.971  1.00  0.00    -0.246 OA
ATOM     11  O   UNL     1      49.467  59.082  76.075  1.00  0.00    -0.423 OA
ENDROOT
TORSDOF 0
ENDMDL
