MODEL 1
REMARK VINA RESULT:    -6.730      0.000      0.000
REMARK INTER + INTRA:         -11.644
REMARK INTER:                 -10.467
REMARK INTRA:                  -1.177
REMARK UNBOUND:                -1.177
REMARK SMILES COc1cc(CNC(=O)CCCCC=CC(C)C)ccc1O
REMARK SMILES IDX 11 1 12 2 13 3 14 4 15 5 16 6 17 7 18 8 10 9 8 10 9 11 7 12
REMARK SMILES IDX 6 14 5 15 4 16 19 17 3 18 20 19 21 20 2 21 1 22 22 23
REMARK H PARENT 7 13 22 24
REMARK Flexibility Score: inf
ROOT
ATOM      1  C   UNL     1     163.407 153.135 151.964  1.00  0.00     0.010 C 
ENDROOT
BRANCH   1   2
ATOM      2  C   UNL     1     163.707 154.647 152.028  1.00  0.00     0.005 C 
BRANCH   2   3
ATOM      3  C   UNL     1     165.205 154.996 151.959  1.00  0.00     0.027 C 
BRANCH   3   4
ATOM      4  C   UNL     1     165.480 156.169 151.051  1.00  0.00    -0.031 C 
ATOM      5  C   UNL     1     165.360 157.463 151.404  1.00  0.00    -0.028 C 
BRANCH   5   6
ATOM      6  C   UNL     1     165.004 157.961 152.790  1.00  0.00     0.005 C 
ATOM      7  C   UNL     1     166.276 158.107 153.627  1.00  0.00     0.012 C 
ATOM      8  C   UNL     1     164.269 159.299 152.685  1.00  0.00     0.012 C 
ENDBRANCH   5   6
ENDBRANCH   3   4
ENDBRANCH   2   3
ENDBRANCH   1   2
BRANCH   1   9
ATOM      9  C   UNL     1     163.114 152.604 150.552  1.00  0.00     0.100 C 
BRANCH   9  10
ATOM     10  C   UNL     1     164.226 151.737 150.037  1.00  0.00     0.220 C 
ATOM     11  O   UNL     1     164.157 151.273 148.868  1.00  0.00    -0.275 OA
ATOM     12  N   UNL     1     165.339 151.410 150.883  1.00  0.00    -0.352 N 
ATOM     13  H   UNL     1     165.359 151.774 151.862  1.00  0.00     0.163 HD
BRANCH  12  14
ATOM     14  C   UNL     1     166.443 150.566 150.433  1.00  0.00     0.151 C 
BRANCH  14  15
ATOM     15  C   UNL     1     167.488 151.400 149.742  1.00  0.00    -0.025 A 
ATOM     16  C   UNL     1     168.319 150.833 148.762  1.00  0.00     0.056 A 
ATOM     17  C   UNL     1     167.612 152.761 150.049  1.00  0.00     0.009 A 
ATOM     18  C   UNL     1     169.279 151.621 148.096  1.00  0.00     0.160 A 
ATOM     19  C   UNL     1     168.563 153.546 149.395  1.00  0.00     0.050 A 
ATOM     20  C   UNL     1     169.396 152.981 148.420  1.00  0.00     0.157 A 
BRANCH  18  21
ATOM     21  O   UNL     1     170.129 151.094 147.111  1.00  0.00    -0.493 OA
ATOM     22  C   UNL     1     170.672 149.778 147.137  1.00  0.00     0.278 C 
ENDBRANCH  18  21
BRANCH  20  23
ATOM     23  O   UNL     1     170.345 153.766 147.767  1.00  0.00    -0.504 OA
ATOM     24  H   UNL     1     170.365 153.841 146.756  1.00  0.00     0.293 HD
ENDBRANCH  20  23
ENDBRANCH  14  15
ENDBRANCH  12  14
ENDBRANCH   9  10
ENDBRANCH   1   9
TORSDOF 10
ENDMDL
MODEL 2
REMARK VINA RESULT:    -6.602      2.731      5.079
REMARK INTER + INTRA:         -11.446
REMARK INTER:                  -9.365
REMARK INTRA:                  -2.081
REMARK UNBOUND:                -1.177
REMARK SMILES COc1cc(CNC(=O)CCCCC=CC(C)C)ccc1O
REMARK SMILES IDX 11 1 12 2 13 3 14 4 15 5 16 6 17 7 18 8 10 9 8 10 9 11 7 12
REMARK SMILES IDX 6 14 5 15 4 16 19 17 3 18 20 19 21 20 2 21 1 22 22 23
REMARK H PARENT 7 13 22 24
REMARK Flexibility Score: inf
ROOT
ATOM      1  C   UNL     1     165.960 154.763 151.303  1.00  0.00     0.010 C 
ENDROOT
BRANCH   1   2
ATOM      2  C   UNL     1     164.510 154.263 151.474  1.00  0.00     0.005 C 
BRANCH   2   3
ATOM      3  C   UNL     1     164.367 152.730 151.465  1.00  0.00     0.027 C 
BRANCH   3   4
ATOM      4  C   UNL     1     163.366 152.254 150.441  1.00  0.00    -0.031 C 
ATOM      5  C   UNL     1     163.676 151.760 149.228  1.00  0.00    -0.028 C 
BRANCH   5   6
ATOM      6  C   UNL     1     165.083 151.528 148.715  1.00  0.00     0.005 C 
ATOM      7  C   UNL     1     165.385 150.028 148.700  1.00  0.00     0.012 C 
ATOM      8  C   UNL     1     165.225 152.121 147.311  1.00  0.00     0.012 C 
ENDBRANCH   5   6
ENDBRANCH   3   4
ENDBRANCH   2   3
ENDBRANCH   1   2
BRANCH   1   9
ATOM      9  C   UNL     1     166.473 154.738 149.854  1.00  0.00     0.100 C 
BRANCH   9  10
ATOM     10  C   UNL     1     167.749 153.959 149.726  1.00  0.00     0.220 C 
ATOM     11  O   UNL     1     168.378 153.626 150.766  1.00  0.00    -0.275 OA
ATOM     12  N   UNL     1     168.267 153.629 148.429  1.00  0.00    -0.352 N 
ATOM     13  H   UNL     1     167.751 153.947 147.578  1.00  0.00     0.163 HD
BRANCH  12  14
ATOM     14  C   UNL     1     169.507 152.879 148.248  1.00  0.00     0.151 C 
BRANCH  14  15
ATOM     15  C   UNL     1     169.209 151.414 148.075  1.00  0.00    -0.025 A 
ATOM     16  C   UNL     1     169.259 150.541 149.174  1.00  0.00     0.056 A 
ATOM     17  C   UNL     1     168.844 150.919 146.816  1.00  0.00     0.009 A 
ATOM     18  C   UNL     1     168.954 149.174 149.015  1.00  0.00     0.160 A 
ATOM     19  C   UNL     1     168.543 149.565 146.652  1.00  0.00     0.050 A 
ATOM     20  C   UNL     1     168.597 148.692 147.747  1.00  0.00     0.157 A 
BRANCH  18  21
ATOM     21  O   UNL     1     168.992 148.269 150.087  1.00  0.00    -0.493 OA
ATOM     22  C   UNL     1     167.853 147.862 150.839  1.00  0.00     0.278 C 
ENDBRANCH  18  21
BRANCH  20  23
ATOM     23  O   UNL     1     168.296 147.342 147.583  1.00  0.00    -0.504 OA
ATOM     24  H   UNL     1     168.332 146.896 146.673  1.00  0.00     0.293 HD
ENDBRANCH  20  23
ENDBRANCH  14  15
ENDBRANCH  12  14
ENDBRANCH   9  10
ENDBRANCH   1   9
TORSDOF 10
ENDMDL
MODEL 3
REMARK VINA RESULT:    -6.465      3.607      4.510
REMARK INTER + INTRA:         -11.232
REMARK INTER:                  -8.953
REMARK INTRA:                  -2.280
REMARK UNBOUND:                -1.177
REMARK SMILES COc1cc(CNC(=O)CCCCC=CC(C)C)ccc1O
REMARK SMILES IDX 11 1 12 2 13 3 14 4 15 5 16 6 17 7 18 8 10 9 8 10 9 11 7 12
REMARK SMILES IDX 6 14 5 15 4 16 19 17 3 18 20 19 21 20 2 21 1 22 22 23
REMARK H PARENT 7 13 22 24
REMARK Flexibility Score: inf
ROOT
ATOM      1  C   UNL     1     163.680 150.846 149.079  1.00  0.00     0.010 C 
ENDROOT
BRANCH   1   2
ATOM      2  C   UNL     1     163.719 151.929 150.177  1.00  0.00     0.005 C 
BRANCH   2   3
ATOM      3  C   UNL     1     164.863 151.755 151.193  1.00  0.00     0.027 C 
BRANCH   3   4
ATOM      4  C   UNL     1     165.964 150.867 150.670  1.00  0.00    -0.031 C 
ATOM      5  C   UNL     1     167.126 151.303 150.147  1.00  0.00    -0.028 C 
BRANCH   5   6
ATOM      6  C   UNL     1     167.555 152.753 150.064  1.00  0.00     0.005 C 
ATOM      7  C   UNL     1     169.070 152.853 150.254  1.00  0.00     0.012 C 
ATOM      8  C   UNL     1     167.141 153.338 148.712  1.00  0.00     0.012 C 
ENDBRANCH   5   6
ENDBRANCH   3   4
ENDBRANCH   2   3
ENDBRANCH   1   2
BRANCH   1   9
ATOM      9  C   UNL     1     163.366 151.379 147.672  1.00  0.00     0.100 C 
BRANCH   9  10
ATOM     10  C   UNL     1     164.572 151.349 146.780  1.00  0.00     0.220 C 
ATOM     11  O   UNL     1     164.735 152.265 145.929  1.00  0.00    -0.275 OA
ATOM     12  N   UNL     1     165.512 150.268 146.869  1.00  0.00    -0.352 N 
ATOM     13  H   UNL     1     165.339 149.499 147.555  1.00  0.00     0.163 HD
BRANCH  12  14
ATOM     14  C   UNL     1     166.697 150.188 146.020  1.00  0.00     0.151 C 
BRANCH  14  15
ATOM     15  C   UNL     1     167.925 149.960 146.860  1.00  0.00    -0.025 A 
ATOM     16  C   UNL     1     168.034 148.821 147.673  1.00  0.00     0.056 A 
ATOM     17  C   UNL     1     168.987 150.874 146.806  1.00  0.00     0.009 A 
ATOM     18  C   UNL     1     169.195 148.596 148.438  1.00  0.00     0.160 A 
ATOM     19  C   UNL     1     170.139 150.658 147.565  1.00  0.00     0.050 A 
ATOM     20  C   UNL     1     170.247 149.523 148.380  1.00  0.00     0.157 A 
BRANCH  18  21
ATOM     21  O   UNL     1     169.342 147.470 149.263  1.00  0.00    -0.493 OA
ATOM     22  C   UNL     1     169.819 146.204 148.820  1.00  0.00     0.278 C 
ENDBRANCH  18  21
BRANCH  20  23
ATOM     23  O   UNL     1     171.397 149.308 149.136  1.00  0.00    -0.504 OA
ATOM     24  H   UNL     1     172.243 148.931 148.720  1.00  0.00     0.293 HD
ENDBRANCH  20  23
ENDBRANCH  14  15
ENDBRANCH  12  14
ENDBRANCH   9  10
ENDBRANCH   1   9
TORSDOF 10
ENDMDL
MODEL 4
REMARK VINA RESULT:    -6.447      2.371      3.558
REMARK INTER + INTRA:         -11.204
REMARK INTER:                  -9.533
REMARK INTRA:                  -1.670
REMARK UNBOUND:                -1.177
REMARK SMILES COc1cc(CNC(=O)CCCCC=CC(C)C)ccc1O
REMARK SMILES IDX 11 1 12 2 13 3 14 4 15 5 16 6 17 7 18 8 10 9 8 10 9 11 7 12
REMARK SMILES IDX 6 14 5 15 4 16 19 17 3 18 20 19 21 20 2 21 1 22 22 23
REMARK H PARENT 7 13 22 24
REMARK Flexibility Score: inf
ROOT
ATOM      1  C   UNL     1     163.920 151.386 150.755  1.00  0.00     0.010 C 
ENDROOT
BRANCH   1   2
ATOM      2  C   UNL     1     163.887 152.545 151.773  1.00  0.00     0.005 C 
BRANCH   2   3
ATOM      3  C   UNL     1     163.752 153.940 151.135  1.00  0.00     0.027 C 
BRANCH   3   4
ATOM      4  C   UNL     1     164.842 154.883 151.583  1.00  0.00    -0.031 C 
ATOM      5  C   UNL     1     166.120 154.844 151.160  1.00  0.00    -0.028 C 
BRANCH   5   6
ATOM      6  C   UNL     1     166.662 153.897 150.109  1.00  0.00     0.005 C 
ATOM      7  C   UNL     1     166.499 154.521 148.722  1.00  0.00     0.012 C 
ATOM      8  C   UNL     1     168.135 153.596 150.396  1.00  0.00     0.012 C 
ENDBRANCH   5   6
ENDBRANCH   3   4
ENDBRANCH   2   3
ENDBRANCH   1   2
BRANCH   1   9
ATOM      9  C   UNL     1     163.653 151.809 149.302  1.00  0.00     0.100 C 
BRANCH   9  10
ATOM     10  C   UNL     1     164.379 150.934 148.321  1.00  0.00     0.220 C 
ATOM     11  O   UNL     1     164.360 149.683 148.475  1.00  0.00    -0.275 OA
ATOM     12  N   UNL     1     165.120 151.520 147.240  1.00  0.00    -0.352 N 
ATOM     13  H   UNL     1     165.155 152.560 147.152  1.00  0.00     0.163 HD
BRANCH  12  14
ATOM     14  C   UNL     1     165.849 150.715 146.263  1.00  0.00     0.151 C 
BRANCH  14  15
ATOM     15  C   UNL     1     167.229 150.400 146.773  1.00  0.00    -0.025 A 
ATOM     16  C   UNL     1     167.769 149.113 146.623  1.00  0.00     0.056 A 
ATOM     17  C   UNL     1     167.999 151.407 147.372  1.00  0.00     0.009 A 
ATOM     18  C   UNL     1     169.072 148.827 147.078  1.00  0.00     0.160 A 
ATOM     19  C   UNL     1     169.290 151.128 147.827  1.00  0.00     0.050 A 
ATOM     20  C   UNL     1     169.828 149.843 147.682  1.00  0.00     0.157 A 
BRANCH  18  21
ATOM     21  O   UNL     1     169.648 147.554 146.947  1.00  0.00    -0.493 OA
ATOM     22  C   UNL     1     169.378 146.654 145.877  1.00  0.00     0.278 C 
ENDBRANCH  18  21
BRANCH  20  23
ATOM     23  O   UNL     1     171.116 149.566 148.135  1.00  0.00    -0.504 OA
ATOM     24  H   UNL     1     171.613 148.731 147.844  1.00  0.00     0.293 HD
ENDBRANCH  20  23
ENDBRANCH  14  15
ENDBRANCH  12  14
ENDBRANCH   9  10
ENDBRANCH   1   9
TORSDOF 10
ENDMDL
MODEL 5
REMARK VINA RESULT:    -6.407      2.412      3.778
REMARK INTER + INTRA:         -11.142
REMARK INTER:                  -9.481
REMARK INTRA:                  -1.662
REMARK UNBOUND:                -1.177
REMARK SMILES COc1cc(CNC(=O)CCCCC=CC(C)C)ccc1O
REMARK SMILES IDX 11 1 12 2 13 3 14 4 15 5 16 6 17 7 18 8 10 9 8 10 9 11 7 12
REMARK SMILES IDX 6 14 5 15 4 16 19 17 3 18 20 19 21 20 2 21 1 22 22 23
REMARK H PARENT 7 13 22 24
REMARK Flexibility Score: inf
ROOT
ATOM      1  C   UNL     1     163.332 152.160 150.798  1.00  0.00     0.010 C 
ENDROOT
BRANCH   1   2
ATOM      2  C   UNL     1     163.220 153.625 151.268  1.00  0.00     0.005 C 
BRANCH   2   3
ATOM      3  C   UNL     1     164.497 154.175 151.929  1.00  0.00     0.027 C 
BRANCH   3   4
ATOM      4  C   UNL     1     165.148 155.259 151.106  1.00  0.00    -0.031 C 
ATOM      5  C   UNL     1     166.159 155.068 150.238  1.00  0.00    -0.028 C 
BRANCH   5   6
ATOM      6  C   UNL     1     166.764 153.724 149.885  1.00  0.00     0.005 C 
ATOM      7  C   UNL     1     166.750 153.536 148.367  1.00  0.00     0.012 C 
ATOM      8  C   UNL     1     168.193 153.642 150.427  1.00  0.00     0.012 C 
ENDBRANCH   5   6
ENDBRANCH   3   4
ENDBRANCH   2   3
ENDBRANCH   1   2
BRANCH   1   9
ATOM      9  C   UNL     1     163.594 151.995 149.293  1.00  0.00     0.100 C 
BRANCH   9  10
ATOM     10  C   UNL     1     164.210 150.663 148.974  1.00  0.00     0.220 C 
ATOM     11  O   UNL     1     164.121 150.206 147.803  1.00  0.00    -0.275 OA
ATOM     12  N   UNL     1     164.861 149.903 150.002  1.00  0.00    -0.352 N 
ATOM     13  H   UNL     1     164.892 150.282 150.974  1.00  0.00     0.163 HD
BRANCH  12  14
ATOM     14  C   UNL     1     165.471 148.600 149.746  1.00  0.00     0.151 C 
BRANCH  14  15
ATOM     15  C   UNL     1     166.971 148.712 149.776  1.00  0.00    -0.025 A 
ATOM     16  C   UNL     1     167.770 147.566 149.916  1.00  0.00     0.056 A 
ATOM     17  C   UNL     1     167.582 149.965 149.626  1.00  0.00     0.009 A 
ATOM     18  C   UNL     1     169.175 147.670 149.917  1.00  0.00     0.160 A 
ATOM     19  C   UNL     1     168.974 150.074 149.629  1.00  0.00     0.050 A 
ATOM     20  C   UNL     1     169.771 148.932 149.774  1.00  0.00     0.157 A 
BRANCH  18  21
ATOM     21  O   UNL     1     170.009 146.549 150.056  1.00  0.00    -0.493 OA
ATOM     22  C   UNL     1     170.384 145.688 148.986  1.00  0.00     0.278 C 
ENDBRANCH  18  21
BRANCH  20  23
ATOM     23  O   UNL     1     171.161 149.042 149.776  1.00  0.00    -0.504 OA
ATOM     24  H   UNL     1     171.755 148.251 150.000  1.00  0.00     0.293 HD
ENDBRANCH  20  23
ENDBRANCH  14  15
ENDBRANCH  12  14
ENDBRANCH   9  10
ENDBRANCH   1   9
TORSDOF 10
ENDMDL
MODEL 6
REMARK VINA RESULT:    -6.392      2.271      5.213
REMARK INTER + INTRA:         -11.119
REMARK INTER:                  -9.333
REMARK INTRA:                  -1.786
REMARK UNBOUND:                -1.177
REMARK SMILES COc1cc(CNC(=O)CCCCC=CC(C)C)ccc1O
REMARK SMILES IDX 11 1 12 2 13 3 14 4 15 5 16 6 17 7 18 8 10 9 8 10 9 11 7 12
REMARK SMILES IDX 6 14 5 15 4 16 19 17 3 18 20 19 21 20 2 21 1 22 22 23
REMARK H PARENT 7 13 22 24
REMARK Flexibility Score: inf
ROOT
ATOM      1  C   UNL     1     163.849 153.380 152.169  1.00  0.00     0.010 C 
ENDROOT
BRANCH   1   2
ATOM      2  C   UNL     1     163.233 153.039 150.797  1.00  0.00     0.005 C 
BRANCH   2   3
ATOM      3  C   UNL     1     163.728 151.711 150.196  1.00  0.00     0.027 C 
BRANCH   3   4
ATOM      4  C   UNL     1     164.986 151.213 150.864  1.00  0.00    -0.031 C 
ATOM      5  C   UNL     1     165.597 150.044 150.589  1.00  0.00    -0.028 C 
BRANCH   5   6
ATOM      6  C   UNL     1     165.169 149.069 149.512  1.00  0.00     0.005 C 
ATOM      7  C   UNL     1     166.369 148.228 149.073  1.00  0.00     0.012 C 
ATOM      8  C   UNL     1     164.047 148.173 150.043  1.00  0.00     0.012 C 
ENDBRANCH   5   6
ENDBRANCH   3   4
ENDBRANCH   2   3
ENDBRANCH   1   2
BRANCH   1   9
ATOM      9  C   UNL     1     164.351 154.827 152.298  1.00  0.00     0.100 C 
BRANCH   9  10
ATOM     10  C   UNL     1     165.442 155.131 151.313  1.00  0.00     0.220 C 
ATOM     11  O   UNL     1     165.413 156.218 150.675  1.00  0.00    -0.275 OA
ATOM     12  N   UNL     1     166.486 154.177 151.072  1.00  0.00    -0.352 N 
ATOM     13  H   UNL     1     166.472 153.266 151.583  1.00  0.00     0.163 HD
BRANCH  12  14
ATOM     14  C   UNL     1     167.567 154.422 150.120  1.00  0.00     0.151 C 
BRANCH  14  15
ATOM     15  C   UNL     1     168.014 153.127 149.496  1.00  0.00    -0.025 A 
ATOM     16  C   UNL     1     167.316 152.581 148.407  1.00  0.00     0.056 A 
ATOM     17  C   UNL     1     169.157 152.476 149.980  1.00  0.00     0.009 A 
ATOM     18  C   UNL     1     167.752 151.382 147.807  1.00  0.00     0.160 A 
ATOM     19  C   UNL     1     169.592 151.287 149.391  1.00  0.00     0.050 A 
ATOM     20  C   UNL     1     168.894 150.739 148.308  1.00  0.00     0.157 A 
BRANCH  18  21
ATOM     21  O   UNL     1     167.082 150.804 146.718  1.00  0.00    -0.493 OA
ATOM     22  C   UNL     1     165.725 151.066 146.375  1.00  0.00     0.278 C 
ENDBRANCH  18  21
BRANCH  20  23
ATOM     23  O   UNL     1     169.329 149.553 147.720  1.00  0.00    -0.504 OA
ATOM     24  H   UNL     1     169.415 148.695 148.255  1.00  0.00     0.293 HD
ENDBRANCH  20  23
ENDBRANCH  14  15
ENDBRANCH  12  14
ENDBRANCH   9  10
ENDBRANCH   1   9
TORSDOF 10
ENDMDL
MODEL 7
REMARK VINA RESULT:    -6.374      2.440      4.943
REMARK INTER + INTRA:         -11.091
REMARK INTER:                  -8.839
REMARK INTRA:                  -2.252
REMARK UNBOUND:                -1.177
REMARK SMILES COc1cc(CNC(=O)CCCCC=CC(C)C)ccc1O
REMARK SMILES IDX 11 1 12 2 13 3 14 4 15 5 16 6 17 7 18 8 10 9 8 10 9 11 7 12
REMARK SMILES IDX 6 14 5 15 4 16 19 17 3 18 20 19 21 20 2 21 1 22 22 23
REMARK H PARENT 7 13 22 24
REMARK Flexibility Score: inf
ROOT
ATOM      1  C   UNL     1     164.394 154.007 151.054  1.00  0.00     0.010 C 
ENDROOT
BRANCH   1   2
ATOM      2  C   UNL     1     164.785 152.606 151.568  1.00  0.00     0.005 C 
BRANCH   2   3
ATOM      3  C   UNL     1     164.135 151.446 150.792  1.00  0.00     0.027 C 
BRANCH   3   4
ATOM      4  C   UNL     1     163.367 151.923 149.584  1.00  0.00    -0.031 C 
ATOM      5  C   UNL     1     163.733 151.716 148.305  1.00  0.00    -0.028 C 
BRANCH   5   6
ATOM      6  C   UNL     1     164.934 150.906 147.861  1.00  0.00     0.005 C 
ATOM      7  C   UNL     1     164.570 149.420 147.832  1.00  0.00     0.012 C 
ATOM      8  C   UNL     1     165.392 151.376 146.478  1.00  0.00     0.012 C 
ENDBRANCH   5   6
ENDBRANCH   3   4
ENDBRANCH   2   3
ENDBRANCH   1   2
BRANCH   1   9
ATOM      9  C   UNL     1     165.573 154.981 150.907  1.00  0.00     0.100 C 
BRANCH   9  10
ATOM     10  C   UNL     1     166.570 154.505 149.891  1.00  0.00     0.220 C 
ATOM     11  O   UNL     1     166.308 154.625 148.664  1.00  0.00    -0.275 OA
ATOM     12  N   UNL     1     167.793 153.885 150.314  1.00  0.00    -0.352 N 
ATOM     13  H   UNL     1     167.975 153.760 151.335  1.00  0.00     0.163 HD
BRANCH  12  14
ATOM     14  C   UNL     1     168.794 153.398 149.367  1.00  0.00     0.151 C 
BRANCH  14  15
ATOM     15  C   UNL     1     168.561 151.943 149.065  1.00  0.00    -0.025 A 
ATOM     16  C   UNL     1     168.904 151.409 147.812  1.00  0.00     0.056 A 
ATOM     17  C   UNL     1     168.029 151.101 150.051  1.00  0.00     0.009 A 
ATOM     18  C   UNL     1     168.710 150.041 147.540  1.00  0.00     0.160 A 
ATOM     19  C   UNL     1     167.832 149.744 149.786  1.00  0.00     0.050 A 
ATOM     20  C   UNL     1     168.170 149.212 148.535  1.00  0.00     0.157 A 
BRANCH  18  21
ATOM     21  O   UNL     1     169.040 149.469 146.302  1.00  0.00    -0.493 OA
ATOM     22  C   UNL     1     170.332 148.977 145.960  1.00  0.00     0.278 C 
ENDBRANCH  18  21
BRANCH  20  23
ATOM     23  O   UNL     1     167.974 147.858 148.272  1.00  0.00    -0.504 OA
ATOM     24  H   UNL     1     168.681 147.300 147.807  1.00  0.00     0.293 HD
ENDBRANCH  20  23
ENDBRANCH  14  15
ENDBRANCH  12  14
ENDBRANCH   9  10
ENDBRANCH   1   9
TORSDOF 10
ENDMDL
MODEL 8
REMARK VINA RESULT:    -6.367      3.154      7.341
REMARK INTER + INTRA:         -11.079
REMARK INTER:                  -9.791
REMARK INTRA:                  -1.288
REMARK UNBOUND:                -1.177
REMARK SMILES COc1cc(CNC(=O)CCCCC=CC(C)C)ccc1O
REMARK SMILES IDX 11 1 12 2 13 3 14 4 15 5 16 6 17 7 18 8 10 9 8 10 9 11 7 12
REMARK SMILES IDX 6 14 5 15 4 16 19 17 3 18 20 19 21 20 2 21 1 22 22 23
REMARK H PARENT 7 13 22 24
REMARK Flexibility Score: inf
ROOT
ATOM      1  C   UNL     1     168.917 152.319 150.209  1.00  0.00     0.010 C 
ENDROOT
BRANCH   1   2
ATOM      2  C   UNL     1     168.992 151.238 149.111  1.00  0.00     0.005 C 
BRANCH   2   3
ATOM      3  C   UNL     1     167.837 150.221 149.148  1.00  0.00     0.027 C 
BRANCH   3   4
ATOM      4  C   UNL     1     166.970 150.382 150.372  1.00  0.00    -0.031 C 
ATOM      5  C   UNL     1     165.661 150.700 150.356  1.00  0.00    -0.028 C 
BRANCH   5   6
ATOM      6  C   UNL     1     164.822 150.875 149.107  1.00  0.00     0.005 C 
ATOM      7  C   UNL     1     164.302 149.514 148.641  1.00  0.00     0.012 C 
ATOM      8  C   UNL     1     163.659 151.828 149.396  1.00  0.00     0.012 C 
ENDBRANCH   5   6
ENDBRANCH   3   4
ENDBRANCH   2   3
ENDBRANCH   1   2
BRANCH   1   9
ATOM      9  C   UNL     1     168.610 153.732 149.690  1.00  0.00     0.100 C 
BRANCH   9  10
ATOM     10  C   UNL     1     167.145 154.051 149.763  1.00  0.00     0.220 C 
ATOM     11  O   UNL     1     166.462 154.067 148.704  1.00  0.00    -0.275 OA
ATOM     12  N   UNL     1     166.537 154.370 151.023  1.00  0.00    -0.352 N 
ATOM     13  H   UNL     1     167.128 154.388 151.884  1.00  0.00     0.163 HD
BRANCH  12  14
ATOM     14  C   UNL     1     165.118 154.694 151.149  1.00  0.00     0.151 C 
BRANCH  14  15
ATOM     15  C   UNL     1     164.947 156.113 151.620  1.00  0.00    -0.025 A 
ATOM     16  C   UNL     1     165.175 157.188 150.746  1.00  0.00     0.056 A 
ATOM     17  C   UNL     1     164.522 156.367 152.931  1.00  0.00     0.009 A 
ATOM     18  C   UNL     1     164.988 158.515 151.181  1.00  0.00     0.160 A 
ATOM     19  C   UNL     1     164.338 157.680 153.369  1.00  0.00     0.050 A 
ATOM     20  C   UNL     1     164.570 158.753 152.499  1.00  0.00     0.157 A 
BRANCH  18  21
ATOM     21  O   UNL     1     165.205 159.616 150.339  1.00  0.00    -0.493 OA
ATOM     22  C   UNL     1     164.858 159.656 148.959  1.00  0.00     0.278 C 
ENDBRANCH  18  21
BRANCH  20  23
ATOM     23  O   UNL     1     164.385 160.064 152.936  1.00  0.00    -0.504 OA
ATOM     24  H   UNL     1     164.338 160.293 153.923  1.00  0.00     0.293 HD
ENDBRANCH  20  23
ENDBRANCH  14  15
ENDBRANCH  12  14
ENDBRANCH   9  10
ENDBRANCH   1   9
TORSDOF 10
ENDMDL
MODEL 9
REMARK VINA RESULT:    -6.316      1.658      2.107
REMARK INTER + INTRA:         -11.001
REMARK INTER:                 -10.075
REMARK INTRA:                  -0.926
REMARK UNBOUND:                -1.177
REMARK SMILES COc1cc(CNC(=O)CCCCC=CC(C)C)ccc1O
REMARK SMILES IDX 11 1 12 2 13 3 14 4 15 5 16 6 17 7 18 8 10 9 8 10 9 11 7 12
REMARK SMILES IDX 6 14 5 15 4 16 19 17 3 18 20 19 21 20 2 21 1 22 22 23
REMARK H PARENT 7 13 22 24
REMARK Flexibility Score: inf
ROOT
ATOM      1  C   UNL     1     164.140 152.472 151.077  1.00  0.00     0.010 C 
ENDROOT
BRANCH   1   2
ATOM      2  C   UNL     1     163.248 153.633 151.562  1.00  0.00     0.005 C 
BRANCH   2   3
ATOM      3  C   UNL     1     164.025 154.801 152.198  1.00  0.00     0.027 C 
BRANCH   3   4
ATOM      4  C   UNL     1     165.147 155.291 151.315  1.00  0.00    -0.031 C 
ATOM      5  C   UNL     1     165.465 156.584 151.117  1.00  0.00    -0.028 C 
BRANCH   5   6
ATOM      6  C   UNL     1     164.802 157.761 151.803  1.00  0.00     0.005 C 
ATOM      7  C   UNL     1     165.772 158.383 152.810  1.00  0.00     0.012 C 
ATOM      8  C   UNL     1     164.373 158.794 150.757  1.00  0.00     0.012 C 
ENDBRANCH   5   6
ENDBRANCH   3   4
ENDBRANCH   2   3
ENDBRANCH   1   2
BRANCH   1   9
ATOM      9  C   UNL     1     163.762 151.915 149.695  1.00  0.00     0.100 C 
BRANCH   9  10
ATOM     10  C   UNL     1     164.870 152.089 148.698  1.00  0.00     0.220 C 
ATOM     11  O   UNL     1     164.707 151.684 147.515  1.00  0.00    -0.275 OA
ATOM     12  N   UNL     1     166.117 152.677 149.097  1.00  0.00    -0.352 N 
ATOM     13  H   UNL     1     166.246 152.972 150.091  1.00  0.00     0.163 HD
BRANCH  12  14
ATOM     14  C   UNL     1     167.229 152.863 148.168  1.00  0.00     0.151 C 
BRANCH  14  15
ATOM     15  C   UNL     1     168.309 151.851 148.439  1.00  0.00    -0.025 A 
ATOM     16  C   UNL     1     168.867 151.104 147.390  1.00  0.00     0.056 A 
ATOM     17  C   UNL     1     168.790 151.675 149.744  1.00  0.00     0.009 A 
ATOM     18  C   UNL     1     169.897 150.176 147.641  1.00  0.00     0.160 A 
ATOM     19  C   UNL     1     169.808 150.755 150.000  1.00  0.00     0.050 A 
ATOM     20  C   UNL     1     170.363 150.006 148.954  1.00  0.00     0.157 A 
BRANCH  18  21
ATOM     21  O   UNL     1     170.481 149.410 146.620  1.00  0.00    -0.493 OA
ATOM     22  C   UNL     1     169.798 148.407 145.875  1.00  0.00     0.278 C 
ENDBRANCH  18  21
BRANCH  20  23
ATOM     23  O   UNL     1     171.380 149.088 149.210  1.00  0.00    -0.504 OA
ATOM     24  H   UNL     1     171.180 148.111 149.394  1.00  0.00     0.293 HD
ENDBRANCH  20  23
ENDBRANCH  14  15
ENDBRANCH  12  14
ENDBRANCH   9  10
ENDBRANCH   1   9
TORSDOF 10
ENDMDL
