MODEL 1
REMARK VINA RESULT:    -2.764      0.000      0.000
REMARK INTER + INTRA:          -4.483
REMARK INTER:                  -4.219
REMARK INTRA:                  -0.264
REMARK UNBOUND:                -0.264
REMARK SMILES O=C([O-])CCCCCCCCC(=O)[O-]
REMARK SMILES IDX 7 1 6 2 5 3 4 4 2 5 1 6 3 7 8 8 9 9 10 10 11 11 12 12 13 13
REMARK SMILES IDX 14 14
REMARK H PARENT
REMARK Flexibility Score: inf
ROOT
ATOM      1  C   UNL     1      76.365  91.184  78.456  1.00  0.00     0.000 C 
ENDROOT
BRANCH   1   2
ATOM      2  C   UNL     1      76.686  91.587  77.005  1.00  0.00     0.000 C 
BRANCH   2   3
ATOM      3  C   UNL     1      75.459  91.842  76.111  1.00  0.00     0.006 C 
BRANCH   3   4
ATOM      4  C   UNL     1      75.225  90.729  75.082  1.00  0.00     0.053 C 
BRANCH   4   5
ATOM      5  C   UNL     1      74.787  91.310  73.775  1.00  0.00     0.041 C 
ATOM      6  O   UNL     1      73.604  91.149  73.374  1.00  0.00    -0.550 OA
ATOM      7  O   UNL     1      75.672  92.071  73.022  1.00  0.00    -0.550 OA
ENDBRANCH   4   5
ENDBRANCH   3   4
ENDBRANCH   2   3
ENDBRANCH   1   2
BRANCH   1   8
ATOM      8  C   UNL     1      75.033  91.770  78.959  1.00  0.00     0.000 C 
BRANCH   8   9
ATOM      9  C   UNL     1      74.359  90.880  80.016  1.00  0.00     0.000 C 
BRANCH   9  10
ATOM     10  C   UNL     1      72.952  91.372  80.395  1.00  0.00     0.006 C 
BRANCH  10  11
ATOM     11  C   UNL     1      72.079  90.245  80.962  1.00  0.00     0.053 C 
BRANCH  11  12
ATOM     12  C   UNL     1      72.887  89.254  81.743  1.00  0.00     0.041 C 
ATOM     13  O   UNL     1      73.237  89.511  82.925  1.00  0.00    -0.550 OA
ATOM     14  O   UNL     1      73.227  88.033  81.175  1.00  0.00    -0.550 OA
ENDBRANCH  11  12
ENDBRANCH  10  11
ENDBRANCH   9  10
ENDBRANCH   8   9
ENDBRANCH   1   8
TORSDOF 9
ENDMDL
MODEL 2
REMARK VINA RESULT:    -2.753     13.274     14.398
REMARK INTER + INTRA:          -4.466
REMARK INTER:                  -3.488
REMARK INTRA:                  -0.978
REMARK UNBOUND:                -0.264
REMARK SMILES O=C([O-])CCCCCCCCC(=O)[O-]
REMARK SMILES IDX 7 1 6 2 5 3 4 4 2 5 1 6 3 7 8 8 9 9 10 10 11 11 12 12 13 13
REMARK SMILES IDX 14 14
REMARK H PARENT
REMARK Flexibility Score: inf
ROOT
ATOM      1  C   UNL     1      76.630  90.369  91.994  1.00  0.00     0.000 C 
ENDROOT
BRANCH   1   2
ATOM      2  C   UNL     1      78.067  90.334  92.548  1.00  0.00     0.000 C 
BRANCH   2   3
ATOM      3  C   UNL     1      78.689  88.930  92.662  1.00  0.00     0.006 C 
BRANCH   3   4
ATOM      4  C   UNL     1      77.742  87.815  92.201  1.00  0.00     0.053 C 
BRANCH   4   5
ATOM      5  C   UNL     1      78.210  87.235  90.905  1.00  0.00     0.041 C 
ATOM      6  O   UNL     1      78.867  87.941  90.094  1.00  0.00    -0.550 OA
ATOM      7  O   UNL     1      77.965  85.899  90.612  1.00  0.00    -0.550 OA
ENDBRANCH   4   5
ENDBRANCH   3   4
ENDBRANCH   2   3
ENDBRANCH   1   2
BRANCH   1   8
ATOM      8  C   UNL     1      75.627  91.005  92.973  1.00  0.00     0.000 C 
BRANCH   8   9
ATOM      9  C   UNL     1      74.211  90.423  92.826  1.00  0.00     0.000 C 
BRANCH   9  10
ATOM     10  C   UNL     1      74.201  88.884  92.818  1.00  0.00     0.006 C 
BRANCH  10  11
ATOM     11  C   UNL     1      73.472  88.317  91.593  1.00  0.00     0.053 C 
BRANCH  11  12
ATOM     12  C   UNL     1      74.397  87.544  90.703  1.00  0.00     0.041 C 
ATOM     13  O   UNL     1      75.004  88.122  89.763  1.00  0.00    -0.550 OA
ATOM     14  O   UNL     1      74.612  86.191  90.933  1.00  0.00    -0.550 OA
ENDBRANCH  11  12
ENDBRANCH  10  11
ENDBRANCH   9  10
ENDBRANCH   8   9
ENDBRANCH   1   8
TORSDOF 9
ENDMDL
MODEL 3
REMARK VINA RESULT:    -2.722      1.455      6.606
REMARK INTER + INTRA:          -4.419
REMARK INTER:                  -3.938
REMARK INTRA:                  -0.481
REMARK UNBOUND:                -0.264
REMARK SMILES O=C([O-])CCCCCCCCC(=O)[O-]
REMARK SMILES IDX 7 1 6 2 5 3 4 4 2 5 1 6 3 7 8 8 9 9 10 10 11 11 12 12 13 13
REMARK SMILES IDX 14 14
REMARK H PARENT
REMARK Flexibility Score: inf
ROOT
ATOM      1  C   UNL     1      76.456  91.379  77.959  1.00  0.00     0.000 C 
ENDROOT
BRANCH   1   2
ATOM      2  C   UNL     1      75.217  92.125  78.488  1.00  0.00     0.000 C 
BRANCH   2   3
ATOM      3  C   UNL     1      74.881  91.865  79.968  1.00  0.00     0.006 C 
BRANCH   3   4
ATOM      4  C   UNL     1      74.582  90.390  80.265  1.00  0.00     0.053 C 
BRANCH   4   5
ATOM      5  C   UNL     1      73.271  90.256  80.972  1.00  0.00     0.041 C 
ATOM      6  O   UNL     1      73.199  89.626  82.061  1.00  0.00    -0.550 OA
ATOM      7  O   UNL     1      72.136  90.867  80.454  1.00  0.00    -0.550 OA
ENDBRANCH   4   5
ENDBRANCH   3   4
ENDBRANCH   2   3
ENDBRANCH   1   2
BRANCH   1   8
ATOM      8  C   UNL     1      76.776  91.715  76.491  1.00  0.00     0.000 C 
BRANCH   8   9
ATOM      9  C   UNL     1      75.513  92.022  75.669  1.00  0.00     0.000 C 
BRANCH   9  10
ATOM     10  C   UNL     1      75.774  92.000  74.153  1.00  0.00     0.006 C 
BRANCH  10  11
ATOM     11  C   UNL     1      76.005  90.577  73.627  1.00  0.00     0.053 C 
BRANCH  11  12
ATOM     12  C   UNL     1      74.766  89.740  73.722  1.00  0.00     0.041 C 
ATOM     13  O   UNL     1      74.757  88.695  74.424  1.00  0.00    -0.550 OA
ATOM     14  O   UNL     1      73.611  90.132  73.057  1.00  0.00    -0.550 OA
ENDBRANCH  11  12
ENDBRANCH  10  11
ENDBRANCH   9  10
ENDBRANCH   8   9
ENDBRANCH   1   8
TORSDOF 9
ENDMDL
MODEL 4
REMARK VINA RESULT:    -2.668     12.766     14.251
REMARK INTER + INTRA:          -4.336
REMARK INTER:                  -3.408
REMARK INTRA:                  -0.927
REMARK UNBOUND:                -0.264
REMARK SMILES O=C([O-])CCCCCCCCC(=O)[O-]
REMARK SMILES IDX 7 1 6 2 5 3 4 4 2 5 1 6 3 7 8 8 9 9 10 10 11 11 12 12 13 13
REMARK SMILES IDX 14 14
REMARK H PARENT
REMARK Flexibility Score: inf
ROOT
ATOM      1  C   UNL     1      74.181  86.843  91.428  1.00  0.00     0.000 C 
ENDROOT
BRANCH   1   2
ATOM      2  C   UNL     1      75.292  86.423  92.407  1.00  0.00     0.000 C 
BRANCH   2   3
ATOM      3  C   UNL     1      76.725  86.529  91.854  1.00  0.00     0.006 C 
BRANCH   3   4
ATOM      4  C   UNL     1      76.876  85.908  90.460  1.00  0.00     0.053 C 
BRANCH   4   5
ATOM      5  C   UNL     1      77.562  86.862  89.535  1.00  0.00     0.041 C 
ATOM      6  O   UNL     1      76.887  87.675  88.848  1.00  0.00    -0.550 OA
ATOM      7  O   UNL     1      78.949  86.888  89.466  1.00  0.00    -0.550 OA
ENDBRANCH   4   5
ENDBRANCH   3   4
ENDBRANCH   2   3
ENDBRANCH   1   2
BRANCH   1   8
ATOM      8  C   UNL     1      74.071  88.370  91.267  1.00  0.00     0.000 C 
BRANCH   8   9
ATOM      9  C   UNL     1      73.776  89.083  92.598  1.00  0.00     0.000 C 
BRANCH   9  10
ATOM     10  C   UNL     1      74.551  90.403  92.746  1.00  0.00     0.006 C 
BRANCH  10  11
ATOM     11  C   UNL     1      76.037  90.171  93.048  1.00  0.00     0.053 C 
BRANCH  11  12
ATOM     12  C   UNL     1      76.919  90.748  91.982  1.00  0.00     0.041 C 
ATOM     13  O   UNL     1      77.499  89.992  91.159  1.00  0.00    -0.550 OA
ATOM     14  O   UNL     1      77.074  92.125  91.881  1.00  0.00    -0.550 OA
ENDBRANCH  11  12
ENDBRANCH  10  11
ENDBRANCH   9  10
ENDBRANCH   8   9
ENDBRANCH   1   8
TORSDOF 9
ENDMDL
MODEL 5
REMARK VINA RESULT:    -2.647     13.400     14.994
REMARK INTER + INTRA:          -4.304
REMARK INTER:                  -3.339
REMARK INTRA:                  -0.965
REMARK UNBOUND:                -0.264
REMARK SMILES O=C([O-])CCCCCCCCC(=O)[O-]
REMARK SMILES IDX 7 1 6 2 5 3 4 4 2 5 1 6 3 7 8 8 9 9 10 10 11 11 12 12 13 13
REMARK SMILES IDX 14 14
REMARK H PARENT
REMARK Flexibility Score: inf
ROOT
ATOM      1  C   UNL     1      73.880  88.707  92.105  1.00  0.00     0.000 C 
ENDROOT
BRANCH   1   2
ATOM      2  C   UNL     1      73.150  87.462  92.641  1.00  0.00     0.000 C 
BRANCH   2   3
ATOM      3  C   UNL     1      74.066  86.287  93.034  1.00  0.00     0.006 C 
BRANCH   3   4
ATOM      4  C   UNL     1      75.522  86.491  92.599  1.00  0.00     0.053 C 
BRANCH   4   5
ATOM      5  C   UNL     1      75.843  85.621  91.425  1.00  0.00     0.041 C 
ATOM      6  O   UNL     1      77.034  85.497  91.034  1.00  0.00    -0.550 OA
ATOM      7  O   UNL     1      74.832  84.909  90.791  1.00  0.00    -0.550 OA
ENDBRANCH   4   5
ENDBRANCH   3   4
ENDBRANCH   2   3
ENDBRANCH   1   2
BRANCH   1   8
ATOM      8  C   UNL     1      73.818  89.900  93.075  1.00  0.00     0.000 C 
BRANCH   8   9
ATOM      9  C   UNL     1      75.004  90.864  92.900  1.00  0.00     0.000 C 
BRANCH   9  10
ATOM     10  C   UNL     1      76.357  90.134  92.845  1.00  0.00     0.006 C 
BRANCH  10  11
ATOM     11  C   UNL     1      77.119  90.427  91.545  1.00  0.00     0.053 C 
BRANCH  11  12
ATOM     12  C   UNL     1      77.478  89.169  90.815  1.00  0.00     0.041 C 
ATOM     13  O   UNL     1      78.521  88.533  91.119  1.00  0.00    -0.550 OA
ATOM     14  O   UNL     1      76.643  88.683  89.817  1.00  0.00    -0.550 OA
ENDBRANCH  11  12
ENDBRANCH  10  11
ENDBRANCH   9  10
ENDBRANCH   8   9
ENDBRANCH   1   8
TORSDOF 9
ENDMDL
MODEL 6
REMARK VINA RESULT:    -2.645     11.675     13.559
REMARK INTER + INTRA:          -4.301
REMARK INTER:                  -3.216
REMARK INTRA:                  -1.086
REMARK UNBOUND:                -0.264
REMARK SMILES O=C([O-])CCCCCCCCC(=O)[O-]
REMARK SMILES IDX 7 1 6 2 5 3 4 4 2 5 1 6 3 7 8 8 9 9 10 10 11 11 12 12 13 13
REMARK SMILES IDX 14 14
REMARK H PARENT
REMARK Flexibility Score: inf
ROOT
ATOM      1  C   UNL     1      77.739  89.021  92.249  1.00  0.00     0.000 C 
ENDROOT
BRANCH   1   2
ATOM      2  C   UNL     1      78.074  88.316  90.922  1.00  0.00     0.000 C 
BRANCH   2   3
ATOM      3  C   UNL     1      76.946  87.441  90.343  1.00  0.00     0.006 C 
BRANCH   3   4
ATOM      4  C   UNL     1      76.039  88.201  89.368  1.00  0.00     0.053 C 
BRANCH   4   5
ATOM      5  C   UNL     1      75.008  87.284  88.792  1.00  0.00     0.041 C 
ATOM      6  O   UNL     1      73.996  87.754  88.208  1.00  0.00    -0.550 OA
ATOM      7  O   UNL     1      75.189  85.908  88.856  1.00  0.00    -0.550 OA
ENDBRANCH   4   5
ENDBRANCH   3   4
ENDBRANCH   2   3
ENDBRANCH   1   2
BRANCH   1   8
ATOM      8  C   UNL     1      77.529  90.537  92.086  1.00  0.00     0.000 C 
BRANCH   8   9
ATOM      9  C   UNL     1      76.088  90.970  92.405  1.00  0.00     0.000 C 
BRANCH   9  10
ATOM     10  C   UNL     1      75.286  89.872  93.125  1.00  0.00     0.006 C 
BRANCH  10  11
ATOM     11  C   UNL     1      74.019  89.482  92.353  1.00  0.00     0.053 C 
BRANCH  11  12
ATOM     12  C   UNL     1      73.807  87.998  92.343  1.00  0.00     0.041 C 
ATOM     13  O   UNL     1      74.513  87.252  93.071  1.00  0.00    -0.550 OA
ATOM     14  O   UNL     1      72.810  87.444  91.552  1.00  0.00    -0.550 OA
ENDBRANCH  11  12
ENDBRANCH  10  11
ENDBRANCH   9  10
ENDBRANCH   8   9
ENDBRANCH   1   8
TORSDOF 9
ENDMDL
MODEL 7
REMARK VINA RESULT:    -2.630      1.010      7.049
REMARK INTER + INTRA:          -4.278
REMARK INTER:                  -3.888
REMARK INTRA:                  -0.391
REMARK UNBOUND:                -0.264
REMARK SMILES O=C([O-])CCCCCCCCC(=O)[O-]
REMARK SMILES IDX 7 1 6 2 5 3 4 4 2 5 1 6 3 7 8 8 9 9 10 10 11 11 12 12 13 13
REMARK SMILES IDX 14 14
REMARK H PARENT
REMARK Flexibility Score: inf
ROOT
ATOM      1  C   UNL     1      75.624  91.404  79.975  1.00  0.00     0.000 C 
ENDROOT
BRANCH   1   2
ATOM      2  C   UNL     1      74.306  90.608  79.968  1.00  0.00     0.000 C 
BRANCH   2   3
ATOM      3  C   UNL     1      73.077  91.373  80.492  1.00  0.00     0.006 C 
BRANCH   3   4
ATOM      4  C   UNL     1      71.875  90.460  80.766  1.00  0.00     0.053 C 
BRANCH   4   5
ATOM      5  C   UNL     1      72.221  89.439  81.802  1.00  0.00     0.041 C 
ATOM      6  O   UNL     1      72.460  89.793  82.987  1.00  0.00    -0.550 OA
ATOM      7  O   UNL     1      72.231  88.089  81.471  1.00  0.00    -0.550 OA
ENDBRANCH   4   5
ENDBRANCH   3   4
ENDBRANCH   2   3
ENDBRANCH   1   2
BRANCH   1   8
ATOM      8  C   UNL     1      76.261  91.520  78.579  1.00  0.00     0.000 C 
BRANCH   8   9
ATOM      9  C   UNL     1      75.301  92.125  77.541  1.00  0.00     0.000 C 
BRANCH   9  10
ATOM     10  C   UNL     1      75.878  92.098  76.115  1.00  0.00     0.006 C 
BRANCH  10  11
ATOM     11  C   UNL     1      75.255  90.986  75.261  1.00  0.00     0.053 C 
BRANCH  11  12
ATOM     12  C   UNL     1      75.916  90.877  73.921  1.00  0.00     0.041 C 
ATOM     13  O   UNL     1      76.707  89.927  73.679  1.00  0.00    -0.550 OA
ATOM     14  O   UNL     1      75.635  91.808  72.930  1.00  0.00    -0.550 OA
ENDBRANCH  11  12
ENDBRANCH  10  11
ENDBRANCH   9  10
ENDBRANCH   8   9
ENDBRANCH   1   8
TORSDOF 9
ENDMDL
MODEL 8
REMARK VINA RESULT:    -2.620      3.856      5.691
REMARK INTER + INTRA:          -4.263
REMARK INTER:                  -3.728
REMARK INTRA:                  -0.535
REMARK UNBOUND:                -0.264
REMARK SMILES O=C([O-])CCCCCCCCC(=O)[O-]
REMARK SMILES IDX 7 1 6 2 5 3 4 4 2 5 1 6 3 7 8 8 9 9 10 10 11 11 12 12 13 13
REMARK SMILES IDX 14 14
REMARK H PARENT
REMARK Flexibility Score: inf
ROOT
ATOM      1  C   UNL     1      74.072  90.048  73.161  1.00  0.00     0.000 C 
ENDROOT
BRANCH   1   2
ATOM      2  C   UNL     1      74.433  88.579  72.875  1.00  0.00     0.000 C 
BRANCH   2   3
ATOM      3  C   UNL     1      74.876  87.764  74.105  1.00  0.00     0.006 C 
BRANCH   3   4
ATOM      4  C   UNL     1      75.080  86.276  73.795  1.00  0.00     0.053 C 
BRANCH   4   5
ATOM      5  C   UNL     1      74.519  85.432  74.895  1.00  0.00     0.041 C 
ATOM      6  O   UNL     1      74.027  85.972  75.921  1.00  0.00    -0.550 OA
ATOM      7  O   UNL     1      74.495  84.049  74.767  1.00  0.00    -0.550 OA
ENDBRANCH   4   5
ENDBRANCH   3   4
ENDBRANCH   2   3
ENDBRANCH   1   2
BRANCH   1   8
ATOM      8  C   UNL     1      75.238  90.842  73.776  1.00  0.00     0.000 C 
BRANCH   8   9
ATOM      9  C   UNL     1      74.760  92.042  74.611  1.00  0.00     0.000 C 
BRANCH   9  10
ATOM     10  C   UNL     1      75.432  92.107  75.993  1.00  0.00     0.006 C 
BRANCH  10  11
ATOM     11  C   UNL     1      76.416  90.950  76.212  1.00  0.00     0.053 C 
BRANCH  11  12
ATOM     12  C   UNL     1      76.123  90.201  77.476  1.00  0.00     0.041 C 
ATOM     13  O   UNL     1      75.598  90.791  78.457  1.00  0.00    -0.550 OA
ATOM     14  O   UNL     1      76.402  88.843  77.559  1.00  0.00    -0.550 OA
ENDBRANCH  11  12
ENDBRANCH  10  11
ENDBRANCH   9  10
ENDBRANCH   8   9
ENDBRANCH   1   8
TORSDOF 9
ENDMDL
MODEL 9
REMARK VINA RESULT:    -2.595      2.059      6.679
REMARK INTER + INTRA:          -4.224
REMARK INTER:                  -3.722
REMARK INTRA:                  -0.502
REMARK UNBOUND:                -0.264
REMARK SMILES O=C([O-])CCCCCCCCC(=O)[O-]
REMARK SMILES IDX 7 1 6 2 5 3 4 4 2 5 1 6 3 7 8 8 9 9 10 10 11 11 12 12 13 13
REMARK SMILES IDX 14 14
REMARK H PARENT
REMARK Flexibility Score: inf
ROOT
ATOM      1  C   UNL     1      75.651  91.115  76.523  1.00  0.00     0.000 C 
ENDROOT
BRANCH   1   2
ATOM      2  C   UNL     1      76.839  91.425  77.452  1.00  0.00     0.000 C 
BRANCH   2   3
ATOM      3  C   UNL     1      76.496  91.491  78.952  1.00  0.00     0.006 C 
BRANCH   3   4
ATOM      4  C   UNL     1      75.004  91.734  79.215  1.00  0.00     0.053 C 
BRANCH   4   5
ATOM      5  C   UNL     1      74.431  90.623  80.036  1.00  0.00     0.041 C 
ATOM      6  O   UNL     1      73.393  90.813  80.724  1.00  0.00    -0.550 OA
ATOM      7  O   UNL     1      75.016  89.363  80.004  1.00  0.00    -0.550 OA
ENDBRANCH   4   5
ENDBRANCH   3   4
ENDBRANCH   2   3
ENDBRANCH   1   2
BRANCH   1   8
ATOM      8  C   UNL     1      75.830  91.696  75.109  1.00  0.00     0.000 C 
BRANCH   8   9
ATOM      9  C   UNL     1      74.492  91.881  74.374  1.00  0.00     0.000 C 
BRANCH   9  10
ATOM     10  C   UNL     1      74.329  90.917  73.187  1.00  0.00     0.006 C 
BRANCH  10  11
ATOM     11  C   UNL     1      75.620  90.142  72.891  1.00  0.00     0.053 C 
BRANCH  11  12
ATOM     12  C   UNL     1      75.413  88.660  72.979  1.00  0.00     0.041 C 
ATOM     13  O   UNL     1      74.254  88.188  73.119  1.00  0.00    -0.550 OA
ATOM     14  O   UNL     1      76.498  87.800  72.875  1.00  0.00    -0.550 OA
ENDBRANCH  11  12
ENDBRANCH  10  11
ENDBRANCH   9  10
ENDBRANCH   8   9
ENDBRANCH   1   8
TORSDOF 9
ENDMDL
