MODEL 1
REMARK VINA RESULT:    -3.901      0.000      0.000
REMARK INTER + INTRA:          -7.042
REMARK INTER:                  -6.181
REMARK INTRA:                  -0.861
REMARK UNBOUND:                -0.861
REMARK SMILES CCCCCCCCCCCC(=O)[O-]
REMARK SMILES IDX 7 1 8 2 9 3 10 4 11 5 12 6 13 7 14 8 6 9 5 10 4 11 3 12 2 13
REMARK SMILES IDX 1 14
REMARK H PARENT
REMARK Flexibility Score: inf
ROOT
ATOM      1  C   UNL     1      44.885  26.052   4.133  1.00  0.00     0.000 C 
ENDROOT
BRANCH   1   2
ATOM      2  C   UNL     1      44.315  26.772   2.900  1.00  0.00     0.000 C 
BRANCH   2   3
ATOM      3  C   UNL     1      44.374  28.303   3.031  1.00  0.00     0.000 C 
BRANCH   3   4
ATOM      4  C   UNL     1      45.194  28.965   1.909  1.00  0.00     0.006 C 
BRANCH   4   5
ATOM      5  C   UNL     1      45.848  27.929   0.984  1.00  0.00     0.053 C 
BRANCH   5   6
ATOM      6  C   UNL     1      45.471  28.149  -0.450  1.00  0.00     0.041 C 
ATOM      7  O   UNL     1      45.251  27.167  -1.206  1.00  0.00    -0.550 OA
ATOM      8  O   UNL     1      45.337  29.441  -0.943  1.00  0.00    -0.550 OA
ENDBRANCH   5   6
ENDBRANCH   4   5
ENDBRANCH   3   4
ENDBRANCH   2   3
ENDBRANCH   1   2
BRANCH   1   9
ATOM      9  C   UNL     1      46.422  25.991   4.124  1.00  0.00     0.000 C 
BRANCH   9  10
ATOM     10  C   UNL     1      47.049  26.733   5.317  1.00  0.00    -0.000 C 
BRANCH  10  11
ATOM     11  C   UNL     1      45.995  27.376   6.232  1.00  0.00    -0.000 C 
BRANCH  11  12
ATOM     12  C   UNL     1      45.963  26.749   7.635  1.00  0.00    -0.000 C 
BRANCH  12  13
ATOM     13  C   UNL     1      45.403  27.738   8.664  1.00  0.00    -0.003 C 
ATOM     14  C   UNL     1      45.293  29.143   8.075  1.00  0.00     0.004 C 
ENDBRANCH  12  13
ENDBRANCH  11  12
ENDBRANCH  10  11
ENDBRANCH   9  10
ENDBRANCH   1   9
TORSDOF 10
ENDMDL
MODEL 2
REMARK VINA RESULT:    -3.896      1.089      1.321
REMARK INTER + INTRA:          -7.035
REMARK INTER:                  -6.303
REMARK INTRA:                  -0.732
REMARK UNBOUND:                -0.861
REMARK SMILES CCCCCCCCCCCC(=O)[O-]
REMARK SMILES IDX 7 1 8 2 9 3 10 4 11 5 12 6 13 7 14 8 6 9 5 10 4 11 3 12 2 13
REMARK SMILES IDX 1 14
REMARK H PARENT
REMARK Flexibility Score: inf
ROOT
ATOM      1  C   UNL     1      45.531  26.615   3.483  1.00  0.00     0.000 C 
ENDROOT
BRANCH   1   2
ATOM      2  C   UNL     1      44.147  27.168   3.101  1.00  0.00     0.000 C 
BRANCH   2   3
ATOM      3  C   UNL     1      44.169  28.682   2.834  1.00  0.00     0.000 C 
BRANCH   3   4
ATOM      4  C   UNL     1      45.510  29.162   2.250  1.00  0.00     0.006 C 
BRANCH   4   5
ATOM      5  C   UNL     1      45.460  29.299   0.722  1.00  0.00     0.053 C 
BRANCH   5   6
ATOM      6  C   UNL     1      46.018  28.089   0.038  1.00  0.00     0.041 C 
ATOM      7  O   UNL     1      47.124  27.608   0.399  1.00  0.00    -0.550 OA
ATOM      8  O   UNL     1      45.302  27.475  -0.983  1.00  0.00    -0.550 OA
ENDBRANCH   5   6
ENDBRANCH   4   5
ENDBRANCH   3   4
ENDBRANCH   2   3
ENDBRANCH   1   2
BRANCH   1   9
ATOM      9  C   UNL     1      45.725  26.512   5.005  1.00  0.00     0.000 C 
BRANCH   9  10
ATOM     10  C   UNL     1      46.246  27.822   5.623  1.00  0.00    -0.000 C 
BRANCH  10  11
ATOM     11  C   UNL     1      45.819  27.991   7.090  1.00  0.00    -0.000 C 
BRANCH  11  12
ATOM     12  C   UNL     1      46.052  26.724   7.928  1.00  0.00    -0.000 C 
BRANCH  12  13
ATOM     13  C   UNL     1      45.216  26.757   9.213  1.00  0.00    -0.003 C 
ATOM     14  C   UNL     1      45.082  28.181   9.748  1.00  0.00     0.004 C 
ENDBRANCH  12  13
ENDBRANCH  11  12
ENDBRANCH  10  11
ENDBRANCH   9  10
ENDBRANCH   1   9
TORSDOF 10
ENDMDL
MODEL 3
REMARK VINA RESULT:    -3.792      3.918      6.914
REMARK INTER + INTRA:          -6.870
REMARK INTER:                  -6.130
REMARK INTRA:                  -0.739
REMARK UNBOUND:                -0.861
REMARK SMILES CCCCCCCCCCCC(=O)[O-]
REMARK SMILES IDX 7 1 8 2 9 3 10 4 11 5 12 6 13 7 14 8 6 9 5 10 4 11 3 12 2 13
REMARK SMILES IDX 1 14
REMARK H PARENT
REMARK Flexibility Score: inf
ROOT
ATOM      1  C   UNL     1      44.802  26.076   3.929  1.00  0.00     0.000 C 
ENDROOT
BRANCH   1   2
ATOM      2  C   UNL     1      46.339  26.038   3.862  1.00  0.00     0.000 C 
BRANCH   2   3
ATOM      3  C   UNL     1      46.998  26.531   5.160  1.00  0.00     0.000 C 
BRANCH   3   4
ATOM      4  C   UNL     1      45.970  26.934   6.232  1.00  0.00     0.006 C 
BRANCH   4   5
ATOM      5  C   UNL     1      46.504  26.722   7.655  1.00  0.00     0.053 C 
BRANCH   5   6
ATOM      6  C   UNL     1      45.508  27.142   8.692  1.00  0.00     0.041 C 
ATOM      7  O   UNL     1      45.096  26.317   9.549  1.00  0.00    -0.550 OA
ATOM      8  O   UNL     1      45.054  28.455   8.727  1.00  0.00    -0.550 OA
ENDBRANCH   5   6
ENDBRANCH   4   5
ENDBRANCH   3   4
ENDBRANCH   2   3
ENDBRANCH   1   2
BRANCH   1   9
ATOM      9  C   UNL     1      44.183  26.910   2.794  1.00  0.00     0.000 C 
BRANCH   9  10
ATOM     10  C   UNL     1      44.462  28.415   2.948  1.00  0.00    -0.000 C 
BRANCH  10  11
ATOM     11  C   UNL     1      45.398  28.956   1.855  1.00  0.00    -0.000 C 
BRANCH  11  12
ATOM     12  C   UNL     1      45.530  28.001   0.658  1.00  0.00    -0.000 C 
BRANCH  12  13
ATOM     13  C   UNL     1      45.503  28.776  -0.664  1.00  0.00    -0.003 C 
ATOM     14  C   UNL     1      45.523  27.826  -1.860  1.00  0.00     0.004 C 
ENDBRANCH  12  13
ENDBRANCH  11  12
ENDBRANCH  10  11
ENDBRANCH   9  10
ENDBRANCH   1   9
TORSDOF 10
ENDMDL
MODEL 4
REMARK VINA RESULT:    -3.729      1.004      1.740
REMARK INTER + INTRA:          -6.771
REMARK INTER:                  -6.013
REMARK INTRA:                  -0.757
REMARK UNBOUND:                -0.861
REMARK SMILES CCCCCCCCCCCC(=O)[O-]
REMARK SMILES IDX 7 1 8 2 9 3 10 4 11 5 12 6 13 7 14 8 6 9 5 10 4 11 3 12 2 13
REMARK SMILES IDX 1 14
REMARK H PARENT
REMARK Flexibility Score: inf
ROOT
ATOM      1  C   UNL     1      44.170  27.106   2.804  1.00  0.00     0.000 C 
ENDROOT
BRANCH   1   2
ATOM      2  C   UNL     1      44.442  28.599   3.060  1.00  0.00     0.000 C 
BRANCH   2   3
ATOM      3  C   UNL     1      45.162  29.278   1.883  1.00  0.00     0.000 C 
BRANCH   3   4
ATOM      4  C   UNL     1      45.615  28.275   0.807  1.00  0.00     0.006 C 
BRANCH   4   5
ATOM      5  C   UNL     1      45.627  28.898  -0.596  1.00  0.00     0.053 C 
BRANCH   5   6
ATOM      6  C   UNL     1      45.357  27.878  -1.659  1.00  0.00     0.041 C 
ATOM      7  O   UNL     1      44.892  26.749  -1.352  1.00  0.00    -0.550 OA
ATOM      8  O   UNL     1      45.595  28.184  -2.993  1.00  0.00    -0.550 OA
ENDBRANCH   5   6
ENDBRANCH   4   5
ENDBRANCH   3   4
ENDBRANCH   2   3
ENDBRANCH   1   2
BRANCH   1   9
ATOM      9  C   UNL     1      44.802  26.200   3.874  1.00  0.00     0.000 C 
BRANCH   9  10
ATOM     10  C   UNL     1      46.339  26.180   3.797  1.00  0.00    -0.000 C 
BRANCH  10  11
ATOM     11  C   UNL     1      47.001  26.500   5.148  1.00  0.00    -0.000 C 
BRANCH  11  12
ATOM     12  C   UNL     1      45.987  26.928   6.221  1.00  0.00    -0.000 C 
BRANCH  12  13
ATOM     13  C   UNL     1      46.527  26.642   7.627  1.00  0.00    -0.003 C 
ATOM     14  C   UNL     1      45.473  26.936   8.692  1.00  0.00     0.004 C 
ENDBRANCH  12  13
ENDBRANCH  11  12
ENDBRANCH  10  11
ENDBRANCH   9  10
ENDBRANCH   1   9
TORSDOF 10
ENDMDL
MODEL 5
REMARK VINA RESULT:    -3.700      4.296      7.017
REMARK INTER + INTRA:          -6.725
REMARK INTER:                  -5.942
REMARK INTRA:                  -0.783
REMARK UNBOUND:                -0.861
REMARK SMILES CCCCCCCCCCCC(=O)[O-]
REMARK SMILES IDX 7 1 8 2 9 3 10 4 11 5 12 6 13 7 14 8 6 9 5 10 4 11 3 12 2 13
REMARK SMILES IDX 1 14
REMARK H PARENT
REMARK Flexibility Score: inf
ROOT
ATOM      1  C   UNL     1      46.381  25.885   3.962  1.00  0.00     0.000 C 
ENDROOT
BRANCH   1   2
ATOM      2  C   UNL     1      46.978  26.595   5.189  1.00  0.00     0.000 C 
BRANCH   2   3
ATOM      3  C   UNL     1      45.908  26.995   6.218  1.00  0.00     0.000 C 
BRANCH   3   4
ATOM      4  C   UNL     1      46.482  27.827   7.379  1.00  0.00     0.006 C 
BRANCH   4   5
ATOM      5  C   UNL     1      45.379  28.399   8.281  1.00  0.00     0.053 C 
BRANCH   5   6
ATOM      6  C   UNL     1      45.322  27.696   9.603  1.00  0.00     0.041 C 
ATOM      7  O   UNL     1      45.336  28.357  10.674  1.00  0.00    -0.550 OA
ATOM      8  O   UNL     1      45.227  26.311   9.650  1.00  0.00    -0.550 OA
ENDBRANCH   5   6
ENDBRANCH   4   5
ENDBRANCH   3   4
ENDBRANCH   2   3
ENDBRANCH   1   2
BRANCH   1   9
ATOM      9  C   UNL     1      44.843  25.913   3.955  1.00  0.00     0.000 C 
BRANCH   9  10
ATOM     10  C   UNL     1      44.274  26.760   2.804  1.00  0.00    -0.000 C 
BRANCH  10  11
ATOM     11  C   UNL     1      44.481  28.268   3.023  1.00  0.00    -0.000 C 
BRANCH  11  12
ATOM     12  C   UNL     1      45.140  28.959   1.820  1.00  0.00    -0.000 C 
BRANCH  12  13
ATOM     13  C   UNL     1      45.541  27.935   0.752  1.00  0.00    -0.003 C 
ATOM     14  C   UNL     1      45.691  28.595  -0.616  1.00  0.00     0.004 C 
ENDBRANCH  12  13
ENDBRANCH  11  12
ENDBRANCH  10  11
ENDBRANCH   9  10
ENDBRANCH   1   9
TORSDOF 10
ENDMDL
MODEL 6
REMARK VINA RESULT:    -3.582      2.895      4.829
REMARK INTER + INTRA:          -6.537
REMARK INTER:                  -5.880
REMARK INTRA:                  -0.657
REMARK UNBOUND:                -0.861
REMARK SMILES CCCCCCCCCCCC(=O)[O-]
REMARK SMILES IDX 7 1 8 2 9 3 10 4 11 5 12 6 13 7 14 8 6 9 5 10 4 11 3 12 2 13
REMARK SMILES IDX 1 14
REMARK H PARENT
REMARK Flexibility Score: inf
ROOT
ATOM      1  C   UNL     1      45.544  27.862  -0.286  1.00  0.00     0.000 C 
ENDROOT
BRANCH   1   2
ATOM      2  C   UNL     1      45.638  29.169  -1.093  1.00  0.00     0.000 C 
BRANCH   2   3
ATOM      3  C   UNL     1      44.724  29.166  -2.330  1.00  0.00     0.000 C 
BRANCH   3   4
ATOM      4  C   UNL     1      45.092  28.061  -3.337  1.00  0.00     0.006 C 
BRANCH   4   5
ATOM      5  C   UNL     1      43.919  27.108  -3.604  1.00  0.00     0.053 C 
BRANCH   5   6
ATOM      6  C   UNL     1      42.943  27.688  -4.582  1.00  0.00     0.041 C 
ATOM      7  O   UNL     1      43.221  27.727  -5.809  1.00  0.00    -0.550 OA
ATOM      8  O   UNL     1      41.714  28.161  -4.139  1.00  0.00    -0.550 OA
ENDBRANCH   5   6
ENDBRANCH   4   5
ENDBRANCH   3   4
ENDBRANCH   2   3
ENDBRANCH   1   2
BRANCH   1   9
ATOM      9  C   UNL     1      46.022  28.030   1.166  1.00  0.00     0.000 C 
BRANCH   9  10
ATOM     10  C   UNL     1      45.131  28.989   1.974  1.00  0.00    -0.000 C 
BRANCH  10  11
ATOM     11  C   UNL     1      44.428  28.292   3.150  1.00  0.00    -0.000 C 
BRANCH  11  12
ATOM     12  C   UNL     1      44.382  26.764   2.994  1.00  0.00    -0.000 C 
BRANCH  12  13
ATOM     13  C   UNL     1      44.913  26.070   4.254  1.00  0.00    -0.003 C 
ATOM     14  C   UNL     1      46.350  25.594   4.057  1.00  0.00     0.004 C 
ENDBRANCH  12  13
ENDBRANCH  11  12
ENDBRANCH  10  11
ENDBRANCH   9  10
ENDBRANCH   1   9
TORSDOF 10
ENDMDL
MODEL 7
REMARK VINA RESULT:    -3.503      3.372      7.825
REMARK INTER + INTRA:          -6.413
REMARK INTER:                  -5.883
REMARK INTRA:                  -0.530
REMARK UNBOUND:                -0.861
REMARK SMILES CCCCCCCCCCCC(=O)[O-]
REMARK SMILES IDX 7 1 8 2 9 3 10 4 11 5 12 6 13 7 14 8 6 9 5 10 4 11 3 12 2 13
REMARK SMILES IDX 1 14
REMARK H PARENT
REMARK Flexibility Score: inf
ROOT
ATOM      1  C   UNL     1      46.072  28.288  -0.623  1.00  0.00     0.000 C 
ENDROOT
BRANCH   1   2
ATOM      2  C   UNL     1      45.374  27.851   0.676  1.00  0.00     0.000 C 
BRANCH   2   3
ATOM      3  C   UNL     1      45.193  29.012   1.668  1.00  0.00     0.000 C 
BRANCH   3   4
ATOM      4  C   UNL     1      44.504  28.575   2.973  1.00  0.00     0.006 C 
BRANCH   4   5
ATOM      5  C   UNL     1      44.215  27.068   2.998  1.00  0.00     0.053 C 
BRANCH   5   6
ATOM      6  C   UNL     1      45.115  26.345   3.953  1.00  0.00     0.041 C 
ATOM      7  O   UNL     1      45.359  25.120   3.793  1.00  0.00    -0.550 OA
ATOM      8  O   UNL     1      45.708  27.032   5.005  1.00  0.00    -0.550 OA
ENDBRANCH   5   6
ENDBRANCH   4   5
ENDBRANCH   3   4
ENDBRANCH   2   3
ENDBRANCH   1   2
BRANCH   1   9
ATOM      9  C   UNL     1      45.355  29.462  -1.312  1.00  0.00     0.000 C 
BRANCH   9  10
ATOM     10  C   UNL     1      44.570  29.023  -2.560  1.00  0.00    -0.000 C 
BRANCH  10  11
ATOM     11  C   UNL     1      44.716  27.521  -2.851  1.00  0.00    -0.000 C 
BRANCH  11  12
ATOM     12  C   UNL     1      43.660  27.000  -3.838  1.00  0.00    -0.000 C 
BRANCH  12  13
ATOM     13  C   UNL     1      43.546  27.925  -5.055  1.00  0.00    -0.003 C 
ATOM     14  C   UNL     1      42.133  28.487  -5.191  1.00  0.00     0.004 C 
ENDBRANCH  12  13
ENDBRANCH  11  12
ENDBRANCH  10  11
ENDBRANCH   9  10
ENDBRANCH   1   9
TORSDOF 10
ENDMDL
MODEL 8
REMARK VINA RESULT:    -3.441      1.909      2.809
REMARK INTER + INTRA:          -6.314
REMARK INTER:                  -5.663
REMARK INTRA:                  -0.651
REMARK UNBOUND:                -0.861
REMARK SMILES CCCCCCCCCCCC(=O)[O-]
REMARK SMILES IDX 7 1 8 2 9 3 10 4 11 5 12 6 13 7 14 8 6 9 5 10 4 11 3 12 2 13
REMARK SMILES IDX 1 14
REMARK H PARENT
REMARK Flexibility Score: inf
ROOT
ATOM      1  C   UNL     1      46.359  26.810   5.571  1.00  0.00     0.000 C 
ENDROOT
BRANCH   1   2
ATOM      2  C   UNL     1      46.367  28.232   4.985  1.00  0.00     0.000 C 
BRANCH   2   3
ATOM      3  C   UNL     1      46.975  28.285   3.573  1.00  0.00     0.000 C 
BRANCH   3   4
ATOM      4  C   UNL     1      46.287  29.325   2.670  1.00  0.00     0.006 C 
BRANCH   4   5
ATOM      5  C   UNL     1      44.832  28.949   2.360  1.00  0.00     0.053 C 
BRANCH   5   6
ATOM      6  C   UNL     1      44.718  27.547   1.845  1.00  0.00     0.041 C 
ATOM      7  O   UNL     1      44.122  26.668   2.522  1.00  0.00    -0.550 OA
ATOM      8  O   UNL     1      45.248  27.216   0.604  1.00  0.00    -0.550 OA
ENDBRANCH   5   6
ENDBRANCH   4   5
ENDBRANCH   3   4
ENDBRANCH   2   3
ENDBRANCH   1   2
BRANCH   1   9
ATOM      9  C   UNL     1      45.962  26.786   7.057  1.00  0.00     0.000 C 
BRANCH   9  10
ATOM     10  C   UNL     1      45.680  28.192   7.614  1.00  0.00    -0.000 C 
BRANCH  10  11
ATOM     11  C   UNL     1      45.174  28.160   9.066  1.00  0.00    -0.000 C 
BRANCH  11  12
ATOM     12  C   UNL     1      45.407  26.803   9.748  1.00  0.00    -0.000 C 
BRANCH  12  13
ATOM     13  C   UNL     1      46.612  26.866  10.694  1.00  0.00    -0.003 C 
ATOM     14  C   UNL     1      46.683  28.213  11.408  1.00  0.00     0.004 C 
ENDBRANCH  12  13
ENDBRANCH  11  12
ENDBRANCH  10  11
ENDBRANCH   9  10
ENDBRANCH   1   9
TORSDOF 10
ENDMDL
MODEL 9
REMARK VINA RESULT:    -3.353      3.808      7.449
REMARK INTER + INTRA:          -6.175
REMARK INTER:                  -5.736
REMARK INTRA:                  -0.438
REMARK UNBOUND:                -0.861
REMARK SMILES CCCCCCCCCCCC(=O)[O-]
REMARK SMILES IDX 7 1 8 2 9 3 10 4 11 5 12 6 13 7 14 8 6 9 5 10 4 11 3 12 2 13
REMARK SMILES IDX 1 14
REMARK H PARENT
REMARK Flexibility Score: inf
ROOT
ATOM      1  C   UNL     1      44.483  28.631   2.766  1.00  0.00     0.000 C 
ENDROOT
BRANCH   1   2
ATOM      2  C   UNL     1      44.181  27.130   2.917  1.00  0.00     0.000 C 
BRANCH   2   3
ATOM      3  C   UNL     1      45.132  26.434   3.904  1.00  0.00     0.000 C 
BRANCH   3   4
ATOM      4  C   UNL     1      45.685  27.393   4.973  1.00  0.00     0.006 C 
BRANCH   4   5
ATOM      5  C   UNL     1      46.431  26.648   6.089  1.00  0.00     0.053 C 
BRANCH   5   6
ATOM      6  C   UNL     1      45.992  27.100   7.448  1.00  0.00     0.041 C 
ATOM      7  O   UNL     1      45.402  28.203   7.591  1.00  0.00    -0.550 OA
ATOM      8  O   UNL     1      46.213  26.290   8.555  1.00  0.00    -0.550 OA
ENDBRANCH   5   6
ENDBRANCH   4   5
ENDBRANCH   3   4
ENDBRANCH   2   3
ENDBRANCH   1   2
BRANCH   1   9
ATOM      9  C   UNL     1      45.467  28.923   1.620  1.00  0.00     0.000 C 
BRANCH   9  10
ATOM     10  C   UNL     1      45.395  27.871   0.499  1.00  0.00    -0.000 C 
BRANCH  10  11
ATOM     11  C   UNL     1      45.598  28.482  -0.897  1.00  0.00    -0.000 C 
BRANCH  11  12
ATOM     12  C   UNL     1      45.254  27.503  -2.030  1.00  0.00    -0.000 C 
BRANCH  12  13
ATOM     13  C   UNL     1      44.391  28.184  -3.098  1.00  0.00    -0.003 C 
ATOM     14  C   UNL     1      43.615  27.157  -3.919  1.00  0.00     0.004 C 
ENDBRANCH  12  13
ENDBRANCH  11  12
ENDBRANCH  10  11
ENDBRANCH   9  10
ENDBRANCH   1   9
TORSDOF 10
ENDMDL
