MODEL 1
REMARK VINA RESULT:    -3.662      0.000      0.000
REMARK INTER + INTRA:         -12.604
REMARK INTER:                  -8.692
REMARK INTRA:                  -3.912
REMARK UNBOUND:                -3.912
REMARK SMILES O=C(OC[C@H]1O[C@H](OC(=O)c2cc(O)c(O)c(O)c2)[C@H](OC(=O)c2cc(O)c(O)c(O)c2)[C@@H](OC(=O)c2cc(O)c(O)c(O)c2)[C@H]1OC(=O)c1cc(O)c(O)c(O)c1)c1cc(O)c(O)c(O)c1
REMARK SMILES IDX 5 1 46 2 33 3 20 4 7 5 6 6 4 7 3 8 2 9 1 10 59 11 60 12
REMARK SMILES IDX 61 13 67 14 63 15 65 16 62 17 64 19 66 21 47 23 48 24 49 25
REMARK SMILES IDX 50 26 58 27 51 28 56 29 52 30 54 31 57 32 53 34 55 36 34 38
REMARK SMILES IDX 35 39 36 40 37 41 45 42 38 43 43 44 39 45 41 46 44 47 40 49
REMARK SMILES IDX 42 51 8 53 9 54 10 55 11 56 19 57 12 58 17 59 13 60 15 61
REMARK SMILES IDX 18 62 14 64 16 66 21 68 22 69 23 70 24 71 32 72 25 73 30 74
REMARK SMILES IDX 26 75 28 76 31 77 27 79 29 81
REMARK H PARENT 62 18 64 20 66 22 57 33 53 35 55 37 44 48 40 50 42 52 18 63
REMARK H PARENT 14 65 16 67 31 78 27 80 29 82
REMARK Flexibility Score: inf
ROOT
ATOM      1  C   UNL     1      72.934  44.882   4.639  1.00  0.00     0.205 C 
ATOM      2  C   UNL     1      73.764  43.828   5.393  1.00  0.00     0.254 C 
ATOM      3  C   UNL     1      74.243  44.469   6.700  1.00  0.00     0.267 C 
ATOM      4  C   UNL     1      73.028  44.960   7.510  1.00  0.00     0.290 C 
ATOM      5  C   UNL     1      72.143  45.864   6.622  1.00  0.00     0.357 C 
ATOM      6  O   UNL     1      71.785  45.233   5.398  1.00  0.00    -0.329 OA
ENDROOT
BRANCH   1   7
ATOM      7  C   UNL     1      72.489  44.391   3.248  1.00  0.00     0.269 C 
BRANCH   7   8
ATOM      8  O   UNL     1      72.505  45.482   2.333  1.00  0.00    -0.459 OA
BRANCH   8   9
ATOM      9  C   UNL     1      71.806  45.452   1.118  1.00  0.00     0.338 C 
ATOM     10  O   UNL     1      70.613  45.867   1.067  1.00  0.00    -0.246 OA
BRANCH   9  11
ATOM     11  C   UNL     1      72.453  44.904  -0.093  1.00  0.00     0.067 A 
ATOM     12  C   UNL     1      72.120  43.624  -0.555  1.00  0.00     0.066 A 
ATOM     13  C   UNL     1      72.760  43.073  -1.667  1.00  0.00     0.162 A 
ATOM     14  C   UNL     1      73.444  45.645  -0.770  1.00  0.00     0.066 A 
ATOM     15  C   UNL     1      73.779  43.802  -2.323  1.00  0.00     0.200 A 
ATOM     16  C   UNL     1      74.109  45.092  -1.869  1.00  0.00     0.162 A 
BRANCH  13  17
ATOM     17  O   UNL     1      72.346  41.809  -2.091  1.00  0.00    -0.504 OA
ATOM     18  H   UNL     1      71.411  41.604  -2.400  1.00  0.00     0.293 HD
ENDBRANCH  13  17
BRANCH  15  19
ATOM     19  O   UNL     1      74.481  43.278  -3.414  1.00  0.00    -0.502 OA
ATOM     20  H   UNL     1      75.475  43.110  -3.425  1.00  0.00     0.293 HD
ENDBRANCH  15  19
BRANCH  16  21
ATOM     21  O   UNL     1      75.103  45.845  -2.496  1.00  0.00    -0.504 OA
ATOM     22  H   UNL     1      75.908  46.197  -1.993  1.00  0.00     0.293 HD
ENDBRANCH  16  21
ENDBRANCH   9  11
ENDBRANCH   8   9
ENDBRANCH   7   8
ENDBRANCH   1   7
BRANCH   2  23
ATOM     23  O   UNL     1      72.957  42.690   5.703  1.00  0.00    -0.452 OA
BRANCH  23  24
ATOM     24  C   UNL     1      73.281  41.374   5.345  1.00  0.00     0.338 C 
ATOM     25  O   UNL     1      74.206  41.159   4.521  1.00  0.00    -0.246 OA
BRANCH  24  26
ATOM     26  C   UNL     1      72.539  40.249   5.956  1.00  0.00     0.067 A 
ATOM     27  C   UNL     1      71.165  40.360   6.238  1.00  0.00     0.066 A 
ATOM     28  C   UNL     1      73.216  39.072   6.315  1.00  0.00     0.066 A 
ATOM     29  C   UNL     1      70.481  39.315   6.882  1.00  0.00     0.162 A 
ATOM     30  C   UNL     1      72.537  38.025   6.947  1.00  0.00     0.162 A 
ATOM     31  C   UNL     1      71.169  38.142   7.235  1.00  0.00     0.200 A 
BRANCH  29  32
ATOM     32  O   UNL     1      69.126  39.441   7.177  1.00  0.00    -0.504 OA
ATOM     33  H   UNL     1      68.412  39.141   6.523  1.00  0.00     0.293 HD
ENDBRANCH  29  32
BRANCH  30  34
ATOM     34  O   UNL     1      73.245  36.875   7.289  1.00  0.00    -0.504 OA
ATOM     35  H   UNL     1      73.656  36.748   8.208  1.00  0.00     0.293 HD
ENDBRANCH  30  34
BRANCH  31  36
ATOM     36  O   UNL     1      70.516  37.091   7.876  1.00  0.00    -0.502 OA
ATOM     37  H   UNL     1      69.957  36.414   7.373  1.00  0.00     0.293 HD
ENDBRANCH  31  36
ENDBRANCH  24  26
ENDBRANCH  23  24
ENDBRANCH   2  23
BRANCH   3  38
ATOM     38  O   UNL     1      75.025  43.542   7.452  1.00  0.00    -0.450 OA
BRANCH  38  39
ATOM     39  C   UNL     1      74.755  43.239   8.794  1.00  0.00     0.338 C 
ATOM     40  O   UNL     1      75.036  44.072   9.698  1.00  0.00    -0.246 OA
BRANCH  39  41
ATOM     41  C   UNL     1      74.121  41.951   9.152  1.00  0.00     0.067 A 
ATOM     42  C   UNL     1      74.888  40.775   9.215  1.00  0.00     0.066 A 
ATOM     43  C   UNL     1      72.747  41.891   9.437  1.00  0.00     0.066 A 
ATOM     44  C   UNL     1      74.293  39.556   9.551  1.00  0.00     0.162 A 
ATOM     45  C   UNL     1      72.139  40.677   9.771  1.00  0.00     0.162 A 
ATOM     46  C   UNL     1      72.916  39.491   9.820  1.00  0.00     0.200 A 
BRANCH  44  47
ATOM     47  O   UNL     1      75.074  38.401   9.621  1.00  0.00    -0.504 OA
ATOM     48  H   UNL     1      75.901  38.280   9.041  1.00  0.00     0.293 HD
ENDBRANCH  44  47
BRANCH  45  49
ATOM     49  O   UNL     1      70.770  40.694  10.041  1.00  0.00    -0.504 OA
ATOM     50  H   UNL     1      70.311  41.403  10.594  1.00  0.00     0.293 HD
ENDBRANCH  45  49
BRANCH  46  51
ATOM     51  O   UNL     1      72.371  38.240  10.124  1.00  0.00    -0.502 OA
ATOM     52  H   UNL     1      72.907  37.472  10.513  1.00  0.00     0.293 HD
ENDBRANCH  46  51
ENDBRANCH  39  41
ENDBRANCH  38  39
ENDBRANCH   3  38
BRANCH   5  53
ATOM     53  O   UNL     1      72.790  47.113   6.381  1.00  0.00    -0.428 OA
BRANCH  53  54
ATOM     54  C   UNL     1      72.131  48.232   5.861  1.00  0.00     0.340 C 
ATOM     55  O   UNL     1      72.428  48.682   4.725  1.00  0.00    -0.246 OA
BRANCH  54  56
ATOM     56  C   UNL     1      71.075  48.881   6.655  1.00  0.00     0.067 A 
ATOM     57  C   UNL     1      69.723  48.610   6.409  1.00  0.00     0.066 A 
ATOM     58  C   UNL     1      71.420  49.770   7.680  1.00  0.00     0.066 A 
ATOM     59  C   UNL     1      68.717  49.188   7.193  1.00  0.00     0.162 A 
ATOM     60  C   UNL     1      70.433  50.380   8.455  1.00  0.00     0.162 A 
ATOM     61  C   UNL     1      69.072  50.086   8.233  1.00  0.00     0.200 A 
BRANCH  59  62
ATOM     62  O   UNL     1      67.394  48.839   6.906  1.00  0.00    -0.504 OA
ATOM     63  H   UNL     1      67.110  47.928   6.565  1.00  0.00     0.293 HD
ENDBRANCH  59  62
BRANCH  60  64
ATOM     64  O   UNL     1      70.827  51.286   9.440  1.00  0.00    -0.504 OA
ATOM     65  H   UNL     1      71.663  51.854   9.344  1.00  0.00     0.293 HD
ENDBRANCH  60  64
BRANCH  61  66
ATOM     66  O   UNL     1      68.111  50.690   9.057  1.00  0.00    -0.502 OA
ATOM     67  H   UNL     1      67.408  50.182   9.576  1.00  0.00     0.293 HD
ENDBRANCH  61  66
ENDBRANCH  54  56
ENDBRANCH  53  54
ENDBRANCH   5  53
BRANCH   4  68
ATOM     68  O   UNL     1      73.463  45.727   8.631  1.00  0.00    -0.448 OA
BRANCH  68  69
ATOM     69  C   UNL     1      72.615  46.496   9.434  1.00  0.00     0.339 C 
ATOM     70  O   UNL     1      73.047  47.540   9.998  1.00  0.00    -0.246 OA
BRANCH  69  71
ATOM     71  C   UNL     1      71.214  46.069   9.631  1.00  0.00     0.067 A 
ATOM     72  C   UNL     1      70.187  47.010   9.768  1.00  0.00     0.066 A 
ATOM     73  C   UNL     1      70.892  44.703   9.675  1.00  0.00     0.066 A 
ATOM     74  C   UNL     1      68.855  46.601   9.933  1.00  0.00     0.162 A 
ATOM     75  C   UNL     1      69.568  44.284   9.835  1.00  0.00     0.162 A 
ATOM     76  C   UNL     1      68.543  45.232   9.964  1.00  0.00     0.200 A 
BRANCH  74  77
ATOM     77  O   UNL     1      67.839  47.550  10.055  1.00  0.00    -0.504 OA
ATOM     78  H   UNL     1      66.866  47.276  10.144  1.00  0.00     0.293 HD
ENDBRANCH  74  77
BRANCH  75  79
ATOM     79  O   UNL     1      69.289  42.916   9.861  1.00  0.00    -0.504 OA
ATOM     80  H   UNL     1      68.346  42.559   9.932  1.00  0.00     0.293 HD
ENDBRANCH  75  79
BRANCH  76  81
ATOM     81  O   UNL     1      67.223  44.805  10.123  1.00  0.00    -0.502 OA
ATOM     82  H   UNL     1      66.888  43.927   9.757  1.00  0.00     0.293 HD
ENDBRANCH  76  81
ENDBRANCH  69  71
ENDBRANCH  68  69
ENDBRANCH   4  68
TORSDOF 31
ENDMDL
MODEL 2
REMARK VINA RESULT:    -3.152      1.014      7.264
REMARK INTER + INTRA:         -11.395
REMARK INTER:                  -8.535
REMARK INTRA:                  -2.860
REMARK UNBOUND:                -3.912
REMARK SMILES O=C(OC[C@H]1O[C@H](OC(=O)c2cc(O)c(O)c(O)c2)[C@H](OC(=O)c2cc(O)c(O)c(O)c2)[C@@H](OC(=O)c2cc(O)c(O)c(O)c2)[C@H]1OC(=O)c1cc(O)c(O)c(O)c1)c1cc(O)c(O)c(O)c1
REMARK SMILES IDX 5 1 46 2 33 3 20 4 7 5 6 6 4 7 3 8 2 9 1 10 59 11 60 12
REMARK SMILES IDX 61 13 67 14 63 15 65 16 62 17 64 19 66 21 47 23 48 24 49 25
REMARK SMILES IDX 50 26 58 27 51 28 56 29 52 30 54 31 57 32 53 34 55 36 34 38
REMARK SMILES IDX 35 39 36 40 37 41 45 42 38 43 43 44 39 45 41 46 44 47 40 49
REMARK SMILES IDX 42 51 8 53 9 54 10 55 11 56 19 57 12 58 17 59 13 60 15 61
REMARK SMILES IDX 18 62 14 64 16 66 21 68 22 69 23 70 24 71 32 72 25 73 30 74
REMARK SMILES IDX 26 75 28 76 31 77 27 79 29 81
REMARK H PARENT 62 18 64 20 66 22 57 33 53 35 55 37 44 48 40 50 42 52 18 63
REMARK H PARENT 14 65 16 67 31 78 27 80 29 82
REMARK Flexibility Score: inf
ROOT
ATOM      1  C   UNL     1      72.466  44.949   4.829  1.00  0.00     0.205 C 
ATOM      2  C   UNL     1      72.738  46.013   5.908  1.00  0.00     0.254 C 
ATOM      3  C   UNL     1      73.321  45.291   7.128  1.00  0.00     0.267 C 
ATOM      4  C   UNL     1      74.592  44.525   6.717  1.00  0.00     0.290 C 
ATOM      5  C   UNL     1      74.280  43.617   5.505  1.00  0.00     0.357 C 
ATOM      6  O   UNL     1      73.685  44.336   4.431  1.00  0.00    -0.329 OA
ENDROOT
BRANCH   1   7
ATOM      7  C   UNL     1      71.769  45.539   3.589  1.00  0.00     0.269 C 
BRANCH   7   8
ATOM      8  O   UNL     1      72.217  44.855   2.423  1.00  0.00    -0.459 OA
BRANCH   8   9
ATOM      9  C   UNL     1      71.744  45.170   1.141  1.00  0.00     0.338 C 
ATOM     10  O   UNL     1      70.687  45.851   1.009  1.00  0.00    -0.246 OA
BRANCH   9  11
ATOM     11  C   UNL     1      72.463  44.677  -0.052  1.00  0.00     0.067 A 
ATOM     12  C   UNL     1      73.461  45.458  -0.649  1.00  0.00     0.066 A 
ATOM     13  C   UNL     1      74.113  45.029  -1.807  1.00  0.00     0.162 A 
ATOM     14  C   UNL     1      72.123  43.436  -0.629  1.00  0.00     0.066 A 
ATOM     15  C   UNL     1      73.745  43.801  -2.406  1.00  0.00     0.200 A 
ATOM     16  C   UNL     1      72.752  43.008  -1.803  1.00  0.00     0.162 A 
BRANCH  13  17
ATOM     17  O   UNL     1      75.123  45.844  -2.321  1.00  0.00    -0.504 OA
ATOM     18  H   UNL     1      75.577  45.680  -3.203  1.00  0.00     0.293 HD
ENDBRANCH  13  17
BRANCH  15  19
ATOM     19  O   UNL     1      74.336  43.346  -3.589  1.00  0.00    -0.502 OA
ATOM     20  H   UNL     1      74.479  42.375  -3.819  1.00  0.00     0.293 HD
ENDBRANCH  15  19
BRANCH  16  21
ATOM     21  O   UNL     1      72.369  41.787  -2.359  1.00  0.00    -0.504 OA
ATOM     22  H   UNL     1      72.839  41.391  -3.163  1.00  0.00     0.293 HD
ENDBRANCH  16  21
ENDBRANCH   9  11
ENDBRANCH   8   9
ENDBRANCH   7   8
ENDBRANCH   1   7
BRANCH   2  23
ATOM     23  O   UNL     1      73.689  46.968   5.435  1.00  0.00    -0.452 OA
BRANCH  23  24
ATOM     24  C   UNL     1      73.495  48.355   5.463  1.00  0.00     0.338 C 
ATOM     25  O   UNL     1      74.294  49.112   4.855  1.00  0.00    -0.246 OA
BRANCH  24  26
ATOM     26  C   UNL     1      72.336  48.913   6.195  1.00  0.00     0.067 A 
ATOM     27  C   UNL     1      72.514  49.602   7.410  1.00  0.00     0.066 A 
ATOM     28  C   UNL     1      71.034  48.712   5.710  1.00  0.00     0.066 A 
ATOM     29  C   UNL     1      71.405  50.070   8.135  1.00  0.00     0.162 A 
ATOM     30  C   UNL     1      69.927  49.184   6.424  1.00  0.00     0.162 A 
ATOM     31  C   UNL     1      70.108  49.863   7.638  1.00  0.00     0.200 A 
BRANCH  29  32
ATOM     32  O   UNL     1      71.589  50.732   9.346  1.00  0.00    -0.504 OA
ATOM     33  H   UNL     1      72.477  51.153   9.590  1.00  0.00     0.293 HD
ENDBRANCH  29  32
BRANCH  30  34
ATOM     34  O   UNL     1      68.652  48.962   5.911  1.00  0.00    -0.504 OA
ATOM     35  H   UNL     1      67.870  48.698   6.503  1.00  0.00     0.293 HD
ENDBRANCH  30  34
BRANCH  31  36
ATOM     36  O   UNL     1      68.991  50.314   8.339  1.00  0.00    -0.502 OA
ATOM     37  H   UNL     1      68.969  51.214   8.800  1.00  0.00     0.293 HD
ENDBRANCH  31  36
ENDBRANCH  24  26
ENDBRANCH  23  24
ENDBRANCH   2  23
BRANCH   3  38
ATOM     38  O   UNL     1      73.595  46.223   8.174  1.00  0.00    -0.450 OA
BRANCH  38  39
ATOM     39  C   UNL     1      72.605  46.688   9.050  1.00  0.00     0.338 C 
ATOM     40  O   UNL     1      72.925  47.381  10.054  1.00  0.00    -0.246 OA
BRANCH  39  41
ATOM     41  C   UNL     1      71.180  46.387   8.788  1.00  0.00     0.067 A 
ATOM     42  C   UNL     1      70.819  45.492   7.766  1.00  0.00     0.066 A 
ATOM     43  C   UNL     1      70.173  46.988   9.561  1.00  0.00     0.066 A 
ATOM     44  C   UNL     1      69.475  45.205   7.515  1.00  0.00     0.162 A 
ATOM     45  C   UNL     1      68.824  46.712   9.317  1.00  0.00     0.162 A 
ATOM     46  C   UNL     1      68.466  45.818   8.275  1.00  0.00     0.200 A 
BRANCH  44  47
ATOM     47  O   UNL     1      69.137  44.304   6.503  1.00  0.00    -0.504 OA
ATOM     48  H   UNL     1      69.676  43.457   6.342  1.00  0.00     0.293 HD
ENDBRANCH  44  47
BRANCH  45  49
ATOM     49  O   UNL     1      67.880  47.347  10.125  1.00  0.00    -0.504 OA
ATOM     50  H   UNL     1      67.077  47.847   9.771  1.00  0.00     0.293 HD
ENDBRANCH  45  49
BRANCH  46  51
ATOM     51  O   UNL     1      67.138  45.515   7.961  1.00  0.00    -0.502 OA
ATOM     52  H   UNL     1      66.772  45.507   7.015  1.00  0.00     0.293 HD
ENDBRANCH  46  51
ENDBRANCH  39  41
ENDBRANCH  38  39
ENDBRANCH   3  38
BRANCH   5  53
ATOM     53  O   UNL     1      73.458  42.520   5.902  1.00  0.00    -0.428 OA
BRANCH  53  54
ATOM     54  C   UNL     1      73.621  41.220   5.411  1.00  0.00     0.340 C 
ATOM     55  O   UNL     1      74.365  40.996   4.423  1.00  0.00    -0.246 OA
BRANCH  54  56
ATOM     56  C   UNL     1      72.915  40.108   6.068  1.00  0.00     0.067 A 
ATOM     57  C   UNL     1      73.616  38.984   6.525  1.00  0.00     0.066 A 
ATOM     58  C   UNL     1      71.530  40.174   6.254  1.00  0.00     0.066 A 
ATOM     59  C   UNL     1      72.955  37.945   7.192  1.00  0.00     0.162 A 
ATOM     60  C   UNL     1      70.847  39.137   6.890  1.00  0.00     0.162 A 
ATOM     61  C   UNL     1      71.551  38.018   7.382  1.00  0.00     0.200 A 
BRANCH  59  62
ATOM     62  O   UNL     1      73.731  36.875   7.648  1.00  0.00    -0.504 OA
ATOM     63  H   UNL     1      74.478  36.966   8.328  1.00  0.00     0.293 HD
ENDBRANCH  59  62
BRANCH  60  64
ATOM     64  O   UNL     1      69.461  39.234   7.018  1.00  0.00    -0.504 OA
ATOM     65  H   UNL     1      68.924  38.564   7.560  1.00  0.00     0.293 HD
ENDBRANCH  60  64
BRANCH  61  66
ATOM     66  O   UNL     1      70.835  37.014   8.049  1.00  0.00    -0.502 OA
ATOM     67  H   UNL     1      71.194  36.487   8.834  1.00  0.00     0.293 HD
ENDBRANCH  61  66
ENDBRANCH  54  56
ENDBRANCH  53  54
ENDBRANCH   5  53
BRANCH   4  68
ATOM     68  O   UNL     1      75.035  43.697   7.790  1.00  0.00    -0.448 OA
BRANCH  68  69
ATOM     69  C   UNL     1      74.447  43.670   9.058  1.00  0.00     0.339 C 
ATOM     70  O   UNL     1      74.822  44.481   9.950  1.00  0.00    -0.246 OA
BRANCH  69  71
ATOM     71  C   UNL     1      73.393  42.677   9.351  1.00  0.00     0.067 A 
ATOM     72  C   UNL     1      72.041  43.041   9.357  1.00  0.00     0.066 A 
ATOM     73  C   UNL     1      73.737  41.342   9.620  1.00  0.00     0.066 A 
ATOM     74  C   UNL     1      71.042  42.090   9.614  1.00  0.00     0.162 A 
ATOM     75  C   UNL     1      72.749  40.385   9.874  1.00  0.00     0.162 A 
ATOM     76  C   UNL     1      71.396  40.755   9.871  1.00  0.00     0.200 A 
BRANCH  74  77
ATOM     77  O   UNL     1      69.698  42.464   9.605  1.00  0.00    -0.504 OA
ATOM     78  H   UNL     1      69.317  43.093  10.304  1.00  0.00     0.293 HD
ENDBRANCH  74  77
BRANCH  75  79
ATOM     79  O   UNL     1      73.132  39.067  10.125  1.00  0.00    -0.504 OA
ATOM     80  H   UNL     1      73.061  38.341   9.425  1.00  0.00     0.293 HD
ENDBRANCH  75  79
BRANCH  76  81
ATOM     81  O   UNL     1      70.416  39.794  10.125  1.00  0.00    -0.502 OA
ATOM     82  H   UNL     1      69.678  39.936  10.798  1.00  0.00     0.293 HD
ENDBRANCH  76  81
ENDBRANCH  69  71
ENDBRANCH  68  69
ENDBRANCH   4  68
TORSDOF 31
ENDMDL
MODEL 3
REMARK VINA RESULT:    -2.993      1.682      9.278
REMARK INTER + INTRA:         -11.017
REMARK INTER:                 -11.740
REMARK INTRA:                   0.723
REMARK UNBOUND:                -3.912
REMARK SMILES O=C(OC[C@H]1O[C@H](OC(=O)c2cc(O)c(O)c(O)c2)[C@H](OC(=O)c2cc(O)c(O)c(O)c2)[C@@H](OC(=O)c2cc(O)c(O)c(O)c2)[C@H]1OC(=O)c1cc(O)c(O)c(O)c1)c1cc(O)c(O)c(O)c1
REMARK SMILES IDX 5 1 46 2 33 3 20 4 7 5 6 6 4 7 3 8 2 9 1 10 59 11 60 12
REMARK SMILES IDX 61 13 67 14 63 15 65 16 62 17 64 19 66 21 47 23 48 24 49 25
REMARK SMILES IDX 50 26 58 27 51 28 56 29 52 30 54 31 57 32 53 34 55 36 34 38
REMARK SMILES IDX 35 39 36 40 37 41 45 42 38 43 43 44 39 45 41 46 44 47 40 49
REMARK SMILES IDX 42 51 8 53 9 54 10 55 11 56 19 57 12 58 17 59 13 60 15 61
REMARK SMILES IDX 18 62 14 64 16 66 21 68 22 69 23 70 24 71 32 72 25 73 30 74
REMARK SMILES IDX 26 75 28 76 31 77 27 79 29 81
REMARK H PARENT 62 18 64 20 66 22 57 33 53 35 55 37 44 48 40 50 42 52 18 63
REMARK H PARENT 14 65 16 67 31 78 27 80 29 82
REMARK Flexibility Score: inf
ROOT
ATOM      1  C   UNL     1      72.941  44.097   7.981  1.00  0.00     0.205 C 
ATOM      2  C   UNL     1      72.789  45.618   7.798  1.00  0.00     0.254 C 
ATOM      3  C   UNL     1      73.335  45.970   6.410  1.00  0.00     0.267 C 
ATOM      4  C   UNL     1      72.579  45.165   5.337  1.00  0.00     0.290 C 
ATOM      5  C   UNL     1      72.618  43.661   5.695  1.00  0.00     0.357 C 
ATOM      6  O   UNL     1      72.156  43.409   7.017  1.00  0.00    -0.329 OA
ENDROOT
BRANCH   1   7
ATOM      7  C   UNL     1      72.530  43.634   9.391  1.00  0.00     0.269 C 
BRANCH   7   8
ATOM      8  O   UNL     1      71.308  42.906   9.314  1.00  0.00    -0.459 OA
BRANCH   8   9
ATOM      9  C   UNL     1      71.265  41.505   9.355  1.00  0.00     0.338 C 
ATOM     10  O   UNL     1      72.045  40.874  10.125  1.00  0.00    -0.246 OA
BRANCH   9  11
ATOM     11  C   UNL     1      70.333  40.769   8.477  1.00  0.00     0.067 A 
ATOM     12  C   UNL     1      70.310  41.024   7.099  1.00  0.00     0.066 A 
ATOM     13  C   UNL     1      69.399  40.374   6.263  1.00  0.00     0.162 A 
ATOM     14  C   UNL     1      69.428  39.834   9.019  1.00  0.00     0.066 A 
ATOM     15  C   UNL     1      68.467  39.464   6.815  1.00  0.00     0.200 A 
ATOM     16  C   UNL     1      68.494  39.197   8.195  1.00  0.00     0.162 A 
BRANCH  13  17
ATOM     17  O   UNL     1      69.463  40.652   4.897  1.00  0.00    -0.504 OA
ATOM     18  H   UNL     1      70.324  40.793   4.397  1.00  0.00     0.293 HD
ENDBRANCH  13  17
BRANCH  15  19
ATOM     19  O   UNL     1      67.506  38.820   6.029  1.00  0.00    -0.502 OA
ATOM     20  H   UNL     1      67.405  38.945   5.033  1.00  0.00     0.293 HD
ENDBRANCH  15  19
BRANCH  16  21
ATOM     21  O   UNL     1      67.596  38.299   8.774  1.00  0.00    -0.504 OA
ATOM     22  H   UNL     1      67.083  38.521   9.618  1.00  0.00     0.293 HD
ENDBRANCH  16  21
ENDBRANCH   9  11
ENDBRANCH   8   9
ENDBRANCH   7   8
ENDBRANCH   1   7
BRANCH   2  23
ATOM     23  O   UNL     1      71.412  45.990   7.863  1.00  0.00    -0.452 OA
BRANCH  23  24
ATOM     24  C   UNL     1      70.663  46.037   9.048  1.00  0.00     0.338 C 
ATOM     25  O   UNL     1      71.213  46.393  10.122  1.00  0.00    -0.246 OA
BRANCH  24  26
ATOM     26  C   UNL     1      69.227  45.684   9.016  1.00  0.00     0.067 A 
ATOM     27  C   UNL     1      68.802  44.436   8.524  1.00  0.00     0.066 A 
ATOM     28  C   UNL     1      68.263  46.618   9.429  1.00  0.00     0.066 A 
ATOM     29  C   UNL     1      67.433  44.133   8.432  1.00  0.00     0.162 A 
ATOM     30  C   UNL     1      66.900  46.317   9.349  1.00  0.00     0.162 A 
ATOM     31  C   UNL     1      66.479  45.076   8.849  1.00  0.00     0.200 A 
BRANCH  29  32
ATOM     32  O   UNL     1      67.020  42.904   7.924  1.00  0.00    -0.504 OA
ATOM     33  H   UNL     1      66.881  42.101   8.527  1.00  0.00     0.293 HD
ENDBRANCH  29  32
BRANCH  30  34
ATOM     34  O   UNL     1      65.975  47.272   9.766  1.00  0.00    -0.504 OA
ATOM     35  H   UNL     1      65.010  47.261   9.451  1.00  0.00     0.293 HD
ENDBRANCH  30  34
BRANCH  31  36
ATOM     36  O   UNL     1      65.115  44.801   8.767  1.00  0.00    -0.502 OA
ATOM     37  H   UNL     1      64.415  45.406   9.178  1.00  0.00     0.293 HD
ENDBRANCH  31  36
ENDBRANCH  24  26
ENDBRANCH  23  24
ENDBRANCH   2  23
BRANCH   3  38
ATOM     38  O   UNL     1      73.227  47.374   6.174  1.00  0.00    -0.450 OA
BRANCH  38  39
ATOM     39  C   UNL     1      72.031  47.982   5.768  1.00  0.00     0.338 C 
ATOM     40  O   UNL     1      71.701  47.975   4.550  1.00  0.00    -0.246 OA
BRANCH  39  41
ATOM     41  C   UNL     1      71.142  48.615   6.767  1.00  0.00     0.067 A 
ATOM     42  C   UNL     1      69.752  48.651   6.559  1.00  0.00     0.066 A 
ATOM     43  C   UNL     1      71.677  49.183   7.934  1.00  0.00     0.066 A 
ATOM     44  C   UNL     1      68.909  49.249   7.499  1.00  0.00     0.162 A 
ATOM     45  C   UNL     1      70.844  49.788   8.881  1.00  0.00     0.162 A 
ATOM     46  C   UNL     1      69.443  49.832   8.659  1.00  0.00     0.200 A 
BRANCH  44  47
ATOM     47  O   UNL     1      67.530  49.263   7.281  1.00  0.00    -0.504 OA
ATOM     48  H   UNL     1      66.869  49.329   8.052  1.00  0.00     0.293 HD
ENDBRANCH  44  47
BRANCH  45  49
ATOM     49  O   UNL     1      71.446  50.331  10.016  1.00  0.00    -0.504 OA
ATOM     50  H   UNL     1      72.441  50.468  10.119  1.00  0.00     0.293 HD
ENDBRANCH  45  49
BRANCH  46  51
ATOM     51  O   UNL     1      68.554  50.441   9.551  1.00  0.00    -0.502 OA
ATOM     52  H   UNL     1      67.659  50.042   9.812  1.00  0.00     0.293 HD
ENDBRANCH  46  51
ENDBRANCH  39  41
ENDBRANCH  38  39
ENDBRANCH   3  38
BRANCH   5  53
ATOM     53  O   UNL     1      73.931  43.137   5.505  1.00  0.00    -0.428 OA
BRANCH  53  54
ATOM     54  C   UNL     1      74.183  41.818   5.112  1.00  0.00     0.340 C 
ATOM     55  O   UNL     1      74.512  41.552   3.928  1.00  0.00    -0.246 OA
BRANCH  54  56
ATOM     56  C   UNL     1      74.067  40.736   6.103  1.00  0.00     0.067 A 
ATOM     57  C   UNL     1      73.457  39.520   5.770  1.00  0.00     0.066 A 
ATOM     58  C   UNL     1      74.582  40.913   7.392  1.00  0.00     0.066 A 
ATOM     59  C   UNL     1      73.386  38.471   6.695  1.00  0.00     0.162 A 
ATOM     60  C   UNL     1      74.497  39.892   8.340  1.00  0.00     0.162 A 
ATOM     61  C   UNL     1      73.913  38.654   7.999  1.00  0.00     0.200 A 
BRANCH  59  62
ATOM     62  O   UNL     1      72.792  37.277   6.273  1.00  0.00    -0.504 OA
ATOM     63  H   UNL     1      71.905  36.932   6.621  1.00  0.00     0.293 HD
ENDBRANCH  59  62
BRANCH  60  64
ATOM     64  O   UNL     1      74.994  40.131   9.621  1.00  0.00    -0.504 OA
ATOM     65  H   UNL     1      75.989  40.189   9.809  1.00  0.00     0.293 HD
ENDBRANCH  60  64
BRANCH  61  66
ATOM     66  O   UNL     1      73.880  37.639   8.967  1.00  0.00    -0.502 OA
ATOM     67  H   UNL     1      73.030  37.272   9.375  1.00  0.00     0.293 HD
ENDBRANCH  61  66
ENDBRANCH  54  56
ENDBRANCH  53  54
ENDBRANCH   5  53
BRANCH   4  68
ATOM     68  O   UNL     1      73.201  45.335   4.065  1.00  0.00    -0.448 OA
BRANCH  68  69
ATOM     69  C   UNL     1      72.696  46.148   3.046  1.00  0.00     0.339 C 
ATOM     70  O   UNL     1      72.478  47.373   3.258  1.00  0.00    -0.246 OA
BRANCH  69  71
ATOM     71  C   UNL     1      72.406  45.559   1.722  1.00  0.00     0.067 A 
ATOM     72  C   UNL     1      71.279  45.953   0.989  1.00  0.00     0.066 A 
ATOM     73  C   UNL     1      73.268  44.596   1.173  1.00  0.00     0.066 A 
ATOM     74  C   UNL     1      71.019  45.408  -0.277  1.00  0.00     0.162 A 
ATOM     75  C   UNL     1      73.020  44.049  -0.089  1.00  0.00     0.162 A 
ATOM     76  C   UNL     1      71.894  44.454  -0.821  1.00  0.00     0.200 A 
BRANCH  74  77
ATOM     77  O   UNL     1      69.899  45.819  -1.001  1.00  0.00    -0.504 OA
ATOM     78  H   UNL     1      69.695  46.802  -1.150  1.00  0.00     0.293 HD
ENDBRANCH  74  77
BRANCH  75  79
ATOM     79  O   UNL     1      73.908  43.103  -0.604  1.00  0.00    -0.504 OA
ATOM     80  H   UNL     1      74.305  42.367  -0.034  1.00  0.00     0.293 HD
ENDBRANCH  75  79
BRANCH  76  81
ATOM     81  O   UNL     1      71.654  43.903  -2.081  1.00  0.00    -0.502 OA
ATOM     82  H   UNL     1      70.839  43.342  -2.282  1.00  0.00     0.293 HD
ENDBRANCH  76  81
ENDBRANCH  69  71
ENDBRANCH  68  69
ENDBRANCH   4  68
TORSDOF 31
ENDMDL
MODEL 4
REMARK VINA RESULT:    -2.951      1.620      7.222
REMARK INTER + INTRA:         -10.918
REMARK INTER:                  -8.784
REMARK INTRA:                  -2.133
REMARK UNBOUND:                -3.912
REMARK SMILES O=C(OC[C@H]1O[C@H](OC(=O)c2cc(O)c(O)c(O)c2)[C@H](OC(=O)c2cc(O)c(O)c(O)c2)[C@@H](OC(=O)c2cc(O)c(O)c(O)c2)[C@H]1OC(=O)c1cc(O)c(O)c(O)c1)c1cc(O)c(O)c(O)c1
REMARK SMILES IDX 5 1 46 2 33 3 20 4 7 5 6 6 4 7 3 8 2 9 1 10 59 11 60 12
REMARK SMILES IDX 61 13 67 14 63 15 65 16 62 17 64 19 66 21 47 23 48 24 49 25
REMARK SMILES IDX 50 26 58 27 51 28 56 29 52 30 54 31 57 32 53 34 55 36 34 38
REMARK SMILES IDX 35 39 36 40 37 41 45 42 38 43 43 44 39 45 41 46 44 47 40 49
REMARK SMILES IDX 42 51 8 53 9 54 10 55 11 56 19 57 12 58 17 59 13 60 15 61
REMARK SMILES IDX 18 62 14 64 16 66 21 68 22 69 23 70 24 71 32 72 25 73 30 74
REMARK SMILES IDX 26 75 28 76 31 77 27 79 29 81
REMARK H PARENT 62 18 64 20 66 22 57 33 53 35 55 37 44 48 40 50 42 52 18 63
REMARK H PARENT 14 65 16 67 31 78 27 80 29 82
REMARK Flexibility Score: inf
ROOT
ATOM      1  C   UNL     1      73.345  43.657   7.497  1.00  0.00     0.205 C 
ATOM      2  C   UNL     1      73.300  43.501   5.966  1.00  0.00     0.254 C 
ATOM      3  C   UNL     1      73.407  44.904   5.358  1.00  0.00     0.267 C 
ATOM      4  C   UNL     1      74.699  45.583   5.848  1.00  0.00     0.290 C 
ATOM      5  C   UNL     1      74.759  45.531   7.392  1.00  0.00     0.357 C 
ATOM      6  O   UNL     1      74.592  44.211   7.894  1.00  0.00    -0.329 OA
ENDROOT
BRANCH   1   7
ATOM      7  C   UNL     1      73.131  42.319   8.228  1.00  0.00     0.269 C 
BRANCH   7   8
ATOM      8  O   UNL     1      72.411  42.547   9.435  1.00  0.00    -0.459 OA
BRANCH   8   9
ATOM      9  C   UNL     1      71.042  42.268   9.556  1.00  0.00     0.338 C 
ATOM     10  O   UNL     1      70.267  43.127  10.067  1.00  0.00    -0.246 OA
BRANCH   9  11
ATOM     11  C   UNL     1      70.514  40.960   9.117  1.00  0.00     0.067 A 
ATOM     12  C   UNL     1      70.983  39.776   9.703  1.00  0.00     0.066 A 
ATOM     13  C   UNL     1      70.532  38.530   9.263  1.00  0.00     0.162 A 
ATOM     14  C   UNL     1      69.566  40.885   8.076  1.00  0.00     0.066 A 
ATOM     15  C   UNL     1      69.609  38.455   8.193  1.00  0.00     0.200 A 
ATOM     16  C   UNL     1      69.127  39.641   7.611  1.00  0.00     0.162 A 
BRANCH  13  17
ATOM     17  O   UNL     1      71.016  37.398   9.921  1.00  0.00    -0.504 OA
ATOM     18  H   UNL     1      71.061  36.486   9.500  1.00  0.00     0.293 HD
ENDBRANCH  13  17
BRANCH  15  19
ATOM     19  O   UNL     1      69.159  37.231   7.687  1.00  0.00    -0.502 OA
ATOM     20  H   UNL     1      68.846  36.459   8.254  1.00  0.00     0.293 HD
ENDBRANCH  15  19
BRANCH  16  21
ATOM     21  O   UNL     1      68.209  39.607   6.560  1.00  0.00    -0.504 OA
ATOM     22  H   UNL     1      68.428  39.977   5.643  1.00  0.00     0.293 HD
ENDBRANCH  16  21
ENDBRANCH   9  11
ENDBRANCH   8   9
ENDBRANCH   7   8
ENDBRANCH   1   7
BRANCH   2  23
ATOM     23  O   UNL     1      74.404  42.715   5.515  1.00  0.00    -0.452 OA
BRANCH  23  24
ATOM     24  C   UNL     1      74.287  41.419   4.993  1.00  0.00     0.338 C 
ATOM     25  O   UNL     1      74.322  41.240   3.748  1.00  0.00    -0.246 OA
BRANCH  24  26
ATOM     26  C   UNL     1      74.144  40.271   5.916  1.00  0.00     0.067 A 
ATOM     27  C   UNL     1      73.390  39.141   5.550  1.00  0.00     0.066 A 
ATOM     28  C   UNL     1      74.718  40.323   7.197  1.00  0.00     0.066 A 
ATOM     29  C   UNL     1      73.200  38.085   6.457  1.00  0.00     0.162 A 
ATOM     30  C   UNL     1      74.541  39.269   8.099  1.00  0.00     0.162 A 
ATOM     31  C   UNL     1      73.780  38.148   7.735  1.00  0.00     0.200 A 
BRANCH  29  32
ATOM     32  O   UNL     1      72.434  36.980   6.096  1.00  0.00    -0.504 OA
ATOM     33  H   UNL     1      72.796  36.266   5.474  1.00  0.00     0.293 HD
ENDBRANCH  29  32
BRANCH  30  34
ATOM     34  O   UNL     1      75.124  39.359   9.361  1.00  0.00    -0.504 OA
ATOM     35  H   UNL     1      76.126  39.263   9.500  1.00  0.00     0.293 HD
ENDBRANCH  30  34
BRANCH  31  36
ATOM     36  O   UNL     1      73.606  37.115   8.654  1.00  0.00    -0.502 OA
ATOM     37  H   UNL     1      72.725  36.950   9.122  1.00  0.00     0.293 HD
ENDBRANCH  31  36
ENDBRANCH  24  26
ENDBRANCH  23  24
ENDBRANCH   2  23
BRANCH   3  38
ATOM     38  O   UNL     1      73.368  44.833   3.933  1.00  0.00    -0.450 OA
BRANCH  38  39
ATOM     39  C   UNL     1      72.208  45.107   3.195  1.00  0.00     0.338 C 
ATOM     40  O   UNL     1      71.160  45.490   3.784  1.00  0.00    -0.246 OA
BRANCH  39  41
ATOM     41  C   UNL     1      72.214  44.969   1.722  1.00  0.00     0.067 A 
ATOM     42  C   UNL     1      73.245  44.261   1.079  1.00  0.00     0.066 A 
ATOM     43  C   UNL     1      71.189  45.539   0.950  1.00  0.00     0.066 A 
ATOM     44  C   UNL     1      73.256  44.129  -0.312  1.00  0.00     0.162 A 
ATOM     45  C   UNL     1      71.190  45.418  -0.443  1.00  0.00     0.162 A 
ATOM     46  C   UNL     1      72.241  44.713  -1.086  1.00  0.00     0.200 A 
BRANCH  44  47
ATOM     47  O   UNL     1      74.281  43.410  -0.931  1.00  0.00    -0.504 OA
ATOM     48  H   UNL     1      74.210  43.106  -1.899  1.00  0.00     0.293 HD
ENDBRANCH  44  47
BRANCH  45  49
ATOM     49  O   UNL     1      70.140  46.011  -1.143  1.00  0.00    -0.504 OA
ATOM     50  H   UNL     1      69.800  46.946  -0.969  1.00  0.00     0.293 HD
ENDBRANCH  45  49
BRANCH  46  51
ATOM     51  O   UNL     1      72.318  44.572  -2.475  1.00  0.00    -0.502 OA
ATOM     52  H   UNL     1      73.187  44.427  -2.977  1.00  0.00     0.293 HD
ENDBRANCH  46  51
ENDBRANCH  39  41
ENDBRANCH  38  39
ENDBRANCH   3  38
BRANCH   5  53
ATOM     53  O   UNL     1      73.795  46.417   7.958  1.00  0.00    -0.428 OA
BRANCH  53  54
ATOM     54  C   UNL     1      72.913  46.044   8.979  1.00  0.00     0.340 C 
ATOM     55  O   UNL     1      73.350  45.633  10.084  1.00  0.00    -0.246 OA
BRANCH  54  56
ATOM     56  C   UNL     1      71.463  46.143   8.751  1.00  0.00     0.067 A 
ATOM     57  C   UNL     1      70.835  45.362   7.773  1.00  0.00     0.066 A 
ATOM     58  C   UNL     1      70.693  47.017   9.528  1.00  0.00     0.066 A 
ATOM     59  C   UNL     1      69.448  45.419   7.585  1.00  0.00     0.162 A 
ATOM     60  C   UNL     1      69.314  47.111   9.339  1.00  0.00     0.162 A 
ATOM     61  C   UNL     1      68.672  46.303   8.378  1.00  0.00     0.200 A 
BRANCH  59  62
ATOM     62  O   UNL     1      68.894  44.582   6.612  1.00  0.00    -0.504 OA
ATOM     63  H   UNL     1      68.665  43.607   6.767  1.00  0.00     0.293 HD
ENDBRANCH  59  62
BRANCH  60  64
ATOM     64  O   UNL     1      68.597  48.023  10.114  1.00  0.00    -0.504 OA
ATOM     65  H   UNL     1      68.788  49.020  10.084  1.00  0.00     0.293 HD
ENDBRANCH  60  64
BRANCH  61  66
ATOM     66  O   UNL     1      67.279  46.399   8.242  1.00  0.00    -0.502 OA
ATOM     67  H   UNL     1      66.803  47.186   7.822  1.00  0.00     0.293 HD
ENDBRANCH  61  66
ENDBRANCH  54  56
ENDBRANCH  53  54
ENDBRANCH   5  53
BRANCH   4  68
ATOM     68  O   UNL     1      74.717  46.952   5.448  1.00  0.00    -0.448 OA
BRANCH  68  69
ATOM     69  C   UNL     1      73.610  47.637   4.938  1.00  0.00     0.339 C 
ATOM     70  O   UNL     1      73.372  47.628   3.698  1.00  0.00    -0.246 OA
BRANCH  69  71
ATOM     71  C   UNL     1      72.729  48.384   5.860  1.00  0.00     0.067 A 
ATOM     72  C   UNL     1      71.345  48.435   5.651  1.00  0.00     0.066 A 
ATOM     73  C   UNL     1      73.272  49.051   6.970  1.00  0.00     0.066 A 
ATOM     74  C   UNL     1      70.509  49.127   6.540  1.00  0.00     0.162 A 
ATOM     75  C   UNL     1      72.448  49.740   7.864  1.00  0.00     0.162 A 
ATOM     76  C   UNL     1      71.062  49.781   7.654  1.00  0.00     0.200 A 
BRANCH  74  77
ATOM     77  O   UNL     1      69.131  49.159   6.328  1.00  0.00    -0.504 OA
ATOM     78  H   UNL     1      68.526  49.775   6.861  1.00  0.00     0.293 HD
ENDBRANCH  74  77
BRANCH  75  79
ATOM     79  O   UNL     1      73.026  50.379   8.963  1.00  0.00    -0.504 OA
ATOM     80  H   UNL     1      74.019  50.339   9.151  1.00  0.00     0.293 HD
ENDBRANCH  75  79
BRANCH  76  81
ATOM     81  O   UNL     1      70.246  50.471   8.552  1.00  0.00    -0.502 OA
ATOM     82  H   UNL     1      70.012  50.107   9.464  1.00  0.00     0.293 HD
ENDBRANCH  76  81
ENDBRANCH  69  71
ENDBRANCH  68  69
ENDBRANCH   4  68
TORSDOF 31
ENDMDL
MODEL 5
REMARK VINA RESULT:    -2.860      1.645      7.465
REMARK INTER + INTRA:         -10.701
REMARK INTER:                  -8.130
REMARK INTRA:                  -2.571
REMARK UNBOUND:                -3.912
REMARK SMILES O=C(OC[C@H]1O[C@H](OC(=O)c2cc(O)c(O)c(O)c2)[C@H](OC(=O)c2cc(O)c(O)c(O)c2)[C@@H](OC(=O)c2cc(O)c(O)c(O)c2)[C@H]1OC(=O)c1cc(O)c(O)c(O)c1)c1cc(O)c(O)c(O)c1
REMARK SMILES IDX 5 1 46 2 33 3 20 4 7 5 6 6 4 7 3 8 2 9 1 10 59 11 60 12
REMARK SMILES IDX 61 13 67 14 63 15 65 16 62 17 64 19 66 21 47 23 48 24 49 25
REMARK SMILES IDX 50 26 58 27 51 28 56 29 52 30 54 31 57 32 53 34 55 36 34 38
REMARK SMILES IDX 35 39 36 40 37 41 45 42 38 43 43 44 39 45 41 46 44 47 40 49
REMARK SMILES IDX 42 51 8 53 9 54 10 55 11 56 19 57 12 58 17 59 13 60 15 61
REMARK SMILES IDX 18 62 14 64 16 66 21 68 22 69 23 70 24 71 32 72 25 73 30 74
REMARK SMILES IDX 26 75 28 76 31 77 27 79 29 81
REMARK H PARENT 62 18 64 20 66 22 57 33 53 35 55 37 44 48 40 50 42 52 18 63
REMARK H PARENT 14 65 16 67 31 78 27 80 29 82
REMARK Flexibility Score: inf
ROOT
ATOM      1  C   UNL     1      73.029  44.648   4.303  1.00  0.00     0.205 C 
ATOM      2  C   UNL     1      72.041  45.235   5.327  1.00  0.00     0.254 C 
ATOM      3  C   UNL     1      71.789  44.161   6.391  1.00  0.00     0.267 C 
ATOM      4  C   UNL     1      73.126  43.742   7.029  1.00  0.00     0.290 C 
ATOM      5  C   UNL     1      74.128  43.345   5.921  1.00  0.00     0.357 C 
ATOM      6  O   UNL     1      74.270  44.359   4.933  1.00  0.00    -0.329 OA
ENDROOT
BRANCH   1   7
ATOM      7  C   UNL     1      73.275  45.598   3.116  1.00  0.00     0.269 C 
BRANCH   7   8
ATOM      8  O   UNL     1      73.535  44.834   1.943  1.00  0.00    -0.459 OA
BRANCH   8   9
ATOM      9  C   UNL     1      72.679  44.849   0.833  1.00  0.00     0.338 C 
ATOM     10  O   UNL     1      71.491  45.265   0.959  1.00  0.00    -0.246 OA
BRANCH   9  11
ATOM     11  C   UNL     1      73.154  44.347  -0.473  1.00  0.00     0.067 A 
ATOM     12  C   UNL     1      73.920  45.170  -1.310  1.00  0.00     0.066 A 
ATOM     13  C   UNL     1      74.332  44.729  -2.569  1.00  0.00     0.162 A 
ATOM     14  C   UNL     1      72.807  43.052  -0.910  1.00  0.00     0.066 A 
ATOM     15  C   UNL     1      73.952  43.443  -3.021  1.00  0.00     0.200 A 
ATOM     16  C   UNL     1      73.193  42.610  -2.180  1.00  0.00     0.162 A 
BRANCH  13  17
ATOM     17  O   UNL     1      75.125  45.590  -3.328  1.00  0.00    -0.504 OA
ATOM     18  H   UNL     1      75.148  45.586  -4.334  1.00  0.00     0.293 HD
ENDBRANCH  13  17
BRANCH  15  19
ATOM     19  O   UNL     1      74.302  42.970  -4.290  1.00  0.00    -0.502 OA
ATOM     20  H   UNL     1      74.911  43.454  -4.932  1.00  0.00     0.293 HD
ENDBRANCH  15  19
BRANCH  16  21
ATOM     21  O   UNL     1      72.807  41.333  -2.588  1.00  0.00    -0.504 OA
ATOM     22  H   UNL     1      72.699  41.090  -3.565  1.00  0.00     0.293 HD
ENDBRANCH  16  21
ENDBRANCH   9  11
ENDBRANCH   8   9
ENDBRANCH   7   8
ENDBRANCH   1   7
BRANCH   2  23
ATOM     23  O   UNL     1      72.604  46.388   5.956  1.00  0.00    -0.452 OA
BRANCH  23  24
ATOM     24  C   UNL     1      72.287  47.708   5.611  1.00  0.00     0.338 C 
ATOM     25  O   UNL     1      72.865  48.258   4.638  1.00  0.00    -0.246 OA
BRANCH  24  26
ATOM     26  C   UNL     1      71.257  48.437   6.385  1.00  0.00     0.067 A 
ATOM     27  C   UNL     1      69.890  48.282   6.091  1.00  0.00     0.066 A 
ATOM     28  C   UNL     1      71.641  49.338   7.392  1.00  0.00     0.066 A 
ATOM     29  C   UNL     1      68.921  49.028   6.783  1.00  0.00     0.162 A 
ATOM     30  C   UNL     1      70.679  50.075   8.090  1.00  0.00     0.162 A 
ATOM     31  C   UNL     1      69.318  49.925   7.788  1.00  0.00     0.200 A 
BRANCH  29  32
ATOM     32  O   UNL     1      67.572  48.885   6.471  1.00  0.00    -0.504 OA
ATOM     33  H   UNL     1      67.272  48.503   5.581  1.00  0.00     0.293 HD
ENDBRANCH  29  32
BRANCH  30  34
ATOM     34  O   UNL     1      71.100  50.960   9.080  1.00  0.00    -0.504 OA
ATOM     35  H   UNL     1      71.753  51.713   8.889  1.00  0.00     0.293 HD
ENDBRANCH  30  34
BRANCH  31  36
ATOM     36  O   UNL     1      68.378  50.679   8.489  1.00  0.00    -0.502 OA
ATOM     37  H   UNL     1      67.567  51.086   8.041  1.00  0.00     0.293 HD
ENDBRANCH  31  36
ENDBRANCH  24  26
ENDBRANCH  23  24
ENDBRANCH   2  23
BRANCH   3  38
ATOM     38  O   UNL     1      70.873  44.640   7.375  1.00  0.00    -0.450 OA
BRANCH  38  39
ATOM     39  C   UNL     1      69.494  44.402   7.304  1.00  0.00     0.338 C 
ATOM     40  O   UNL     1      69.054  43.440   6.617  1.00  0.00    -0.246 OA
BRANCH  39  41
ATOM     41  C   UNL     1      68.551  45.264   8.050  1.00  0.00     0.067 A 
ATOM     42  C   UNL     1      67.177  44.965   8.069  1.00  0.00     0.066 A 
ATOM     43  C   UNL     1      69.017  46.388   8.750  1.00  0.00     0.066 A 
ATOM     44  C   UNL     1      66.283  45.776   8.771  1.00  0.00     0.162 A 
ATOM     45  C   UNL     1      68.132  47.211   9.453  1.00  0.00     0.162 A 
ATOM     46  C   UNL     1      66.745  46.910   9.458  1.00  0.00     0.200 A 
BRANCH  44  47
ATOM     47  O   UNL     1      64.924  45.455   8.789  1.00  0.00    -0.504 OA
ATOM     48  H   UNL     1      64.208  46.153   8.604  1.00  0.00     0.293 HD
ENDBRANCH  44  47
BRANCH  45  49
ATOM     49  O   UNL     1      68.668  48.310  10.125  1.00  0.00    -0.504 OA
ATOM     50  H   UNL     1      69.096  49.101   9.665  1.00  0.00     0.293 HD
ENDBRANCH  45  49
BRANCH  46  51
ATOM     51  O   UNL     1      65.801  47.701  10.120  1.00  0.00    -0.502 OA
ATOM     52  H   UNL     1      65.634  48.677   9.901  1.00  0.00     0.293 HD
ENDBRANCH  46  51
ENDBRANCH  39  41
ENDBRANCH  38  39
ENDBRANCH   3  38
BRANCH   5  53
ATOM     53  O   UNL     1      73.748  42.104   5.326  1.00  0.00    -0.428 OA
BRANCH  53  54
ATOM     54  C   UNL     1      73.886  40.869   5.969  1.00  0.00     0.340 C 
ATOM     55  O   UNL     1      75.023  40.439   6.293  1.00  0.00    -0.246 OA
BRANCH  54  56
ATOM     56  C   UNL     1      72.685  40.075   6.272  1.00  0.00     0.067 A 
ATOM     57  C   UNL     1      72.789  38.830   6.904  1.00  0.00     0.066 A 
ATOM     58  C   UNL     1      71.419  40.571   5.938  1.00  0.00     0.066 A 
ATOM     59  C   UNL     1      71.645  38.092   7.236  1.00  0.00     0.162 A 
ATOM     60  C   UNL     1      70.268  39.840   6.233  1.00  0.00     0.162 A 
ATOM     61  C   UNL     1      70.364  38.601   6.900  1.00  0.00     0.200 A 
BRANCH  59  62
ATOM     62  O   UNL     1      71.832  36.875   7.899  1.00  0.00    -0.504 OA
ATOM     63  H   UNL     1      71.149  36.126   7.912  1.00  0.00     0.293 HD
ENDBRANCH  59  62
BRANCH  60  64
ATOM     64  O   UNL     1      69.033  40.361   5.848  1.00  0.00    -0.504 OA
ATOM     65  H   UNL     1      68.955  41.227   5.325  1.00  0.00     0.293 HD
ENDBRANCH  60  64
BRANCH  61  66
ATOM     66  O   UNL     1      69.183  37.913   7.213  1.00  0.00    -0.502 OA
ATOM     67  H   UNL     1      68.847  37.103   6.709  1.00  0.00     0.293 HD
ENDBRANCH  61  66
ENDBRANCH  54  56
ENDBRANCH  53  54
ENDBRANCH   5  53
BRANCH   4  68
ATOM     68  O   UNL     1      72.932  42.612   7.878  1.00  0.00    -0.448 OA
BRANCH  68  69
ATOM     69  C   UNL     1      72.329  42.670   9.138  1.00  0.00     0.339 C 
ATOM     70  O   UNL     1      72.811  43.410  10.041  1.00  0.00    -0.246 OA
BRANCH  69  71
ATOM     71  C   UNL     1      71.132  41.847   9.411  1.00  0.00     0.067 A 
ATOM     72  C   UNL     1      69.854  42.420   9.430  1.00  0.00     0.066 A 
ATOM     73  C   UNL     1      71.261  40.469   9.647  1.00  0.00     0.066 A 
ATOM     74  C   UNL     1      68.717  41.632   9.667  1.00  0.00     0.162 A 
ATOM     75  C   UNL     1      70.136  39.674   9.880  1.00  0.00     0.162 A 
ATOM     76  C   UNL     1      68.857  40.252   9.890  1.00  0.00     0.200 A 
BRANCH  74  77
ATOM     77  O   UNL     1      67.449  42.212   9.671  1.00  0.00    -0.504 OA
ATOM     78  H   UNL     1      67.195  42.937   9.007  1.00  0.00     0.293 HD
ENDBRANCH  74  77
BRANCH  75  79
ATOM     79  O   UNL     1      70.306  38.306  10.098  1.00  0.00    -0.504 OA
ATOM     80  H   UNL     1      70.768  37.705   9.428  1.00  0.00     0.293 HD
ENDBRANCH  75  79
BRANCH  76  81
ATOM     81  O   UNL     1      67.738  39.450  10.124  1.00  0.00    -0.502 OA
ATOM     82  H   UNL     1      67.622  38.913  10.970  1.00  0.00     0.293 HD
ENDBRANCH  76  81
ENDBRANCH  69  71
ENDBRANCH  68  69
ENDBRANCH   4  68
TORSDOF 31
ENDMDL
MODEL 6
REMARK VINA RESULT:    -2.356      2.954     10.119
REMARK INTER + INTRA:          -9.504
REMARK INTER:                 -11.299
REMARK INTRA:                   1.794
REMARK UNBOUND:                -3.912
REMARK SMILES O=C(OC[C@H]1O[C@H](OC(=O)c2cc(O)c(O)c(O)c2)[C@H](OC(=O)c2cc(O)c(O)c(O)c2)[C@@H](OC(=O)c2cc(O)c(O)c(O)c2)[C@H]1OC(=O)c1cc(O)c(O)c(O)c1)c1cc(O)c(O)c(O)c1
REMARK SMILES IDX 5 1 46 2 33 3 20 4 7 5 6 6 4 7 3 8 2 9 1 10 59 11 60 12
REMARK SMILES IDX 61 13 67 14 63 15 65 16 62 17 64 19 66 21 47 23 48 24 49 25
REMARK SMILES IDX 50 26 58 27 51 28 56 29 52 30 54 31 57 32 53 34 55 36 34 38
REMARK SMILES IDX 35 39 36 40 37 41 45 42 38 43 43 44 39 45 41 46 44 47 40 49
REMARK SMILES IDX 42 51 8 53 9 54 10 55 11 56 19 57 12 58 17 59 13 60 15 61
REMARK SMILES IDX 18 62 14 64 16 66 21 68 22 69 23 70 24 71 32 72 25 73 30 74
REMARK SMILES IDX 26 75 28 76 31 77 27 79 29 81
REMARK H PARENT 62 18 64 20 66 22 57 33 53 35 55 37 44 48 40 50 42 52 18 63
REMARK H PARENT 14 65 16 67 31 78 27 80 29 82
REMARK Flexibility Score: inf
ROOT
ATOM      1  C   UNL     1      69.703  45.335   9.797  1.00  0.00     0.205 C 
ATOM      2  C   UNL     1      70.581  46.595   9.898  1.00  0.00     0.254 C 
ATOM      3  C   UNL     1      72.041  46.133   9.970  1.00  0.00     0.267 C 
ATOM      4  C   UNL     1      72.373  45.275   8.735  1.00  0.00     0.290 C 
ATOM      5  C   UNL     1      71.332  44.140   8.597  1.00  0.00     0.357 C 
ATOM      6  O   UNL     1      69.997  44.630   8.598  1.00  0.00    -0.329 OA
ENDROOT
BRANCH   1   7
ATOM      7  C   UNL     1      68.199  45.665   9.832  1.00  0.00     0.269 C 
BRANCH   7   8
ATOM      8  O   UNL     1      67.450  44.458   9.918  1.00  0.00    -0.459 OA
BRANCH   8   9
ATOM      9  C   UNL     1      66.543  44.066   8.923  1.00  0.00     0.338 C 
ATOM     10  O   UNL     1      66.843  43.126   8.131  1.00  0.00    -0.246 OA
BRANCH   9  11
ATOM     11  C   UNL     1      65.253  44.772   8.780  1.00  0.00     0.067 A 
ATOM     12  C   UNL     1      65.224  46.163   8.614  1.00  0.00     0.066 A 
ATOM     13  C   UNL     1      64.011  46.851   8.530  1.00  0.00     0.162 A 
ATOM     14  C   UNL     1      64.037  44.061   8.855  1.00  0.00     0.066 A 
ATOM     15  C   UNL     1      62.792  46.141   8.641  1.00  0.00     0.200 A 
ATOM     16  C   UNL     1      62.817  44.743   8.797  1.00  0.00     0.162 A 
BRANCH  13  17
ATOM     17  O   UNL     1      64.063  48.230   8.324  1.00  0.00    -0.504 OA
ATOM     18  H   UNL     1      63.261  48.789   8.087  1.00  0.00     0.293 HD
ENDBRANCH  13  17
BRANCH  15  19
ATOM     19  O   UNL     1      61.552  46.787   8.607  1.00  0.00    -0.502 OA
ATOM     20  H   UNL     1      61.342  47.645   9.093  1.00  0.00     0.293 HD
ENDBRANCH  15  19
BRANCH  16  21
ATOM     21  O   UNL     1      61.636  44.008   8.902  1.00  0.00    -0.504 OA
ATOM     22  H   UNL     1      61.102  43.968   9.762  1.00  0.00     0.293 HD
ENDBRANCH  16  21
ENDBRANCH   9  11
ENDBRANCH   8   9
ENDBRANCH   7   8
ENDBRANCH   1   7
BRANCH   2  23
ATOM     23  O   UNL     1      70.410  47.413   8.739  1.00  0.00    -0.452 OA
BRANCH  23  24
ATOM     24  C   UNL     1      69.167  47.836   8.250  1.00  0.00     0.338 C 
ATOM     25  O   UNL     1      68.574  47.156   7.374  1.00  0.00    -0.246 OA
BRANCH  24  26
ATOM     26  C   UNL     1      68.556  49.073   8.786  1.00  0.00     0.067 A 
ATOM     27  C   UNL     1      67.198  49.106   9.154  1.00  0.00     0.066 A 
ATOM     28  C   UNL     1      69.317  50.250   8.881  1.00  0.00     0.066 A 
ATOM     29  C   UNL     1      66.607  50.301   9.597  1.00  0.00     0.162 A 
ATOM     30  C   UNL     1      68.736  51.439   9.331  1.00  0.00     0.162 A 
ATOM     31  C   UNL     1      67.380  51.471   9.689  1.00  0.00     0.200 A 
BRANCH  29  32
ATOM     32  O   UNL     1      65.258  50.331   9.939  1.00  0.00    -0.504 OA
ATOM     33  H   UNL     1      64.547  50.598   9.267  1.00  0.00     0.293 HD
ENDBRANCH  29  32
BRANCH  30  34
ATOM     34  O   UNL     1      69.524  52.585   9.409  1.00  0.00    -0.504 OA
ATOM     35  H   UNL     1      70.270  52.681  10.091  1.00  0.00     0.293 HD
ENDBRANCH  30  34
BRANCH  31  36
ATOM     36  O   UNL     1      66.817  52.670  10.123  1.00  0.00    -0.502 OA
ATOM     37  H   UNL     1      65.830  52.763  10.325  1.00  0.00     0.293 HD
ENDBRANCH  31  36
ENDBRANCH  24  26
ENDBRANCH  23  24
ENDBRANCH   2  23
BRANCH   3  38
ATOM     38  O   UNL     1      72.915  47.257  10.069  1.00  0.00    -0.450 OA
BRANCH  38  39
ATOM     39  C   UNL     1      73.904  47.530   9.115  1.00  0.00     0.338 C 
ATOM     40  O   UNL     1      75.091  47.753   9.481  1.00  0.00    -0.246 OA
BRANCH  39  41
ATOM     41  C   UNL     1      73.567  47.538   7.674  1.00  0.00     0.067 A 
ATOM     42  C   UNL     1      72.408  48.192   7.220  1.00  0.00     0.066 A 
ATOM     43  C   UNL     1      74.401  46.897   6.745  1.00  0.00     0.066 A 
ATOM     44  C   UNL     1      72.084  48.201   5.861  1.00  0.00     0.162 A 
ATOM     45  C   UNL     1      74.087  46.895   5.383  1.00  0.00     0.162 A 
ATOM     46  C   UNL     1      72.909  47.546   4.932  1.00  0.00     0.200 A 
BRANCH  44  47
ATOM     47  O   UNL     1      70.936  48.867   5.427  1.00  0.00    -0.504 OA
ATOM     48  H   UNL     1      70.021  48.424   5.451  1.00  0.00     0.293 HD
ENDBRANCH  44  47
BRANCH  45  49
ATOM     49  O   UNL     1      74.962  46.237   4.519  1.00  0.00    -0.504 OA
ATOM     50  H   UNL     1      75.754  46.677   4.072  1.00  0.00     0.293 HD
ENDBRANCH  45  49
BRANCH  46  51
ATOM     51  O   UNL     1      72.521  47.565   3.590  1.00  0.00    -0.502 OA
ATOM     52  H   UNL     1      71.561  47.451   3.280  1.00  0.00     0.293 HD
ENDBRANCH  46  51
ENDBRANCH  39  41
ENDBRANCH  38  39
ENDBRANCH   3  38
BRANCH   5  53
ATOM     53  O   UNL     1      71.518  43.165   9.622  1.00  0.00    -0.428 OA
BRANCH  53  54
ATOM     54  C   UNL     1      70.675  42.062   9.795  1.00  0.00     0.340 C 
ATOM     55  O   UNL     1      69.472  42.219  10.124  1.00  0.00    -0.246 OA
BRANCH  54  56
ATOM     56  C   UNL     1      71.209  40.706   9.583  1.00  0.00     0.067 A 
ATOM     57  C   UNL     1      70.412  39.702   9.019  1.00  0.00     0.066 A 
ATOM     58  C   UNL     1      72.532  40.415   9.934  1.00  0.00     0.066 A 
ATOM     59  C   UNL     1      70.930  38.425   8.772  1.00  0.00     0.162 A 
ATOM     60  C   UNL     1      73.060  39.141   9.723  1.00  0.00     0.162 A 
ATOM     61  C   UNL     1      72.272  38.135   9.125  1.00  0.00     0.200 A 
BRANCH  59  62
ATOM     62  O   UNL     1      70.080  37.489   8.174  1.00  0.00    -0.504 OA
ATOM     63  H   UNL     1      69.417  37.712   7.440  1.00  0.00     0.293 HD
ENDBRANCH  59  62
BRANCH  60  64
ATOM     64  O   UNL     1      74.373  38.891  10.124  1.00  0.00    -0.504 OA
ATOM     65  H   UNL     1      75.112  38.703   9.454  1.00  0.00     0.293 HD
ENDBRANCH  60  64
BRANCH  61  66
ATOM     66  O   UNL     1      72.850  36.877   8.896  1.00  0.00    -0.502 OA
ATOM     67  H   UNL     1      73.291  36.606   8.028  1.00  0.00     0.293 HD
ENDBRANCH  61  66
ENDBRANCH  54  56
ENDBRANCH  53  54
ENDBRANCH   5  53
BRANCH   4  68
ATOM     68  O   UNL     1      73.661  44.681   8.882  1.00  0.00    -0.448 OA
BRANCH  68  69
ATOM     69  C   UNL     1      73.917  43.313   8.744  1.00  0.00     0.339 C 
ATOM     70  O   UNL     1      74.097  42.593   9.766  1.00  0.00    -0.246 OA
BRANCH  69  71
ATOM     71  C   UNL     1      73.990  42.719   7.393  1.00  0.00     0.067 A 
ATOM     72  C   UNL     1      73.675  43.474   6.256  1.00  0.00     0.066 A 
ATOM     73  C   UNL     1      74.386  41.382   7.230  1.00  0.00     0.066 A 
ATOM     74  C   UNL     1      73.767  42.913   4.973  1.00  0.00     0.162 A 
ATOM     75  C   UNL     1      74.484  40.814   5.956  1.00  0.00     0.162 A 
ATOM     76  C   UNL     1      74.176  41.578   4.821  1.00  0.00     0.200 A 
BRANCH  74  77
ATOM     77  O   UNL     1      73.463  43.681   3.848  1.00  0.00    -0.504 OA
ATOM     78  H   UNL     1      72.696  44.345   3.850  1.00  0.00     0.293 HD
ENDBRANCH  74  77
BRANCH  75  79
ATOM     79  O   UNL     1      74.894  39.485   5.837  1.00  0.00    -0.504 OA
ATOM     80  H   UNL     1      75.861  39.228   5.687  1.00  0.00     0.293 HD
ENDBRANCH  75  79
BRANCH  76  81
ATOM     81  O   UNL     1      74.277  41.003   3.553  1.00  0.00    -0.502 OA
ATOM     82  H   UNL     1      75.164  40.788   3.123  1.00  0.00     0.293 HD
ENDBRANCH  76  81
ENDBRANCH  69  71
ENDBRANCH  68  69
ENDBRANCH   4  68
TORSDOF 31
ENDMDL
MODEL 7
REMARK VINA RESULT:    -2.282      3.021     10.041
REMARK INTER + INTRA:          -9.330
REMARK INTER:                 -12.194
REMARK INTRA:                   2.863
REMARK UNBOUND:                -3.912
REMARK SMILES O=C(OC[C@H]1O[C@H](OC(=O)c2cc(O)c(O)c(O)c2)[C@H](OC(=O)c2cc(O)c(O)c(O)c2)[C@@H](OC(=O)c2cc(O)c(O)c(O)c2)[C@H]1OC(=O)c1cc(O)c(O)c(O)c1)c1cc(O)c(O)c(O)c1
REMARK SMILES IDX 5 1 46 2 33 3 20 4 7 5 6 6 4 7 3 8 2 9 1 10 59 11 60 12
REMARK SMILES IDX 61 13 67 14 63 15 65 16 62 17 64 19 66 21 47 23 48 24 49 25
REMARK SMILES IDX 50 26 58 27 51 28 56 29 52 30 54 31 57 32 53 34 55 36 34 38
REMARK SMILES IDX 35 39 36 40 37 41 45 42 38 43 43 44 39 45 41 46 44 47 40 49
REMARK SMILES IDX 42 51 8 53 9 54 10 55 11 56 19 57 12 58 17 59 13 60 15 61
REMARK SMILES IDX 18 62 14 64 16 66 21 68 22 69 23 70 24 71 32 72 25 73 30 74
REMARK SMILES IDX 26 75 28 76 31 77 27 79 29 81
REMARK H PARENT 62 18 64 20 66 22 57 33 53 35 55 37 44 48 40 50 42 52 18 63
REMARK H PARENT 14 65 16 67 31 78 27 80 29 82
REMARK Flexibility Score: inf
ROOT
ATOM      1  C   UNL     1      69.792  45.071   9.177  1.00  0.00     0.205 C 
ATOM      2  C   UNL     1      70.685  46.309   9.372  1.00  0.00     0.254 C 
ATOM      3  C   UNL     1      72.143  45.838   9.311  1.00  0.00     0.267 C 
ATOM      4  C   UNL     1      72.400  45.125   7.971  1.00  0.00     0.290 C 
ATOM      5  C   UNL     1      71.343  44.016   7.762  1.00  0.00     0.357 C 
ATOM      6  O   UNL     1      70.014  44.506   7.892  1.00  0.00    -0.329 OA
ENDROOT
BRANCH   1   7
ATOM      7  C   UNL     1      68.295  45.399   9.332  1.00  0.00     0.269 C 
BRANCH   7   8
ATOM      8  O   UNL     1      67.563  44.194   9.530  1.00  0.00    -0.459 OA
BRANCH   8   9
ATOM      9  C   UNL     1      66.545  43.783   8.659  1.00  0.00     0.338 C 
ATOM     10  O   UNL     1      66.703  42.748   7.949  1.00  0.00    -0.246 OA
BRANCH   9  11
ATOM     11  C   UNL     1      65.303  44.576   8.548  1.00  0.00     0.067 A 
ATOM     12  C   UNL     1      65.349  45.899   8.088  1.00  0.00     0.066 A 
ATOM     13  C   UNL     1      64.192  46.678   8.026  1.00  0.00     0.162 A 
ATOM     14  C   UNL     1      64.067  44.027   8.944  1.00  0.00     0.066 A 
ATOM     15  C   UNL     1      62.958  46.138   8.459  1.00  0.00     0.200 A 
ATOM     16  C   UNL     1      62.906  44.806   8.911  1.00  0.00     0.162 A 
BRANCH  13  17
ATOM     17  O   UNL     1      64.310  47.974   7.521  1.00  0.00    -0.504 OA
ATOM     18  H   UNL     1      65.188  48.395   7.268  1.00  0.00     0.293 HD
ENDBRANCH  13  17
BRANCH  15  19
ATOM     19  O   UNL     1      61.778  46.889   8.459  1.00  0.00    -0.502 OA
ATOM     20  H   UNL     1      61.121  46.921   9.223  1.00  0.00     0.293 HD
ENDBRANCH  15  19
BRANCH  16  21
ATOM     21  O   UNL     1      61.706  44.236   9.337  1.00  0.00    -0.504 OA
ATOM     22  H   UNL     1      60.829  44.742   9.305  1.00  0.00     0.293 HD
ENDBRANCH  16  21
ENDBRANCH   9  11
ENDBRANCH   8   9
ENDBRANCH   7   8
ENDBRANCH   1   7
BRANCH   2  23
ATOM     23  O   UNL     1      70.459  47.254   8.325  1.00  0.00    -0.452 OA
BRANCH  23  24
ATOM     24  C   UNL     1      69.190  47.678   7.907  1.00  0.00     0.338 C 
ATOM     25  O   UNL     1      68.575  47.033   7.019  1.00  0.00    -0.246 OA
BRANCH  24  26
ATOM     26  C   UNL     1      68.579  48.872   8.531  1.00  0.00     0.067 A 
ATOM     27  C   UNL     1      67.233  48.862   8.943  1.00  0.00     0.066 A 
ATOM     28  C   UNL     1      69.325  50.054   8.668  1.00  0.00     0.066 A 
ATOM     29  C   UNL     1      66.639  50.020   9.472  1.00  0.00     0.162 A 
ATOM     30  C   UNL     1      68.740  51.207   9.203  1.00  0.00     0.162 A 
ATOM     31  C   UNL     1      67.396  51.196   9.605  1.00  0.00     0.200 A 
BRANCH  29  32
ATOM     32  O   UNL     1      65.301  50.007   9.858  1.00  0.00    -0.504 OA
ATOM     33  H   UNL     1      64.942  49.310  10.499  1.00  0.00     0.293 HD
ENDBRANCH  29  32
BRANCH  30  34
ATOM     34  O   UNL     1      69.513  52.360   9.321  1.00  0.00    -0.504 OA
ATOM     35  H   UNL     1      70.390  52.475   8.822  1.00  0.00     0.293 HD
ENDBRANCH  30  34
BRANCH  31  36
ATOM     36  O   UNL     1      66.831  52.358  10.124  1.00  0.00    -0.502 OA
ATOM     37  H   UNL     1      67.325  53.241  10.139  1.00  0.00     0.293 HD
ENDBRANCH  31  36
ENDBRANCH  24  26
ENDBRANCH  23  24
ENDBRANCH   2  23
BRANCH   3  38
ATOM     38  O   UNL     1      73.030  46.942   9.489  1.00  0.00    -0.450 OA
BRANCH  38  39
ATOM     39  C   UNL     1      73.894  47.386   8.478  1.00  0.00     0.338 C 
ATOM     40  O   UNL     1      75.093  47.668   8.751  1.00  0.00    -0.246 OA
BRANCH  39  41
ATOM     41  C   UNL     1      73.409  47.508   7.086  1.00  0.00     0.067 A 
ATOM     42  C   UNL     1      74.026  46.780   6.053  1.00  0.00     0.066 A 
ATOM     43  C   UNL     1      72.325  48.347   6.781  1.00  0.00     0.066 A 
ATOM     44  C   UNL     1      73.572  46.892   4.736  1.00  0.00     0.162 A 
ATOM     45  C   UNL     1      71.864  48.471   5.467  1.00  0.00     0.162 A 
ATOM     46  C   UNL     1      72.499  47.743   4.427  1.00  0.00     0.200 A 
BRANCH  44  47
ATOM     47  O   UNL     1      74.189  46.151   3.726  1.00  0.00    -0.504 OA
ATOM     48  H   UNL     1      73.692  45.886   2.879  1.00  0.00     0.293 HD
ENDBRANCH  44  47
BRANCH  45  49
ATOM     49  O   UNL     1      70.784  49.324   5.240  1.00  0.00    -0.504 OA
ATOM     50  H   UNL     1      70.736  50.277   5.569  1.00  0.00     0.293 HD
ENDBRANCH  45  49
BRANCH  46  51
ATOM     51  O   UNL     1      72.107  47.837   3.089  1.00  0.00    -0.502 OA
ATOM     52  H   UNL     1      71.990  48.716   2.598  1.00  0.00     0.293 HD
ENDBRANCH  46  51
ENDBRANCH  39  41
ENDBRANCH  38  39
ENDBRANCH   3  38
BRANCH   5  53
ATOM     53  O   UNL     1      71.576  42.931   8.659  1.00  0.00    -0.428 OA
BRANCH  53  54
ATOM     54  C   UNL     1      70.550  42.157   9.212  1.00  0.00     0.340 C 
ATOM     55  O   UNL     1      69.818  42.619  10.124  1.00  0.00    -0.246 OA
BRANCH  54  56
ATOM     56  C   UNL     1      70.326  40.791   8.711  1.00  0.00     0.067 A 
ATOM     57  C   UNL     1      71.224  39.760   9.014  1.00  0.00     0.066 A 
ATOM     58  C   UNL     1      69.197  40.510   7.933  1.00  0.00     0.066 A 
ATOM     59  C   UNL     1      70.990  38.449   8.579  1.00  0.00     0.162 A 
ATOM     60  C   UNL     1      68.959  39.218   7.465  1.00  0.00     0.162 A 
ATOM     61  C   UNL     1      69.842  38.168   7.794  1.00  0.00     0.200 A 
BRANCH  59  62
ATOM     62  O   UNL     1      71.916  37.470   8.954  1.00  0.00    -0.504 OA
ATOM     63  H   UNL     1      72.576  37.577   9.716  1.00  0.00     0.293 HD
ENDBRANCH  59  62
BRANCH  60  64
ATOM     64  O   UNL     1      67.839  38.996   6.663  1.00  0.00    -0.504 OA
ATOM     65  H   UNL     1      66.981  38.603   7.036  1.00  0.00     0.293 HD
ENDBRANCH  60  64
BRANCH  61  66
ATOM     66  O   UNL     1      69.550  36.875   7.336  1.00  0.00    -0.502 OA
ATOM     67  H   UNL     1      69.629  36.041   7.902  1.00  0.00     0.293 HD
ENDBRANCH  61  66
ENDBRANCH  54  56
ENDBRANCH  53  54
ENDBRANCH   5  53
BRANCH   4  68
ATOM     68  O   UNL     1      73.689  44.515   7.979  1.00  0.00    -0.448 OA
BRANCH  68  69
ATOM     69  C   UNL     1      73.971  43.280   8.570  1.00  0.00     0.339 C 
ATOM     70  O   UNL     1      73.984  43.164   9.827  1.00  0.00    -0.246 OA
BRANCH  69  71
ATOM     71  C   UNL     1      74.268  42.114   7.712  1.00  0.00     0.067 A 
ATOM     72  C   UNL     1      74.314  40.819   8.245  1.00  0.00     0.066 A 
ATOM     73  C   UNL     1      74.503  42.289   6.338  1.00  0.00     0.066 A 
ATOM     74  C   UNL     1      74.574  39.713   7.423  1.00  0.00     0.162 A 
ATOM     75  C   UNL     1      74.760  41.193   5.510  1.00  0.00     0.162 A 
ATOM     76  C   UNL     1      74.796  39.899   6.049  1.00  0.00     0.200 A 
BRANCH  74  77
ATOM     77  O   UNL     1      74.603  38.427   7.965  1.00  0.00    -0.504 OA
ATOM     78  H   UNL     1      73.857  38.086   8.563  1.00  0.00     0.293 HD
ENDBRANCH  74  77
BRANCH  75  79
ATOM     79  O   UNL     1      74.976  41.410   4.147  1.00  0.00    -0.504 OA
ATOM     80  H   UNL     1      75.870  41.710   3.783  1.00  0.00     0.293 HD
ENDBRANCH  75  79
BRANCH  76  81
ATOM     81  O   UNL     1      75.053  38.809   5.214  1.00  0.00    -0.502 OA
ATOM     82  H   UNL     1      75.604  38.017   5.509  1.00  0.00     0.293 HD
ENDBRANCH  76  81
ENDBRANCH  69  71
ENDBRANCH  68  69
ENDBRANCH   4  68
TORSDOF 31
ENDMDL
MODEL 8
REMARK VINA RESULT:    -2.260      1.634      9.367
REMARK INTER + INTRA:          -9.278
REMARK INTER:                  -9.190
REMARK INTRA:                  -0.089
REMARK UNBOUND:                -3.912
REMARK SMILES O=C(OC[C@H]1O[C@H](OC(=O)c2cc(O)c(O)c(O)c2)[C@H](OC(=O)c2cc(O)c(O)c(O)c2)[C@@H](OC(=O)c2cc(O)c(O)c(O)c2)[C@H]1OC(=O)c1cc(O)c(O)c(O)c1)c1cc(O)c(O)c(O)c1
REMARK SMILES IDX 5 1 46 2 33 3 20 4 7 5 6 6 4 7 3 8 2 9 1 10 59 11 60 12
REMARK SMILES IDX 61 13 67 14 63 15 65 16 62 17 64 19 66 21 47 23 48 24 49 25
REMARK SMILES IDX 50 26 58 27 51 28 56 29 52 30 54 31 57 32 53 34 55 36 34 38
REMARK SMILES IDX 35 39 36 40 37 41 45 42 38 43 43 44 39 45 41 46 44 47 40 49
REMARK SMILES IDX 42 51 8 53 9 54 10 55 11 56 19 57 12 58 17 59 13 60 15 61
REMARK SMILES IDX 18 62 14 64 16 66 21 68 22 69 23 70 24 71 32 72 25 73 30 74
REMARK SMILES IDX 26 75 28 76 31 77 27 79 29 81
REMARK H PARENT 62 18 64 20 66 22 57 33 53 35 55 37 44 48 40 50 42 52 18 63
REMARK H PARENT 14 65 16 67 31 78 27 80 29 82
REMARK Flexibility Score: inf
ROOT
ATOM      1  C   UNL     1      73.083  43.781   7.985  1.00  0.00     0.205 C 
ATOM      2  C   UNL     1      73.045  45.297   7.723  1.00  0.00     0.254 C 
ATOM      3  C   UNL     1      73.594  45.533   6.312  1.00  0.00     0.267 C 
ATOM      4  C   UNL     1      72.762  44.734   5.293  1.00  0.00     0.290 C 
ATOM      5  C   UNL     1      72.692  43.252   5.729  1.00  0.00     0.357 C 
ATOM      6  O   UNL     1      72.233  43.106   7.068  1.00  0.00    -0.329 OA
ENDROOT
BRANCH   1   7
ATOM      7  C   UNL     1      72.659  43.425   9.422  1.00  0.00     0.269 C 
BRANCH   7   8
ATOM      8  O   UNL     1      71.393  42.773   9.396  1.00  0.00    -0.459 OA
BRANCH   8   9
ATOM      9  C   UNL     1      71.268  41.377   9.410  1.00  0.00     0.338 C 
ATOM     10  O   UNL     1      72.046  40.682  10.125  1.00  0.00    -0.246 OA
BRANCH   9  11
ATOM     11  C   UNL     1      70.249  40.719   8.566  1.00  0.00     0.067 A 
ATOM     12  C   UNL     1      69.384  39.764   9.117  1.00  0.00     0.066 A 
ATOM     13  C   UNL     1      68.452  39.096   8.320  1.00  0.00     0.162 A 
ATOM     14  C   UNL     1      70.166  41.012   7.189  1.00  0.00     0.066 A 
ATOM     15  C   UNL     1      68.394  39.364   6.932  1.00  0.00     0.200 A 
ATOM     16  C   UNL     1      69.253  40.330   6.377  1.00  0.00     0.162 A 
BRANCH  13  17
ATOM     17  O   UNL     1      67.598  38.188   8.948  1.00  0.00    -0.504 OA
ATOM     18  H   UNL     1      66.595  38.255   8.921  1.00  0.00     0.293 HD
ENDBRANCH  13  17
BRANCH  15  19
ATOM     19  O   UNL     1      67.509  38.691   6.083  1.00  0.00    -0.502 OA
ATOM     20  H   UNL     1      67.514  38.767   5.078  1.00  0.00     0.293 HD
ENDBRANCH  15  19
BRANCH  16  21
ATOM     21  O   UNL     1      69.219  40.627   5.015  1.00  0.00    -0.504 OA
ATOM     22  H   UNL     1      69.807  40.145   4.345  1.00  0.00     0.293 HD
ENDBRANCH  16  21
ENDBRANCH   9  11
ENDBRANCH   8   9
ENDBRANCH   7   8
ENDBRANCH   1   7
BRANCH   2  23
ATOM     23  O   UNL     1      71.701  45.778   7.784  1.00  0.00    -0.452 OA
BRANCH  23  24
ATOM     24  C   UNL     1      70.955  45.882   8.966  1.00  0.00     0.338 C 
ATOM     25  O   UNL     1      71.529  46.180  10.045  1.00  0.00    -0.246 OA
BRANCH  24  26
ATOM     26  C   UNL     1      69.493  45.659   8.926  1.00  0.00     0.067 A 
ATOM     27  C   UNL     1      68.595  46.718   9.154  1.00  0.00     0.066 A 
ATOM     28  C   UNL     1      68.983  44.367   8.714  1.00  0.00     0.066 A 
ATOM     29  C   UNL     1      67.209  46.487   9.184  1.00  0.00     0.162 A 
ATOM     30  C   UNL     1      67.605  44.134   8.732  1.00  0.00     0.162 A 
ATOM     31  C   UNL     1      66.713  45.191   8.969  1.00  0.00     0.200 A 
BRANCH  29  32
ATOM     32  O   UNL     1      66.329  47.536   9.432  1.00  0.00    -0.504 OA
ATOM     33  H   UNL     1      66.655  48.492   9.517  1.00  0.00     0.293 HD
ENDBRANCH  29  32
BRANCH  30  34
ATOM     34  O   UNL     1      67.139  42.839   8.519  1.00  0.00    -0.504 OA
ATOM     35  H   UNL     1      67.768  42.063   8.334  1.00  0.00     0.293 HD
ENDBRANCH  30  34
BRANCH  31  36
ATOM     36  O   UNL     1      65.343  44.933   8.994  1.00  0.00    -0.502 OA
ATOM     37  H   UNL     1      64.832  44.638   8.172  1.00  0.00     0.293 HD
ENDBRANCH  31  36
ENDBRANCH  24  26
ENDBRANCH  23  24
ENDBRANCH   2  23
BRANCH   3  38
ATOM     38  O   UNL     1      73.591  46.927   6.003  1.00  0.00    -0.450 OA
BRANCH  38  39
ATOM     39  C   UNL     1      72.408  47.654   5.806  1.00  0.00     0.338 C 
ATOM     40  O   UNL     1      71.792  47.571   4.709  1.00  0.00    -0.246 OA
BRANCH  39  41
ATOM     41  C   UNL     1      71.869  48.503   6.891  1.00  0.00     0.067 A 
ATOM     42  C   UNL     1      70.555  48.998   6.819  1.00  0.00     0.066 A 
ATOM     43  C   UNL     1      72.661  48.819   8.006  1.00  0.00     0.066 A 
ATOM     44  C   UNL     1      70.041  49.801   7.840  1.00  0.00     0.162 A 
ATOM     45  C   UNL     1      72.160  49.626   9.033  1.00  0.00     0.162 A 
ATOM     46  C   UNL     1      70.837  50.133   8.948  1.00  0.00     0.200 A 
BRANCH  44  47
ATOM     47  O   UNL     1      68.730  50.273   7.757  1.00  0.00    -0.504 OA
ATOM     48  H   UNL     1      68.186  50.189   6.901  1.00  0.00     0.293 HD
ENDBRANCH  44  47
BRANCH  45  49
ATOM     49  O   UNL     1      73.005  49.898  10.109  1.00  0.00    -0.504 OA
ATOM     50  H   UNL     1      72.753  50.485  10.892  1.00  0.00     0.293 HD
ENDBRANCH  45  49
BRANCH  46  51
ATOM     51  O   UNL     1      70.280  50.962   9.926  1.00  0.00    -0.502 OA
ATOM     52  H   UNL     1      70.523  50.913  10.909  1.00  0.00     0.293 HD
ENDBRANCH  46  51
ENDBRANCH  39  41
ENDBRANCH  38  39
ENDBRANCH   3  38
BRANCH   5  53
ATOM     53  O   UNL     1      73.958  42.619   5.552  1.00  0.00    -0.428 OA
BRANCH  53  54
ATOM     54  C   UNL     1      74.101  41.278   5.181  1.00  0.00     0.340 C 
ATOM     55  O   UNL     1      74.328  40.964   3.984  1.00  0.00    -0.246 OA
BRANCH  54  56
ATOM     56  C   UNL     1      73.992  40.229   6.208  1.00  0.00     0.067 A 
ATOM     57  C   UNL     1      74.564  40.404   7.475  1.00  0.00     0.066 A 
ATOM     58  C   UNL     1      73.298  39.047   5.927  1.00  0.00     0.066 A 
ATOM     59  C   UNL     1      74.422  39.429   8.471  1.00  0.00     0.162 A 
ATOM     60  C   UNL     1      73.169  38.050   6.894  1.00  0.00     0.162 A 
ATOM     61  C   UNL     1      73.714  38.234   8.182  1.00  0.00     0.200 A 
BRANCH  59  62
ATOM     62  O   UNL     1      74.992  39.695   9.720  1.00  0.00    -0.504 OA
ATOM     63  H   UNL     1      75.322  40.609  10.009  1.00  0.00     0.293 HD
ENDBRANCH  59  62
BRANCH  60  64
ATOM     64  O   UNL     1      72.499  36.875   6.553  1.00  0.00    -0.504 OA
ATOM     65  H   UNL     1      72.204  36.682   5.601  1.00  0.00     0.293 HD
ENDBRANCH  60  64
BRANCH  61  66
ATOM     66  O   UNL     1      73.531  37.225   9.139  1.00  0.00    -0.502 OA
ATOM     67  H   UNL     1      73.593  37.372  10.138  1.00  0.00     0.293 HD
ENDBRANCH  61  66
ENDBRANCH  54  56
ENDBRANCH  53  54
ENDBRANCH   5  53
BRANCH   4  68
ATOM     68  O   UNL     1      73.375  44.789   4.006  1.00  0.00    -0.448 OA
BRANCH  68  69
ATOM     69  C   UNL     1      73.041  45.716   3.015  1.00  0.00     0.339 C 
ATOM     70  O   UNL     1      73.071  46.953   3.265  1.00  0.00    -0.246 OA
BRANCH  69  71
ATOM     71  C   UNL     1      72.639  45.237   1.676  1.00  0.00     0.067 A 
ATOM     72  C   UNL     1      73.523  44.501   0.878  1.00  0.00     0.066 A 
ATOM     73  C   UNL     1      71.351  45.509   1.187  1.00  0.00     0.066 A 
ATOM     74  C   UNL     1      73.130  44.029  -0.383  1.00  0.00     0.162 A 
ATOM     75  C   UNL     1      70.947  45.041  -0.067  1.00  0.00     0.162 A 
ATOM     76  C   UNL     1      71.835  44.297  -0.858  1.00  0.00     0.200 A 
BRANCH  74  77
ATOM     77  O   UNL     1      74.016  43.285  -1.163  1.00  0.00    -0.504 OA
ATOM     78  H   UNL     1      74.883  42.922  -0.780  1.00  0.00     0.293 HD
ENDBRANCH  74  77
BRANCH  75  79
ATOM     79  O   UNL     1      69.653  45.322  -0.511  1.00  0.00    -0.504 OA
ATOM     80  H   UNL     1      69.462  45.642  -1.450  1.00  0.00     0.293 HD
ENDBRANCH  75  79
BRANCH  76  81
ATOM     81  O   UNL     1      71.424  43.832  -2.108  1.00  0.00    -0.502 OA
ATOM     82  H   UNL     1      71.989  43.213  -2.670  1.00  0.00     0.293 HD
ENDBRANCH  76  81
ENDBRANCH  69  71
ENDBRANCH  68  69
ENDBRANCH   4  68
TORSDOF 31
ENDMDL
