MODEL 1
REMARK VINA RESULT:    -3.739      0.000      0.000
REMARK INTER + INTRA:          -5.531
REMARK INTER:                  -5.706
REMARK INTRA:                   0.176
REMARK UNBOUND:                 0.176
REMARK SMILES CC1=CCC[C@H](C)C(=O)C[C@H](C(C)C)C(=O)C1
REMARK SMILES IDX 8 1 9 2 6 3 7 4 5 5 4 6 3 7 2 8 1 9 10 11 11 12 15 13 16 14
REMARK SMILES IDX 17 15 12 17 13 18 14 19
REMARK H PARENT
REMARK Flexibility Score: 70.00
ROOT
ATOM      1  C   UNL     1      45.746  21.944  20.609  1.00  0.00     0.136 C 
ATOM      2  O   UNL     1      44.882  21.108  20.387  1.00  0.00    -0.299 OA
ENDROOT
BRANCH   1   3
ATOM      3  C   UNL     1      47.101  21.511  21.126  1.00  0.00     0.053 C 
ATOM      4  C   UNL     1      47.357  20.056  20.717  1.00  0.00     0.016 C 
BRANCH   3   5
ATOM      5  C   UNL     1      48.249  22.418  20.625  1.00  0.00     0.015 C 
BRANCH   5   6
ATOM      6  C   UNL     1      48.869  23.299  21.727  1.00  0.00     0.028 C 
BRANCH   6   7
ATOM      7  C   UNL     1      49.030  24.733  21.270  1.00  0.00    -0.028 C 
ATOM      8  C   UNL     1      48.275  25.789  21.654  1.00  0.00    -0.070 CG0
ATOM      9  C   UNL     1      48.630  27.147  21.103  1.00  0.00     0.039 C 
ATOM     10  G   UNL     1      47.055  25.673  22.544  1.00  0.00     0.000 G0
ENDBRANCH   6   7
ENDBRANCH   5   6
ENDBRANCH   3   5
ENDBRANCH   1   3
BRANCH   1  11
ATOM     11  C   UNL     1      45.436  23.406  20.394  1.00  0.00     0.087 C 
BRANCH  11  12
ATOM     12  C   UNL     1      45.113  24.131  21.720  1.00  0.00     0.066 C 
BRANCH  12  13
ATOM     13  C   UNL     1      45.802  25.481  21.778  1.00  0.00     0.140 C 
ATOM     14  O   UNL     1      45.352  26.423  21.143  1.00  0.00    -0.299 OA
BRANCH  13  15
ATOM     15  C   UNL     1      47.067  25.676  22.572  1.00  0.00     0.106 CG0
ATOM     16  G   UNL     1      48.250  25.812  21.636  1.00  0.00     0.000 G0
ENDBRANCH  13  15
ENDBRANCH  12  13
BRANCH  12  17
ATOM     17  C   UNL     1      43.580  24.219  21.989  1.00  0.00    -0.006 C 
ATOM     18  C   UNL     1      43.270  25.245  23.090  1.00  0.00     0.008 C 
ATOM     19  C   UNL     1      42.732  24.519  20.739  1.00  0.00     0.008 C 
ENDBRANCH  12  17
ENDBRANCH  11  12
ENDBRANCH   1  11
TORSDOF 1
ENDMDL
MODEL 2
REMARK VINA RESULT:    -3.695      2.419      4.680
REMARK INTER + INTRA:          -5.464
REMARK INTER:                  -5.604
REMARK INTRA:                   0.140
REMARK UNBOUND:                 0.176
REMARK SMILES CC1=CCC[C@H](C)C(=O)C[C@H](C(C)C)C(=O)C1
REMARK SMILES IDX 8 1 9 2 6 3 7 4 5 5 4 6 3 7 2 8 1 9 10 11 11 12 15 13 16 14
REMARK SMILES IDX 17 15 12 17 13 18 14 19
REMARK H PARENT
REMARK Flexibility Score: 70.00
ROOT
ATOM      1  C   UNL     1      48.222  22.739  21.132  1.00  0.00     0.136 C 
ATOM      2  O   UNL     1      48.098  21.533  20.976  1.00  0.00    -0.299 OA
ENDROOT
BRANCH   1   3
ATOM      3  C   UNL     1      47.027  23.650  20.952  1.00  0.00     0.053 C 
ATOM      4  C   UNL     1      45.763  22.801  20.782  1.00  0.00     0.016 C 
BRANCH   3   5
ATOM      5  C   UNL     1      46.852  24.644  22.125  1.00  0.00     0.015 C 
BRANCH   5   6
ATOM      6  C   UNL     1      46.870  26.123  21.692  1.00  0.00     0.028 C 
BRANCH   6   7
ATOM      7  C   UNL     1      47.697  26.969  22.636  1.00  0.00    -0.028 C 
ATOM      8  C   UNL     1      48.952  27.427  22.414  1.00  0.00    -0.070 CG0
ATOM      9  C   UNL     1      49.585  28.290  23.477  1.00  0.00     0.039 C 
ATOM     10  G   UNL     1      49.780  27.063  21.199  1.00  0.00     0.000 G0
ENDBRANCH   6   7
ENDBRANCH   5   6
ENDBRANCH   3   5
ENDBRANCH   1   3
BRANCH   1  11
ATOM     11  C   UNL     1      49.579  23.307  21.474  1.00  0.00     0.087 C 
BRANCH  11  12
ATOM     12  C   UNL     1      49.952  24.501  20.567  1.00  0.00     0.066 C 
BRANCH  12  13
ATOM     13  C   UNL     1      50.404  25.688  21.396  1.00  0.00     0.140 C 
ATOM     14  O   UNL     1      51.243  25.536  22.273  1.00  0.00    -0.299 OA
BRANCH  13  15
ATOM     15  C   UNL     1      49.801  27.053  21.195  1.00  0.00     0.106 CG0
ATOM     16  G   UNL     1      48.977  27.441  22.406  1.00  0.00     0.000 G0
ENDBRANCH  13  15
ENDBRANCH  12  13
BRANCH  12  17
ATOM     17  C   UNL     1      50.978  24.108  19.461  1.00  0.00    -0.006 C 
ATOM     18  C   UNL     1      50.927  22.600  19.170  1.00  0.00     0.008 C 
ATOM     19  C   UNL     1      50.833  24.901  18.150  1.00  0.00     0.008 C 
ENDBRANCH  12  17
ENDBRANCH  11  12
ENDBRANCH   1  11
TORSDOF 1
ENDMDL
MODEL 3
REMARK VINA RESULT:    -3.652      3.507      5.135
REMARK INTER + INTRA:          -5.398
REMARK INTER:                  -5.145
REMARK INTRA:                  -0.253
REMARK UNBOUND:                 0.176
REMARK SMILES CC1=CCC[C@H](C)C(=O)C[C@H](C(C)C)C(=O)C1
REMARK SMILES IDX 8 1 9 2 6 3 7 4 5 5 4 6 3 7 2 8 1 9 10 11 11 12 15 13 16 14
REMARK SMILES IDX 17 15 12 17 13 18 14 19
REMARK H PARENT
REMARK Flexibility Score: 70.00
ROOT
ATOM      1  C   UNL     1      48.389  24.686  21.497  1.00  0.00     0.136 C 
ATOM      2  O   UNL     1      47.266  24.204  21.475  1.00  0.00    -0.299 OA
ENDROOT
BRANCH   1   3
ATOM      3  C   UNL     1      49.595  23.803  21.263  1.00  0.00     0.053 C 
ATOM      4  C   UNL     1      49.512  22.578  22.181  1.00  0.00     0.016 C 
BRANCH   3   5
ATOM      5  C   UNL     1      49.733  23.359  19.788  1.00  0.00     0.015 C 
BRANCH   5   6
ATOM      6  C   UNL     1      51.000  23.898  19.095  1.00  0.00     0.028 C 
BRANCH   6   7
ATOM      7  C   UNL     1      50.657  24.866  17.983  1.00  0.00    -0.028 C 
ATOM      8  C   UNL     1      50.812  26.211  18.012  1.00  0.00    -0.070 CG0
ATOM      9  C   UNL     1      50.439  26.990  16.777  1.00  0.00     0.039 C 
ATOM     10  G   UNL     1      51.267  26.981  19.235  1.00  0.00     0.000 G0
ENDBRANCH   6   7
ENDBRANCH   5   6
ENDBRANCH   3   5
ENDBRANCH   1   3
BRANCH   1  11
ATOM     11  C   UNL     1      48.558  26.158  21.790  1.00  0.00     0.087 C 
BRANCH  11  12
ATOM     12  C   UNL     1      50.002  26.640  21.523  1.00  0.00     0.066 C 
BRANCH  12  13
ATOM     13  C   UNL     1      50.108  27.299  20.161  1.00  0.00     0.140 C 
ATOM     14  O   UNL     1      49.227  28.056  19.779  1.00  0.00    -0.299 OA
BRANCH  13  15
ATOM     15  C   UNL     1      51.260  27.001  19.239  1.00  0.00     0.106 CG0
ATOM     16  G   UNL     1      50.770  26.241  18.024  1.00  0.00     0.000 G0
ENDBRANCH  13  15
ENDBRANCH  12  13
BRANCH  12  17
ATOM     17  C   UNL     1      50.550  27.536  22.675  1.00  0.00    -0.006 C 
ATOM     18  C   UNL     1      49.434  27.911  23.663  1.00  0.00     0.008 C 
ATOM     19  C   UNL     1      51.743  26.932  23.436  1.00  0.00     0.008 C 
ENDBRANCH  12  17
ENDBRANCH  11  12
ENDBRANCH   1  11
TORSDOF 1
ENDMDL
MODEL 4
REMARK VINA RESULT:    -3.297      2.511      3.468
REMARK INTER + INTRA:          -4.856
REMARK INTER:                  -4.739
REMARK INTRA:                  -0.117
REMARK UNBOUND:                 0.176
REMARK SMILES CC1=CCC[C@H](C)C(=O)C[C@H](C(C)C)C(=O)C1
REMARK SMILES IDX 8 1 9 2 6 3 7 4 5 5 4 6 3 7 2 8 1 9 10 11 11 12 15 13 16 14
REMARK SMILES IDX 17 15 12 17 13 18 14 19
REMARK H PARENT
REMARK Flexibility Score: 70.00
ROOT
ATOM      1  C   UNL     1      47.611  24.302  21.604  1.00  0.00     0.136 C 
ATOM      2  O   UNL     1      46.537  23.783  21.873  1.00  0.00    -0.299 OA
ENDROOT
BRANCH   1   3
ATOM      3  C   UNL     1      48.860  23.453  21.515  1.00  0.00     0.053 C 
ATOM      4  C   UNL     1      48.491  22.062  20.990  1.00  0.00     0.016 C 
BRANCH   3   5
ATOM      5  C   UNL     1      49.953  24.089  20.625  1.00  0.00     0.015 C 
BRANCH   5   6
ATOM      6  C   UNL     1      51.125  24.696  21.419  1.00  0.00     0.028 C 
BRANCH   6   7
ATOM      7  C   UNL     1      51.454  26.095  20.947  1.00  0.00    -0.028 C 
ATOM      8  C   UNL     1      51.169  27.250  21.594  1.00  0.00    -0.070 CG0
ATOM      9  C   UNL     1      51.620  28.542  20.961  1.00  0.00     0.039 C 
ATOM     10  G   UNL     1      50.362  27.322  22.874  1.00  0.00     0.000 G0
ENDBRANCH   6   7
ENDBRANCH   5   6
ENDBRANCH   3   5
ENDBRANCH   1   3
BRANCH   1  11
ATOM     11  C   UNL     1      47.679  25.796  21.394  1.00  0.00     0.087 C 
BRANCH  11  12
ATOM     12  C   UNL     1      47.855  26.561  22.725  1.00  0.00     0.066 C 
BRANCH  12  13
ATOM     13  C   UNL     1      48.920  27.634  22.594  1.00  0.00     0.140 C 
ATOM     14  O   UNL     1      48.613  28.755  22.214  1.00  0.00    -0.299 OA
BRANCH  13  15
ATOM     15  C   UNL     1      50.367  27.333  22.878  1.00  0.00     0.106 CG0
ATOM     16  G   UNL     1      51.144  27.250  21.580  1.00  0.00     0.000 G0
ENDBRANCH  13  15
ENDBRANCH  12  13
BRANCH  12  17
ATOM     17  C   UNL     1      46.505  27.110  23.276  1.00  0.00    -0.006 C 
ATOM     18  C   UNL     1      45.449  27.203  22.163  1.00  0.00     0.008 C 
ATOM     19  C   UNL     1      45.939  26.323  24.471  1.00  0.00     0.008 C 
ENDBRANCH  12  17
ENDBRANCH  11  12
ENDBRANCH   1  11
TORSDOF 1
ENDMDL
MODEL 5
REMARK VINA RESULT:    -3.216      5.525      7.789
REMARK INTER + INTRA:          -4.732
REMARK INTER:                  -4.600
REMARK INTRA:                  -0.132
REMARK UNBOUND:                 0.176
REMARK SMILES CC1=CCC[C@H](C)C(=O)C[C@H](C(C)C)C(=O)C1
REMARK SMILES IDX 8 1 9 2 6 3 7 4 5 5 4 6 3 7 2 8 1 9 10 11 11 12 15 13 16 14
REMARK SMILES IDX 17 15 12 17 13 18 14 19
REMARK H PARENT
REMARK Flexibility Score: 70.00
ROOT
ATOM      1  C   UNL     1      40.288  25.210  21.844  1.00  0.00     0.136 C 
ATOM      2  O   UNL     1      40.531  25.758  20.778  1.00  0.00    -0.299 OA
ENDROOT
BRANCH   1   3
ATOM      3  C   UNL     1      41.381  24.462  22.576  1.00  0.00     0.053 C 
ATOM      4  C   UNL     1      42.282  23.757  21.556  1.00  0.00     0.016 C 
BRANCH   3   5
ATOM      5  C   UNL     1      42.224  25.381  23.491  1.00  0.00     0.015 C 
BRANCH   5   6
ATOM      6  C   UNL     1      42.278  24.913  24.958  1.00  0.00     0.028 C 
BRANCH   6   7
ATOM      7  C   UNL     1      41.452  25.806  25.859  1.00  0.00    -0.028 C 
ATOM      8  C   UNL     1      40.207  25.548  26.324  1.00  0.00    -0.070 CG0
ATOM      9  C   UNL     1      39.574  26.562  27.243  1.00  0.00     0.039 C 
ATOM     10  G   UNL     1      39.388  24.341  25.916  1.00  0.00     0.000 G0
ENDBRANCH   6   7
ENDBRANCH   5   6
ENDBRANCH   3   5
ENDBRANCH   1   3
BRANCH   1  11
ATOM     11  C   UNL     1      38.885  25.264  22.402  1.00  0.00     0.087 C 
BRANCH  11  12
ATOM     12  C   UNL     1      38.622  24.128  23.415  1.00  0.00     0.066 C 
BRANCH  12  13
ATOM     13  C   UNL     1      38.429  24.685  24.813  1.00  0.00     0.140 C 
ATOM     14  O   UNL     1      37.511  25.461  25.039  1.00  0.00    -0.299 OA
BRANCH  13  15
ATOM     15  C   UNL     1      39.380  24.339  25.927  1.00  0.00     0.106 CG0
ATOM     16  G   UNL     1      40.192  25.558  26.314  1.00  0.00     0.000 G0
ENDBRANCH  13  15
ENDBRANCH  12  13
BRANCH  12  17
ATOM     17  C   UNL     1      37.456  23.194  22.968  1.00  0.00    -0.006 C 
ATOM     18  C   UNL     1      36.793  23.712  21.682  1.00  0.00     0.008 C 
ATOM     19  C   UNL     1      37.857  21.718  22.794  1.00  0.00     0.008 C 
ENDBRANCH  12  17
ENDBRANCH  11  12
ENDBRANCH   1  11
TORSDOF 1
ENDMDL
MODEL 6
REMARK VINA RESULT:    -3.191      4.557      7.184
REMARK INTER + INTRA:          -4.694
REMARK INTER:                  -4.726
REMARK INTRA:                   0.033
REMARK UNBOUND:                 0.176
REMARK SMILES CC1=CCC[C@H](C)C(=O)C[C@H](C(C)C)C(=O)C1
REMARK SMILES IDX 8 1 9 2 6 3 7 4 5 5 4 6 3 7 2 8 1 9 10 11 11 12 15 13 16 14
REMARK SMILES IDX 17 15 12 17 13 18 14 19
REMARK H PARENT
REMARK Flexibility Score: 70.00
ROOT
ATOM      1  C   UNL     1      49.973  27.636  19.777  1.00  0.00     0.136 C 
ATOM      2  O   UNL     1      49.557  27.913  20.894  1.00  0.00    -0.299 OA
ENDROOT
BRANCH   1   3
ATOM      3  C   UNL     1      49.499  28.427  18.578  1.00  0.00     0.053 C 
ATOM      4  C   UNL     1      48.807  29.708  19.057  1.00  0.00     0.016 C 
BRANCH   3   5
ATOM      5  C   UNL     1      50.645  28.771  17.599  1.00  0.00     0.015 C 
BRANCH   5   6
ATOM      6  C   UNL     1      50.461  28.169  16.192  1.00  0.00     0.028 C 
BRANCH   6   7
ATOM      7  C   UNL     1      51.565  27.189  15.857  1.00  0.00    -0.028 C 
ATOM      8  C   UNL     1      51.521  25.845  16.012  1.00  0.00    -0.070 CG0
ATOM      9  C   UNL     1      52.724  25.046  15.579  1.00  0.00     0.039 C 
ATOM     10  G   UNL     1      50.367  25.108  16.661  1.00  0.00     0.000 G0
ENDBRANCH   6   7
ENDBRANCH   5   6
ENDBRANCH   3   5
ENDBRANCH   1   3
BRANCH   1  11
ATOM     11  C   UNL     1      50.934  26.484  19.609  1.00  0.00     0.087 C 
BRANCH  11  12
ATOM     12  C   UNL     1      50.203  25.165  19.272  1.00  0.00     0.066 C 
BRANCH  12  13
ATOM     13  C   UNL     1      50.745  24.560  17.990  1.00  0.00     0.140 C 
ATOM     14  O   UNL     1      51.545  23.637  18.042  1.00  0.00    -0.299 OA
BRANCH  13  15
ATOM     15  C   UNL     1      50.353  25.108  16.644  1.00  0.00     0.106 CG0
ATOM     16  G   UNL     1      51.520  25.851  16.027  1.00  0.00     0.000 G0
ENDBRANCH  13  15
ENDBRANCH  12  13
BRANCH  12  17
ATOM     17  C   UNL     1      50.208  24.162  20.466  1.00  0.00    -0.006 C 
ATOM     18  C   UNL     1      51.317  24.505  21.472  1.00  0.00     0.008 C 
ATOM     19  C   UNL     1      48.858  24.038  21.195  1.00  0.00     0.008 C 
ENDBRANCH  12  17
ENDBRANCH  11  12
ENDBRANCH   1  11
TORSDOF 1
ENDMDL
MODEL 7
REMARK VINA RESULT:    -3.157      7.865      9.811
REMARK INTER + INTRA:          -4.643
REMARK INTER:                  -4.436
REMARK INTRA:                  -0.207
REMARK UNBOUND:                 0.176
REMARK SMILES CC1=CCC[C@H](C)C(=O)C[C@H](C(C)C)C(=O)C1
REMARK SMILES IDX 8 1 9 2 6 3 7 4 5 5 4 6 3 7 2 8 1 9 10 11 11 12 15 13 16 14
REMARK SMILES IDX 17 15 12 17 13 18 14 19
REMARK H PARENT
REMARK Flexibility Score: 70.00
ROOT
ATOM      1  C   UNL     1      38.453  31.334  23.325  1.00  0.00     0.136 C 
ATOM      2  O   UNL     1      37.560  31.300  24.160  1.00  0.00    -0.299 OA
ENDROOT
BRANCH   1   3
ATOM      3  C   UNL     1      38.124  31.644  21.881  1.00  0.00     0.053 C 
ATOM      4  C   UNL     1      36.659  32.081  21.777  1.00  0.00     0.016 C 
BRANCH   3   5
ATOM      5  C   UNL     1      39.050  32.726  21.277  1.00  0.00     0.015 C 
BRANCH   5   6
ATOM      6  C   UNL     1      39.937  32.211  20.127  1.00  0.00     0.028 C 
BRANCH   6   7
ATOM      7  C   UNL     1      41.395  32.546  20.354  1.00  0.00    -0.028 C 
ATOM      8  C   UNL     1      42.373  31.681  20.713  1.00  0.00    -0.070 CG0
ATOM      9  C   UNL     1      43.775  32.220  20.853  1.00  0.00     0.039 C 
ATOM     10  G   UNL     1      42.128  30.226  21.054  1.00  0.00     0.000 G0
ENDBRANCH   6   7
ENDBRANCH   5   6
ENDBRANCH   3   5
ENDBRANCH   1   3
BRANCH   1  11
ATOM     11  C   UNL     1      39.872  31.035  23.744  1.00  0.00     0.087 C 
BRANCH  11  12
ATOM     12  C   UNL     1      40.442  29.796  23.017  1.00  0.00     0.066 C 
BRANCH  12  13
ATOM     13  C   UNL     1      41.852  30.062  22.524  1.00  0.00     0.140 C 
ATOM     14  O   UNL     1      42.765  30.187  23.328  1.00  0.00    -0.299 OA
BRANCH  13  15
ATOM     15  C   UNL     1      42.148  30.224  21.057  1.00  0.00     0.106 CG0
ATOM     16  G   UNL     1      42.375  31.686  20.732  1.00  0.00     0.000 G0
ENDBRANCH  13  15
ENDBRANCH  12  13
BRANCH  12  17
ATOM     17  C   UNL     1      40.333  28.501  23.876  1.00  0.00    -0.006 C 
ATOM     18  C   UNL     1      40.063  28.836  25.351  1.00  0.00     0.008 C 
ATOM     19  C   UNL     1      39.290  27.488  23.369  1.00  0.00     0.008 C 
ENDBRANCH  12  17
ENDBRANCH  11  12
ENDBRANCH   1  11
TORSDOF 1
ENDMDL
MODEL 8
REMARK VINA RESULT:    -3.116      4.802      6.784
REMARK INTER + INTRA:          -4.580
REMARK INTER:                  -4.130
REMARK INTRA:                  -0.450
REMARK UNBOUND:                 0.176
REMARK SMILES CC1=CCC[C@H](C)C(=O)C[C@H](C(C)C)C(=O)C1
REMARK SMILES IDX 8 1 9 2 6 3 7 4 5 5 4 6 3 7 2 8 1 9 10 11 11 12 15 13 16 14
REMARK SMILES IDX 17 15 12 17 13 18 14 19
REMARK H PARENT
REMARK Flexibility Score: 70.00
ROOT
ATOM      1  C   UNL     1      38.677  24.739  23.612  1.00  0.00     0.136 C 
ATOM      2  O   UNL     1      37.500  24.745  23.279  1.00  0.00    -0.299 OA
ENDROOT
BRANCH   1   3
ATOM      3  C   UNL     1      39.306  23.468  24.141  1.00  0.00     0.053 C 
ATOM      4  C   UNL     1      38.276  22.705  24.981  1.00  0.00     0.016 C 
BRANCH   3   5
ATOM      5  C   UNL     1      39.857  22.562  23.016  1.00  0.00     0.015 C 
BRANCH   5   6
ATOM      6  C   UNL     1      41.395  22.571  22.910  1.00  0.00     0.028 C 
BRANCH   6   7
ATOM      7  C   UNL     1      41.872  23.508  21.821  1.00  0.00    -0.028 C 
ATOM      8  C   UNL     1      42.587  24.645  21.994  1.00  0.00    -0.070 CG0
ATOM      9  C   UNL     1      42.993  25.416  20.764  1.00  0.00     0.039 C 
ATOM     10  G   UNL     1      42.935  25.223  23.351  1.00  0.00     0.000 G0
ENDBRANCH   6   7
ENDBRANCH   5   6
ENDBRANCH   3   5
ENDBRANCH   1   3
BRANCH   1  11
ATOM     11  C   UNL     1      39.481  26.014  23.518  1.00  0.00     0.087 C 
BRANCH  11  12
ATOM     12  C   UNL     1      40.694  26.006  24.474  1.00  0.00     0.066 C 
BRANCH  12  13
ATOM     13  C   UNL     1      41.974  26.322  23.724  1.00  0.00     0.140 C 
ATOM     14  O   UNL     1      42.209  27.470  23.375  1.00  0.00    -0.299 OA
BRANCH  13  15
ATOM     15  C   UNL     1      42.949  25.236  23.354  1.00  0.00     0.106 CG0
ATOM     16  G   UNL     1      42.587  24.652  22.004  1.00  0.00     0.000 G0
ENDBRANCH  13  15
ENDBRANCH  12  13
BRANCH  12  17
ATOM     17  C   UNL     1      40.477  26.922  25.717  1.00  0.00    -0.006 C 
ATOM     18  C   UNL     1      39.359  27.946  25.461  1.00  0.00     0.008 C 
ATOM     19  C   UNL     1      40.202  26.162  27.026  1.00  0.00     0.008 C 
ENDBRANCH  12  17
ENDBRANCH  11  12
ENDBRANCH   1  11
TORSDOF 1
ENDMDL
MODEL 9
REMARK VINA RESULT:    -3.062      4.782      6.608
REMARK INTER + INTRA:          -4.498
REMARK INTER:                  -4.742
REMARK INTRA:                   0.244
REMARK UNBOUND:                 0.176
REMARK SMILES CC1=CCC[C@H](C)C(=O)C[C@H](C(C)C)C(=O)C1
REMARK SMILES IDX 8 1 9 2 6 3 7 4 5 5 4 6 3 7 2 8 1 9 10 11 11 12 15 13 16 14
REMARK SMILES IDX 17 15 12 17 13 18 14 19
REMARK H PARENT
REMARK Flexibility Score: 70.00
ROOT
ATOM      1  C   UNL     1      50.340  27.026  18.234  1.00  0.00     0.136 C 
ATOM      2  O   UNL     1      50.678  26.386  17.249  1.00  0.00    -0.299 OA
ENDROOT
BRANCH   1   3
ATOM      3  C   UNL     1      50.363  28.539  18.196  1.00  0.00     0.053 C 
ATOM      4  C   UNL     1      50.798  29.004  16.802  1.00  0.00     0.016 C 
BRANCH   3   5
ATOM      5  C   UNL     1      49.000  29.166  18.570  1.00  0.00     0.015 C 
BRANCH   5   6
ATOM      6  C   UNL     1      48.829  29.426  20.079  1.00  0.00     0.028 C 
BRANCH   6   7
ATOM      7  C   UNL     1      50.152  29.744  20.743  1.00  0.00    -0.028 C 
ATOM      8  C   UNL     1      50.868  28.920  21.544  1.00  0.00    -0.070 CG0
ATOM      9  C   UNL     1      52.186  29.425  22.076  1.00  0.00     0.039 C 
ATOM     10  G   UNL     1      50.389  27.556  21.994  1.00  0.00     0.000 G0
ENDBRANCH   6   7
ENDBRANCH   5   6
ENDBRANCH   3   5
ENDBRANCH   1   3
BRANCH   1  11
ATOM     11  C   UNL     1      49.932  26.294  19.490  1.00  0.00     0.087 C 
BRANCH  11  12
ATOM     12  C   UNL     1      51.151  25.735  20.257  1.00  0.00     0.066 C 
BRANCH  12  13
ATOM     13  C   UNL     1      51.362  26.487  21.557  1.00  0.00     0.140 C 
ATOM     14  O   UNL     1      52.310  26.207  22.277  1.00  0.00    -0.299 OA
BRANCH  13  15
ATOM     15  C   UNL     1      50.394  27.548  22.009  1.00  0.00     0.106 CG0
ATOM     16  G   UNL     1      50.860  28.910  21.539  1.00  0.00     0.000 G0
ENDBRANCH  13  15
ENDBRANCH  12  13
BRANCH  12  17
ATOM     17  C   UNL     1      51.071  24.191  20.455  1.00  0.00    -0.006 C 
ATOM     18  C   UNL     1      49.938  23.815  21.423  1.00  0.00     0.008 C 
ATOM     19  C   UNL     1      50.931  23.390  19.148  1.00  0.00     0.008 C 
ENDBRANCH  12  17
ENDBRANCH  11  12
ENDBRANCH   1  11
TORSDOF 1
ENDMDL
