MODEL 1
REMARK VINA RESULT:    -5.195      0.000      0.000
REMARK INTER + INTRA:          -7.011
REMARK INTER:                  -6.409
REMARK INTRA:                  -0.602
REMARK UNBOUND:                -0.602
REMARK SMILES COc1ccc(-c2cc3cc(O)c(OC)cc3o2)c(O)c1
REMARK SMILES IDX 7 1 8 2 9 3 10 4 11 5 13 6 16 7 17 8 18 9 6 10 3 11 21 12
REMARK SMILES IDX 4 13 19 14 5 15 2 16 1 17 20 18 12 20 14 22 15 23
REMARK H PARENT 20 19 12 21
REMARK Flexibility Score: inf
ROOT
ATOM      1  C   UNL     1      29.975  19.537   4.340  1.00  0.00     0.139 A 
ATOM      2  C   UNL     1      30.541  18.276   4.144  1.00  0.00     0.060 A 
ATOM      3  C   UNL     1      31.896  18.507   4.136  1.00  0.00     0.025 A 
ATOM      4  C   UNL     1      32.968  17.634   3.976  1.00  0.00     0.062 A 
ATOM      5  C   UNL     1      34.270  18.175   4.015  1.00  0.00     0.158 A 
ATOM      6  C   UNL     1      34.466  19.566   4.212  1.00  0.00     0.164 A 
ATOM      7  C   UNL     1      33.345  20.419   4.370  1.00  0.00     0.098 A 
ATOM      8  C   UNL     1      32.077  19.848   4.326  1.00  0.00     0.138 A 
ATOM      9  O   UNL     1      30.922  20.453   4.448  1.00  0.00    -0.456 OA
ENDROOT
BRANCH   1  10
ATOM     10  C   UNL     1      28.527  19.824   4.447  1.00  0.00     0.059 A 
ATOM     11  C   UNL     1      25.756  20.263   4.784  1.00  0.00     0.122 A 
ATOM     12  C   UNL     1      26.661  21.322   4.903  1.00  0.00     0.093 A 
ATOM     13  C   UNL     1      26.241  18.979   4.482  1.00  0.00     0.047 A 
ATOM     14  C   UNL     1      28.035  21.123   4.721  1.00  0.00     0.130 A 
ATOM     15  C   UNL     1      27.611  18.765   4.317  1.00  0.00     0.020 A 
BRANCH  11  16
ATOM     16  O   UNL     1      24.391  20.527   4.970  1.00  0.00    -0.497 OA
ATOM     17  C   UNL     1      23.879  21.627   5.716  1.00  0.00     0.278 C 
ENDBRANCH  11  16
BRANCH  14  18
ATOM     18  O   UNL     1      28.867  22.243   4.787  1.00  0.00    -0.507 OA
ATOM     19  H   UNL     1      29.772  22.292   4.340  1.00  0.00     0.293 HD
ENDBRANCH  14  18
ENDBRANCH   1  10
BRANCH   5  20
ATOM     20  O   UNL     1      35.376  17.342   3.860  1.00  0.00    -0.504 OA
ATOM     21  H   UNL     1      35.486  16.498   4.411  1.00  0.00     0.293 HD
ENDBRANCH   5  20
BRANCH   6  22
ATOM     22  O   UNL     1      35.781  20.056   4.243  1.00  0.00    -0.493 OA
ATOM     23  C   UNL     1      36.492  20.377   5.435  1.00  0.00     0.278 C 
ENDBRANCH   6  22
TORSDOF 5
ENDMDL
MODEL 2
REMARK VINA RESULT:    -5.151      1.188      1.249
REMARK INTER + INTRA:          -6.958
REMARK INTER:                  -6.372
REMARK INTRA:                  -0.586
REMARK UNBOUND:                -0.602
REMARK SMILES COc1ccc(-c2cc3cc(O)c(OC)cc3o2)c(O)c1
REMARK SMILES IDX 7 1 8 2 9 3 10 4 11 5 13 6 16 7 17 8 18 9 6 10 3 11 21 12
REMARK SMILES IDX 4 13 19 14 5 15 2 16 1 17 20 18 12 20 14 22 15 23
REMARK H PARENT 20 19 12 21
REMARK Flexibility Score: inf
ROOT
ATOM      1  C   UNL     1      30.000  19.465   3.948  1.00  0.00     0.139 A 
ATOM      2  C   UNL     1      30.436  18.393   3.167  1.00  0.00     0.060 A 
ATOM      3  C   UNL     1      31.788  18.323   3.407  1.00  0.00     0.025 A 
ATOM      4  C   UNL     1      32.757  17.458   2.908  1.00  0.00     0.062 A 
ATOM      5  C   UNL     1      34.087  17.634   3.346  1.00  0.00     0.158 A 
ATOM      6  C   UNL     1      34.410  18.663   4.267  1.00  0.00     0.164 A 
ATOM      7  C   UNL     1      33.390  19.522   4.749  1.00  0.00     0.098 A 
ATOM      8  C   UNL     1      32.092  19.317   4.293  1.00  0.00     0.138 A 
ATOM      9  O   UNL     1      31.016  19.992   4.611  1.00  0.00    -0.456 OA
ENDROOT
BRANCH   1  10
ATOM     10  C   UNL     1      28.602  19.939   4.058  1.00  0.00     0.059 A 
ATOM     11  C   UNL     1      25.886  20.708   4.174  1.00  0.00     0.122 A 
ATOM     12  C   UNL     1      26.593  20.424   5.346  1.00  0.00     0.093 A 
ATOM     13  C   UNL     1      26.548  20.618   2.937  1.00  0.00     0.047 A 
ATOM     14  C   UNL     1      27.944  20.059   5.305  1.00  0.00     0.130 A 
ATOM     15  C   UNL     1      27.890  20.237   2.883  1.00  0.00     0.020 A 
BRANCH  11  16
ATOM     16  O   UNL     1      24.537  21.076   4.280  1.00  0.00    -0.497 OA
ATOM     17  C   UNL     1      23.902  21.462   5.496  1.00  0.00     0.278 C 
ENDBRANCH  11  16
BRANCH  14  18
ATOM     18  O   UNL     1      28.599  19.859   6.523  1.00  0.00    -0.507 OA
ATOM     19  H   UNL     1      28.129  19.878   7.418  1.00  0.00     0.293 HD
ENDBRANCH  14  18
ENDBRANCH   1  10
BRANCH   5  20
ATOM     20  O   UNL     1      35.093  16.794   2.875  1.00  0.00    -0.504 OA
ATOM     21  H   UNL     1      35.301  16.718   1.886  1.00  0.00     0.293 HD
ENDBRANCH   5  20
BRANCH   6  22
ATOM     22  O   UNL     1      35.747  18.798   4.672  1.00  0.00    -0.493 OA
ATOM     23  C   UNL     1      36.160  19.401   5.895  1.00  0.00     0.278 C 
ENDBRANCH   6  22
TORSDOF 5
ENDMDL
MODEL 3
REMARK VINA RESULT:    -5.028      1.433      2.369
REMARK INTER + INTRA:          -6.805
REMARK INTER:                  -6.419
REMARK INTRA:                  -0.386
REMARK UNBOUND:                -0.602
REMARK SMILES COc1ccc(-c2cc3cc(O)c(OC)cc3o2)c(O)c1
REMARK SMILES IDX 7 1 8 2 9 3 10 4 11 5 13 6 16 7 17 8 18 9 6 10 3 11 21 12
REMARK SMILES IDX 4 13 19 14 5 15 2 16 1 17 20 18 12 20 14 22 15 23
REMARK H PARENT 20 19 12 21
REMARK Flexibility Score: inf
ROOT
ATOM      1  C   UNL     1      30.031  19.573   4.146  1.00  0.00     0.139 A 
ATOM      2  C   UNL     1      31.157  20.327   4.482  1.00  0.00     0.060 A 
ATOM      3  C   UNL     1      32.215  19.476   4.267  1.00  0.00     0.025 A 
ATOM      4  C   UNL     1      33.584  19.665   4.430  1.00  0.00     0.062 A 
ATOM      5  C   UNL     1      34.440  18.586   4.123  1.00  0.00     0.158 A 
ATOM      6  C   UNL     1      33.909  17.355   3.662  1.00  0.00     0.164 A 
ATOM      7  C   UNL     1      32.507  17.207   3.510  1.00  0.00     0.098 A 
ATOM      8  C   UNL     1      31.696  18.292   3.823  1.00  0.00     0.138 A 
ATOM      9  O   UNL     1      30.390  18.363   3.753  1.00  0.00    -0.456 OA
ENDROOT
BRANCH   1  10
ATOM     10  C   UNL     1      28.631  20.051   4.186  1.00  0.00     0.059 A 
ATOM     11  C   UNL     1      25.917  20.835   4.157  1.00  0.00     0.122 A 
ATOM     12  C   UNL     1      26.537  20.474   5.357  1.00  0.00     0.093 A 
ATOM     13  C   UNL     1      26.664  20.816   2.967  1.00  0.00     0.047 A 
ATOM     14  C   UNL     1      27.886  20.100   5.389  1.00  0.00     0.130 A 
ATOM     15  C   UNL     1      28.005  20.427   2.984  1.00  0.00     0.020 A 
BRANCH  11  16
ATOM     16  O   UNL     1      24.565  21.208   4.191  1.00  0.00    -0.497 OA
ATOM     17  C   UNL     1      23.827  21.451   5.385  1.00  0.00     0.278 C 
ENDBRANCH  11  16
BRANCH  14  18
ATOM     18  O   UNL     1      28.451  19.819   6.635  1.00  0.00    -0.507 OA
ATOM     19  H   UNL     1      29.294  19.273   6.755  1.00  0.00     0.293 HD
ENDBRANCH  14  18
ENDBRANCH   1  10
BRANCH   5  20
ATOM     20  O   UNL     1      35.818  18.726   4.272  1.00  0.00    -0.504 OA
ATOM     21  H   UNL     1      36.356  19.340   3.671  1.00  0.00     0.293 HD
ENDBRANCH   5  20
BRANCH   6  22
ATOM     22  O   UNL     1      34.801  16.312   3.369  1.00  0.00    -0.493 OA
ATOM     23  C   UNL     1      34.407  15.013   2.938  1.00  0.00     0.278 C 
ENDBRANCH   6  22
TORSDOF 5
ENDMDL
MODEL 4
REMARK VINA RESULT:    -5.006      2.032      7.632
REMARK INTER + INTRA:          -6.778
REMARK INTER:                  -6.199
REMARK INTRA:                  -0.579
REMARK UNBOUND:                -0.602
REMARK SMILES COc1ccc(-c2cc3cc(O)c(OC)cc3o2)c(O)c1
REMARK SMILES IDX 7 1 8 2 9 3 10 4 11 5 13 6 16 7 17 8 18 9 6 10 3 11 21 12
REMARK SMILES IDX 4 13 19 14 5 15 2 16 1 17 20 18 12 20 14 22 15 23
REMARK H PARENT 20 19 12 21
REMARK Flexibility Score: inf
ROOT
ATOM      1  C   UNL     1      30.897  21.167   4.232  1.00  0.00     0.139 A 
ATOM      2  C   UNL     1      30.477  19.869   4.524  1.00  0.00     0.060 A 
ATOM      3  C   UNL     1      29.106  19.927   4.447  1.00  0.00     0.025 A 
ATOM      4  C   UNL     1      28.140  18.945   4.641  1.00  0.00     0.062 A 
ATOM      5  C   UNL     1      26.786  19.311   4.490  1.00  0.00     0.158 A 
ATOM      6  C   UNL     1      26.435  20.642   4.148  1.00  0.00     0.164 A 
ATOM      7  C   UNL     1      27.453  21.611   3.959  1.00  0.00     0.098 A 
ATOM      8  C   UNL     1      28.775  21.211   4.118  1.00  0.00     0.138 A 
ATOM      9  O   UNL     1      29.854  21.943   3.990  1.00  0.00    -0.456 OA
ENDROOT
BRANCH   1  10
ATOM     10  C   UNL     1      32.304  21.623   4.164  1.00  0.00     0.059 A 
ATOM     11  C   UNL     1      34.997  22.426   3.876  1.00  0.00     0.122 A 
ATOM     12  C   UNL     1      33.993  23.376   4.088  1.00  0.00     0.093 A 
ATOM     13  C   UNL     1      34.651  21.065   3.821  1.00  0.00     0.047 A 
ATOM     14  C   UNL     1      32.657  22.991   4.250  1.00  0.00     0.130 A 
ATOM     15  C   UNL     1      33.319  20.671   3.963  1.00  0.00     0.020 A 
BRANCH  11  16
ATOM     16  O   UNL     1      36.319  22.873   3.730  1.00  0.00    -0.497 OA
ATOM     17  C   UNL     1      37.191  23.175   4.815  1.00  0.00     0.278 C 
ENDBRANCH  11  16
BRANCH  14  18
ATOM     18  O   UNL     1      31.723  23.993   4.526  1.00  0.00    -0.507 OA
ATOM     19  H   UNL     1      31.455  24.704   3.860  1.00  0.00     0.293 HD
ENDBRANCH  14  18
ENDBRANCH   1  10
BRANCH   5  20
ATOM     20  O   UNL     1      25.782  18.363   4.675  1.00  0.00    -0.504 OA
ATOM     21  H   UNL     1      25.928  17.542   5.250  1.00  0.00     0.293 HD
ENDBRANCH   5  20
BRANCH   6  22
ATOM     22  O   UNL     1      25.075  20.958   4.008  1.00  0.00    -0.493 OA
ATOM     23  C   UNL     1      24.238  21.398   5.073  1.00  0.00     0.278 C 
ENDBRANCH   6  22
TORSDOF 5
ENDMDL
MODEL 5
REMARK VINA RESULT:    -4.956      1.865      7.688
REMARK INTER + INTRA:          -6.717
REMARK INTER:                  -6.240
REMARK INTRA:                  -0.478
REMARK UNBOUND:                -0.602
REMARK SMILES COc1ccc(-c2cc3cc(O)c(OC)cc3o2)c(O)c1
REMARK SMILES IDX 7 1 8 2 9 3 10 4 11 5 13 6 16 7 17 8 18 9 6 10 3 11 21 12
REMARK SMILES IDX 4 13 19 14 5 15 2 16 1 17 20 18 12 20 14 22 15 23
REMARK H PARENT 20 19 12 21
REMARK Flexibility Score: inf
ROOT
ATOM      1  C   UNL     1      31.155  18.199   4.009  1.00  0.00     0.139 A 
ATOM      2  C   UNL     1      30.285  18.425   2.940  1.00  0.00     0.060 A 
ATOM      3  C   UNL     1      29.226  19.100   3.499  1.00  0.00     0.025 A 
ATOM      4  C   UNL     1      28.054  19.588   2.929  1.00  0.00     0.062 A 
ATOM      5  C   UNL     1      27.137  20.252   3.771  1.00  0.00     0.158 A 
ATOM      6  C   UNL     1      27.415  20.411   5.153  1.00  0.00     0.164 A 
ATOM      7  C   UNL     1      28.622  19.898   5.691  1.00  0.00     0.098 A 
ATOM      8  C   UNL     1      29.500  19.249   4.829  1.00  0.00     0.138 A 
ATOM      9  O   UNL     1      30.656  18.709   5.122  1.00  0.00    -0.456 OA
ENDROOT
BRANCH   1  10
ATOM     10  C   UNL     1      32.467  17.519   3.922  1.00  0.00     0.059 A 
ATOM     11  C   UNL     1      34.927  16.168   3.600  1.00  0.00     0.122 A 
ATOM     12  C   UNL     1      34.900  17.548   3.819  1.00  0.00     0.093 A 
ATOM     13  C   UNL     1      33.715  15.458   3.555  1.00  0.00     0.047 A 
ATOM     14  C   UNL     1      33.690  18.228   3.998  1.00  0.00     0.130 A 
ATOM     15  C   UNL     1      32.501  16.128   3.714  1.00  0.00     0.020 A 
BRANCH  11  16
ATOM     16  O   UNL     1      36.172  15.543   3.436  1.00  0.00    -0.497 OA
ATOM     17  C   UNL     1      37.407  16.072   3.910  1.00  0.00     0.278 C 
ENDBRANCH  11  16
BRANCH  14  18
ATOM     18  O   UNL     1      33.749  19.595   4.280  1.00  0.00    -0.507 OA
ATOM     19  H   UNL     1      33.140  20.054   4.944  1.00  0.00     0.293 HD
ENDBRANCH  14  18
ENDBRANCH   1  10
BRANCH   5  20
ATOM     20  O   UNL     1      25.949  20.758   3.247  1.00  0.00    -0.504 OA
ATOM     21  H   UNL     1      25.301  20.168   2.738  1.00  0.00     0.293 HD
ENDBRANCH   5  20
BRANCH   6  22
ATOM     22  O   UNL     1      26.471  21.078   5.949  1.00  0.00    -0.493 OA
ATOM     23  C   UNL     1      26.539  22.460   6.289  1.00  0.00     0.278 C 
ENDBRANCH   6  22
TORSDOF 5
ENDMDL
MODEL 6
REMARK VINA RESULT:    -4.672      3.599      4.866
REMARK INTER + INTRA:          -6.366
REMARK INTER:                  -5.764
REMARK INTRA:                  -0.603
REMARK UNBOUND:                -0.602
REMARK SMILES COc1ccc(-c2cc3cc(O)c(OC)cc3o2)c(O)c1
REMARK SMILES IDX 7 1 8 2 9 3 10 4 11 5 13 6 16 7 17 8 18 9 6 10 3 11 21 12
REMARK SMILES IDX 4 13 19 14 5 15 2 16 1 17 20 18 12 20 14 22 15 23
REMARK H PARENT 20 19 12 21
REMARK Flexibility Score: inf
ROOT
ATOM      1  C   UNL     1      31.611  22.022   4.171  1.00  0.00     0.139 A 
ATOM      2  C   UNL     1      30.876  20.986   4.749  1.00  0.00     0.060 A 
ATOM      3  C   UNL     1      31.621  19.858   4.497  1.00  0.00     0.025 A 
ATOM      4  C   UNL     1      31.396  18.525   4.827  1.00  0.00     0.062 A 
ATOM      5  C   UNL     1      32.357  17.574   4.427  1.00  0.00     0.158 A 
ATOM      6  C   UNL     1      33.514  17.978   3.712  1.00  0.00     0.164 A 
ATOM      7  C   UNL     1      33.704  19.347   3.397  1.00  0.00     0.098 A 
ATOM      8  C   UNL     1      32.733  20.254   3.809  1.00  0.00     0.138 A 
ATOM      9  O   UNL     1      32.717  21.550   3.621  1.00  0.00    -0.456 OA
ENDROOT
BRANCH   1  10
ATOM     10  C   UNL     1      31.240  23.455   4.189  1.00  0.00     0.059 A 
ATOM     11  C   UNL     1      30.533  26.183   4.394  1.00  0.00     0.122 A 
ATOM     12  C   UNL     1      31.715  25.804   3.751  1.00  0.00     0.093 A 
ATOM     13  C   UNL     1      29.694  25.189   4.926  1.00  0.00     0.047 A 
ATOM     14  C   UNL     1      32.069  24.455   3.626  1.00  0.00     0.130 A 
ATOM     15  C   UNL     1      30.046  23.842   4.824  1.00  0.00     0.020 A 
BRANCH  11  16
ATOM     16  O   UNL     1      30.229  27.550   4.480  1.00  0.00    -0.497 OA
ATOM     17  C   UNL     1      29.363  28.121   5.456  1.00  0.00     0.278 C 
ENDBRANCH  11  16
BRANCH  14  18
ATOM     18  O   UNL     1      33.230  24.153   2.910  1.00  0.00    -0.507 OA
ATOM     19  H   UNL     1      33.670  23.243   2.920  1.00  0.00     0.293 HD
ENDBRANCH  14  18
ENDBRANCH   1  10
BRANCH   5  20
ATOM     20  O   UNL     1      32.176  16.227   4.733  1.00  0.00    -0.504 OA
ATOM     21  H   UNL     1      31.450  15.922   5.371  1.00  0.00     0.293 HD
ENDBRANCH   5  20
BRANCH   6  22
ATOM     22  O   UNL     1      34.442  16.994   3.335  1.00  0.00    -0.493 OA
ATOM     23  C   UNL     1      35.740  16.854   3.903  1.00  0.00     0.278 C 
ENDBRANCH   6  22
TORSDOF 5
ENDMDL
MODEL 7
REMARK VINA RESULT:    -4.502      1.426      7.877
REMARK INTER + INTRA:          -6.157
REMARK INTER:                  -5.860
REMARK INTRA:                  -0.297
REMARK UNBOUND:                -0.602
REMARK SMILES COc1ccc(-c2cc3cc(O)c(OC)cc3o2)c(O)c1
REMARK SMILES IDX 7 1 8 2 9 3 10 4 11 5 13 6 16 7 17 8 18 9 6 10 3 11 21 12
REMARK SMILES IDX 4 13 19 14 5 15 2 16 1 17 20 18 12 20 14 22 15 23
REMARK H PARENT 20 19 12 21
REMARK Flexibility Score: inf
ROOT
ATOM      1  C   UNL     1      30.747  20.412   4.149  1.00  0.00     0.139 A 
ATOM      2  C   UNL     1      30.008  20.925   3.082  1.00  0.00     0.060 A 
ATOM      3  C   UNL     1      28.702  20.859   3.508  1.00  0.00     0.025 A 
ATOM      4  C   UNL     1      27.518  21.224   2.875  1.00  0.00     0.062 A 
ATOM      5  C   UNL     1      26.309  21.034   3.577  1.00  0.00     0.158 A 
ATOM      6  C   UNL     1      26.315  20.489   4.886  1.00  0.00     0.164 A 
ATOM      7  C   UNL     1      27.546  20.131   5.493  1.00  0.00     0.098 A 
ATOM      8  C   UNL     1      28.716  20.332   4.769  1.00  0.00     0.138 A 
ATOM      9  O   UNL     1      29.944  20.071   5.142  1.00  0.00    -0.456 OA
ENDROOT
BRANCH   1  10
ATOM     10  C   UNL     1      32.222  20.290   4.195  1.00  0.00     0.059 A 
ATOM     11  C   UNL     1      35.039  20.196   4.385  1.00  0.00     0.122 A 
ATOM     12  C   UNL     1      34.262  19.123   4.832  1.00  0.00     0.093 A 
ATOM     13  C   UNL     1      34.401  21.317   3.827  1.00  0.00     0.047 A 
ATOM     14  C   UNL     1      32.866  19.148   4.728  1.00  0.00     0.130 A 
ATOM     15  C   UNL     1      33.009  21.361   3.736  1.00  0.00     0.020 A 
BRANCH  11  16
ATOM     16  O   UNL     1      36.433  20.107   4.508  1.00  0.00    -0.497 OA
ATOM     17  C   UNL     1      37.108  19.226   5.402  1.00  0.00     0.278 C 
ENDBRANCH  11  16
BRANCH  14  18
ATOM     18  O   UNL     1      32.165  18.010   5.134  1.00  0.00    -0.507 OA
ATOM     19  H   UNL     1      31.175  17.879   4.974  1.00  0.00     0.293 HD
ENDBRANCH  14  18
ENDBRANCH   1  10
BRANCH   5  20
ATOM     20  O   UNL     1      25.097  21.384   2.986  1.00  0.00    -0.504 OA
ATOM     21  H   UNL     1      24.577  20.728   2.414  1.00  0.00     0.293 HD
ENDBRANCH   5  20
BRANCH   6  22
ATOM     22  O   UNL     1      25.087  20.320   5.544  1.00  0.00    -0.493 OA
ATOM     23  C   UNL     1      24.192  21.381   5.863  1.00  0.00     0.278 C 
ENDBRANCH   6  22
TORSDOF 5
ENDMDL
MODEL 8
REMARK VINA RESULT:    -4.467      2.118      8.067
REMARK INTER + INTRA:          -6.114
REMARK INTER:                  -5.581
REMARK INTRA:                  -0.533
REMARK UNBOUND:                -0.602
REMARK SMILES COc1ccc(-c2cc3cc(O)c(OC)cc3o2)c(O)c1
REMARK SMILES IDX 7 1 8 2 9 3 10 4 11 5 13 6 16 7 17 8 18 9 6 10 3 11 21 12
REMARK SMILES IDX 4 13 19 14 5 15 2 16 1 17 20 18 12 20 14 22 15 23
REMARK H PARENT 20 19 12 21
REMARK Flexibility Score: inf
ROOT
ATOM      1  C   UNL     1      31.657  18.162   3.910  1.00  0.00     0.139 A 
ATOM      2  C   UNL     1      31.204  18.574   5.164  1.00  0.00     0.060 A 
ATOM      3  C   UNL     1      29.907  18.972   4.945  1.00  0.00     0.025 A 
ATOM      4  C   UNL     1      28.950  19.481   5.819  1.00  0.00     0.062 A 
ATOM      5  C   UNL     1      27.682  19.804   5.292  1.00  0.00     0.158 A 
ATOM      6  C   UNL     1      27.403  19.609   3.915  1.00  0.00     0.164 A 
ATOM      7  C   UNL     1      28.408  19.088   3.062  1.00  0.00     0.098 A 
ATOM      8  C   UNL     1      29.646  18.782   3.618  1.00  0.00     0.138 A 
ATOM      9  O   UNL     1      30.699  18.296   3.009  1.00  0.00    -0.456 OA
ENDROOT
BRANCH   1  10
ATOM     10  C   UNL     1      33.002  17.618   3.616  1.00  0.00     0.059 A 
ATOM     11  C   UNL     1      35.611  16.610   3.219  1.00  0.00     0.122 A 
ATOM     12  C   UNL     1      34.496  15.795   3.002  1.00  0.00     0.093 A 
ATOM     13  C   UNL     1      35.418  17.942   3.624  1.00  0.00     0.047 A 
ATOM     14  C   UNL     1      33.197  16.286   3.178  1.00  0.00     0.130 A 
ATOM     15  C   UNL     1      34.128  18.437   3.821  1.00  0.00     0.020 A 
BRANCH  11  16
ATOM     16  O   UNL     1      36.887  16.062   3.018  1.00  0.00    -0.497 OA
ATOM     17  C   UNL     1      37.968  16.182   3.939  1.00  0.00     0.278 C 
ENDBRANCH  11  16
BRANCH  14  18
ATOM     18  O   UNL     1      32.134  15.432   2.875  1.00  0.00    -0.507 OA
ATOM     19  H   UNL     1      31.172  15.737   2.821  1.00  0.00     0.293 HD
ENDBRANCH  14  18
ENDBRANCH   1  10
BRANCH   5  20
ATOM     20  O   UNL     1      26.691  20.317   6.126  1.00  0.00    -0.504 OA
ATOM     21  H   UNL     1      25.858  19.785   6.350  1.00  0.00     0.293 HD
ENDBRANCH   5  20
BRANCH   6  22
ATOM     22  O   UNL     1      26.127  19.946   3.439  1.00  0.00    -0.493 OA
ATOM     23  C   UNL     1      25.785  21.208   2.875  1.00  0.00     0.278 C 
ENDBRANCH   6  22
TORSDOF 5
ENDMDL
MODEL 9
REMARK VINA RESULT:    -2.682      4.050      6.970
REMARK INTER + INTRA:          -3.911
REMARK INTER:                  -3.323
REMARK INTRA:                  -0.588
REMARK UNBOUND:                -0.602
REMARK SMILES COc1ccc(-c2cc3cc(O)c(OC)cc3o2)c(O)c1
REMARK SMILES IDX 7 1 8 2 9 3 10 4 11 5 13 6 16 7 17 8 18 9 6 10 3 11 21 12
REMARK SMILES IDX 4 13 19 14 5 15 2 16 1 17 20 18 12 20 14 22 15 23
REMARK H PARENT 20 19 12 21
REMARK Flexibility Score: inf
ROOT
ATOM      1  C   UNL     1      31.364  22.345   4.300  1.00  0.00     0.139 A 
ATOM      2  C   UNL     1      32.370  23.150   3.765  1.00  0.00     0.060 A 
ATOM      3  C   UNL     1      31.897  24.432   3.915  1.00  0.00     0.025 A 
ATOM      4  C   UNL     1      32.458  25.657   3.565  1.00  0.00     0.062 A 
ATOM      5  C   UNL     1      31.721  26.826   3.850  1.00  0.00     0.158 A 
ATOM      6  C   UNL     1      30.451  26.741   4.474  1.00  0.00     0.164 A 
ATOM      7  C   UNL     1      29.917  25.472   4.813  1.00  0.00     0.098 A 
ATOM      8  C   UNL     1      30.673  24.343   4.515  1.00  0.00     0.138 A 
ATOM      9  O   UNL     1      30.366  23.090   4.743  1.00  0.00    -0.456 OA
ENDROOT
BRANCH   1  10
ATOM     10  C   UNL     1      31.403  20.868   4.397  1.00  0.00     0.059 A 
ATOM     11  C   UNL     1      31.610  18.066   4.691  1.00  0.00     0.122 A 
ATOM     12  C   UNL     1      30.435  18.731   5.051  1.00  0.00     0.093 A 
ATOM     13  C   UNL     1      32.684  18.807   4.168  1.00  0.00     0.047 A 
ATOM     14  C   UNL     1      30.311  20.117   4.895  1.00  0.00     0.130 A 
ATOM     15  C   UNL     1      32.579  20.192   4.025  1.00  0.00     0.020 A 
BRANCH  11  16
ATOM     16  O   UNL     1      31.670  16.675   4.864  1.00  0.00    -0.497 OA
ATOM     17  C   UNL     1      32.498  15.804   4.100  1.00  0.00     0.278 C 
ENDBRANCH  11  16
BRANCH  14  18
ATOM     18  O   UNL     1      29.082  20.698   5.213  1.00  0.00    -0.507 OA
ATOM     19  H   UNL     1      28.937  21.697   5.274  1.00  0.00     0.293 HD
ENDBRANCH  14  18
ENDBRANCH   1  10
BRANCH   5  20
ATOM     20  O   UNL     1      32.241  28.076   3.519  1.00  0.00    -0.504 OA
ATOM     21  H   UNL     1      31.857  28.624   2.758  1.00  0.00     0.293 HD
ENDBRANCH   5  20
BRANCH   6  22
ATOM     22  O   UNL     1      29.756  27.932   4.737  1.00  0.00    -0.493 OA
ATOM     23  C   UNL     1      28.881  28.125   5.843  1.00  0.00     0.278 C 
ENDBRANCH   6  22
TORSDOF 5
ENDMDL
