MODEL 1
REMARK VINA RESULT:    -3.894      0.000      0.000
REMARK INTER + INTRA:          -5.145
REMARK INTER:                  -5.032
REMARK INTRA:                  -0.113
REMARK UNBOUND:                -0.113
REMARK SMILES CCCCCCC(=O)[O-]
REMARK SMILES IDX 5 1 6 2 7 3 8 4 9 5 4 6 3 7 2 8 1 9
REMARK H PARENT
REMARK Flexibility Score: inf
ROOT
ATOM      1  C   UNL     1       6.911  56.652  17.979  1.00  0.00     0.006 C 
ENDROOT
BRANCH   1   2
ATOM      2  C   UNL     1       8.304  57.217  17.687  1.00  0.00     0.053 C 
BRANCH   2   3
ATOM      3  C   UNL     1       8.400  58.639  18.141  1.00  0.00     0.041 C 
ATOM      4  O   UNL     1       7.665  59.057  19.075  1.00  0.00    -0.550 OA
ATOM      5  O   UNL     1       9.335  59.491  17.568  1.00  0.00    -0.550 OA
ENDBRANCH   2   3
ENDBRANCH   1   2
BRANCH   1   6
ATOM      6  C   UNL     1       5.974  56.852  16.781  1.00  0.00     0.000 C 
BRANCH   6   7
ATOM      7  C   UNL     1       4.632  56.148  17.008  1.00  0.00    -0.000 C 
BRANCH   7   8
ATOM      8  C   UNL     1       4.336  55.151  15.882  1.00  0.00    -0.003 C 
ATOM      9  C   UNL     1       2.837  55.053  15.611  1.00  0.00     0.004 C 
ENDBRANCH   7   8
ENDBRANCH   6   7
ENDBRANCH   1   6
TORSDOF 5
ENDMDL
MODEL 2
REMARK VINA RESULT:    -3.863      3.859      5.349
REMARK INTER + INTRA:          -5.105
REMARK INTER:                  -4.719
REMARK INTRA:                  -0.386
REMARK UNBOUND:                -0.113
REMARK SMILES CCCCCCC(=O)[O-]
REMARK SMILES IDX 5 1 6 2 7 3 8 4 9 5 4 6 3 7 2 8 1 9
REMARK H PARENT
REMARK Flexibility Score: inf
ROOT
ATOM      1  C   UNL     1       1.643  54.880  16.803  1.00  0.00     0.006 C 
ENDROOT
BRANCH   1   2
ATOM      2  C   UNL     1       2.750  54.960  15.747  1.00  0.00     0.053 C 
BRANCH   2   3
ATOM      3  C   UNL     1       4.097  54.922  16.396  1.00  0.00     0.041 C 
ATOM      4  O   UNL     1       4.420  53.950  17.128  1.00  0.00    -0.550 OA
ATOM      5  O   UNL     1       5.016  55.934  16.152  1.00  0.00    -0.550 OA
ENDBRANCH   2   3
ENDBRANCH   1   2
BRANCH   1   6
ATOM      6  C   UNL     1       0.806  56.165  16.820  1.00  0.00     0.000 C 
BRANCH   6   7
ATOM      7  C   UNL     1       1.020  56.943  18.124  1.00  0.00    -0.000 C 
BRANCH   7   8
ATOM      8  C   UNL     1       2.177  57.941  17.985  1.00  0.00    -0.003 C 
ATOM      9  C   UNL     1       3.336  57.573  18.907  1.00  0.00     0.004 C 
ENDBRANCH   7   8
ENDBRANCH   6   7
ENDBRANCH   1   6
TORSDOF 5
ENDMDL
MODEL 3
REMARK VINA RESULT:    -3.813      2.952      4.569
REMARK INTER + INTRA:          -5.041
REMARK INTER:                  -4.750
REMARK INTRA:                  -0.291
REMARK UNBOUND:                -0.113
REMARK SMILES CCCCCCC(=O)[O-]
REMARK SMILES IDX 5 1 6 2 7 3 8 4 9 5 4 6 3 7 2 8 1 9
REMARK H PARENT
REMARK Flexibility Score: inf
ROOT
ATOM      1  C   UNL     1       2.613  55.324  15.847  1.00  0.00     0.006 C 
ENDROOT
BRANCH   1   2
ATOM      2  C   UNL     1       4.132  55.177  15.985  1.00  0.00     0.053 C 
BRANCH   2   3
ATOM      3  C   UNL     1       4.692  56.283  16.821  1.00  0.00     0.041 C 
ATOM      4  O   UNL     1       4.000  56.797  17.739  1.00  0.00    -0.550 OA
ATOM      5  O   UNL     1       5.997  56.714  16.620  1.00  0.00    -0.550 OA
ENDBRANCH   2   3
ENDBRANCH   1   2
BRANCH   1   6
ATOM      6  C   UNL     1       1.881  54.214  16.610  1.00  0.00     0.000 C 
BRANCH   6   7
ATOM      7  C   UNL     1       0.790  54.796  17.516  1.00  0.00    -0.000 C 
BRANCH   7   8
ATOM      8  C   UNL     1       0.543  56.276  17.196  1.00  0.00    -0.003 C 
ATOM      9  C   UNL     1      -0.941  56.621  17.298  1.00  0.00     0.004 C 
ENDBRANCH   7   8
ENDBRANCH   6   7
ENDBRANCH   1   6
TORSDOF 5
ENDMDL
MODEL 4
REMARK VINA RESULT:    -3.786      7.044      8.899
REMARK INTER + INTRA:          -5.006
REMARK INTER:                  -4.847
REMARK INTRA:                  -0.160
REMARK UNBOUND:                -0.113
REMARK SMILES CCCCCCC(=O)[O-]
REMARK SMILES IDX 5 1 6 2 7 3 8 4 9 5 4 6 3 7 2 8 1 9
REMARK H PARENT
REMARK Flexibility Score: inf
ROOT
ATOM      1  C   UNL     1      -1.186  56.216  18.187  1.00  0.00     0.006 C 
ENDROOT
BRANCH   1   2
ATOM      2  C   UNL     1      -2.584  55.855  17.677  1.00  0.00     0.053 C 
BRANCH   2   3
ATOM      3  C   UNL     1      -3.568  56.919  18.046  1.00  0.00     0.041 C 
ATOM      4  O   UNL     1      -4.265  56.804  19.088  1.00  0.00    -0.550 OA
ATOM      5  O   UNL     1      -3.680  58.063  17.266  1.00  0.00    -0.550 OA
ENDBRANCH   2   3
ENDBRANCH   1   2
BRANCH   1   6
ATOM      6  C   UNL     1      -0.344  56.857  17.077  1.00  0.00     0.000 C 
BRANCH   6   7
ATOM      7  C   UNL     1       1.151  56.604  17.305  1.00  0.00    -0.000 C 
BRANCH   7   8
ATOM      8  C   UNL     1       1.534  55.174  16.904  1.00  0.00    -0.003 C 
ATOM      9  C   UNL     1       2.592  55.175  15.803  1.00  0.00     0.004 C 
ENDBRANCH   7   8
ENDBRANCH   6   7
ENDBRANCH   1   6
TORSDOF 5
ENDMDL
MODEL 5
REMARK VINA RESULT:    -3.765      5.520      7.570
REMARK INTER + INTRA:          -4.978
REMARK INTER:                  -4.643
REMARK INTRA:                  -0.335
REMARK UNBOUND:                -0.113
REMARK SMILES CCCCCCC(=O)[O-]
REMARK SMILES IDX 5 1 6 2 7 3 8 4 9 5 4 6 3 7 2 8 1 9
REMARK H PARENT
REMARK Flexibility Score: inf
ROOT
ATOM      1  C   UNL     1      -0.753  55.650  18.058  1.00  0.00     0.006 C 
ENDROOT
BRANCH   1   2
ATOM      2  C   UNL     1      -0.801  56.048  19.537  1.00  0.00     0.053 C 
BRANCH   2   3
ATOM      3  C   UNL     1       0.001  55.093  20.363  1.00  0.00     0.041 C 
ATOM      4  O   UNL     1       1.240  55.265  20.506  1.00  0.00    -0.550 OA
ATOM      5  O   UNL     1      -0.628  54.042  21.018  1.00  0.00    -0.550 OA
ENDBRANCH   2   3
ENDBRANCH   1   2
BRANCH   1   6
ATOM      6  C   UNL     1      -0.123  56.761  17.210  1.00  0.00     0.000 C 
BRANCH   6   7
ATOM      7  C   UNL     1       1.407  56.695  17.264  1.00  0.00    -0.000 C 
BRANCH   7   8
ATOM      8  C   UNL     1       1.983  57.899  18.020  1.00  0.00    -0.003 C 
ATOM      9  C   UNL     1       3.304  57.543  18.697  1.00  0.00     0.004 C 
ENDBRANCH   7   8
ENDBRANCH   6   7
ENDBRANCH   1   6
TORSDOF 5
ENDMDL
MODEL 6
REMARK VINA RESULT:    -3.745      4.993      6.539
REMARK INTER + INTRA:          -4.953
REMARK INTER:                  -4.573
REMARK INTRA:                  -0.380
REMARK UNBOUND:                -0.113
REMARK SMILES CCCCCCC(=O)[O-]
REMARK SMILES IDX 5 1 6 2 7 3 8 4 9 5 4 6 3 7 2 8 1 9
REMARK H PARENT
REMARK Flexibility Score: inf
ROOT
ATOM      1  C   UNL     1      -0.045  55.555  18.056  1.00  0.00     0.006 C 
ENDROOT
BRANCH   1   2
ATOM      2  C   UNL     1       0.706  56.634  17.270  1.00  0.00     0.053 C 
BRANCH   2   3
ATOM      3  C   UNL     1       2.086  56.169  16.928  1.00  0.00     0.041 C 
ATOM      4  O   UNL     1       3.048  56.416  17.703  1.00  0.00    -0.550 OA
ATOM      5  O   UNL     1       2.303  55.419  15.780  1.00  0.00    -0.550 OA
ENDBRANCH   2   3
ENDBRANCH   1   2
BRANCH   1   6
ATOM      6  C   UNL     1      -0.189  55.948  19.531  1.00  0.00     0.000 C 
BRANCH   6   7
ATOM      7  C   UNL     1       0.366  54.853  20.449  1.00  0.00    -0.000 C 
BRANCH   7   8
ATOM      8  C   UNL     1       1.858  55.075  20.729  1.00  0.00    -0.003 C 
ATOM      9  C   UNL     1       2.695  53.908  20.211  1.00  0.00     0.004 C 
ENDBRANCH   7   8
ENDBRANCH   6   7
ENDBRANCH   1   6
TORSDOF 5
ENDMDL
MODEL 7
REMARK VINA RESULT:    -3.731      6.319      7.371
REMARK INTER + INTRA:          -4.935
REMARK INTER:                  -4.588
REMARK INTRA:                  -0.347
REMARK UNBOUND:                -0.113
REMARK SMILES CCCCCCC(=O)[O-]
REMARK SMILES IDX 5 1 6 2 7 3 8 4 9 5 4 6 3 7 2 8 1 9
REMARK H PARENT
REMARK Flexibility Score: inf
ROOT
ATOM      1  C   UNL     1       1.878  55.534  20.308  1.00  0.00     0.006 C 
ENDROOT
BRANCH   1   2
ATOM      2  C   UNL     1       1.072  54.238  20.177  1.00  0.00     0.053 C 
BRANCH   2   3
ATOM      3  C   UNL     1      -0.363  54.476  20.522  1.00  0.00     0.041 C 
ATOM      4  O   UNL     1      -0.941  53.745  21.369  1.00  0.00    -0.550 OA
ATOM      5  O   UNL     1      -1.051  55.536  19.945  1.00  0.00    -0.550 OA
ENDBRANCH   2   3
ENDBRANCH   1   2
BRANCH   1   6
ATOM      6  C   UNL     1       2.659  55.829  19.022  1.00  0.00     0.000 C 
BRANCH   6   7
ATOM      7  C   UNL     1       1.970  56.923  18.198  1.00  0.00    -0.000 C 
BRANCH   7   8
ATOM      8  C   UNL     1       1.187  56.317  17.027  1.00  0.00    -0.003 C 
ATOM      9  C   UNL     1      -0.152  57.024  16.835  1.00  0.00     0.004 C 
ENDBRANCH   7   8
ENDBRANCH   6   7
ENDBRANCH   1   6
TORSDOF 5
ENDMDL
MODEL 8
REMARK VINA RESULT:    -3.703      8.982      9.985
REMARK INTER + INTRA:          -4.898
REMARK INTER:                  -4.710
REMARK INTRA:                  -0.188
REMARK UNBOUND:                -0.113
REMARK SMILES CCCCCCC(=O)[O-]
REMARK SMILES IDX 5 1 6 2 7 3 8 4 9 5 4 6 3 7 2 8 1 9
REMARK H PARENT
REMARK Flexibility Score: inf
ROOT
ATOM      1  C   UNL     1      -2.336  55.054  18.188  1.00  0.00     0.006 C 
ENDROOT
BRANCH   1   2
ATOM      2  C   UNL     1      -2.466  56.474  17.627  1.00  0.00     0.053 C 
BRANCH   2   3
ATOM      3  C   UNL     1      -3.740  57.105  18.091  1.00  0.00     0.041 C 
ATOM      4  O   UNL     1      -4.105  58.215  17.621  1.00  0.00    -0.550 OA
ATOM      5  O   UNL     1      -4.552  56.445  19.004  1.00  0.00    -0.550 OA
ENDBRANCH   2   3
ENDBRANCH   1   2
BRANCH   1   6
ATOM      6  C   UNL     1      -0.906  54.526  18.020  1.00  0.00     0.000 C 
BRANCH   6   7
ATOM      7  C   UNL     1      -0.908  53.033  17.673  1.00  0.00    -0.000 C 
BRANCH   7   8
ATOM      8  C   UNL     1      -2.300  52.577  17.219  1.00  0.00    -0.003 C 
ATOM      9  C   UNL     1      -2.660  51.223  17.825  1.00  0.00     0.004 C 
ENDBRANCH   7   8
ENDBRANCH   6   7
ENDBRANCH   1   6
TORSDOF 5
ENDMDL
MODEL 9
REMARK VINA RESULT:    -3.695      3.878      5.441
REMARK INTER + INTRA:          -4.888
REMARK INTER:                  -4.589
REMARK INTRA:                  -0.299
REMARK UNBOUND:                -0.113
REMARK SMILES CCCCCCC(=O)[O-]
REMARK SMILES IDX 5 1 6 2 7 3 8 4 9 5 4 6 3 7 2 8 1 9
REMARK H PARENT
REMARK Flexibility Score: inf
ROOT
ATOM      1  C   UNL     1       1.529  54.953  16.803  1.00  0.00     0.006 C 
ENDROOT
BRANCH   1   2
ATOM      2  C   UNL     1       2.658  55.129  15.783  1.00  0.00     0.053 C 
BRANCH   2   3
ATOM      3  C   UNL     1       3.984  55.188  16.473  1.00  0.00     0.041 C 
ATOM      4  O   UNL     1       4.472  54.152  16.997  1.00  0.00    -0.550 OA
ATOM      5  O   UNL     1       4.704  56.375  16.495  1.00  0.00    -0.550 OA
ENDBRANCH   2   3
ENDBRANCH   1   2
BRANCH   1   6
ATOM      6  C   UNL     1       0.963  56.311  17.237  1.00  0.00     0.000 C 
BRANCH   6   7
ATOM      7  C   UNL     1       0.790  56.374  18.759  1.00  0.00    -0.000 C 
BRANCH   7   8
ATOM      8  C   UNL     1       2.094  56.007  19.477  1.00  0.00    -0.003 C 
ATOM      9  C   UNL     1       1.836  55.036  20.626  1.00  0.00     0.004 C 
ENDBRANCH   7   8
ENDBRANCH   6   7
ENDBRANCH   1   6
TORSDOF 5
ENDMDL
