MODEL 1
REMARK VINA RESULT:    -3.721      0.000      0.000
REMARK INTER + INTRA:          -6.572
REMARK INTER:                  -5.678
REMARK INTRA:                  -0.893
REMARK UNBOUND:                -0.893
REMARK SMILES O=C([O-])CCCCCCCCC(=O)[O-]
REMARK SMILES IDX 7 1 6 2 5 3 4 4 2 5 1 6 3 7 8 8 9 9 10 10 11 11 12 12 13 13
REMARK SMILES IDX 14 14
REMARK H PARENT
REMARK Flexibility Score: inf
ROOT
ATOM      1  C   UNL     1      -3.088  25.390   1.486  1.00  0.00     0.000 C 
ENDROOT
BRANCH   1   2
ATOM      2  C   UNL     1      -3.359  25.549   2.993  1.00  0.00     0.000 C 
BRANCH   2   3
ATOM      3  C   UNL     1      -3.830  26.966   3.359  1.00  0.00     0.006 C 
BRANCH   3   4
ATOM      4  C   UNL     1      -3.516  27.996   2.265  1.00  0.00     0.053 C 
BRANCH   4   5
ATOM      5  C   UNL     1      -2.452  28.941   2.729  1.00  0.00     0.041 C 
ATOM      6  O   UNL     1      -2.753  30.115   3.068  1.00  0.00    -0.550 OA
ATOM      7  O   UNL     1      -1.136  28.509   2.832  1.00  0.00    -0.550 OA
ENDBRANCH   4   5
ENDBRANCH   3   4
ENDBRANCH   2   3
ENDBRANCH   1   2
BRANCH   1   8
ATOM      8  C   UNL     1      -4.018  24.359   0.827  1.00  0.00     0.000 C 
BRANCH   8   9
ATOM      9  C   UNL     1      -5.308  24.121   1.633  1.00  0.00     0.000 C 
BRANCH   9  10
ATOM     10  C   UNL     1      -6.549  24.712   0.946  1.00  0.00     0.006 C 
BRANCH  10  11
ATOM     11  C   UNL     1      -7.687  25.001   1.934  1.00  0.00     0.053 C 
BRANCH  11  12
ATOM     12  C   UNL     1      -7.359  26.195   2.773  1.00  0.00     0.041 C 
ATOM     13  O   UNL     1      -7.220  27.327   2.237  1.00  0.00    -0.550 OA
ATOM     14  O   UNL     1      -7.159  26.051   4.140  1.00  0.00    -0.550 OA
ENDBRANCH  11  12
ENDBRANCH  10  11
ENDBRANCH   9  10
ENDBRANCH   8   9
ENDBRANCH   1   8
TORSDOF 9
ENDMDL
MODEL 2
REMARK VINA RESULT:    -3.619      1.323      4.889
REMARK INTER + INTRA:          -6.417
REMARK INTER:                  -5.561
REMARK INTRA:                  -0.856
REMARK UNBOUND:                -0.893
REMARK SMILES O=C([O-])CCCCCCCCC(=O)[O-]
REMARK SMILES IDX 7 1 6 2 5 3 4 4 2 5 1 6 3 7 8 8 9 9 10 10 11 11 12 12 13 13
REMARK SMILES IDX 14 14
REMARK H PARENT
REMARK Flexibility Score: inf
ROOT
ATOM      1  C   UNL     1      -3.513  24.585   0.767  1.00  0.00     0.000 C 
ENDROOT
BRANCH   1   2
ATOM      2  C   UNL     1      -4.997  24.230   0.572  1.00  0.00     0.000 C 
BRANCH   2   3
ATOM      3  C   UNL     1      -5.762  24.145   1.903  1.00  0.00     0.006 C 
BRANCH   3   4
ATOM      4  C   UNL     1      -5.776  25.479   2.664  1.00  0.00     0.053 C 
BRANCH   4   5
ATOM      5  C   UNL     1      -6.801  26.400   2.081  1.00  0.00     0.041 C 
ATOM      6  O   UNL     1      -8.026  26.127   2.178  1.00  0.00    -0.550 OA
ATOM      7  O   UNL     1      -6.405  27.585   1.474  1.00  0.00    -0.550 OA
ENDBRANCH   4   5
ENDBRANCH   3   4
ENDBRANCH   2   3
ENDBRANCH   1   2
BRANCH   1   8
ATOM      8  C   UNL     1      -3.077  25.784  -0.092  1.00  0.00     0.000 C 
BRANCH   8   9
ATOM      9  C   UNL     1      -3.044  27.103   0.702  1.00  0.00     0.000 C 
BRANCH   9  10
ATOM     10  C   UNL     1      -2.077  27.048   1.895  1.00  0.00     0.006 C 
BRANCH  10  11
ATOM     11  C   UNL     1      -2.705  27.587   3.187  1.00  0.00     0.053 C 
BRANCH  11  12
ATOM     12  C   UNL     1      -2.008  28.838   3.623  1.00  0.00     0.041 C 
ATOM     13  O   UNL     1      -2.647  29.742   4.223  1.00  0.00    -0.550 OA
ATOM     14  O   UNL     1      -0.665  29.026   3.324  1.00  0.00    -0.550 OA
ENDBRANCH  11  12
ENDBRANCH  10  11
ENDBRANCH   9  10
ENDBRANCH   8   9
ENDBRANCH   1   8
TORSDOF 9
ENDMDL
MODEL 3
REMARK VINA RESULT:    -3.588      3.243      4.377
REMARK INTER + INTRA:          -6.369
REMARK INTER:                  -6.014
REMARK INTRA:                  -0.355
REMARK UNBOUND:                -0.893
REMARK SMILES O=C([O-])CCCCCCCCC(=O)[O-]
REMARK SMILES IDX 7 1 6 2 5 3 4 4 2 5 1 6 3 7 8 8 9 9 10 10 11 11 12 12 13 13
REMARK SMILES IDX 14 14
REMARK H PARENT
REMARK Flexibility Score: inf
ROOT
ATOM      1  C   UNL     1      -4.400  28.056   1.353  1.00  0.00     0.000 C 
ENDROOT
BRANCH   1   2
ATOM      2  C   UNL     1      -4.228  29.540   0.983  1.00  0.00     0.000 C 
BRANCH   2   3
ATOM      3  C   UNL     1      -5.296  30.026  -0.010  1.00  0.00     0.006 C 
BRANCH   3   4
ATOM      4  C   UNL     1      -5.733  31.475   0.252  1.00  0.00     0.053 C 
BRANCH   4   5
ATOM      5  C   UNL     1      -7.189  31.642  -0.048  1.00  0.00     0.041 C 
ATOM      6  O   UNL     1      -7.563  31.980  -1.202  1.00  0.00    -0.550 OA
ATOM      7  O   UNL     1      -8.136  31.377   0.933  1.00  0.00    -0.550 OA
ENDBRANCH   4   5
ENDBRANCH   3   4
ENDBRANCH   2   3
ENDBRANCH   1   2
BRANCH   1   8
ATOM      8  C   UNL     1      -3.553  27.652   2.571  1.00  0.00     0.000 C 
BRANCH   8   9
ATOM      9  C   UNL     1      -4.109  26.413   3.296  1.00  0.00     0.000 C 
BRANCH   9  10
ATOM     10  C   UNL     1      -5.137  25.646   2.449  1.00  0.00     0.006 C 
BRANCH  10  11
ATOM     11  C   UNL     1      -6.519  25.587   3.111  1.00  0.00     0.053 C 
BRANCH  11  12
ATOM     12  C   UNL     1      -7.507  24.932   2.198  1.00  0.00     0.041 C 
ATOM     13  O   UNL     1      -8.670  25.400   2.083  1.00  0.00    -0.550 OA
ATOM     14  O   UNL     1      -7.159  23.776   1.511  1.00  0.00    -0.550 OA
ENDBRANCH  11  12
ENDBRANCH  10  11
ENDBRANCH   9  10
ENDBRANCH   8   9
ENDBRANCH   1   8
TORSDOF 9
ENDMDL
MODEL 4
REMARK VINA RESULT:    -3.546      2.035      2.784
REMARK INTER + INTRA:          -6.305
REMARK INTER:                  -5.486
REMARK INTRA:                  -0.820
REMARK UNBOUND:                -0.893
REMARK SMILES O=C([O-])CCCCCCCCC(=O)[O-]
REMARK SMILES IDX 7 1 6 2 5 3 4 4 2 5 1 6 3 7 8 8 9 9 10 10 11 11 12 12 13 13
REMARK SMILES IDX 14 14
REMARK H PARENT
REMARK Flexibility Score: inf
ROOT
ATOM      1  C   UNL     1      -2.978  25.693   2.431  1.00  0.00     0.000 C 
ENDROOT
BRANCH   1   2
ATOM      2  C   UNL     1      -2.845  27.212   2.641  1.00  0.00     0.000 C 
BRANCH   2   3
ATOM      3  C   UNL     1      -2.363  27.941   1.376  1.00  0.00     0.006 C 
BRANCH   3   4
ATOM      4  C   UNL     1      -3.479  28.132   0.340  1.00  0.00     0.053 C 
BRANCH   4   5
ATOM      5  C   UNL     1      -4.490  29.116   0.838  1.00  0.00     0.041 C 
ATOM      6  O   UNL     1      -5.708  28.802   0.888  1.00  0.00    -0.550 OA
ATOM      7  O   UNL     1      -4.081  30.363   1.293  1.00  0.00    -0.550 OA
ENDBRANCH   4   5
ENDBRANCH   3   4
ENDBRANCH   2   3
ENDBRANCH   1   2
BRANCH   1   8
ATOM      8  C   UNL     1      -4.423  25.199   2.608  1.00  0.00     0.000 C 
BRANCH   8   9
ATOM      9  C   UNL     1      -5.330  26.244   3.283  1.00  0.00     0.000 C 
BRANCH   9  10
ATOM     10  C   UNL     1      -6.806  26.090   2.881  1.00  0.00     0.006 C 
BRANCH  10  11
ATOM     11  C   UNL     1      -7.142  24.671   2.404  1.00  0.00     0.053 C 
BRANCH  11  12
ATOM     12  C   UNL     1      -7.585  24.693   0.975  1.00  0.00     0.041 C 
ATOM     13  O   UNL     1      -8.316  23.771   0.525  1.00  0.00    -0.550 OA
ATOM     14  O   UNL     1      -7.153  25.705   0.128  1.00  0.00    -0.550 OA
ENDBRANCH  11  12
ENDBRANCH  10  11
ENDBRANCH   9  10
ENDBRANCH   8   9
ENDBRANCH   1   8
TORSDOF 9
ENDMDL
MODEL 5
REMARK VINA RESULT:    -3.534      1.855      4.795
REMARK INTER + INTRA:          -6.287
REMARK INTER:                  -5.671
REMARK INTRA:                  -0.616
REMARK UNBOUND:                -0.893
REMARK SMILES O=C([O-])CCCCCCCCC(=O)[O-]
REMARK SMILES IDX 7 1 6 2 5 3 4 4 2 5 1 6 3 7 8 8 9 9 10 10 11 11 12 12 13 13
REMARK SMILES IDX 14 14
REMARK H PARENT
REMARK Flexibility Score: inf
ROOT
ATOM      1  C   UNL     1      -6.475  24.145   2.191  1.00  0.00     0.000 C 
ENDROOT
BRANCH   1   2
ATOM      2  C   UNL     1      -6.991  25.592   2.273  1.00  0.00     0.000 C 
BRANCH   2   3
ATOM      3  C   UNL     1      -6.652  26.263   3.614  1.00  0.00     0.006 C 
BRANCH   3   4
ATOM      4  C   UNL     1      -7.667  25.930   4.716  1.00  0.00     0.053 C 
BRANCH   4   5
ATOM      5  C   UNL     1      -7.050  26.114   6.066  1.00  0.00     0.041 C 
ATOM      6  O   UNL     1      -6.213  27.035   6.260  1.00  0.00    -0.550 OA
ATOM      7  O   UNL     1      -7.435  25.300   7.124  1.00  0.00    -0.550 OA
ENDBRANCH   4   5
ENDBRANCH   3   4
ENDBRANCH   2   3
ENDBRANCH   1   2
BRANCH   1   8
ATOM      8  C   UNL     1      -5.128  24.042   1.456  1.00  0.00     0.000 C 
BRANCH   8   9
ATOM      9  C   UNL     1      -4.849  25.256   0.553  1.00  0.00     0.000 C 
BRANCH   9  10
ATOM     10  C   UNL     1      -3.359  25.630   0.511  1.00  0.00     0.006 C 
BRANCH  10  11
ATOM     11  C   UNL     1      -2.682  25.507   1.882  1.00  0.00     0.053 C 
BRANCH  11  12
ATOM     12  C   UNL     1      -2.566  26.852   2.529  1.00  0.00     0.041 C 
ATOM     13  O   UNL     1      -3.434  27.232   3.358  1.00  0.00    -0.550 OA
ATOM     14  O   UNL     1      -1.527  27.704   2.179  1.00  0.00    -0.550 OA
ENDBRANCH  11  12
ENDBRANCH  10  11
ENDBRANCH   9  10
ENDBRANCH   8   9
ENDBRANCH   1   8
TORSDOF 9
ENDMDL
MODEL 6
REMARK VINA RESULT:    -3.507      1.525      2.264
REMARK INTER + INTRA:          -6.246
REMARK INTER:                  -5.648
REMARK INTRA:                  -0.597
REMARK UNBOUND:                -0.893
REMARK SMILES O=C([O-])CCCCCCCCC(=O)[O-]
REMARK SMILES IDX 7 1 6 2 5 3 4 4 2 5 1 6 3 7 8 8 9 9 10 10 11 11 12 12 13 13
REMARK SMILES IDX 14 14
REMARK H PARENT
REMARK Flexibility Score: inf
ROOT
ATOM      1  C   UNL     1      -2.083  26.492   0.887  1.00  0.00     0.000 C 
ENDROOT
BRANCH   1   2
ATOM      2  C   UNL     1      -3.271  27.450   0.687  1.00  0.00     0.000 C 
BRANCH   2   3
ATOM      3  C   UNL     1      -3.647  28.199   1.977  1.00  0.00     0.006 C 
BRANCH   3   4
ATOM      4  C   UNL     1      -2.836  27.728   3.193  1.00  0.00     0.053 C 
BRANCH   4   5
ATOM      5  C   UNL     1      -2.052  28.865   3.768  1.00  0.00     0.041 C 
ATOM      6  O   UNL     1      -2.557  29.596   4.659  1.00  0.00    -0.550 OA
ATOM      7  O   UNL     1      -0.744  29.087   3.354  1.00  0.00    -0.550 OA
ENDBRANCH   4   5
ENDBRANCH   3   4
ENDBRANCH   2   3
ENDBRANCH   1   2
BRANCH   1   8
ATOM      8  C   UNL     1      -2.532  25.043   1.141  1.00  0.00     0.000 C 
BRANCH   8   9
ATOM      9  C   UNL     1      -3.493  24.520   0.059  1.00  0.00     0.000 C 
BRANCH   9  10
ATOM     10  C   UNL     1      -4.412  23.403   0.577  1.00  0.00     0.006 C 
BRANCH  10  11
ATOM     11  C   UNL     1      -5.241  23.838   1.793  1.00  0.00     0.053 C 
BRANCH  11  12
ATOM     12  C   UNL     1      -6.496  24.521   1.351  1.00  0.00     0.041 C 
ATOM     13  O   UNL     1      -7.510  23.842   1.037  1.00  0.00    -0.550 OA
ATOM     14  O   UNL     1      -6.533  25.905   1.239  1.00  0.00    -0.550 OA
ENDBRANCH  11  12
ENDBRANCH  10  11
ENDBRANCH   9  10
ENDBRANCH   8   9
ENDBRANCH   1   8
TORSDOF 9
ENDMDL
MODEL 7
REMARK VINA RESULT:    -3.495      2.219      3.509
REMARK INTER + INTRA:          -6.226
REMARK INTER:                  -5.565
REMARK INTRA:                  -0.661
REMARK UNBOUND:                -0.893
REMARK SMILES O=C([O-])CCCCCCCCC(=O)[O-]
REMARK SMILES IDX 7 1 6 2 5 3 4 4 2 5 1 6 3 7 8 8 9 9 10 10 11 11 12 12 13 13
REMARK SMILES IDX 14 14
REMARK H PARENT
REMARK Flexibility Score: inf
ROOT
ATOM      1  C   UNL     1      -6.515  24.387   1.127  1.00  0.00     0.000 C 
ENDROOT
BRANCH   1   2
ATOM      2  C   UNL     1      -5.900  25.102  -0.089  1.00  0.00     0.000 C 
BRANCH   2   3
ATOM      3  C   UNL     1      -4.545  25.754   0.235  1.00  0.00     0.006 C 
BRANCH   3   4
ATOM      4  C   UNL     1      -3.722  24.939   1.243  1.00  0.00     0.053 C 
BRANCH   4   5
ATOM      5  C   UNL     1      -2.997  25.851   2.181  1.00  0.00     0.041 C 
ATOM      6  O   UNL     1      -3.294  25.867   3.404  1.00  0.00    -0.550 OA
ATOM      7  O   UNL     1      -1.960  26.648   1.713  1.00  0.00    -0.550 OA
ENDBRANCH   4   5
ENDBRANCH   3   4
ENDBRANCH   2   3
ENDBRANCH   1   2
BRANCH   1   8
ATOM      8  C   UNL     1      -7.992  24.757   1.341  1.00  0.00     0.000 C 
BRANCH   8   9
ATOM      9  C   UNL     1      -8.219  25.576   2.625  1.00  0.00     0.000 C 
BRANCH   9  10
ATOM     10  C   UNL     1      -7.333  25.106   3.789  1.00  0.00     0.006 C 
BRANCH  10  11
ATOM     11  C   UNL     1      -6.604  26.266   4.480  1.00  0.00     0.053 C 
BRANCH  11  12
ATOM     12  C   UNL     1      -6.870  26.245   5.952  1.00  0.00     0.041 C 
ATOM     13  O   UNL     1      -7.558  25.320   6.458  1.00  0.00    -0.550 OA
ATOM     14  O   UNL     1      -6.398  27.273   6.758  1.00  0.00    -0.550 OA
ENDBRANCH  11  12
ENDBRANCH  10  11
ENDBRANCH   9  10
ENDBRANCH   8   9
ENDBRANCH   1   8
TORSDOF 9
ENDMDL
MODEL 8
REMARK VINA RESULT:    -3.478      1.736      4.999
REMARK INTER + INTRA:          -6.202
REMARK INTER:                  -5.227
REMARK INTRA:                  -0.975
REMARK UNBOUND:                -0.893
REMARK SMILES O=C([O-])CCCCCCCCC(=O)[O-]
REMARK SMILES IDX 7 1 6 2 5 3 4 4 2 5 1 6 3 7 8 8 9 9 10 10 11 11 12 12 13 13
REMARK SMILES IDX 14 14
REMARK H PARENT
REMARK Flexibility Score: inf
ROOT
ATOM      1  C   UNL     1      -4.556  24.682  -0.299  1.00  0.00     0.000 C 
ENDROOT
BRANCH   1   2
ATOM      2  C   UNL     1      -4.427  23.602   0.789  1.00  0.00     0.000 C 
BRANCH   2   3
ATOM      3  C   UNL     1      -5.541  23.695   1.845  1.00  0.00     0.006 C 
BRANCH   3   4
ATOM      4  C   UNL     1      -6.285  25.038   1.804  1.00  0.00     0.053 C 
BRANCH   4   5
ATOM      5  C   UNL     1      -7.753  24.815   1.618  1.00  0.00     0.041 C 
ATOM      6  O   UNL     1      -8.585  25.520   2.246  1.00  0.00    -0.550 OA
ATOM      7  O   UNL     1      -8.201  23.860   0.713  1.00  0.00    -0.550 OA
ENDBRANCH   4   5
ENDBRANCH   3   4
ENDBRANCH   2   3
ENDBRANCH   1   2
BRANCH   1   8
ATOM      8  C   UNL     1      -3.254  25.475  -0.497  1.00  0.00     0.000 C 
BRANCH   8   9
ATOM      9  C   UNL     1      -2.276  25.317   0.682  1.00  0.00     0.000 C 
BRANCH   9  10
ATOM     10  C   UNL     1      -1.951  26.657   1.361  1.00  0.00     0.006 C 
BRANCH  10  11
ATOM     11  C   UNL     1      -3.023  27.082   2.372  1.00  0.00     0.053 C 
BRANCH  11  12
ATOM     12  C   UNL     1      -3.730  28.311   1.897  1.00  0.00     0.041 C 
ATOM     13  O   UNL     1      -3.305  29.452   2.220  1.00  0.00    -0.550 OA
ATOM     14  O   UNL     1      -4.888  28.198   1.138  1.00  0.00    -0.550 OA
ENDBRANCH  11  12
ENDBRANCH  10  11
ENDBRANCH   9  10
ENDBRANCH   8   9
ENDBRANCH   1   8
TORSDOF 9
ENDMDL
MODEL 9
REMARK VINA RESULT:    -3.424      2.377      4.922
REMARK INTER + INTRA:          -6.119
REMARK INTER:                  -5.266
REMARK INTRA:                  -0.853
REMARK UNBOUND:                -0.893
REMARK SMILES O=C([O-])CCCCCCCCC(=O)[O-]
REMARK SMILES IDX 7 1 6 2 5 3 4 4 2 5 1 6 3 7 8 8 9 9 10 10 11 11 12 12 13 13
REMARK SMILES IDX 14 14
REMARK H PARENT
REMARK Flexibility Score: inf
ROOT
ATOM      1  C   UNL     1      -3.013  27.084   2.889  1.00  0.00     0.000 C 
ENDROOT
BRANCH   1   2
ATOM      2  C   UNL     1      -3.430  25.607   2.996  1.00  0.00     0.000 C 
BRANCH   2   3
ATOM      3  C   UNL     1      -4.769  25.322   2.296  1.00  0.00     0.006 C 
BRANCH   3   4
ATOM      4  C   UNL     1      -5.879  26.292   2.723  1.00  0.00     0.053 C 
BRANCH   4   5
ATOM      5  C   UNL     1      -7.115  26.059   1.913  1.00  0.00     0.041 C 
ATOM      6  O   UNL     1      -7.048  26.006   0.657  1.00  0.00    -0.550 OA
ATOM      7  O   UNL     1      -8.333  25.851   2.547  1.00  0.00    -0.550 OA
ENDBRANCH   4   5
ENDBRANCH   3   4
ENDBRANCH   2   3
ENDBRANCH   1   2
BRANCH   1   8
ATOM      8  C   UNL     1      -2.154  27.364   1.645  1.00  0.00     0.000 C 
BRANCH   8   9
ATOM      9  C   UNL     1      -2.862  28.278   0.627  1.00  0.00     0.000 C 
BRANCH   9  10
ATOM     10  C   UNL     1      -3.920  29.179   1.281  1.00  0.00     0.006 C 
BRANCH  10  11
ATOM     11  C   UNL     1      -5.253  29.170   0.522  1.00  0.00     0.053 C 
BRANCH  11  12
ATOM     12  C   UNL     1      -5.634  30.559   0.119  1.00  0.00     0.041 C 
ATOM     13  O   UNL     1      -4.943  31.541   0.500  1.00  0.00    -0.550 OA
ATOM     14  O   UNL     1      -6.778  30.775  -0.638  1.00  0.00    -0.550 OA
ENDBRANCH  11  12
ENDBRANCH  10  11
ENDBRANCH   9  10
ENDBRANCH   8   9
ENDBRANCH   1   8
TORSDOF 9
ENDMDL
