MODEL 1
REMARK VINA RESULT:    -6.290      0.000      0.000
REMARK INTER + INTRA:         -11.469
REMARK INTER:                 -10.702
REMARK INTRA:                  -0.767
REMARK UNBOUND:                -0.767
REMARK SMILES OC[C@@H]1O[C@@H](Oc2cc3c(O[C@@H]4O[C@H](CO)[C@H](O)[C@H](O)[C@H]4O)cc(O)cc3[o+]c2-c2ccc(O)cc2)[C@@H](O)[C@H](O)[C@H]1O.[Cl-]
REMARK SMILES IDX 29 1 7 2 8 3 9 4 10 5 23 6 24 7 26 8 27 9 28 10 30 11 31 12
REMARK SMILES IDX 32 13 33 14 36 15 35 16 34 17 6 19 5 20 37 21 4 22 39 23
REMARK SMILES IDX 3 24 41 25 38 26 40 28 2 30 1 31 42 33 11 35 12 36 21 37
REMARK SMILES IDX 13 38 19 39 14 40 17 41 22 42 20 44 15 46 16 47 18 49 25 51
REMARK H PARENT 34 18 38 27 40 29 1 32 42 34 22 43 20 45 16 48 18 50 25 52
REMARK Flexibility Score: inf
ROOT
ATOM      1  C   UNL     1      13.444   1.139   2.614  1.00  0.00     0.402 A 
ATOM      2  C   UNL     1      13.298   1.880   1.425  1.00  0.00     0.229 A 
ATOM      3  C   UNL     1      12.053   1.850   0.779  1.00  0.00     0.079 A 
ATOM      4  C   UNL     1      10.999   1.104   1.325  1.00  0.00     0.126 A 
ATOM      5  C   UNL     1       9.728   1.066   0.722  1.00  0.00     0.143 A 
ATOM      6  C   UNL     1       8.704   0.308   1.308  1.00  0.00     0.094 A 
ATOM      7  C   UNL     1       8.935  -0.392   2.501  1.00  0.00     0.128 A 
ATOM      8  C   UNL     1      10.199  -0.349   3.102  1.00  0.00     0.162 A 
ATOM      9  C   UNL     1      11.233   0.391   2.518  1.00  0.00     0.368 A 
ATOM     10  O   UNL     1      12.427   0.429   3.097  1.00  0.00    -0.202 OA
ENDROOT
BRANCH   1  11
ATOM     11  C   UNL     1      14.730   1.108   3.333  1.00  0.00     0.084 A 
ATOM     12  C   UNL     1      15.468   2.291   3.501  1.00  0.00     0.022 A 
ATOM     13  C   UNL     1      16.672   2.276   4.217  1.00  0.00     0.047 A 
ATOM     14  C   UNL     1      17.159   1.074   4.749  1.00  0.00     0.115 A 
ATOM     15  C   UNL     1      15.227  -0.098   3.862  1.00  0.00     0.022 A 
ATOM     16  C   UNL     1      16.435  -0.114   4.567  1.00  0.00     0.047 A 
BRANCH  14  17
ATOM     17  O   UNL     1      18.364   1.068   5.451  1.00  0.00    -0.508 OA
ATOM     18  H   UNL     1      18.382   1.132   6.461  1.00  0.00     0.293 HD
ENDBRANCH  14  17
ENDBRANCH   1  11
BRANCH   2  19
ATOM     19  O   UNL     1      14.406   2.584   0.921  1.00  0.00    -0.452 OA
BRANCH  19  20
ATOM     20  C   UNL     1      14.513   3.236  -0.352  1.00  0.00     0.339 C 
ATOM     21  C   UNL     1      15.987   3.425  -0.784  1.00  0.00     0.214 C 
ATOM     22  O   UNL     1      13.794   2.506  -1.333  1.00  0.00    -0.332 OA
ATOM     23  C   UNL     1      16.642   2.063  -1.075  1.00  0.00     0.180 C 
ATOM     24  C   UNL     1      14.317   1.196  -1.504  1.00  0.00     0.179 C 
ATOM     25  C   UNL     1      15.765   1.249  -2.040  1.00  0.00     0.177 C 
BRANCH  21  26
ATOM     26  O   UNL     1      16.718   4.087   0.216  1.00  0.00    -0.384 OA
ATOM     27  H   UNL     1      17.639   3.717   0.183  1.00  0.00     0.211 HD
ENDBRANCH  21  26
BRANCH  23  28
ATOM     28  O   UNL     1      17.908   2.254  -1.651  1.00  0.00    -0.387 OA
ATOM     29  H   UNL     1      18.546   1.707  -1.126  1.00  0.00     0.211 HD
ENDBRANCH  23  28
BRANCH  24  30
ATOM     30  C   UNL     1      13.392   0.432  -2.458  1.00  0.00     0.191 C 
BRANCH  30  31
ATOM     31  O   UNL     1      12.546   1.324  -3.132  1.00  0.00    -0.394 OA
ATOM     32  H   UNL     1      12.918   2.229  -2.974  1.00  0.00     0.210 HD
ENDBRANCH  30  31
ENDBRANCH  24  30
BRANCH  25  33
ATOM     33  O   UNL     1      16.275  -0.056  -2.153  1.00  0.00    -0.387 OA
ATOM     34  H   UNL     1      16.735  -0.259  -1.297  1.00  0.00     0.211 HD
ENDBRANCH  25  33
ENDBRANCH  19  20
ENDBRANCH   2  19
BRANCH   5  35
ATOM     35  O   UNL     1       9.492   1.771  -0.464  1.00  0.00    -0.461 OA
BRANCH  35  36
ATOM     36  C   UNL     1       9.200   3.174  -0.568  1.00  0.00     0.339 C 
ATOM     37  C   UNL     1       9.167   3.923   0.796  1.00  0.00     0.214 C 
ATOM     38  O   UNL     1      10.174   3.757  -1.412  1.00  0.00    -0.332 OA
ATOM     39  C   UNL     1       9.545   5.421   0.632  1.00  0.00     0.180 C 
ATOM     40  C   UNL     1       9.733   5.012  -1.908  1.00  0.00     0.179 C 
ATOM     41  C   UNL     1       9.192   5.951  -0.773  1.00  0.00     0.177 C 
BRANCH  37  42
ATOM     42  O   UNL     1       7.875   3.819   1.332  1.00  0.00    -0.384 OA
ATOM     43  H   UNL     1       7.926   3.185   2.092  1.00  0.00     0.211 HD
ENDBRANCH  37  42
BRANCH  39  44
ATOM     44  O   UNL     1      10.902   5.644   0.931  1.00  0.00    -0.387 OA
ATOM     45  H   UNL     1      11.173   5.012   1.646  1.00  0.00     0.211 HD
ENDBRANCH  39  44
BRANCH  40  46
ATOM     46  C   UNL     1      10.870   5.626  -2.741  1.00  0.00     0.191 C 
BRANCH  46  47
ATOM     47  O   UNL     1      11.984   4.777  -2.752  1.00  0.00    -0.394 OA
ATOM     48  H   UNL     1      12.482   4.986  -3.583  1.00  0.00     0.210 HD
ENDBRANCH  46  47
ENDBRANCH  40  46
BRANCH  41  49
ATOM     49  O   UNL     1       9.650   7.275  -0.903  1.00  0.00    -0.387 OA
ATOM     50  H   UNL     1       8.848   7.860  -0.850  1.00  0.00     0.211 HD
ENDBRANCH  41  49
ENDBRANCH  35  36
ENDBRANCH   5  35
BRANCH   7  51
ATOM     51  O   UNL     1       7.915  -1.125   3.100  1.00  0.00    -0.507 OA
ATOM     52  H   UNL     1       7.937  -2.137   3.129  1.00  0.00     0.293 HD
ENDBRANCH   7  51
TORSDOF 17
ENDMDL
MODEL 2
REMARK VINA RESULT:    -6.234      1.744      5.216
REMARK INTER + INTRA:         -11.373
REMARK INTER:                  -9.410
REMARK INTRA:                  -1.963
REMARK UNBOUND:                -0.767
REMARK SMILES OC[C@@H]1O[C@@H](Oc2cc3c(O[C@@H]4O[C@H](CO)[C@H](O)[C@H](O)[C@H]4O)cc(O)cc3[o+]c2-c2ccc(O)cc2)[C@@H](O)[C@H](O)[C@H]1O.[Cl-]
REMARK SMILES IDX 29 1 7 2 8 3 9 4 10 5 23 6 24 7 26 8 27 9 28 10 30 11 31 12
REMARK SMILES IDX 32 13 33 14 36 15 35 16 34 17 6 19 5 20 37 21 4 22 39 23
REMARK SMILES IDX 3 24 41 25 38 26 40 28 2 30 1 31 42 33 11 35 12 36 21 37
REMARK SMILES IDX 13 38 19 39 14 40 17 41 22 42 20 44 15 46 16 47 18 49 25 51
REMARK H PARENT 34 18 38 27 40 29 1 32 42 34 22 43 20 45 16 48 18 50 25 52
REMARK Flexibility Score: inf
ROOT
ATOM      1  C   UNL     1      14.262   1.403   1.817  1.00  0.00     0.402 A 
ATOM      2  C   UNL     1      12.864   1.232   1.849  1.00  0.00     0.229 A 
ATOM      3  C   UNL     1      12.108   1.788   0.805  1.00  0.00     0.079 A 
ATOM      4  C   UNL     1      12.749   2.482  -0.230  1.00  0.00     0.126 A 
ATOM      5  C   UNL     1      12.032   3.034  -1.307  1.00  0.00     0.143 A 
ATOM      6  C   UNL     1      12.718   3.716  -2.322  1.00  0.00     0.094 A 
ATOM      7  C   UNL     1      14.115   3.831  -2.278  1.00  0.00     0.128 A 
ATOM      8  C   UNL     1      14.828   3.277  -1.209  1.00  0.00     0.162 A 
ATOM      9  C   UNL     1      14.153   2.607  -0.183  1.00  0.00     0.368 A 
ATOM     10  O   UNL     1      14.837   2.081   0.826  1.00  0.00    -0.202 OA
ENDROOT
BRANCH   1  11
ATOM     11  C   UNL     1      15.115   0.865   2.891  1.00  0.00     0.084 A 
ATOM     12  C   UNL     1      15.180  -0.522   3.106  1.00  0.00     0.022 A 
ATOM     13  C   UNL     1      16.018  -1.043   4.099  1.00  0.00     0.047 A 
ATOM     14  C   UNL     1      16.779  -0.181   4.902  1.00  0.00     0.115 A 
ATOM     15  C   UNL     1      15.874   1.727   3.704  1.00  0.00     0.022 A 
ATOM     16  C   UNL     1      16.703   1.206   4.704  1.00  0.00     0.047 A 
BRANCH  14  17
ATOM     17  O   UNL     1      17.603  -0.710   5.895  1.00  0.00    -0.508 OA
ATOM     18  H   UNL     1      17.289  -0.779   6.855  1.00  0.00     0.293 HD
ENDBRANCH  14  17
ENDBRANCH   1  11
BRANCH   2  19
ATOM     19  O   UNL     1      12.287   0.547   2.933  1.00  0.00    -0.452 OA
BRANCH  19  20
ATOM     20  C   UNL     1      11.691  -0.757   2.916  1.00  0.00     0.339 C 
ATOM     21  C   UNL     1      11.063  -1.124   4.282  1.00  0.00     0.214 C 
ATOM     22  O   UNL     1      10.721  -0.835   1.883  1.00  0.00    -0.332 OA
ATOM     23  C   UNL     1       9.847  -0.229   4.574  1.00  0.00     0.180 C 
ATOM     24  C   UNL     1       9.663   0.093   2.083  1.00  0.00     0.179 C 
ATOM     25  C   UNL     1       8.883  -0.237   3.376  1.00  0.00     0.177 C 
BRANCH  21  26
ATOM     26  O   UNL     1      12.002  -0.983   5.316  1.00  0.00    -0.384 OA
ATOM     27  H   UNL     1      11.723  -0.190   5.844  1.00  0.00     0.211 HD
ENDBRANCH  21  26
BRANCH  23  28
ATOM     28  O   UNL     1       9.171  -0.696   5.713  1.00  0.00    -0.387 OA
ATOM     29  H   UNL     1       9.821  -1.239   6.228  1.00  0.00     0.211 HD
ENDBRANCH  23  28
BRANCH  24  30
ATOM     30  C   UNL     1       8.751   0.051   0.852  1.00  0.00     0.191 C 
BRANCH  30  31
ATOM     31  O   UNL     1       7.918   1.178   0.826  1.00  0.00    -0.394 OA
ATOM     32  H   UNL     1       7.636   1.334   1.764  1.00  0.00     0.210 HD
ENDBRANCH  30  31
ENDBRANCH  24  30
BRANCH  25  33
ATOM     33  O   UNL     1       7.875   0.723   3.576  1.00  0.00    -0.387 OA
ATOM     34  H   UNL     1       7.657   0.712   4.544  1.00  0.00     0.211 HD
ENDBRANCH  25  33
ENDBRANCH  19  20
ENDBRANCH   2  19
BRANCH   5  35
ATOM     35  O   UNL     1      10.638   2.913  -1.358  1.00  0.00    -0.461 OA
BRANCH  35  36
ATOM     36  C   UNL     1       9.688   3.913  -0.958  1.00  0.00     0.339 C 
ATOM     37  C   UNL     1       9.864   4.412   0.507  1.00  0.00     0.214 C 
ATOM     38  O   UNL     1       9.805   5.004  -1.852  1.00  0.00    -0.332 OA
ATOM     39  C   UNL     1       9.358   5.871   0.676  1.00  0.00     0.180 C 
ATOM     40  C   UNL     1       8.650   5.828  -1.804  1.00  0.00     0.179 C 
ATOM     41  C   UNL     1       8.248   6.214  -0.337  1.00  0.00     0.177 C 
BRANCH  37  42
ATOM     42  O   UNL     1       9.143   3.561   1.358  1.00  0.00    -0.384 OA
ATOM     43  H   UNL     1       8.464   3.101   0.802  1.00  0.00     0.211 HD
ENDBRANCH  37  42
BRANCH  39  44
ATOM     44  O   UNL     1      10.419   6.794   0.598  1.00  0.00    -0.387 OA
ATOM     45  H   UNL     1      10.071   7.638   0.210  1.00  0.00     0.211 HD
ENDBRANCH  39  44
BRANCH  40  46
ATOM     46  C   UNL     1       8.882   7.034  -2.729  1.00  0.00     0.191 C 
BRANCH  46  47
ATOM     47  O   UNL     1       9.722   7.971  -2.113  1.00  0.00    -0.394 OA
ATOM     48  H   UNL     1       9.501   8.848  -2.517  1.00  0.00     0.210 HD
ENDBRANCH  46  47
ENDBRANCH  40  46
BRANCH  41  49
ATOM     49  O   UNL     1       7.903   7.573  -0.211  1.00  0.00    -0.387 OA
ATOM     50  H   UNL     1       8.058   7.819   0.739  1.00  0.00     0.211 HD
ENDBRANCH  41  49
ENDBRANCH  35  36
ENDBRANCH   5  35
BRANCH   7  51
ATOM     51  O   UNL     1      14.803   4.485  -3.296  1.00  0.00    -0.507 OA
ATOM     52  H   UNL     1      15.809   4.412  -3.386  1.00  0.00     0.293 HD
ENDBRANCH   7  51
TORSDOF 17
ENDMDL
MODEL 3
REMARK VINA RESULT:    -6.224      1.816      6.810
REMARK INTER + INTRA:         -11.357
REMARK INTER:                  -9.859
REMARK INTRA:                  -1.498
REMARK UNBOUND:                -0.767
REMARK SMILES OC[C@@H]1O[C@@H](Oc2cc3c(O[C@@H]4O[C@H](CO)[C@H](O)[C@H](O)[C@H]4O)cc(O)cc3[o+]c2-c2ccc(O)cc2)[C@@H](O)[C@H](O)[C@H]1O.[Cl-]
REMARK SMILES IDX 29 1 7 2 8 3 9 4 10 5 23 6 24 7 26 8 27 9 28 10 30 11 31 12
REMARK SMILES IDX 32 13 33 14 36 15 35 16 34 17 6 19 5 20 37 21 4 22 39 23
REMARK SMILES IDX 3 24 41 25 38 26 40 28 2 30 1 31 42 33 11 35 12 36 21 37
REMARK SMILES IDX 13 38 19 39 14 40 17 41 22 42 20 44 15 46 16 47 18 49 25 51
REMARK H PARENT 34 18 38 27 40 29 1 32 42 34 22 43 20 45 16 48 18 50 25 52
REMARK Flexibility Score: inf
ROOT
ATOM      1  C   UNL     1      10.560   2.970   0.901  1.00  0.00     0.402 A 
ATOM      2  C   UNL     1      11.769   2.355   0.522  1.00  0.00     0.229 A 
ATOM      3  C   UNL     1      12.175   1.210   1.226  1.00  0.00     0.079 A 
ATOM      4  C   UNL     1      11.379   0.709   2.265  1.00  0.00     0.126 A 
ATOM      5  C   UNL     1      11.737  -0.449   2.980  1.00  0.00     0.143 A 
ATOM      6  C   UNL     1      10.905  -0.915   4.009  1.00  0.00     0.094 A 
ATOM      7  C   UNL     1       9.712  -0.245   4.312  1.00  0.00     0.128 A 
ATOM      8  C   UNL     1       9.355   0.904   3.597  1.00  0.00     0.162 A 
ATOM      9  C   UNL     1      10.183   1.387   2.578  1.00  0.00     0.368 A 
ATOM     10  O   UNL     1       9.835   2.475   1.902  1.00  0.00    -0.202 OA
ENDROOT
BRANCH   1  11
ATOM     11  C   UNL     1      10.083   4.187   0.220  1.00  0.00     0.084 A 
ATOM     12  C   UNL     1      10.246   5.440   0.832  1.00  0.00     0.022 A 
ATOM     13  C   UNL     1       9.830   6.605   0.174  1.00  0.00     0.047 A 
ATOM     14  C   UNL     1       9.227   6.523  -1.089  1.00  0.00     0.115 A 
ATOM     15  C   UNL     1       9.471   4.108  -1.045  1.00  0.00     0.022 A 
ATOM     16  C   UNL     1       9.046   5.271  -1.696  1.00  0.00     0.047 A 
BRANCH  14  17
ATOM     17  O   UNL     1       8.808   7.688  -1.730  1.00  0.00    -0.508 OA
ATOM     18  H   UNL     1       9.403   8.506  -1.773  1.00  0.00     0.293 HD
ENDBRANCH  14  17
ENDBRANCH   1  11
BRANCH   2  19
ATOM     19  O   UNL     1      12.530   2.929  -0.511  1.00  0.00    -0.452 OA
BRANCH  19  20
ATOM     20  C   UNL     1      12.685   2.436  -1.849  1.00  0.00     0.339 C 
ATOM     21  C   UNL     1      13.318   3.494  -2.786  1.00  0.00     0.214 C 
ATOM     22  O   UNL     1      13.458   1.248  -1.842  1.00  0.00    -0.332 OA
ATOM     23  C   UNL     1      14.777   3.766  -2.382  1.00  0.00     0.180 C 
ATOM     24  C   UNL     1      14.768   1.474  -1.339  1.00  0.00     0.179 C 
ATOM     25  C   UNL     1      15.548   2.442  -2.257  1.00  0.00     0.177 C 
BRANCH  21  26
ATOM     26  O   UNL     1      12.593   4.696  -2.742  1.00  0.00    -0.384 OA
ATOM     27  H   UNL     1      12.842   5.145  -1.893  1.00  0.00     0.211 HD
ENDBRANCH  21  26
BRANCH  23  28
ATOM     28  O   UNL     1      15.399   4.572  -3.349  1.00  0.00    -0.387 OA
ATOM     29  H   UNL     1      14.734   4.718  -4.070  1.00  0.00     0.211 HD
ENDBRANCH  23  28
BRANCH  24  30
ATOM     30  C   UNL     1      15.476   0.119  -1.221  1.00  0.00     0.191 C 
BRANCH  30  31
ATOM     31  O   UNL     1      16.824   0.304  -0.884  1.00  0.00    -0.394 OA
ATOM     32  H   UNL     1      17.241   0.765  -1.657  1.00  0.00     0.210 HD
ENDBRANCH  30  31
ENDBRANCH  24  30
BRANCH  25  33
ATOM     33  O   UNL     1      16.820   2.687  -1.711  1.00  0.00    -0.387 OA
ATOM     34  H   UNL     1      17.147   3.534  -2.113  1.00  0.00     0.211 HD
ENDBRANCH  25  33
ENDBRANCH  19  20
ENDBRANCH   2  19
BRANCH   5  35
ATOM     35  O   UNL     1      12.924  -1.125   2.673  1.00  0.00    -0.461 OA
BRANCH  35  36
ATOM     36  C   UNL     1      14.201  -0.912   3.293  1.00  0.00     0.339 C 
ATOM     37  C   UNL     1      14.916   0.399   2.851  1.00  0.00     0.214 C 
ATOM     38  O   UNL     1      14.006  -0.901   4.695  1.00  0.00    -0.332 OA
ATOM     39  C   UNL     1      15.857   0.937   3.964  1.00  0.00     0.180 C 
ATOM     40  C   UNL     1      15.228  -1.125   5.382  1.00  0.00     0.179 C 
ATOM     41  C   UNL     1      16.384  -0.196   4.867  1.00  0.00     0.177 C 
BRANCH  37  42
ATOM     42  O   UNL     1      15.661   0.133   1.693  1.00  0.00    -0.384 OA
ATOM     43  H   UNL     1      16.146   0.965   1.460  1.00  0.00     0.211 HD
ENDBRANCH  37  42
BRANCH  39  44
ATOM     44  O   UNL     1      15.230   1.941   4.725  1.00  0.00    -0.387 OA
ATOM     45  H   UNL     1      14.258   1.920   4.532  1.00  0.00     0.211 HD
ENDBRANCH  39  44
BRANCH  40  46
ATOM     46  C   UNL     1      14.958  -1.012   6.891  1.00  0.00     0.191 C 
BRANCH  46  47
ATOM     47  O   UNL     1      13.586  -1.113   7.154  1.00  0.00    -0.394 OA
ATOM     48  H   UNL     1      13.183  -0.259   6.851  1.00  0.00     0.210 HD
ENDBRANCH  46  47
ENDBRANCH  40  46
BRANCH  41  49
ATOM     49  O   UNL     1      17.142   0.355   5.918  1.00  0.00    -0.387 OA
ATOM     50  H   UNL     1      17.774  -0.352   6.214  1.00  0.00     0.211 HD
ENDBRANCH  41  49
ENDBRANCH  35  36
ENDBRANCH   5  35
BRANCH   7  51
ATOM     51  O   UNL     1       8.870  -0.718   5.315  1.00  0.00    -0.507 OA
ATOM     52  H   UNL     1       8.864  -1.694   5.585  1.00  0.00     0.293 HD
ENDBRANCH   7  51
TORSDOF 17
ENDMDL
MODEL 4
REMARK VINA RESULT:    -5.554      1.608      6.493
REMARK INTER + INTRA:         -10.216
REMARK INTER:                  -9.648
REMARK INTRA:                  -0.568
REMARK UNBOUND:                -0.767
REMARK SMILES OC[C@@H]1O[C@@H](Oc2cc3c(O[C@@H]4O[C@H](CO)[C@H](O)[C@H](O)[C@H]4O)cc(O)cc3[o+]c2-c2ccc(O)cc2)[C@@H](O)[C@H](O)[C@H]1O.[Cl-]
REMARK SMILES IDX 29 1 7 2 8 3 9 4 10 5 23 6 24 7 26 8 27 9 28 10 30 11 31 12
REMARK SMILES IDX 32 13 33 14 36 15 35 16 34 17 6 19 5 20 37 21 4 22 39 23
REMARK SMILES IDX 3 24 41 25 38 26 40 28 2 30 1 31 42 33 11 35 12 36 21 37
REMARK SMILES IDX 13 38 19 39 14 40 17 41 22 42 20 44 15 46 16 47 18 49 25 51
REMARK H PARENT 34 18 38 27 40 29 1 32 42 34 22 43 20 45 16 48 18 50 25 52
REMARK Flexibility Score: inf
ROOT
ATOM      1  C   UNL     1      10.175   3.194   0.819  1.00  0.00     0.402 A 
ATOM      2  C   UNL     1      11.541   2.858   0.865  1.00  0.00     0.229 A 
ATOM      3  C   UNL     1      11.925   1.764   1.657  1.00  0.00     0.079 A 
ATOM      4  C   UNL     1      10.957   1.039   2.364  1.00  0.00     0.126 A 
ATOM      5  C   UNL     1      11.295  -0.078   3.150  1.00  0.00     0.143 A 
ATOM      6  C   UNL     1      10.290  -0.774   3.837  1.00  0.00     0.094 A 
ATOM      7  C   UNL     1       8.951  -0.376   3.725  1.00  0.00     0.128 A 
ATOM      8  C   UNL     1       8.615   0.733   2.940  1.00  0.00     0.162 A 
ATOM      9  C   UNL     1       9.610   1.445   2.262  1.00  0.00     0.368 A 
ATOM     10  O   UNL     1       9.283   2.492   1.515  1.00  0.00    -0.202 OA
ENDROOT
BRANCH   1  11
ATOM     11  C   UNL     1       9.704   4.343   0.025  1.00  0.00     0.084 A 
ATOM     12  C   UNL     1       9.328   5.532   0.671  1.00  0.00     0.022 A 
ATOM     13  C   UNL     1       8.916   6.641  -0.080  1.00  0.00     0.047 A 
ATOM     14  C   UNL     1       8.852   6.561  -1.478  1.00  0.00     0.115 A 
ATOM     15  C   UNL     1       9.631   4.264  -1.378  1.00  0.00     0.022 A 
ATOM     16  C   UNL     1       9.209   5.368  -2.126  1.00  0.00     0.047 A 
BRANCH  14  17
ATOM     17  O   UNL     1       8.431   7.668  -2.214  1.00  0.00    -0.508 OA
ATOM     18  H   UNL     1       8.267   7.603  -3.211  1.00  0.00     0.293 HD
ENDBRANCH  14  17
ENDBRANCH   1  11
BRANCH   2  19
ATOM     19  O   UNL     1      12.460   3.647   0.150  1.00  0.00    -0.452 OA
BRANCH  19  20
ATOM     20  C   UNL     1      12.998   3.385  -1.154  1.00  0.00     0.339 C 
ATOM     21  C   UNL     1      14.531   3.177  -1.116  1.00  0.00     0.214 C 
ATOM     22  O   UNL     1      12.354   2.258  -1.727  1.00  0.00    -0.332 OA
ATOM     23  C   UNL     1      14.881   1.879  -0.368  1.00  0.00     0.180 C 
ATOM     24  C   UNL     1      12.566   1.082  -0.957  1.00  0.00     0.179 C 
ATOM     25  C   UNL     1      14.064   0.706  -0.933  1.00  0.00     0.177 C 
BRANCH  21  26
ATOM     26  O   UNL     1      15.166   4.261  -0.487  1.00  0.00    -0.384 OA
ATOM     27  H   UNL     1      14.497   4.992  -0.445  1.00  0.00     0.211 HD
ENDBRANCH  21  26
BRANCH  23  28
ATOM     28  O   UNL     1      16.250   1.599  -0.509  1.00  0.00    -0.387 OA
ATOM     29  H   UNL     1      16.397   0.695  -0.131  1.00  0.00     0.211 HD
ENDBRANCH  23  28
BRANCH  24  30
ATOM     30  C   UNL     1      11.714  -0.042  -1.557  1.00  0.00     0.191 C 
BRANCH  30  31
ATOM     31  O   UNL     1      10.685   0.495  -2.342  1.00  0.00    -0.394 OA
ATOM     32  H   UNL     1       9.932   0.677  -1.722  1.00  0.00     0.210 HD
ENDBRANCH  30  31
ENDBRANCH  24  30
BRANCH  25  33
ATOM     33  O   UNL     1      14.252  -0.430  -0.126  1.00  0.00    -0.387 OA
ATOM     34  H   UNL     1      13.489  -1.040  -0.306  1.00  0.00     0.211 HD
ENDBRANCH  25  33
ENDBRANCH  19  20
ENDBRANCH   2  19
BRANCH   5  35
ATOM     35  O   UNL     1      12.631  -0.483   3.256  1.00  0.00    -0.461 OA
BRANCH  35  36
ATOM     36  C   UNL     1      13.620   0.087   4.127  1.00  0.00     0.339 C 
ATOM     37  C   UNL     1      14.347  -0.948   5.035  1.00  0.00     0.214 C 
ATOM     38  O   UNL     1      14.567   0.764   3.322  1.00  0.00    -0.332 OA
ATOM     39  C   UNL     1      15.780  -0.476   5.402  1.00  0.00     0.180 C 
ATOM     40  C   UNL     1      15.315   1.695   4.089  1.00  0.00     0.179 C 
ATOM     41  C   UNL     1      15.896   1.061   5.402  1.00  0.00     0.177 C 
BRANCH  37  42
ATOM     42  O   UNL     1      13.593  -1.121   6.206  1.00  0.00    -0.384 OA
ATOM     43  H   UNL     1      14.233  -1.302   6.940  1.00  0.00     0.211 HD
ENDBRANCH  37  42
BRANCH  39  44
ATOM     44  O   UNL     1      16.744  -1.057   4.556  1.00  0.00    -0.387 OA
ATOM     45  H   UNL     1      17.613  -1.072   5.035  1.00  0.00     0.211 HD
ENDBRANCH  39  44
BRANCH  40  46
ATOM     46  C   UNL     1      16.379   2.326   3.174  1.00  0.00     0.191 C 
BRANCH  46  47
ATOM     47  O   UNL     1      15.774   3.138   2.206  1.00  0.00    -0.394 OA
ATOM     48  H   UNL     1      16.377   3.913   2.080  1.00  0.00     0.210 HD
ENDBRANCH  46  47
ENDBRANCH  40  46
BRANCH  41  49
ATOM     49  O   UNL     1      17.234   1.431   5.635  1.00  0.00    -0.387 OA
ATOM     50  H   UNL     1      17.768   1.047   4.889  1.00  0.00     0.211 HD
ENDBRANCH  41  49
ENDBRANCH  35  36
ENDBRANCH   5  35
BRANCH   7  51
ATOM     51  O   UNL     1       7.946  -1.079   4.384  1.00  0.00    -0.507 OA
ATOM     52  H   UNL     1       7.111  -1.386   3.901  1.00  0.00     0.293 HD
ENDBRANCH   7  51
TORSDOF 17
ENDMDL
MODEL 5
REMARK VINA RESULT:    -5.507      1.414      2.662
REMARK INTER + INTRA:         -10.138
REMARK INTER:                  -9.849
REMARK INTRA:                  -0.289
REMARK UNBOUND:                -0.767
REMARK SMILES OC[C@@H]1O[C@@H](Oc2cc3c(O[C@@H]4O[C@H](CO)[C@H](O)[C@H](O)[C@H]4O)cc(O)cc3[o+]c2-c2ccc(O)cc2)[C@@H](O)[C@H](O)[C@H]1O.[Cl-]
REMARK SMILES IDX 29 1 7 2 8 3 9 4 10 5 23 6 24 7 26 8 27 9 28 10 30 11 31 12
REMARK SMILES IDX 32 13 33 14 36 15 35 16 34 17 6 19 5 20 37 21 4 22 39 23
REMARK SMILES IDX 3 24 41 25 38 26 40 28 2 30 1 31 42 33 11 35 12 36 21 37
REMARK SMILES IDX 13 38 19 39 14 40 17 41 22 42 20 44 15 46 16 47 18 49 25 51
REMARK H PARENT 34 18 38 27 40 29 1 32 42 34 22 43 20 45 16 48 18 50 25 52
REMARK Flexibility Score: inf
ROOT
ATOM      1  C   UNL     1      13.810   1.070   2.908  1.00  0.00     0.402 A 
ATOM      2  C   UNL     1      13.878   1.768   1.687  1.00  0.00     0.229 A 
ATOM      3  C   UNL     1      12.676   2.035   1.012  1.00  0.00     0.079 A 
ATOM      4  C   UNL     1      11.457   1.615   1.563  1.00  0.00     0.126 A 
ATOM      5  C   UNL     1      10.228   1.883   0.932  1.00  0.00     0.143 A 
ATOM      6  C   UNL     1       9.034   1.446   1.524  1.00  0.00     0.094 A 
ATOM      7  C   UNL     1       9.059   0.766   2.749  1.00  0.00     0.128 A 
ATOM      8  C   UNL     1      10.282   0.504   3.378  1.00  0.00     0.162 A 
ATOM      9  C   UNL     1      11.481   0.921   2.790  1.00  0.00     0.368 A 
ATOM     10  O   UNL     1      12.636   0.673   3.395  1.00  0.00    -0.202 OA
ENDROOT
BRANCH   1  11
ATOM     11  C   UNL     1      15.034   0.737   3.659  1.00  0.00     0.084 A 
ATOM     12  C   UNL     1      15.844   1.765   4.169  1.00  0.00     0.022 A 
ATOM     13  C   UNL     1      16.987   1.456   4.916  1.00  0.00     0.047 A 
ATOM     14  C   UNL     1      17.343   0.117   5.138  1.00  0.00     0.115 A 
ATOM     15  C   UNL     1      15.398  -0.605   3.878  1.00  0.00     0.022 A 
ATOM     16  C   UNL     1      16.547  -0.912   4.615  1.00  0.00     0.047 A 
BRANCH  14  17
ATOM     17  O   UNL     1      18.489  -0.178   5.875  1.00  0.00    -0.508 OA
ATOM     18  H   UNL     1      18.506  -0.950   6.530  1.00  0.00     0.293 HD
ENDBRANCH  14  17
ENDBRANCH   1  11
BRANCH   2  19
ATOM     19  O   UNL     1      15.138   2.134   1.181  1.00  0.00    -0.452 OA
BRANCH  19  20
ATOM     20  C   UNL     1      15.911   1.438   0.194  1.00  0.00     0.339 C 
ATOM     21  C   UNL     1      15.177   0.181  -0.335  1.00  0.00     0.214 C 
ATOM     22  O   UNL     1      16.236   2.313  -0.874  1.00  0.00    -0.332 OA
ATOM     23  C   UNL     1      13.931   0.585  -1.141  1.00  0.00     0.180 C 
ATOM     24  C   UNL     1      15.073   2.795  -1.534  1.00  0.00     0.179 C 
ATOM     25  C   UNL     1      14.302   1.634  -2.202  1.00  0.00     0.177 C 
BRANCH  21  26
ATOM     26  O   UNL     1      14.793  -0.655   0.726  1.00  0.00    -0.384 OA
ATOM     27  H   UNL     1      14.016  -1.180   0.403  1.00  0.00     0.211 HD
ENDBRANCH  21  26
BRANCH  23  28
ATOM     28  O   UNL     1      13.387  -0.542  -1.778  1.00  0.00    -0.387 OA
ATOM     29  H   UNL     1      12.452  -0.312  -2.017  1.00  0.00     0.211 HD
ENDBRANCH  23  28
BRANCH  24  30
ATOM     30  C   UNL     1      15.507   3.845  -2.562  1.00  0.00     0.191 C 
BRANCH  30  31
ATOM     31  O   UNL     1      14.408   4.621  -2.957  1.00  0.00    -0.394 OA
ATOM     32  H   UNL     1      14.186   4.334  -3.880  1.00  0.00     0.210 HD
ENDBRANCH  30  31
ENDBRANCH  24  30
BRANCH  25  33
ATOM     33  O   UNL     1      13.133   2.129  -2.805  1.00  0.00    -0.387 OA
ATOM     34  H   UNL     1      12.372   1.631  -2.407  1.00  0.00     0.211 HD
ENDBRANCH  25  33
ENDBRANCH  19  20
ENDBRANCH   2  19
BRANCH   5  35
ATOM     35  O   UNL     1      10.200   2.570  -0.287  1.00  0.00    -0.461 OA
BRANCH  35  36
ATOM     36  C   UNL     1      10.288   3.994  -0.456  1.00  0.00     0.339 C 
ATOM     37  C   UNL     1      10.519   4.450  -1.927  1.00  0.00     0.214 C 
ATOM     38  O   UNL     1       9.092   4.563   0.040  1.00  0.00    -0.332 OA
ATOM     39  C   UNL     1       9.934   5.867  -2.181  1.00  0.00     0.180 C 
ATOM     40  C   UNL     1       9.259   5.948   0.307  1.00  0.00     0.179 C 
ATOM     41  C   UNL     1       9.911   6.717  -0.895  1.00  0.00     0.177 C 
BRANCH  37  42
ATOM     42  O   UNL     1      11.899   4.457  -2.180  1.00  0.00    -0.384 OA
ATOM     43  H   UNL     1      12.165   5.402  -2.316  1.00  0.00     0.211 HD
ENDBRANCH  37  42
BRANCH  39  44
ATOM     44  O   UNL     1       8.656   5.796  -2.766  1.00  0.00    -0.387 OA
ATOM     45  H   UNL     1       8.523   4.879  -3.119  1.00  0.00     0.211 HD
ENDBRANCH  39  44
BRANCH  40  46
ATOM     46  C   UNL     1       7.903   6.518   0.756  1.00  0.00     0.191 C 
BRANCH  46  47
ATOM     47  O   UNL     1       8.071   7.777   1.346  1.00  0.00    -0.394 OA
ATOM     48  H   UNL     1       8.609   8.312   0.708  1.00  0.00     0.210 HD
ENDBRANCH  46  47
ENDBRANCH  40  46
BRANCH  41  49
ATOM     49  O   UNL     1       9.276   7.946  -1.158  1.00  0.00    -0.387 OA
ATOM     50  H   UNL     1       8.455   7.967  -0.599  1.00  0.00     0.211 HD
ENDBRANCH  41  49
ENDBRANCH  35  36
ENDBRANCH   5  35
BRANCH   7  51
ATOM     51  O   UNL     1       7.875   0.353   3.354  1.00  0.00    -0.507 OA
ATOM     52  H   UNL     1       7.028   0.211   2.817  1.00  0.00     0.293 HD
ENDBRANCH   7  51
TORSDOF 17
ENDMDL
MODEL 6
REMARK VINA RESULT:    -4.832      1.890      6.804
REMARK INTER + INTRA:          -8.989
REMARK INTER:                  -7.602
REMARK INTRA:                  -1.387
REMARK UNBOUND:                -0.767
REMARK SMILES OC[C@@H]1O[C@@H](Oc2cc3c(O[C@@H]4O[C@H](CO)[C@H](O)[C@H](O)[C@H]4O)cc(O)cc3[o+]c2-c2ccc(O)cc2)[C@@H](O)[C@H](O)[C@H]1O.[Cl-]
REMARK SMILES IDX 29 1 7 2 8 3 9 4 10 5 23 6 24 7 26 8 27 9 28 10 30 11 31 12
REMARK SMILES IDX 32 13 33 14 36 15 35 16 34 17 6 19 5 20 37 21 4 22 39 23
REMARK SMILES IDX 3 24 41 25 38 26 40 28 2 30 1 31 42 33 11 35 12 36 21 37
REMARK SMILES IDX 13 38 19 39 14 40 17 41 22 42 20 44 15 46 16 47 18 49 25 51
REMARK H PARENT 34 18 38 27 40 29 1 32 42 34 22 43 20 45 16 48 18 50 25 52
REMARK Flexibility Score: inf
ROOT
ATOM      1  C   UNL     1      10.036   3.077   1.223  1.00  0.00     0.402 A 
ATOM      2  C   UNL     1      11.193   2.454   0.718  1.00  0.00     0.229 A 
ATOM      3  C   UNL     1      11.634   1.277   1.343  1.00  0.00     0.079 A 
ATOM      4  C   UNL     1      10.922   0.754   2.431  1.00  0.00     0.126 A 
ATOM      5  C   UNL     1      11.316  -0.435   3.072  1.00  0.00     0.143 A 
ATOM      6  C   UNL     1      10.568  -0.921   4.154  1.00  0.00     0.094 A 
ATOM      7  C   UNL     1       9.421  -0.240   4.585  1.00  0.00     0.128 A 
ATOM      8  C   UNL     1       9.028   0.940   3.944  1.00  0.00     0.162 A 
ATOM      9  C   UNL     1       9.774   1.443   2.873  1.00  0.00     0.368 A 
ATOM     10  O   UNL     1       9.392   2.562   2.268  1.00  0.00    -0.202 OA
ENDROOT
BRANCH   1  11
ATOM     11  C   UNL     1       9.529   4.327   0.629  1.00  0.00     0.084 A 
ATOM     12  C   UNL     1       8.571   4.276  -0.396  1.00  0.00     0.022 A 
ATOM     13  C   UNL     1       8.056   5.461  -0.939  1.00  0.00     0.047 A 
ATOM     14  C   UNL     1       8.513   6.703  -0.478  1.00  0.00     0.115 A 
ATOM     15  C   UNL     1       9.991   5.577   1.084  1.00  0.00     0.022 A 
ATOM     16  C   UNL     1       9.484   6.758   0.533  1.00  0.00     0.047 A 
BRANCH  14  17
ATOM     17  O   UNL     1       8.000   7.876  -1.032  1.00  0.00    -0.508 OA
ATOM     18  H   UNL     1       8.270   8.179  -1.959  1.00  0.00     0.293 HD
ENDBRANCH  14  17
ENDBRANCH   1  11
BRANCH   2  19
ATOM     19  O   UNL     1      11.872   3.050  -0.360  1.00  0.00    -0.452 OA
BRANCH  19  20
ATOM     20  C   UNL     1      12.813   4.131  -0.300  1.00  0.00     0.339 C 
ATOM     21  C   UNL     1      14.046   3.777   0.568  1.00  0.00     0.214 C 
ATOM     22  O   UNL     1      13.213   4.500  -1.609  1.00  0.00    -0.332 OA
ATOM     23  C   UNL     1      14.880   2.675  -0.106  1.00  0.00     0.180 C 
ATOM     24  C   UNL     1      13.865   3.432  -2.283  1.00  0.00     0.179 C 
ATOM     25  C   UNL     1      15.181   3.054  -1.565  1.00  0.00     0.177 C 
BRANCH  21  26
ATOM     26  O   UNL     1      13.649   3.346   1.844  1.00  0.00    -0.384 OA
ATOM     27  H   UNL     1      13.886   2.384   1.902  1.00  0.00     0.211 HD
ENDBRANCH  21  26
BRANCH  23  28
ATOM     28  O   UNL     1      16.090   2.501   0.585  1.00  0.00    -0.387 OA
ATOM     29  H   UNL     1      16.639   1.873   0.047  1.00  0.00     0.211 HD
ENDBRANCH  23  28
BRANCH  24  30
ATOM     30  C   UNL     1      14.120   3.863  -3.731  1.00  0.00     0.191 C 
BRANCH  30  31
ATOM     31  O   UNL     1      13.587   5.140  -3.958  1.00  0.00    -0.394 OA
ATOM     32  H   UNL     1      13.939   5.718  -3.233  1.00  0.00     0.210 HD
ENDBRANCH  30  31
ENDBRANCH  24  30
BRANCH  25  33
ATOM     33  O   UNL     1      15.779   1.964  -2.221  1.00  0.00    -0.387 OA
ATOM     34  H   UNL     1      16.681   2.263  -2.509  1.00  0.00     0.211 HD
ENDBRANCH  25  33
ENDBRANCH  19  20
ENDBRANCH   2  19
BRANCH   5  35
ATOM     35  O   UNL     1      12.456  -1.123   2.638  1.00  0.00    -0.461 OA
BRANCH  35  36
ATOM     36  C   UNL     1      13.768  -1.031   3.215  1.00  0.00     0.339 C 
ATOM     37  C   UNL     1      14.663   0.082   2.595  1.00  0.00     0.214 C 
ATOM     38  O   UNL     1      13.615  -0.805   4.603  1.00  0.00    -0.332 OA
ATOM     39  C   UNL     1      15.706   0.608   3.619  1.00  0.00     0.180 C 
ATOM     40  C   UNL     1      14.807  -1.124   5.306  1.00  0.00     0.179 C 
ATOM     41  C   UNL     1      16.077  -0.464   4.663  1.00  0.00     0.177 C 
BRANCH  37  42
ATOM     42  O   UNL     1      15.325  -0.448   1.478  1.00  0.00    -0.384 OA
ATOM     43  H   UNL     1      16.291  -0.261   1.596  1.00  0.00     0.211 HD
ENDBRANCH  37  42
BRANCH  39  44
ATOM     44  O   UNL     1      15.262   1.790   4.242  1.00  0.00    -0.387 OA
ATOM     45  H   UNL     1      14.343   1.985   3.925  1.00  0.00     0.211 HD
ENDBRANCH  39  44
BRANCH  40  46
ATOM     46  C   UNL     1      14.599  -0.772   6.788  1.00  0.00     0.191 C 
BRANCH  46  47
ATOM     47  O   UNL     1      13.233  -0.681   7.085  1.00  0.00    -0.394 OA
ATOM     48  H   UNL     1      13.160  -0.074   7.865  1.00  0.00     0.210 HD
ENDBRANCH  46  47
ENDBRANCH  40  46
BRANCH  41  49
ATOM     49  O   UNL     1      16.940   0.097   5.624  1.00  0.00    -0.387 OA
ATOM     50  H   UNL     1      17.852   0.081   5.231  1.00  0.00     0.211 HD
ENDBRANCH  41  49
ENDBRANCH  35  36
ENDBRANCH   5  35
BRANCH   7  51
ATOM     51  O   UNL     1       8.662  -0.732   5.642  1.00  0.00    -0.507 OA
ATOM     52  H   UNL     1       8.930  -0.574   6.606  1.00  0.00     0.293 HD
ENDBRANCH   7  51
TORSDOF 17
ENDMDL
MODEL 7
REMARK VINA RESULT:    -4.664      1.834      7.912
REMARK INTER + INTRA:          -8.703
REMARK INTER:                  -8.817
REMARK INTRA:                   0.114
REMARK UNBOUND:                -0.767
REMARK SMILES OC[C@@H]1O[C@@H](Oc2cc3c(O[C@@H]4O[C@H](CO)[C@H](O)[C@H](O)[C@H]4O)cc(O)cc3[o+]c2-c2ccc(O)cc2)[C@@H](O)[C@H](O)[C@H]1O.[Cl-]
REMARK SMILES IDX 29 1 7 2 8 3 9 4 10 5 23 6 24 7 26 8 27 9 28 10 30 11 31 12
REMARK SMILES IDX 32 13 33 14 36 15 35 16 34 17 6 19 5 20 37 21 4 22 39 23
REMARK SMILES IDX 3 24 41 25 38 26 40 28 2 30 1 31 42 33 11 35 12 36 21 37
REMARK SMILES IDX 13 38 19 39 14 40 17 41 22 42 20 44 15 46 16 47 18 49 25 51
REMARK H PARENT 34 18 38 27 40 29 1 32 42 34 22 43 20 45 16 48 18 50 25 52
REMARK Flexibility Score: inf
ROOT
ATOM      1  C   UNL     1      12.345   3.441  -0.250  1.00  0.00     0.402 A 
ATOM      2  C   UNL     1      12.331   2.592   0.873  1.00  0.00     0.229 A 
ATOM      3  C   UNL     1      13.447   1.769   1.090  1.00  0.00     0.079 A 
ATOM      4  C   UNL     1      14.533   1.815   0.206  1.00  0.00     0.126 A 
ATOM      5  C   UNL     1      15.682   1.025   0.400  1.00  0.00     0.143 A 
ATOM      6  C   UNL     1      16.745   1.110  -0.510  1.00  0.00     0.094 A 
ATOM      7  C   UNL     1      16.678   1.993  -1.597  1.00  0.00     0.128 A 
ATOM      8  C   UNL     1      15.537   2.781  -1.787  1.00  0.00     0.162 A 
ATOM      9  C   UNL     1      14.463   2.695  -0.894  1.00  0.00     0.368 A 
ATOM     10  O   UNL     1      13.387   3.450  -1.078  1.00  0.00    -0.202 OA
ENDROOT
BRANCH   1  11
ATOM     11  C   UNL     1      11.198   4.316  -0.552  1.00  0.00     0.084 A 
ATOM     12  C   UNL     1      10.720   5.206   0.424  1.00  0.00     0.022 A 
ATOM     13  C   UNL     1       9.655   6.067   0.132  1.00  0.00     0.047 A 
ATOM     14  C   UNL     1       9.044   6.029  -1.130  1.00  0.00     0.115 A 
ATOM     15  C   UNL     1      10.577   4.275  -1.815  1.00  0.00     0.022 A 
ATOM     16  C   UNL     1       9.506   5.128  -2.101  1.00  0.00     0.047 A 
BRANCH  14  17
ATOM     17  O   UNL     1       7.978   6.884  -1.406  1.00  0.00    -0.508 OA
ATOM     18  H   UNL     1       7.607   7.505  -0.698  1.00  0.00     0.293 HD
ENDBRANCH  14  17
ENDBRANCH   1  11
BRANCH   2  19
ATOM     19  O   UNL     1      11.196   2.578   1.702  1.00  0.00    -0.452 OA
BRANCH  19  20
ATOM     20  C   UNL     1      10.320   1.470   1.954  1.00  0.00     0.339 C 
ATOM     21  C   UNL     1       8.957   1.635   1.238  1.00  0.00     0.214 C 
ATOM     22  O   UNL     1      10.946   0.258   1.564  1.00  0.00    -0.332 OA
ATOM     23  C   UNL     1       9.136   1.552  -0.287  1.00  0.00     0.180 C 
ATOM     24  C   UNL     1      11.235   0.238   0.172  1.00  0.00     0.179 C 
ATOM     25  C   UNL     1       9.933   0.291  -0.659  1.00  0.00     0.177 C 
BRANCH  21  26
ATOM     26  O   UNL     1       8.367   2.866   1.570  1.00  0.00    -0.384 OA
ATOM     27  H   UNL     1       8.737   3.127   2.452  1.00  0.00     0.211 HD
ENDBRANCH  21  26
BRANCH  23  28
ATOM     28  O   UNL     1       7.880   1.505  -0.914  1.00  0.00    -0.387 OA
ATOM     29  H   UNL     1       7.199   1.555  -0.194  1.00  0.00     0.211 HD
ENDBRANCH  23  28
BRANCH  24  30
ATOM     30  C   UNL     1      12.043  -1.028  -0.131  1.00  0.00     0.191 C 
BRANCH  30  31
ATOM     31  O   UNL     1      12.699  -0.902  -1.363  1.00  0.00    -0.394 OA
ATOM     32  H   UNL     1      13.670  -0.943  -1.164  1.00  0.00     0.210 HD
ENDBRANCH  30  31
ENDBRANCH  24  30
BRANCH  25  33
ATOM     33  O   UNL     1      10.249   0.320  -2.028  1.00  0.00    -0.387 OA
ATOM     34  H   UNL     1       9.949   1.201  -2.373  1.00  0.00     0.211 HD
ENDBRANCH  25  33
ENDBRANCH  19  20
ENDBRANCH   2  19
BRANCH   5  35
ATOM     35  O   UNL     1      15.755   0.150   1.490  1.00  0.00    -0.461 OA
BRANCH  35  36
ATOM     36  C   UNL     1      15.324   0.433   2.831  1.00  0.00     0.339 C 
ATOM     37  C   UNL     1      14.938  -0.829   3.658  1.00  0.00     0.214 C 
ATOM     38  O   UNL     1      16.368   1.131   3.482  1.00  0.00    -0.332 OA
ATOM     39  C   UNL     1      15.160  -0.601   5.179  1.00  0.00     0.180 C 
ATOM     40  C   UNL     1      15.885   1.813   4.631  1.00  0.00     0.179 C 
ATOM     41  C   UNL     1      15.026   0.886   5.562  1.00  0.00     0.177 C 
BRANCH  37  42
ATOM     42  O   UNL     1      13.588  -1.125   3.417  1.00  0.00    -0.384 OA
ATOM     43  H   UNL     1      13.482  -1.222   2.437  1.00  0.00     0.211 HD
ENDBRANCH  37  42
BRANCH  39  44
ATOM     44  O   UNL     1      16.396  -1.125   5.601  1.00  0.00    -0.387 OA
ATOM     45  H   UNL     1      16.517  -2.017   5.186  1.00  0.00     0.211 HD
ENDBRANCH  39  44
BRANCH  40  46
ATOM     46  C   UNL     1      17.082   2.473   5.335  1.00  0.00     0.191 C 
BRANCH  46  47
ATOM     47  O   UNL     1      18.044   1.513   5.673  1.00  0.00    -0.394 OA
ATOM     48  H   UNL     1      18.204   1.613   6.646  1.00  0.00     0.210 HD
ENDBRANCH  46  47
ENDBRANCH  40  46
BRANCH  41  49
ATOM     49  O   UNL     1      15.340   1.049   6.924  1.00  0.00    -0.387 OA
ATOM     50  H   UNL     1      14.480   1.200   7.398  1.00  0.00     0.211 HD
ENDBRANCH  41  49
ENDBRANCH  35  36
ENDBRANCH   5  35
BRANCH   7  51
ATOM     51  O   UNL     1      17.741   2.099  -2.489  1.00  0.00    -0.507 OA
ATOM     52  H   UNL     1      18.161   2.994  -2.708  1.00  0.00     0.293 HD
ENDBRANCH   7  51
TORSDOF 17
ENDMDL
MODEL 8
REMARK VINA RESULT:    -4.523      1.608      2.602
REMARK INTER + INTRA:          -8.463
REMARK INTER:                  -7.570
REMARK INTRA:                  -0.893
REMARK UNBOUND:                -0.767
REMARK SMILES OC[C@@H]1O[C@@H](Oc2cc3c(O[C@@H]4O[C@H](CO)[C@H](O)[C@H](O)[C@H]4O)cc(O)cc3[o+]c2-c2ccc(O)cc2)[C@@H](O)[C@H](O)[C@H]1O.[Cl-]
REMARK SMILES IDX 29 1 7 2 8 3 9 4 10 5 23 6 24 7 26 8 27 9 28 10 30 11 31 12
REMARK SMILES IDX 32 13 33 14 36 15 35 16 34 17 6 19 5 20 37 21 4 22 39 23
REMARK SMILES IDX 3 24 41 25 38 26 40 28 2 30 1 31 42 33 11 35 12 36 21 37
REMARK SMILES IDX 13 38 19 39 14 40 17 41 22 42 20 44 15 46 16 47 18 49 25 51
REMARK H PARENT 34 18 38 27 40 29 1 32 42 34 22 43 20 45 16 48 18 50 25 52
REMARK Flexibility Score: inf
ROOT
ATOM      1  C   UNL     1      14.184   0.416   3.216  1.00  0.00     0.402 A 
ATOM      2  C   UNL     1      14.129   1.074   1.972  1.00  0.00     0.229 A 
ATOM      3  C   UNL     1      12.888   1.152   1.321  1.00  0.00     0.079 A 
ATOM      4  C   UNL     1      11.750   0.591   1.916  1.00  0.00     0.126 A 
ATOM      5  C   UNL     1      10.482   0.667   1.310  1.00  0.00     0.143 A 
ATOM      6  C   UNL     1       9.372   0.095   1.947  1.00  0.00     0.094 A 
ATOM      7  C   UNL     1       9.516  -0.533   3.192  1.00  0.00     0.128 A 
ATOM      8  C   UNL     1      10.776  -0.604   3.797  1.00  0.00     0.162 A 
ATOM      9  C   UNL     1      11.894  -0.050   3.164  1.00  0.00     0.368 A 
ATOM     10  O   UNL     1      13.086  -0.118   3.746  1.00  0.00    -0.202 OA
ENDROOT
BRANCH   1  11
ATOM     11  C   UNL     1      15.457   0.279   3.945  1.00  0.00     0.084 A 
ATOM     12  C   UNL     1      16.045  -0.988   4.094  1.00  0.00     0.022 A 
ATOM     13  C   UNL     1      17.274  -1.122   4.752  1.00  0.00     0.047 A 
ATOM     14  C   UNL     1      17.913   0.006   5.287  1.00  0.00     0.115 A 
ATOM     15  C   UNL     1      16.098   1.408   4.490  1.00  0.00     0.022 A 
ATOM     16  C   UNL     1      17.320   1.271   5.157  1.00  0.00     0.047 A 
BRANCH  14  17
ATOM     17  O   UNL     1      19.131  -0.140   5.949  1.00  0.00    -0.508 OA
ATOM     18  H   UNL     1      19.966   0.328   5.619  1.00  0.00     0.293 HD
ENDBRANCH  14  17
ENDBRANCH   1  11
BRANCH   2  19
ATOM     19  O   UNL     1      15.316   1.589   1.422  1.00  0.00    -0.452 OA
BRANCH  19  20
ATOM     20  C   UNL     1      15.776   2.947   1.470  1.00  0.00     0.339 C 
ATOM     21  C   UNL     1      15.893   3.568   0.056  1.00  0.00     0.214 C 
ATOM     22  O   UNL     1      14.914   3.723   2.286  1.00  0.00    -0.332 OA
ATOM     23  C   UNL     1      14.502   3.731  -0.578  1.00  0.00     0.180 C 
ATOM     24  C   UNL     1      13.590   3.760   1.770  1.00  0.00     0.179 C 
ATOM     25  C   UNL     1      13.559   4.461   0.393  1.00  0.00     0.177 C 
BRANCH  21  26
ATOM     26  O   UNL     1      16.691   2.765  -0.776  1.00  0.00    -0.384 OA
ATOM     27  H   UNL     1      17.415   2.399  -0.204  1.00  0.00     0.211 HD
ENDBRANCH  21  26
BRANCH  23  28
ATOM     28  O   UNL     1      14.601   4.470  -1.768  1.00  0.00    -0.387 OA
ATOM     29  H   UNL     1      15.393   5.060  -1.672  1.00  0.00     0.211 HD
ENDBRANCH  23  28
BRANCH  24  30
ATOM     30  C   UNL     1      12.699   4.482   2.787  1.00  0.00     0.191 C 
BRANCH  30  31
ATOM     31  O   UNL     1      11.420   3.910   2.803  1.00  0.00    -0.394 OA
ATOM     32  H   UNL     1      11.232   3.628   1.871  1.00  0.00     0.210 HD
ENDBRANCH  30  31
ENDBRANCH  24  30
BRANCH  25  33
ATOM     33  O   UNL     1      12.249   4.440  -0.117  1.00  0.00    -0.387 OA
ATOM     34  H   UNL     1      11.652   4.193   0.636  1.00  0.00     0.211 HD
ENDBRANCH  25  33
ENDBRANCH  19  20
ENDBRANCH   2  19
BRANCH   5  35
ATOM     35  O   UNL     1      10.334   1.301   0.071  1.00  0.00    -0.461 OA
BRANCH  35  36
ATOM     36  C   UNL     1       9.466   2.410  -0.212  1.00  0.00     0.339 C 
ATOM     37  C   UNL     1       9.023   3.213   1.046  1.00  0.00     0.214 C 
ATOM     38  O   UNL     1      10.139   3.267  -1.115  1.00  0.00    -0.332 OA
ATOM     39  C   UNL     1       8.717   4.695   0.697  1.00  0.00     0.180 C 
ATOM     40  C   UNL     1       9.226   4.135  -1.769  1.00  0.00     0.179 C 
ATOM     41  C   UNL     1       8.258   4.857  -0.766  1.00  0.00     0.177 C 
BRANCH  37  42
ATOM     42  O   UNL     1       7.875   2.608   1.580  1.00  0.00    -0.384 OA
ATOM     43  H   UNL     1       8.174   2.014   2.314  1.00  0.00     0.211 HD
ENDBRANCH  37  42
BRANCH  39  44
ATOM     44  O   UNL     1       9.818   5.526   0.978  1.00  0.00    -0.387 OA
ATOM     45  H   UNL     1      10.541   5.318   0.331  1.00  0.00     0.211 HD
ENDBRANCH  39  44
BRANCH  40  46
ATOM     46  C   UNL     1      10.031   5.094  -2.663  1.00  0.00     0.191 C 
BRANCH  46  47
ATOM     47  O   UNL     1      10.574   6.136  -1.901  1.00  0.00    -0.394 OA
ATOM     48  H   UNL     1      10.820   5.739  -1.026  1.00  0.00     0.210 HD
ENDBRANCH  46  47
ENDBRANCH  40  46
BRANCH  41  49
ATOM     49  O   UNL     1       8.099   6.225  -1.058  1.00  0.00    -0.387 OA
ATOM     50  H   UNL     1       8.167   6.314  -2.046  1.00  0.00     0.211 HD
ENDBRANCH  41  49
ENDBRANCH  35  36
ENDBRANCH   5  35
BRANCH   7  51
ATOM     51  O   UNL     1       8.413  -1.080   3.840  1.00  0.00    -0.507 OA
ATOM     52  H   UNL     1       8.410  -2.041   4.161  1.00  0.00     0.293 HD
ENDBRANCH   7  51
TORSDOF 17
ENDMDL
