MODEL 1
REMARK VINA RESULT:    -6.429      0.000      0.000
REMARK INTER + INTRA:          -8.154
REMARK INTER:                  -7.744
REMARK INTRA:                  -0.410
REMARK UNBOUND:                -0.410
REMARK SMILES O=c1c(O)c(-c2ccc(O)cc2O)oc2cc(O)cc(O)c12
REMARK SMILES IDX 5 1 3 2 2 3 1 4 22 5 20 6 19 7 17 8 16 9 15 10 14 11 6 12
REMARK SMILES IDX 8 13 7 14 9 15 11 16 12 17 10 18 13 20 4 22 21 24 18 26
REMARK H PARENT 10 19 13 21 4 23 21 25 18 27
REMARK Flexibility Score: inf
ROOT
ATOM      1  C   UNL     1      17.764  42.303  26.415  1.00  0.00     0.184 A 
ATOM      2  C   UNL     1      18.216  41.354  27.345  1.00  0.00     0.208 A 
ATOM      3  C   UNL     1      19.567  40.971  27.325  1.00  0.00     0.238 A 
ATOM      4  O   UNL     1      19.953  40.080  28.125  1.00  0.00    -0.285 OA
ATOM      5  C   UNL     1      20.450  41.556  26.385  1.00  0.00     0.111 A 
ATOM      6  C   UNL     1      21.846  41.272  26.300  1.00  0.00     0.134 A 
ATOM      7  C   UNL     1      22.596  41.810  25.247  1.00  0.00     0.093 A 
ATOM      8  C   UNL     1      22.018  42.671  24.316  1.00  0.00     0.123 A 
ATOM      9  C   UNL     1      20.667  43.003  24.425  1.00  0.00     0.094 A 
ATOM     10  C   UNL     1      19.883  42.454  25.442  1.00  0.00     0.146 A 
ATOM     11  O   UNL     1      18.599  42.785  25.503  1.00  0.00    -0.451 OA
ENDROOT
BRANCH   1  12
ATOM     12  C   UNL     1      16.359  42.762  26.394  1.00  0.00     0.063 A 
ATOM     13  C   UNL     1      14.663  44.294  27.223  1.00  0.00     0.047 A 
ATOM     14  C   UNL     1      15.984  43.838  27.214  1.00  0.00     0.020 A 
ATOM     15  C   UNL     1      13.699  43.674  26.424  1.00  0.00     0.119 A 
ATOM     16  C   UNL     1      14.059  42.585  25.619  1.00  0.00     0.093 A 
ATOM     17  C   UNL     1      15.381  42.117  25.609  1.00  0.00     0.130 A 
BRANCH  15  18
ATOM     18  O   UNL     1      12.387  44.143  26.440  1.00  0.00    -0.508 OA
ATOM     19  H   UNL     1      11.719  43.822  27.132  1.00  0.00     0.293 HD
ENDBRANCH  15  18
BRANCH  17  20
ATOM     20  O   UNL     1      15.717  41.001  24.841  1.00  0.00    -0.507 OA
ATOM     21  H   UNL     1      16.091  40.160  25.263  1.00  0.00     0.293 HD
ENDBRANCH  17  20
ENDBRANCH   1  12
BRANCH   2  22
ATOM     22  O   UNL     1      17.318  40.780  28.250  1.00  0.00    -0.502 OA
ATOM     23  H   UNL     1      17.419  40.882  29.253  1.00  0.00     0.293 HD
ENDBRANCH   2  22
BRANCH   6  24
ATOM     24  O   UNL     1      22.543  40.497  27.231  1.00  0.00    -0.507 OA
ATOM     25  H   UNL     1      22.451  39.497  27.331  1.00  0.00     0.293 HD
ENDBRANCH   6  24
BRANCH   8  26
ATOM     26  O   UNL     1      22.799  43.201  23.292  1.00  0.00    -0.508 OA
ATOM     27  H   UNL     1      23.605  43.784  23.486  1.00  0.00     0.293 HD
ENDBRANCH   8  26
TORSDOF 6
ENDMDL
MODEL 2
REMARK VINA RESULT:    -6.394      5.180      7.173
REMARK INTER + INTRA:          -8.112
REMARK INTER:                  -7.774
REMARK INTRA:                  -0.338
REMARK UNBOUND:                -0.410
REMARK SMILES O=c1c(O)c(-c2ccc(O)cc2O)oc2cc(O)cc(O)c12
REMARK SMILES IDX 5 1 3 2 2 3 1 4 22 5 20 6 19 7 17 8 16 9 15 10 14 11 6 12
REMARK SMILES IDX 8 13 7 14 9 15 11 16 12 17 10 18 13 20 4 22 21 24 18 26
REMARK H PARENT 10 19 13 21 4 23 21 25 18 27
REMARK Flexibility Score: inf
ROOT
ATOM      1  C   UNL     1      21.008  39.017  22.652  1.00  0.00     0.184 A 
ATOM      2  C   UNL     1      21.272  39.977  21.661  1.00  0.00     0.208 A 
ATOM      3  C   UNL     1      22.084  39.624  20.572  1.00  0.00     0.238 A 
ATOM      4  O   UNL     1      22.362  40.504  19.716  1.00  0.00    -0.285 OA
ATOM      5  C   UNL     1      22.608  38.311  20.480  1.00  0.00     0.111 A 
ATOM      6  C   UNL     1      23.411  37.832  19.402  1.00  0.00     0.134 A 
ATOM      7  C   UNL     1      23.981  36.557  19.479  1.00  0.00     0.093 A 
ATOM      8  C   UNL     1      23.728  35.718  20.564  1.00  0.00     0.123 A 
ATOM      9  C   UNL     1      22.896  36.154  21.596  1.00  0.00     0.094 A 
ATOM     10  C   UNL     1      22.341  37.435  21.566  1.00  0.00     0.146 A 
ATOM     11  O   UNL     1      21.565  37.815  22.574  1.00  0.00    -0.451 OA
ENDROOT
BRANCH   1  12
ATOM     12  C   UNL     1      20.146  39.318  23.814  1.00  0.00     0.063 A 
ATOM     13  C   UNL     1      18.010  39.042  24.943  1.00  0.00     0.047 A 
ATOM     14  C   UNL     1      18.853  38.774  23.861  1.00  0.00     0.020 A 
ATOM     15  C   UNL     1      18.443  39.867  25.984  1.00  0.00     0.119 A 
ATOM     16  C   UNL     1      19.724  40.434  25.935  1.00  0.00     0.093 A 
ATOM     17  C   UNL     1      20.573  40.174  24.850  1.00  0.00     0.130 A 
BRANCH  15  18
ATOM     18  O   UNL     1      17.593  40.123  27.058  1.00  0.00    -0.508 OA
ATOM     19  H   UNL     1      16.690  39.670  27.137  1.00  0.00     0.293 HD
ENDBRANCH  15  18
BRANCH  17  20
ATOM     20  O   UNL     1      21.828  40.783  24.789  1.00  0.00    -0.507 OA
ATOM     21  H   UNL     1      22.305  41.101  25.624  1.00  0.00     0.293 HD
ENDBRANCH  17  20
ENDBRANCH   1  12
BRANCH   2  22
ATOM     22  O   UNL     1      20.757  41.270  21.787  1.00  0.00    -0.502 OA
ATOM     23  H   UNL     1      19.833  41.520  21.455  1.00  0.00     0.293 HD
ENDBRANCH   2  22
BRANCH   6  24
ATOM     24  O   UNL     1      23.652  38.554  18.229  1.00  0.00    -0.507 OA
ATOM     25  H   UNL     1      24.046  39.483  18.195  1.00  0.00     0.293 HD
ENDBRANCH   6  24
BRANCH   8  26
ATOM     26  O   UNL     1      24.300  34.449  20.600  1.00  0.00    -0.508 OA
ATOM     27  H   UNL     1      25.275  34.313  20.842  1.00  0.00     0.293 HD
ENDBRANCH   8  26
TORSDOF 6
ENDMDL
MODEL 3
REMARK VINA RESULT:    -6.378      1.520      1.684
REMARK INTER + INTRA:          -8.093
REMARK INTER:                  -7.719
REMARK INTRA:                  -0.373
REMARK UNBOUND:                -0.410
REMARK SMILES O=c1c(O)c(-c2ccc(O)cc2O)oc2cc(O)cc(O)c12
REMARK SMILES IDX 5 1 3 2 2 3 1 4 22 5 20 6 19 7 17 8 16 9 15 10 14 11 6 12
REMARK SMILES IDX 8 13 7 14 9 15 11 16 12 17 10 18 13 20 4 22 21 24 18 26
REMARK H PARENT 10 19 13 21 4 23 21 25 18 27
REMARK Flexibility Score: inf
ROOT
ATOM      1  C   UNL     1      17.310  42.299  25.431  1.00  0.00     0.184 A 
ATOM      2  C   UNL     1      17.252  41.436  26.537  1.00  0.00     0.208 A 
ATOM      3  C   UNL     1      18.449  40.947  27.083  1.00  0.00     0.238 A 
ATOM      4  O   UNL     1      18.388  40.132  28.039  1.00  0.00    -0.285 OA
ATOM      5  C   UNL     1      19.690  41.340  26.524  1.00  0.00     0.111 A 
ATOM      6  C   UNL     1      20.966  40.938  27.020  1.00  0.00     0.134 A 
ATOM      7  C   UNL     1      22.122  41.282  26.311  1.00  0.00     0.093 A 
ATOM      8  C   UNL     1      22.055  42.068  25.161  1.00  0.00     0.123 A 
ATOM      9  C   UNL     1      20.817  42.517  24.700  1.00  0.00     0.094 A 
ATOM     10  C   UNL     1      19.643  42.160  25.365  1.00  0.00     0.146 A 
ATOM     11  O   UNL     1      18.483  42.598  24.887  1.00  0.00    -0.451 OA
ENDROOT
BRANCH   1  12
ATOM     12  C   UNL     1      16.089  42.863  24.820  1.00  0.00     0.063 A 
ATOM     13  C   UNL     1      14.509  44.704  24.655  1.00  0.00     0.047 A 
ATOM     14  C   UNL     1      15.663  44.142  25.209  1.00  0.00     0.020 A 
ATOM     15  C   UNL     1      13.760  43.989  23.717  1.00  0.00     0.119 A 
ATOM     16  C   UNL     1      14.164  42.702  23.340  1.00  0.00     0.093 A 
ATOM     17  C   UNL     1      15.317  42.129  23.895  1.00  0.00     0.130 A 
BRANCH  15  18
ATOM     18  O   UNL     1      12.614  44.564  23.171  1.00  0.00    -0.508 OA
ATOM     19  H   UNL     1      12.600  44.916  22.221  1.00  0.00     0.293 HD
ENDBRANCH  15  18
BRANCH  17  20
ATOM     20  O   UNL     1      15.682  40.828  23.548  1.00  0.00    -0.507 OA
ATOM     21  H   UNL     1      16.653  40.561  23.434  1.00  0.00     0.293 HD
ENDBRANCH  17  20
ENDBRANCH   1  12
BRANCH   2  22
ATOM     22  O   UNL     1      16.013  41.050  27.056  1.00  0.00    -0.502 OA
ATOM     23  H   UNL     1      15.625  41.462  27.897  1.00  0.00     0.293 HD
ENDBRANCH   2  22
BRANCH   6  24
ATOM     24  O   UNL     1      21.152  40.228  28.210  1.00  0.00    -0.507 OA
ATOM     25  H   UNL     1      20.407  39.868  28.788  1.00  0.00     0.293 HD
ENDBRANCH   6  24
BRANCH   8  26
ATOM     26  O   UNL     1      23.228  42.405  24.489  1.00  0.00    -0.508 OA
ATOM     27  H   UNL     1      24.133  42.074  24.804  1.00  0.00     0.293 HD
ENDBRANCH   8  26
TORSDOF 6
ENDMDL
MODEL 4
REMARK VINA RESULT:    -6.264      2.473      6.935
REMARK INTER + INTRA:          -7.956
REMARK INTER:                  -7.618
REMARK INTRA:                  -0.338
REMARK UNBOUND:                -0.410
REMARK SMILES O=c1c(O)c(-c2ccc(O)cc2O)oc2cc(O)cc(O)c12
REMARK SMILES IDX 5 1 3 2 2 3 1 4 22 5 20 6 19 7 17 8 16 9 15 10 14 11 6 12
REMARK SMILES IDX 8 13 7 14 9 15 11 16 12 17 10 18 13 20 4 22 21 24 18 26
REMARK H PARENT 10 19 13 21 4 23 21 25 18 27
REMARK Flexibility Score: inf
ROOT
ATOM      1  C   UNL     1      20.288  40.993  23.765  1.00  0.00     0.184 A 
ATOM      2  C   UNL     1      20.718  40.728  25.075  1.00  0.00     0.208 A 
ATOM      3  C   UNL     1      19.770  40.703  26.110  1.00  0.00     0.238 A 
ATOM      4  O   UNL     1      20.168  40.519  27.289  1.00  0.00    -0.285 OA
ATOM      5  C   UNL     1      18.402  40.927  25.818  1.00  0.00     0.111 A 
ATOM      6  C   UNL     1      17.350  40.886  26.782  1.00  0.00     0.134 A 
ATOM      7  C   UNL     1      16.053  41.251  26.403  1.00  0.00     0.093 A 
ATOM      8  C   UNL     1      15.756  41.593  25.085  1.00  0.00     0.123 A 
ATOM      9  C   UNL     1      16.765  41.579  24.122  1.00  0.00     0.094 A 
ATOM     10  C   UNL     1      18.076  41.255  24.475  1.00  0.00     0.146 A 
ATOM     11  O   UNL     1      19.010  41.265  23.530  1.00  0.00    -0.451 OA
ENDROOT
BRANCH   1  12
ATOM     12  C   UNL     1      21.231  41.017  22.627  1.00  0.00     0.063 A 
ATOM     13  C   UNL     1      22.108  39.935  20.635  1.00  0.00     0.047 A 
ATOM     14  C   UNL     1      21.226  39.948  21.718  1.00  0.00     0.020 A 
ATOM     15  C   UNL     1      23.015  40.983  20.453  1.00  0.00     0.119 A 
ATOM     16  C   UNL     1      23.043  42.044  21.369  1.00  0.00     0.093 A 
ATOM     17  C   UNL     1      22.165  42.061  22.462  1.00  0.00     0.130 A 
BRANCH  15  18
ATOM     18  O   UNL     1      23.886  40.958  19.366  1.00  0.00    -0.508 OA
ATOM     19  H   UNL     1      23.935  40.159  18.745  1.00  0.00     0.293 HD
ENDBRANCH  15  18
BRANCH  17  20
ATOM     20  O   UNL     1      22.236  43.098  23.393  1.00  0.00    -0.507 OA
ATOM     21  H   UNL     1      22.968  43.796  23.355  1.00  0.00     0.293 HD
ENDBRANCH  17  20
ENDBRANCH   1  12
BRANCH   2  22
ATOM     22  O   UNL     1      22.076  40.529  25.337  1.00  0.00    -0.502 OA
ATOM     23  H   UNL     1      22.792  41.155  24.991  1.00  0.00     0.293 HD
ENDBRANCH   2  22
BRANCH   6  24
ATOM     24  O   UNL     1      17.520  40.470  28.105  1.00  0.00    -0.507 OA
ATOM     25  H   UNL     1      16.785  40.104  28.692  1.00  0.00     0.293 HD
ENDBRANCH   6  24
BRANCH   8  26
ATOM     26  O   UNL     1      14.450  41.936  24.741  1.00  0.00    -0.508 OA
ATOM     27  H   UNL     1      14.206  42.879  24.459  1.00  0.00     0.293 HD
ENDBRANCH   8  26
TORSDOF 6
ENDMDL
MODEL 5
REMARK VINA RESULT:    -6.256      5.775      6.891
REMARK INTER + INTRA:          -7.947
REMARK INTER:                  -7.536
REMARK INTRA:                  -0.410
REMARK UNBOUND:                -0.410
REMARK SMILES O=c1c(O)c(-c2ccc(O)cc2O)oc2cc(O)cc(O)c12
REMARK SMILES IDX 5 1 3 2 2 3 1 4 22 5 20 6 19 7 17 8 16 9 15 10 14 11 6 12
REMARK SMILES IDX 8 13 7 14 9 15 11 16 12 17 10 18 13 20 4 22 21 24 18 26
REMARK H PARENT 10 19 13 21 4 23 21 25 18 27
REMARK Flexibility Score: inf
ROOT
ATOM      1  C   UNL     1      20.524  37.850  22.627  1.00  0.00     0.184 A 
ATOM      2  C   UNL     1      20.903  36.528  22.911  1.00  0.00     0.208 A 
ATOM      3  C   UNL     1      21.908  35.927  22.138  1.00  0.00     0.238 A 
ATOM      4  O   UNL     1      22.204  34.724  22.362  1.00  0.00    -0.285 OA
ATOM      5  C   UNL     1      22.533  36.662  21.101  1.00  0.00     0.111 A 
ATOM      6  C   UNL     1      23.590  36.167  20.280  1.00  0.00     0.134 A 
ATOM      7  C   UNL     1      24.043  36.935  19.200  1.00  0.00     0.093 A 
ATOM      8  C   UNL     1      23.524  38.204  18.951  1.00  0.00     0.123 A 
ATOM      9  C   UNL     1      22.532  38.723  19.783  1.00  0.00     0.094 A 
ATOM     10  C   UNL     1      22.033  37.967  20.846  1.00  0.00     0.146 A 
ATOM     11  O   UNL     1      21.080  38.492  21.608  1.00  0.00    -0.451 OA
ENDROOT
BRANCH   1  12
ATOM     12  C   UNL     1      19.486  38.547  23.414  1.00  0.00     0.063 A 
ATOM     13  C   UNL     1      17.127  38.948  23.845  1.00  0.00     0.047 A 
ATOM     14  C   UNL     1      18.134  38.303  23.124  1.00  0.00     0.020 A 
ATOM     15  C   UNL     1      17.456  39.856  24.855  1.00  0.00     0.119 A 
ATOM     16  C   UNL     1      18.802  40.125  25.137  1.00  0.00     0.093 A 
ATOM     17  C   UNL     1      19.819  39.485  24.414  1.00  0.00     0.130 A 
BRANCH  15  18
ATOM     18  O   UNL     1      16.441  40.490  25.568  1.00  0.00    -0.508 OA
ATOM     19  H   UNL     1      15.642  40.903  25.099  1.00  0.00     0.293 HD
ENDBRANCH  15  18
BRANCH  17  20
ATOM     20  O   UNL     1      21.155  39.797  24.670  1.00  0.00    -0.507 OA
ATOM     21  H   UNL     1      21.912  39.332  24.183  1.00  0.00     0.293 HD
ENDBRANCH  17  20
ENDBRANCH   1  12
BRANCH   2  22
ATOM     22  O   UNL     1      20.256  35.820  23.928  1.00  0.00    -0.502 OA
ATOM     23  H   UNL     1      19.249  35.714  23.960  1.00  0.00     0.293 HD
ENDBRANCH   2  22
BRANCH   6  24
ATOM     24  O   UNL     1      24.242  34.949  20.497  1.00  0.00    -0.507 OA
ATOM     25  H   UNL     1      24.115  34.366  21.311  1.00  0.00     0.293 HD
ENDBRANCH   6  24
BRANCH   8  26
ATOM     26  O   UNL     1      24.010  38.947  17.877  1.00  0.00    -0.508 OA
ATOM     27  H   UNL     1      23.389  39.345  17.183  1.00  0.00     0.293 HD
ENDBRANCH   8  26
TORSDOF 6
ENDMDL
MODEL 6
REMARK VINA RESULT:    -6.185     15.131     17.658
REMARK INTER + INTRA:          -7.860
REMARK INTER:                  -7.460
REMARK INTRA:                  -0.400
REMARK UNBOUND:                -0.410
REMARK SMILES O=c1c(O)c(-c2ccc(O)cc2O)oc2cc(O)cc(O)c12
REMARK SMILES IDX 5 1 3 2 2 3 1 4 22 5 20 6 19 7 17 8 16 9 15 10 14 11 6 12
REMARK SMILES IDX 8 13 7 14 9 15 11 16 12 17 10 18 13 20 4 22 21 24 18 26
REMARK H PARENT 10 19 13 21 4 23 21 25 18 27
REMARK Flexibility Score: inf
ROOT
ATOM      1  C   UNL     1      13.852  37.771  11.322  1.00  0.00     0.184 A 
ATOM      2  C   UNL     1      13.502  38.347  12.555  1.00  0.00     0.208 A 
ATOM      3  C   UNL     1      12.177  38.238  13.005  1.00  0.00     0.238 A 
ATOM      4  O   UNL     1      11.857  38.803  14.083  1.00  0.00    -0.285 OA
ATOM      5  C   UNL     1      11.223  37.540  12.224  1.00  0.00     0.111 A 
ATOM      6  C   UNL     1       9.862  37.333  12.601  1.00  0.00     0.134 A 
ATOM      7  C   UNL     1       8.977  36.742  11.692  1.00  0.00     0.093 A 
ATOM      8  C   UNL     1       9.415  36.291  10.448  1.00  0.00     0.123 A 
ATOM      9  C   UNL     1      10.756  36.434  10.093  1.00  0.00     0.094 A 
ATOM     10  C   UNL     1      11.657  37.053  10.962  1.00  0.00     0.146 A 
ATOM     11  O   UNL     1      12.923  37.180  10.581  1.00  0.00    -0.451 OA
ENDROOT
BRANCH   1  12
ATOM     12  C   UNL     1      15.232  37.835  10.799  1.00  0.00     0.063 A 
ATOM     13  C   UNL     1      17.562  37.171  11.003  1.00  0.00     0.047 A 
ATOM     14  C   UNL     1      16.245  37.129  11.467  1.00  0.00     0.020 A 
ATOM     15  C   UNL     1      17.887  37.929   9.875  1.00  0.00     0.119 A 
ATOM     16  C   UNL     1      16.886  38.656   9.215  1.00  0.00     0.093 A 
ATOM     17  C   UNL     1      15.563  38.623   9.678  1.00  0.00     0.130 A 
BRANCH  15  18
ATOM     18  O   UNL     1      19.203  37.959   9.421  1.00  0.00    -0.508 OA
ATOM     19  H   UNL     1      19.427  38.190   8.460  1.00  0.00     0.293 HD
ENDBRANCH  15  18
BRANCH  17  20
ATOM     20  O   UNL     1      14.586  39.390   9.042  1.00  0.00    -0.507 OA
ATOM     21  H   UNL     1      13.644  39.459   9.408  1.00  0.00     0.293 HD
ENDBRANCH  17  20
ENDBRANCH   1  12
BRANCH   2  22
ATOM     22  O   UNL     1      14.459  39.046  13.295  1.00  0.00    -0.502 OA
ATOM     23  H   UNL     1      15.453  38.938  13.134  1.00  0.00     0.293 HD
ENDBRANCH   2  22
BRANCH   6  24
ATOM     24  O   UNL     1       9.341  37.663  13.855  1.00  0.00    -0.507 OA
ATOM     25  H   UNL     1       9.523  37.152  14.707  1.00  0.00     0.293 HD
ENDBRANCH   6  24
BRANCH   8  26
ATOM     26  O   UNL     1       8.509  35.693   9.575  1.00  0.00    -0.508 OA
ATOM     27  H   UNL     1       7.677  35.223   9.915  1.00  0.00     0.293 HD
ENDBRANCH   8  26
TORSDOF 6
ENDMDL
MODEL 7
REMARK VINA RESULT:    -6.131     12.401     13.938
REMARK INTER + INTRA:          -7.795
REMARK INTER:                  -7.496
REMARK INTRA:                  -0.299
REMARK UNBOUND:                -0.410
REMARK SMILES O=c1c(O)c(-c2ccc(O)cc2O)oc2cc(O)cc(O)c12
REMARK SMILES IDX 5 1 3 2 2 3 1 4 22 5 20 6 19 7 17 8 16 9 15 10 14 11 6 12
REMARK SMILES IDX 8 13 7 14 9 15 11 16 12 17 10 18 13 20 4 22 21 24 18 26
REMARK H PARENT 10 19 13 21 4 23 21 25 18 27
REMARK Flexibility Score: inf
ROOT
ATOM      1  C   UNL     1      12.615  38.531  13.927  1.00  0.00     0.184 A 
ATOM      2  C   UNL     1      12.477  39.146  15.182  1.00  0.00     0.208 A 
ATOM      3  C   UNL     1      13.559  39.117  16.076  1.00  0.00     0.238 A 
ATOM      4  O   UNL     1      13.411  39.623  17.219  1.00  0.00    -0.285 OA
ATOM      5  C   UNL     1      14.769  38.488  15.696  1.00  0.00     0.111 A 
ATOM      6  C   UNL     1      15.943  38.432  16.507  1.00  0.00     0.134 A 
ATOM      7  C   UNL     1      17.039  37.671  16.084  1.00  0.00     0.093 A 
ATOM      8  C   UNL     1      17.030  37.017  14.853  1.00  0.00     0.123 A 
ATOM      9  C   UNL     1      15.910  37.113  14.026  1.00  0.00     0.094 A 
ATOM     10  C   UNL     1      14.787  37.834  14.436  1.00  0.00     0.146 A 
ATOM     11  O   UNL     1      13.737  37.891  13.624  1.00  0.00    -0.451 OA
ENDROOT
BRANCH   1  12
ATOM     12  C   UNL     1      11.522  38.540  12.933  1.00  0.00     0.063 A 
ATOM     13  C   UNL     1      10.656  39.340  10.806  1.00  0.00     0.047 A 
ATOM     14  C   UNL     1      11.672  39.304  11.764  1.00  0.00     0.020 A 
ATOM     15  C   UNL     1       9.472  38.625  11.008  1.00  0.00     0.119 A 
ATOM     16  C   UNL     1       9.303  37.879  12.183  1.00  0.00     0.093 A 
ATOM     17  C   UNL     1      10.316  37.843  13.151  1.00  0.00     0.130 A 
BRANCH  15  18
ATOM     18  O   UNL     1       8.470  38.668  10.042  1.00  0.00    -0.508 OA
ATOM     19  H   UNL     1       7.964  37.833   9.767  1.00  0.00     0.293 HD
ENDBRANCH  15  18
BRANCH  17  20
ATOM     20  O   UNL     1      10.116  37.136  14.338  1.00  0.00    -0.507 OA
ATOM     21  H   UNL     1       9.906  37.609  15.209  1.00  0.00     0.293 HD
ENDBRANCH  17  20
ENDBRANCH   1  12
BRANCH   2  22
ATOM     22  O   UNL     1      11.265  39.744  15.536  1.00  0.00    -0.502 OA
ATOM     23  H   UNL     1      10.461  39.205  15.833  1.00  0.00     0.293 HD
ENDBRANCH   2  22
BRANCH   6  24
ATOM     24  O   UNL     1      16.092  39.124  17.713  1.00  0.00    -0.507 OA
ATOM     25  H   UNL     1      16.030  38.704  18.628  1.00  0.00     0.293 HD
ENDBRANCH   6  24
BRANCH   8  26
ATOM     26  O   UNL     1      18.145  36.281  14.457  1.00  0.00    -0.508 OA
ATOM     27  H   UNL     1      18.062  35.323  14.139  1.00  0.00     0.293 HD
ENDBRANCH   8  26
TORSDOF 6
ENDMDL
MODEL 8
REMARK VINA RESULT:    -6.045     12.300     14.822
REMARK INTER + INTRA:          -7.692
REMARK INTER:                  -7.282
REMARK INTRA:                  -0.410
REMARK UNBOUND:                -0.410
REMARK SMILES O=c1c(O)c(-c2ccc(O)cc2O)oc2cc(O)cc(O)c12
REMARK SMILES IDX 5 1 3 2 2 3 1 4 22 5 20 6 19 7 17 8 16 9 15 10 14 11 6 12
REMARK SMILES IDX 8 13 7 14 9 15 11 16 12 17 10 18 13 20 4 22 21 24 18 26
REMARK H PARENT 10 19 13 21 4 23 21 25 18 27
REMARK Flexibility Score: inf
ROOT
ATOM      1  C   UNL     1      12.309  37.682  15.329  1.00  0.00     0.184 A 
ATOM      2  C   UNL     1      13.301  38.370  14.610  1.00  0.00     0.208 A 
ATOM      3  C   UNL     1      13.067  38.689  13.264  1.00  0.00     0.238 A 
ATOM      4  O   UNL     1      13.980  39.257  12.611  1.00  0.00    -0.285 OA
ATOM      5  C   UNL     1      11.837  38.331  12.658  1.00  0.00     0.111 A 
ATOM      6  C   UNL     1      11.477  38.638  11.312  1.00  0.00     0.134 A 
ATOM      7  C   UNL     1      10.290  38.121  10.780  1.00  0.00     0.093 A 
ATOM      8  C   UNL     1       9.419  37.363  11.562  1.00  0.00     0.123 A 
ATOM      9  C   UNL     1       9.733  37.106  12.897  1.00  0.00     0.094 A 
ATOM     10  C   UNL     1      10.928  37.577  13.447  1.00  0.00     0.146 A 
ATOM     11  O   UNL     1      11.195  37.300  14.718  1.00  0.00    -0.451 OA
ENDROOT
BRANCH   1  12
ATOM     12  C   UNL     1      12.485  37.331  16.754  1.00  0.00     0.063 A 
ATOM     13  C   UNL     1      12.221  37.945  19.091  1.00  0.00     0.047 A 
ATOM     14  C   UNL     1      12.065  38.242  17.735  1.00  0.00     0.020 A 
ATOM     15  C   UNL     1      12.810  36.741  19.484  1.00  0.00     0.119 A 
ATOM     16  C   UNL     1      13.254  35.834  18.512  1.00  0.00     0.093 A 
ATOM     17  C   UNL     1      13.106  36.128  17.149  1.00  0.00     0.130 A 
BRANCH  15  18
ATOM     18  O   UNL     1      12.955  36.456  20.840  1.00  0.00    -0.508 OA
ATOM     19  H   UNL     1      13.770  35.968  21.194  1.00  0.00     0.293 HD
ENDBRANCH  15  18
BRANCH  17  20
ATOM     20  O   UNL     1      13.596  35.239  16.190  1.00  0.00    -0.507 OA
ATOM     21  H   UNL     1      14.187  34.457  16.444  1.00  0.00     0.293 HD
ENDBRANCH  17  20
ENDBRANCH   1  12
BRANCH   2  22
ATOM     22  O   UNL     1      14.511  38.695  15.228  1.00  0.00    -0.502 OA
ATOM     23  H   UNL     1      15.051  39.512  14.968  1.00  0.00     0.293 HD
ENDBRANCH   2  22
BRANCH   6  24
ATOM     24  O   UNL     1      12.230  39.463  10.472  1.00  0.00    -0.507 OA
ATOM     25  H   UNL     1      11.849  40.025   9.725  1.00  0.00     0.293 HD
ENDBRANCH   6  24
BRANCH   8  26
ATOM     26  O   UNL     1       8.239  36.878  11.004  1.00  0.00    -0.508 OA
ATOM     27  H   UNL     1       7.561  37.498  10.576  1.00  0.00     0.293 HD
ENDBRANCH   8  26
TORSDOF 6
ENDMDL
MODEL 9
REMARK VINA RESULT:    -5.951     10.494     12.787
REMARK INTER + INTRA:          -7.579
REMARK INTER:                  -7.163
REMARK INTRA:                  -0.416
REMARK UNBOUND:                -0.410
REMARK SMILES O=c1c(O)c(-c2ccc(O)cc2O)oc2cc(O)cc(O)c12
REMARK SMILES IDX 5 1 3 2 2 3 1 4 22 5 20 6 19 7 17 8 16 9 15 10 14 11 6 12
REMARK SMILES IDX 8 13 7 14 9 15 11 16 12 17 10 18 13 20 4 22 21 24 18 26
REMARK H PARENT 10 19 13 21 4 23 21 25 18 27
REMARK Flexibility Score: inf
ROOT
ATOM      1  C   UNL     1      12.492  37.028  16.508  1.00  0.00     0.184 A 
ATOM      2  C   UNL     1      13.120  35.772  16.539  1.00  0.00     0.208 A 
ATOM      3  C   UNL     1      13.435  35.199  17.781  1.00  0.00     0.238 A 
ATOM      4  O   UNL     1      14.046  34.100  17.801  1.00  0.00    -0.285 OA
ATOM      5  C   UNL     1      13.102  35.883  18.976  1.00  0.00     0.111 A 
ATOM      6  C   UNL     1      13.338  35.379  20.291  1.00  0.00     0.134 A 
ATOM      7  C   UNL     1      13.088  36.197  21.399  1.00  0.00     0.093 A 
ATOM      8  C   UNL     1      12.550  37.474  21.245  1.00  0.00     0.123 A 
ATOM      9  C   UNL     1      12.260  37.954  19.968  1.00  0.00     0.094 A 
ATOM     10  C   UNL     1      12.532  37.177  18.840  1.00  0.00     0.146 A 
ATOM     11  O   UNL     1      12.252  37.675  17.641  1.00  0.00    -0.451 OA
ENDROOT
BRANCH   1  12
ATOM     12  C   UNL     1      12.118  37.679  15.235  1.00  0.00     0.063 A 
ATOM     13  C   UNL     1      10.687  37.728  13.270  1.00  0.00     0.047 A 
ATOM     14  C   UNL     1      11.064  37.141  14.481  1.00  0.00     0.020 A 
ATOM     15  C   UNL     1      11.368  38.850  12.791  1.00  0.00     0.119 A 
ATOM     16  C   UNL     1      12.438  39.380  13.524  1.00  0.00     0.093 A 
ATOM     17  C   UNL     1      12.825  38.793  14.738  1.00  0.00     0.130 A 
BRANCH  15  18
ATOM     18  O   UNL     1      10.979  39.426  11.584  1.00  0.00    -0.508 OA
ATOM     19  H   UNL     1      11.633  39.946  11.010  1.00  0.00     0.293 HD
ENDBRANCH  15  18
BRANCH  17  20
ATOM     20  O   UNL     1      13.923  39.300  15.435  1.00  0.00    -0.507 OA
ATOM     21  H   UNL     1      14.676  39.784  14.961  1.00  0.00     0.293 HD
ENDBRANCH  17  20
ENDBRANCH   1  12
BRANCH   2  22
ATOM     22  O   UNL     1      13.453  35.129  15.344  1.00  0.00    -0.502 OA
ATOM     23  H   UNL     1      12.824  34.482  14.883  1.00  0.00     0.293 HD
ENDBRANCH   2  22
BRANCH   6  24
ATOM     24  O   UNL     1      13.788  34.083  20.560  1.00  0.00    -0.507 OA
ATOM     25  H   UNL     1      13.378  33.462  21.242  1.00  0.00     0.293 HD
ENDBRANCH   6  24
BRANCH   8  26
ATOM     26  O   UNL     1      12.298  38.254  22.371  1.00  0.00    -0.508 OA
ATOM     27  H   UNL     1      13.044  38.543  22.994  1.00  0.00     0.293 HD
ENDBRANCH   8  26
TORSDOF 6
ENDMDL
