MODEL 1
REMARK VINA RESULT:    -3.658      0.000      0.000
REMARK INTER + INTRA:          -4.735
REMARK INTER:                  -4.514
REMARK INTRA:                  -0.221
REMARK UNBOUND:                -0.221
REMARK SMILES [NH3+][C@H](Cc1ccc(O)cc1)C(=O)[O-]
REMARK SMILES IDX 3 1 2 2 1 3 11 7 12 8 13 9 4 10 5 11 10 12 6 13 9 14 7 15
REMARK SMILES IDX 8 16
REMARK H PARENT 1 4 1 5 1 6 8 17
REMARK Flexibility Score: inf
ROOT
ATOM      1  C   UNL     1      31.501   5.136   0.549  1.00  0.00     0.107 C 
ENDROOT
BRANCH   1   2
ATOM      2  C   UNL     1      32.807   5.948   0.674  1.00  0.00     0.232 C 
BRANCH   2   3
ATOM      3  N   UNL     1      33.916   5.079   1.084  1.00  0.00    -0.350 N 
ATOM      4  H   UNL     1      33.741   4.101   0.758  1.00  0.00     0.345 HD
ATOM      5  H   UNL     1      34.807   5.413   0.648  1.00  0.00     0.345 HD
ATOM      6  H   UNL     1      34.024   5.081   2.125  1.00  0.00     0.345 HD
ENDBRANCH   2   3
BRANCH   2   7
ATOM      7  C   UNL     1      33.139   6.641  -0.622  1.00  0.00     0.099 C 
ATOM      8  O   UNL     1      33.124   7.899  -0.697  1.00  0.00    -0.544 OA
ATOM      9  O   UNL     1      33.488   5.893  -1.740  1.00  0.00    -0.544 OA
ENDBRANCH   2   7
ENDBRANCH   1   2
BRANCH   1  10
ATOM     10  C   UNL     1      30.291   5.964   0.907  1.00  0.00    -0.041 A 
ATOM     11  C   UNL     1      29.022   5.602   0.428  1.00  0.00     0.008 A 
ATOM     12  C   UNL     1      30.416   7.075   1.756  1.00  0.00     0.008 A 
ATOM     13  C   UNL     1      27.895   6.351   0.781  1.00  0.00     0.046 A 
ATOM     14  C   UNL     1      29.287   7.822   2.110  1.00  0.00     0.046 A 
ATOM     15  C   UNL     1      28.026   7.464   1.623  1.00  0.00     0.115 A 
BRANCH  15  16
ATOM     16  O   UNL     1      26.910   8.218   1.984  1.00  0.00    -0.508 OA
ATOM     17  H   UNL     1      26.061   7.778   2.317  1.00  0.00     0.293 HD
ENDBRANCH  15  16
ENDBRANCH   1  10
TORSDOF 5
ENDMDL
MODEL 2
REMARK VINA RESULT:    -3.598      4.285      7.656
REMARK INTER + INTRA:          -4.660
REMARK INTER:                  -4.438
REMARK INTRA:                  -0.222
REMARK UNBOUND:                -0.221
REMARK SMILES [NH3+][C@H](Cc1ccc(O)cc1)C(=O)[O-]
REMARK SMILES IDX 3 1 2 2 1 3 11 7 12 8 13 9 4 10 5 11 10 12 6 13 9 14 7 15
REMARK SMILES IDX 8 16
REMARK H PARENT 1 4 1 5 1 6 8 17
REMARK Flexibility Score: inf
ROOT
ATOM      1  C   UNL     1      35.258   5.929  -1.877  1.00  0.00     0.107 C 
ENDROOT
BRANCH   1   2
ATOM      2  C   UNL     1      34.493   7.236  -1.578  1.00  0.00     0.232 C 
BRANCH   2   3
ATOM      3  N   UNL     1      33.944   7.804  -2.815  1.00  0.00    -0.350 N 
ATOM      4  H   UNL     1      33.868   7.060  -3.546  1.00  0.00     0.345 HD
ATOM      5  H   UNL     1      32.986   8.183  -2.635  1.00  0.00     0.345 HD
ATOM      6  H   UNL     1      34.555   8.576  -3.171  1.00  0.00     0.345 HD
ENDBRANCH   2   3
BRANCH   2   7
ATOM      7  C   UNL     1      33.391   7.001  -0.578  1.00  0.00     0.099 C 
ATOM      8  O   UNL     1      32.778   7.973  -0.061  1.00  0.00    -0.544 OA
ATOM      9  O   UNL     1      33.029   5.704  -0.236  1.00  0.00    -0.544 OA
ENDBRANCH   2   7
ENDBRANCH   1   2
BRANCH   1  10
ATOM     10  C   UNL     1      36.624   5.921  -1.236  1.00  0.00    -0.041 A 
ATOM     11  C   UNL     1      37.519   6.978  -1.468  1.00  0.00     0.008 A 
ATOM     12  C   UNL     1      36.995   4.883  -0.367  1.00  0.00     0.008 A 
ATOM     13  C   UNL     1      38.774   6.987  -0.852  1.00  0.00     0.046 A 
ATOM     14  C   UNL     1      38.251   4.894   0.250  1.00  0.00     0.046 A 
ATOM     15  C   UNL     1      39.143   5.944   0.009  1.00  0.00     0.115 A 
BRANCH  15  16
ATOM     16  O   UNL     1      40.391   5.943   0.630  1.00  0.00    -0.508 OA
ATOM     17  H   UNL     1      40.618   5.276   1.357  1.00  0.00     0.293 HD
ENDBRANCH  15  16
ENDBRANCH   1  10
TORSDOF 5
ENDMDL
MODEL 3
REMARK VINA RESULT:    -3.586      4.316      7.647
REMARK INTER + INTRA:          -4.646
REMARK INTER:                  -4.411
REMARK INTRA:                  -0.235
REMARK UNBOUND:                -0.221
REMARK SMILES [NH3+][C@H](Cc1ccc(O)cc1)C(=O)[O-]
REMARK SMILES IDX 3 1 2 2 1 3 11 7 12 8 13 9 4 10 5 11 10 12 6 13 9 14 7 15
REMARK SMILES IDX 8 16
REMARK H PARENT 1 4 1 5 1 6 8 17
REMARK Flexibility Score: inf
ROOT
ATOM      1  C   UNL     1      35.335   6.022  -1.973  1.00  0.00     0.107 C 
ENDROOT
BRANCH   1   2
ATOM      2  C   UNL     1      34.520   7.285  -1.623  1.00  0.00     0.232 C 
BRANCH   2   3
ATOM      3  N   UNL     1      33.885   7.836  -2.826  1.00  0.00    -0.350 N 
ATOM      4  H   UNL     1      34.437   7.569  -3.674  1.00  0.00     0.345 HD
ATOM      5  H   UNL     1      32.920   7.444  -2.928  1.00  0.00     0.345 HD
ATOM      6  H   UNL     1      33.825   8.879  -2.768  1.00  0.00     0.345 HD
ENDBRANCH   2   3
BRANCH   2   7
ATOM      7  C   UNL     1      33.480   6.984  -0.575  1.00  0.00     0.099 C 
ATOM      8  O   UNL     1      32.785   7.912  -0.080  1.00  0.00    -0.544 OA
ATOM      9  O   UNL     1      33.267   5.675  -0.164  1.00  0.00    -0.544 OA
ENDBRANCH   2   7
ENDBRANCH   1   2
BRANCH   1  10
ATOM     10  C   UNL     1      36.669   6.003  -1.267  1.00  0.00    -0.041 A 
ATOM     11  C   UNL     1      36.997   4.943  -0.406  1.00  0.00     0.008 A 
ATOM     12  C   UNL     1      37.610   7.019  -1.498  1.00  0.00     0.008 A 
ATOM     13  C   UNL     1      38.243   4.909   0.227  1.00  0.00     0.046 A 
ATOM     14  C   UNL     1      38.856   6.983  -0.864  1.00  0.00     0.046 A 
ATOM     15  C   UNL     1      39.176   5.929  -0.001  1.00  0.00     0.115 A 
BRANCH  15  16
ATOM     16  O   UNL     1      40.422   5.906   0.623  1.00  0.00    -0.508 OA
ATOM     17  H   UNL     1      40.902   5.035   0.811  1.00  0.00     0.293 HD
ENDBRANCH  15  16
ENDBRANCH   1  10
TORSDOF 5
ENDMDL
MODEL 4
REMARK VINA RESULT:    -3.481     12.112     13.450
REMARK INTER + INTRA:          -4.516
REMARK INTER:                  -4.300
REMARK INTRA:                  -0.216
REMARK UNBOUND:                -0.221
REMARK SMILES [NH3+][C@H](Cc1ccc(O)cc1)C(=O)[O-]
REMARK SMILES IDX 3 1 2 2 1 3 11 7 12 8 13 9 4 10 5 11 10 12 6 13 9 14 7 15
REMARK SMILES IDX 8 16
REMARK H PARENT 1 4 1 5 1 6 8 17
REMARK Flexibility Score: inf
ROOT
ATOM      1  C   UNL     1      42.868   9.630   7.538  1.00  0.00     0.107 C 
ENDROOT
BRANCH   1   2
ATOM      2  C   UNL     1      42.688   8.160   7.971  1.00  0.00     0.232 C 
BRANCH   2   3
ATOM      3  N   UNL     1      43.245   7.254   6.960  1.00  0.00    -0.350 N 
ATOM      4  H   UNL     1      42.856   6.292   7.091  1.00  0.00     0.345 HD
ATOM      5  H   UNL     1      42.979   7.585   6.003  1.00  0.00     0.345 HD
ATOM      6  H   UNL     1      44.288   7.217   7.030  1.00  0.00     0.345 HD
ENDBRANCH   2   3
BRANCH   2   7
ATOM      7  C   UNL     1      43.331   7.907   9.310  1.00  0.00     0.099 C 
ATOM      8  O   UNL     1      43.140   8.700  10.271  1.00  0.00    -0.544 OA
ATOM      9  O   UNL     1      44.122   6.780   9.498  1.00  0.00    -0.544 OA
ENDBRANCH   2   7
ENDBRANCH   1   2
BRANCH   1  10
ATOM     10  C   UNL     1      41.547  10.289   7.228  1.00  0.00    -0.041 A 
ATOM     11  C   UNL     1      40.377   9.518   7.143  1.00  0.00     0.008 A 
ATOM     12  C   UNL     1      41.468  11.682   7.067  1.00  0.00     0.008 A 
ATOM     13  C   UNL     1      39.147  10.130   6.884  1.00  0.00     0.046 A 
ATOM     14  C   UNL     1      40.236  12.292   6.809  1.00  0.00     0.046 A 
ATOM     15  C   UNL     1      39.073  11.520   6.716  1.00  0.00     0.115 A 
BRANCH  15  16
ATOM     16  O   UNL     1      37.853  12.142   6.459  1.00  0.00    -0.508 OA
ATOM     17  H   UNL     1      37.136  12.213   7.170  1.00  0.00     0.293 HD
ENDBRANCH  15  16
ENDBRANCH   1  10
TORSDOF 5
ENDMDL
MODEL 5
REMARK VINA RESULT:    -3.478      1.935      2.268
REMARK INTER + INTRA:          -4.512
REMARK INTER:                  -4.256
REMARK INTRA:                  -0.256
REMARK UNBOUND:                -0.221
REMARK SMILES [NH3+][C@H](Cc1ccc(O)cc1)C(=O)[O-]
REMARK SMILES IDX 3 1 2 2 1 3 11 7 12 8 13 9 4 10 5 11 10 12 6 13 9 14 7 15
REMARK SMILES IDX 8 16
REMARK H PARENT 1 4 1 5 1 6 8 17
REMARK Flexibility Score: inf
ROOT
ATOM      1  C   UNL     1      30.722   6.152   2.958  1.00  0.00     0.107 C 
ENDROOT
BRANCH   1   2
ATOM      2  C   UNL     1      31.934   7.072   2.700  1.00  0.00     0.232 C 
BRANCH   2   3
ATOM      3  N   UNL     1      33.187   6.364   2.989  1.00  0.00    -0.350 N 
ATOM      4  H   UNL     1      33.730   6.227   2.106  1.00  0.00     0.345 HD
ATOM      5  H   UNL     1      33.772   6.933   3.645  1.00  0.00     0.345 HD
ATOM      6  H   UNL     1      32.995   5.432   3.424  1.00  0.00     0.345 HD
ENDBRANCH   2   3
BRANCH   2   7
ATOM      7  C   UNL     1      31.937   7.579   1.281  1.00  0.00     0.099 C 
ATOM      8  O   UNL     1      31.662   8.784   1.032  1.00  0.00    -0.544 OA
ATOM      9  O   UNL     1      32.266   6.722   0.239  1.00  0.00    -0.544 OA
ENDBRANCH   2   7
ENDBRANCH   1   2
BRANCH   1  10
ATOM     10  C   UNL     1      29.421   6.914   2.906  1.00  0.00    -0.041 A 
ATOM     11  C   UNL     1      28.407   6.520   2.019  1.00  0.00     0.008 A 
ATOM     12  C   UNL     1      29.195   7.995   3.773  1.00  0.00     0.008 A 
ATOM     13  C   UNL     1      27.189   7.206   1.989  1.00  0.00     0.046 A 
ATOM     14  C   UNL     1      27.976   8.680   3.743  1.00  0.00     0.046 A 
ATOM     15  C   UNL     1      26.971   8.289   2.852  1.00  0.00     0.115 A 
BRANCH  15  16
ATOM     16  O   UNL     1      25.761   8.981   2.832  1.00  0.00    -0.508 OA
ATOM     17  H   UNL     1      24.874   8.494   2.820  1.00  0.00     0.293 HD
ENDBRANCH  15  16
ENDBRANCH   1  10
TORSDOF 5
ENDMDL
MODEL 6
REMARK VINA RESULT:    -3.459      2.495      5.514
REMARK INTER + INTRA:          -4.490
REMARK INTER:                  -4.294
REMARK INTRA:                  -0.195
REMARK UNBOUND:                -0.221
REMARK SMILES [NH3+][C@H](Cc1ccc(O)cc1)C(=O)[O-]
REMARK SMILES IDX 3 1 2 2 1 3 11 7 12 8 13 9 4 10 5 11 10 12 6 13 9 14 7 15
REMARK SMILES IDX 8 16
REMARK H PARENT 1 4 1 5 1 6 8 17
REMARK Flexibility Score: inf
ROOT
ATOM      1  C   UNL     1      28.447   6.120   2.292  1.00  0.00     0.107 C 
ENDROOT
BRANCH   1   2
ATOM      2  C   UNL     1      27.347   7.084   1.799  1.00  0.00     0.232 C 
BRANCH   2   3
ATOM      3  N   UNL     1      26.282   6.343   1.112  1.00  0.00    -0.350 N 
ATOM      4  H   UNL     1      25.384   6.875   1.170  1.00  0.00     0.345 HD
ATOM      5  H   UNL     1      26.528   6.226   0.102  1.00  0.00     0.345 HD
ATOM      6  H   UNL     1      26.151   5.398   1.543  1.00  0.00     0.345 HD
ENDBRANCH   2   3
BRANCH   2   7
ATOM      7  C   UNL     1      26.773   7.881   2.943  1.00  0.00     0.099 C 
ATOM      8  O   UNL     1      26.003   8.854   2.722  1.00  0.00    -0.544 OA
ATOM      9  O   UNL     1      27.074   7.529   4.253  1.00  0.00    -0.544 OA
ENDBRANCH   2   7
ENDBRANCH   1   2
BRANCH   1  10
ATOM     10  C   UNL     1      29.795   6.465   1.709  1.00  0.00    -0.041 A 
ATOM     11  C   UNL     1      30.452   5.556   0.866  1.00  0.00     0.008 A 
ATOM     12  C   UNL     1      30.383   7.714   1.968  1.00  0.00     0.008 A 
ATOM     13  C   UNL     1      31.689   5.884   0.301  1.00  0.00     0.046 A 
ATOM     14  C   UNL     1      31.620   8.041   1.402  1.00  0.00     0.046 A 
ATOM     15  C   UNL     1      32.276   7.129   0.569  1.00  0.00     0.115 A 
BRANCH  15  16
ATOM     16  O   UNL     1      33.507   7.469   0.011  1.00  0.00    -0.508 OA
ATOM     17  H   UNL     1      33.591   8.214  -0.668  1.00  0.00     0.293 HD
ENDBRANCH  15  16
ENDBRANCH   1  10
TORSDOF 5
ENDMDL
MODEL 7
REMARK VINA RESULT:    -3.365      3.345      4.907
REMARK INTER + INTRA:          -4.373
REMARK INTER:                  -4.145
REMARK INTRA:                  -0.229
REMARK UNBOUND:                -0.221
REMARK SMILES [NH3+][C@H](Cc1ccc(O)cc1)C(=O)[O-]
REMARK SMILES IDX 3 1 2 2 1 3 11 7 12 8 13 9 4 10 5 11 10 12 6 13 9 14 7 15
REMARK SMILES IDX 8 16
REMARK H PARENT 1 4 1 5 1 6 8 17
REMARK Flexibility Score: inf
ROOT
ATOM      1  C   UNL     1      28.578   7.400   1.172  1.00  0.00     0.107 C 
ENDROOT
BRANCH   1   2
ATOM      2  C   UNL     1      27.764   6.089   1.182  1.00  0.00     0.232 C 
BRANCH   2   3
ATOM      3  N   UNL     1      26.326   6.376   1.257  1.00  0.00    -0.350 N 
ATOM      4  H   UNL     1      25.780   5.545   0.934  1.00  0.00     0.345 HD
ATOM      5  H   UNL     1      26.057   6.578   2.248  1.00  0.00     0.345 HD
ATOM      6  H   UNL     1      26.082   7.202   0.662  1.00  0.00     0.345 HD
ENDBRANCH   2   3
BRANCH   2   7
ATOM      7  C   UNL     1      28.066   5.254  -0.036  1.00  0.00     0.099 C 
ATOM      8  O   UNL     1      29.003   4.411  -0.017  1.00  0.00    -0.544 OA
ATOM      9  O   UNL     1      27.295   5.395  -1.182  1.00  0.00    -0.544 OA
ENDBRANCH   2   7
ENDBRANCH   1   2
BRANCH   1  10
ATOM     10  C   UNL     1      29.887   7.252   1.908  1.00  0.00    -0.041 A 
ATOM     11  C   UNL     1      29.904   7.180   3.309  1.00  0.00     0.008 A 
ATOM     12  C   UNL     1      31.093   7.140   1.197  1.00  0.00     0.008 A 
ATOM     13  C   UNL     1      31.113   7.013   3.992  1.00  0.00     0.046 A 
ATOM     14  C   UNL     1      32.301   6.972   1.882  1.00  0.00     0.046 A 
ATOM     15  C   UNL     1      32.315   6.910   3.280  1.00  0.00     0.115 A 
BRANCH  15  16
ATOM     16  O   UNL     1      33.526   6.743   3.948  1.00  0.00    -0.508 OA
ATOM     17  H   UNL     1      33.614   6.107   4.731  1.00  0.00     0.293 HD
ENDBRANCH  15  16
ENDBRANCH   1  10
TORSDOF 5
ENDMDL
MODEL 8
REMARK VINA RESULT:    -3.359      4.249      5.326
REMARK INTER + INTRA:          -4.366
REMARK INTER:                  -4.148
REMARK INTRA:                  -0.218
REMARK UNBOUND:                -0.221
REMARK SMILES [NH3+][C@H](Cc1ccc(O)cc1)C(=O)[O-]
REMARK SMILES IDX 3 1 2 2 1 3 11 7 12 8 13 9 4 10 5 11 10 12 6 13 9 14 7 15
REMARK SMILES IDX 8 16
REMARK H PARENT 1 4 1 5 1 6 8 17
REMARK Flexibility Score: inf
ROOT
ATOM      1  C   UNL     1      31.338   6.900   3.266  1.00  0.00     0.107 C 
ENDROOT
BRANCH   1   2
ATOM      2  C   UNL     1      32.097   6.566   1.964  1.00  0.00     0.232 C 
BRANCH   2   3
ATOM      3  N   UNL     1      31.517   5.382   1.319  1.00  0.00    -0.350 N 
ATOM      4  H   UNL     1      31.489   5.520   0.282  1.00  0.00     0.345 HD
ATOM      5  H   UNL     1      32.110   4.544   1.520  1.00  0.00     0.345 HD
ATOM      6  H   UNL     1      30.547   5.207   1.670  1.00  0.00     0.345 HD
ENDBRANCH   2   3
BRANCH   2   7
ATOM      7  C   UNL     1      32.085   7.737   1.015  1.00  0.00     0.099 C 
ATOM      8  O   UNL     1      31.403   8.764   1.276  1.00  0.00    -0.544 OA
ATOM      9  O   UNL     1      32.848   7.698  -0.145  1.00  0.00    -0.544 OA
ENDBRANCH   2   7
ENDBRANCH   1   2
BRANCH   1  10
ATOM     10  C   UNL     1      32.268   6.987   4.450  1.00  0.00    -0.041 A 
ATOM     11  C   UNL     1      31.776   7.369   5.708  1.00  0.00     0.008 A 
ATOM     12  C   UNL     1      33.624   6.644   4.316  1.00  0.00     0.008 A 
ATOM     13  C   UNL     1      32.631   7.423   6.813  1.00  0.00     0.046 A 
ATOM     14  C   UNL     1      34.477   6.697   5.423  1.00  0.00     0.046 A 
ATOM     15  C   UNL     1      33.984   7.087   6.673  1.00  0.00     0.115 A 
BRANCH  15  16
ATOM     16  O   UNL     1      34.846   7.135   7.767  1.00  0.00    -0.508 OA
ATOM     17  H   UNL     1      35.747   6.674   7.751  1.00  0.00     0.293 HD
ENDBRANCH  15  16
ENDBRANCH   1  10
TORSDOF 5
ENDMDL
MODEL 9
REMARK VINA RESULT:    -3.346     10.719     12.554
REMARK INTER + INTRA:          -4.350
REMARK INTER:                  -4.107
REMARK INTRA:                  -0.244
REMARK UNBOUND:                -0.221
REMARK SMILES [NH3+][C@H](Cc1ccc(O)cc1)C(=O)[O-]
REMARK SMILES IDX 3 1 2 2 1 3 11 7 12 8 13 9 4 10 5 11 10 12 6 13 9 14 7 15
REMARK SMILES IDX 8 16
REMARK H PARENT 1 4 1 5 1 6 8 17
REMARK Flexibility Score: inf
ROOT
ATOM      1  C   UNL     1      38.649  12.988   6.742  1.00  0.00     0.107 C 
ENDROOT
BRANCH   1   2
ATOM      2  C   UNL     1      37.267  12.314   6.877  1.00  0.00     0.232 C 
BRANCH   2   3
ATOM      3  N   UNL     1      36.513  12.905   7.990  1.00  0.00    -0.350 N 
ATOM      4  H   UNL     1      36.624  12.315   8.846  1.00  0.00     0.345 HD
ATOM      5  H   UNL     1      36.885  13.860   8.201  1.00  0.00     0.345 HD
ATOM      6  H   UNL     1      35.497  12.979   7.751  1.00  0.00     0.345 HD
ENDBRANCH   2   3
BRANCH   2   7
ATOM      7  C   UNL     1      36.482  12.428   5.596  1.00  0.00     0.099 C 
ATOM      8  O   UNL     1      36.896  11.876   4.541  1.00  0.00    -0.544 OA
ATOM      9  O   UNL     1      35.281  13.126   5.578  1.00  0.00    -0.544 OA
ENDBRANCH   2   7
ENDBRANCH   1   2
BRANCH   1  10
ATOM     10  C   UNL     1      39.773  11.992   6.875  1.00  0.00    -0.041 A 
ATOM     11  C   UNL     1      39.491  10.627   7.040  1.00  0.00     0.008 A 
ATOM     12  C   UNL     1      41.110  12.413   6.790  1.00  0.00     0.008 A 
ATOM     13  C   UNL     1      40.531   9.697   7.135  1.00  0.00     0.046 A 
ATOM     14  C   UNL     1      42.150  11.482   6.884  1.00  0.00     0.046 A 
ATOM     15  C   UNL     1      41.864  10.123   7.057  1.00  0.00     0.115 A 
BRANCH  15  16
ATOM     16  O   UNL     1      42.910   9.207   7.149  1.00  0.00    -0.508 OA
ATOM     17  H   UNL     1      43.875   9.510   7.202  1.00  0.00     0.293 HD
ENDBRANCH  15  16
ENDBRANCH   1  10
TORSDOF 5
ENDMDL
