MODEL 1
REMARK VINA RESULT:    -3.453      0.000      0.000
REMARK INTER + INTRA:          -4.286
REMARK INTER:                  -4.058
REMARK INTRA:                  -0.228
REMARK UNBOUND:                -0.228
REMARK SMILES [NH3+][C@H](CO)C(=O)[O-]
REMARK SMILES IDX 3 1 2 2 1 3 5 7 6 8 7 9 4 10
REMARK H PARENT 1 4 1 5 1 6 4 11
REMARK Flexibility Score: inf
ROOT
ATOM      1  C   UNL     1      15.962  12.875  14.761  1.00  0.00     0.227 C 
ENDROOT
BRANCH   1   2
ATOM      2  C   UNL     1      15.077  13.088  13.523  1.00  0.00     0.253 C 
BRANCH   2   3
ATOM      3  N   UNL     1      13.974  14.006  13.826  1.00  0.00    -0.348 N 
ATOM      4  H   UNL     1      13.094  13.665  13.376  1.00  0.00     0.345 HD
ATOM      5  H   UNL     1      13.819  14.045  14.859  1.00  0.00     0.345 HD
ATOM      6  H   UNL     1      14.188  14.970  13.478  1.00  0.00     0.345 HD
ENDBRANCH   2   3
BRANCH   2   7
ATOM      7  C   UNL     1      15.892  13.607  12.367  1.00  0.00     0.102 C 
ATOM      8  O   UNL     1      16.096  12.887  11.354  1.00  0.00    -0.544 OA
ATOM      9  O   UNL     1      16.414  14.894  12.409  1.00  0.00    -0.544 OA
ENDBRANCH   2   7
ENDBRANCH   1   2
BRANCH   1  10
ATOM     10  O   UNL     1      16.356  14.112  15.288  1.00  0.00    -0.390 OA
ATOM     11  H   UNL     1      17.339  14.164  15.165  1.00  0.00     0.210 HD
ENDBRANCH   1  10
TORSDOF 4
ENDMDL
MODEL 2
REMARK VINA RESULT:    -3.327     14.161     15.223
REMARK INTER + INTRA:          -4.138
REMARK INTER:                  -4.129
REMARK INTRA:                  -0.009
REMARK UNBOUND:                -0.228
REMARK SMILES [NH3+][C@H](CO)C(=O)[O-]
REMARK SMILES IDX 3 1 2 2 1 3 5 7 6 8 7 9 4 10
REMARK H PARENT 1 4 1 5 1 6 4 11
REMARK Flexibility Score: inf
ROOT
ATOM      1  C   UNL     1      22.826  22.989  22.491  1.00  0.00     0.227 C 
ENDROOT
BRANCH   1   2
ATOM      2  C   UNL     1      21.391  22.735  22.980  1.00  0.00     0.253 C 
BRANCH   2   3
ATOM      3  N   UNL     1      21.174  21.306  23.228  1.00  0.00    -0.348 N 
ATOM      4  H   UNL     1      22.009  20.898  23.709  1.00  0.00     0.345 HD
ATOM      5  H   UNL     1      20.343  21.176  23.849  1.00  0.00     0.345 HD
ATOM      6  H   UNL     1      21.011  20.794  22.329  1.00  0.00     0.345 HD
ENDBRANCH   2   3
BRANCH   2   7
ATOM      7  C   UNL     1      21.102  23.535  24.223  1.00  0.00     0.102 C 
ATOM      8  O   UNL     1      19.913  23.752  24.581  1.00  0.00    -0.544 OA
ATOM      9  O   UNL     1      22.150  24.028  24.990  1.00  0.00    -0.544 OA
ENDBRANCH   2   7
ENDBRANCH   1   2
BRANCH   1  10
ATOM     10  O   UNL     1      23.206  21.995  21.580  1.00  0.00    -0.390 OA
ATOM     11  H   UNL     1      23.940  21.488  22.015  1.00  0.00     0.210 HD
ENDBRANCH   1  10
TORSDOF 4
ENDMDL
MODEL 3
REMARK VINA RESULT:    -3.301     13.977     15.110
REMARK INTER + INTRA:          -4.108
REMARK INTER:                  -3.861
REMARK INTRA:                  -0.247
REMARK UNBOUND:                -0.228
REMARK SMILES [NH3+][C@H](CO)C(=O)[O-]
REMARK SMILES IDX 3 1 2 2 1 3 5 7 6 8 7 9 4 10
REMARK H PARENT 1 4 1 5 1 6 4 11
REMARK Flexibility Score: inf
ROOT
ATOM      1  C   UNL     1      21.418  21.561  22.475  1.00  0.00     0.227 C 
ENDROOT
BRANCH   1   2
ATOM      2  C   UNL     1      22.122  22.875  22.846  1.00  0.00     0.253 C 
BRANCH   2   3
ATOM      3  N   UNL     1      22.076  23.822  21.727  1.00  0.00    -0.348 N 
ATOM      4  H   UNL     1      22.306  23.328  20.834  1.00  0.00     0.345 HD
ATOM      5  H   UNL     1      21.113  24.222  21.641  1.00  0.00     0.345 HD
ATOM      6  H   UNL     1      22.757  24.603  21.874  1.00  0.00     0.345 HD
ENDBRANCH   2   3
BRANCH   2   7
ATOM      7  C   UNL     1      21.501  23.483  24.077  1.00  0.00     0.102 C 
ATOM      8  O   UNL     1      22.227  23.937  25.002  1.00  0.00    -0.544 OA
ATOM      9  O   UNL     1      20.119  23.558  24.191  1.00  0.00    -0.544 OA
ENDBRANCH   2   7
ENDBRANCH   1   2
BRANCH   1  10
ATOM     10  O   UNL     1      20.949  20.924  23.632  1.00  0.00    -0.390 OA
ATOM     11  H   UNL     1      20.052  20.564  23.404  1.00  0.00     0.210 HD
ENDBRANCH   1  10
TORSDOF 4
ENDMDL
MODEL 4
REMARK VINA RESULT:    -3.291     14.483     15.322
REMARK INTER + INTRA:          -4.096
REMARK INTER:                  -4.091
REMARK INTRA:                  -0.005
REMARK UNBOUND:                -0.228
REMARK SMILES [NH3+][C@H](CO)C(=O)[O-]
REMARK SMILES IDX 3 1 2 2 1 3 5 7 6 8 7 9 4 10
REMARK H PARENT 1 4 1 5 1 6 4 11
REMARK Flexibility Score: inf
ROOT
ATOM      1  C   UNL     1      23.884  23.749  23.283  1.00  0.00     0.227 C 
ENDROOT
BRANCH   1   2
ATOM      2  C   UNL     1      22.732  23.180  22.441  1.00  0.00     0.253 C 
BRANCH   2   3
ATOM      3  N   UNL     1      23.182  22.022  21.662  1.00  0.00    -0.348 N 
ATOM      4  H   UNL     1      23.660  22.345  20.789  1.00  0.00     0.345 HD
ATOM      5  H   UNL     1      23.866  21.463  22.221  1.00  0.00     0.345 HD
ATOM      6  H   UNL     1      22.372  21.411  21.405  1.00  0.00     0.345 HD
ENDBRANCH   2   3
BRANCH   2   7
ATOM      7  C   UNL     1      21.567  22.803  23.318  1.00  0.00     0.102 C 
ATOM      8  O   UNL     1      21.235  21.596  23.458  1.00  0.00    -0.544 OA
ATOM      9  O   UNL     1      20.857  23.791  23.990  1.00  0.00    -0.544 OA
ENDBRANCH   2   7
ENDBRANCH   1   2
BRANCH   1  10
ATOM     10  O   UNL     1      25.080  23.706  22.552  1.00  0.00    -0.390 OA
ATOM     11  H   UNL     1      25.235  24.629  22.223  1.00  0.00     0.210 HD
ENDBRANCH   1  10
TORSDOF 4
ENDMDL
MODEL 5
REMARK VINA RESULT:    -3.229     18.159     18.894
REMARK INTER + INTRA:          -4.023
REMARK INTER:                  -3.797
REMARK INTRA:                  -0.226
REMARK UNBOUND:                -0.228
REMARK SMILES [NH3+][C@H](CO)C(=O)[O-]
REMARK SMILES IDX 3 1 2 2 1 3 5 7 6 8 7 9 4 10
REMARK H PARENT 1 4 1 5 1 6 4 11
REMARK Flexibility Score: inf
ROOT
ATOM      1  C   UNL     1      25.358  25.059  23.337  1.00  0.00     0.227 C 
ENDROOT
BRANCH   1   2
ATOM      2  C   UNL     1      25.943  26.215  22.510  1.00  0.00     0.253 C 
BRANCH   2   3
ATOM      3  N   UNL     1      25.618  27.507  23.123  1.00  0.00    -0.348 N 
ATOM      4  H   UNL     1      24.795  27.933  22.637  1.00  0.00     0.345 HD
ATOM      5  H   UNL     1      25.368  27.369  24.129  1.00  0.00     0.345 HD
ATOM      6  H   UNL     1      26.432  28.162  23.061  1.00  0.00     0.345 HD
ENDBRANCH   2   3
BRANCH   2   7
ATOM      7  C   UNL     1      27.434  26.063  22.362  1.00  0.00     0.102 C 
ATOM      8  O   UNL     1      27.915  25.153  21.634  1.00  0.00    -0.544 OA
ATOM      9  O   UNL     1      28.290  26.938  23.019  1.00  0.00    -0.544 OA
ENDBRANCH   2   7
ENDBRANCH   1   2
BRANCH   1  10
ATOM     10  O   UNL     1      25.398  23.870  22.595  1.00  0.00    -0.390 OA
ATOM     11  H   UNL     1      26.220  23.394  22.881  1.00  0.00     0.210 HD
ENDBRANCH   1  10
TORSDOF 4
ENDMDL
MODEL 6
REMARK VINA RESULT:    -3.178     19.239     19.870
REMARK INTER + INTRA:          -3.963
REMARK INTER:                  -3.739
REMARK INTRA:                  -0.224
REMARK UNBOUND:                -0.228
REMARK SMILES [NH3+][C@H](CO)C(=O)[O-]
REMARK SMILES IDX 3 1 2 2 1 3 5 7 6 8 7 9 4 10
REMARK H PARENT 1 4 1 5 1 6 4 11
REMARK Flexibility Score: inf
ROOT
ATOM      1  C   UNL     1      26.883  25.763  22.480  1.00  0.00     0.227 C 
ENDROOT
BRANCH   1   2
ATOM      2  C   UNL     1      28.006  25.559  21.451  1.00  0.00     0.253 C 
BRANCH   2   3
ATOM      3  N   UNL     1      27.661  26.196  20.176  1.00  0.00    -0.348 N 
ATOM      4  H   UNL     1      27.715  25.493  19.402  1.00  0.00     0.345 HD
ATOM      5  H   UNL     1      26.683  26.563  20.215  1.00  0.00     0.345 HD
ATOM      6  H   UNL     1      28.314  26.987  19.968  1.00  0.00     0.345 HD
ENDBRANCH   2   3
BRANCH   2   7
ATOM      7  C   UNL     1      29.312  26.099  21.973  1.00  0.00     0.102 C 
ATOM      8  O   UNL     1      29.502  27.342  22.058  1.00  0.00    -0.544 OA
ATOM      9  O   UNL     1      30.312  25.224  22.378  1.00  0.00    -0.544 OA
ENDBRANCH   2   7
ENDBRANCH   1   2
BRANCH   1  10
ATOM     10  O   UNL     1      26.548  27.121  22.563  1.00  0.00    -0.390 OA
ATOM     11  H   UNL     1      25.793  27.258  21.933  1.00  0.00     0.210 HD
ENDBRANCH   1  10
TORSDOF 4
ENDMDL
MODEL 7
REMARK VINA RESULT:    -3.138     19.031     19.640
REMARK INTER + INTRA:          -3.916
REMARK INTER:                  -3.517
REMARK INTRA:                  -0.399
REMARK UNBOUND:                -0.228
REMARK SMILES [NH3+][C@H](CO)C(=O)[O-]
REMARK SMILES IDX 3 1 2 2 1 3 5 7 6 8 7 9 4 10
REMARK H PARENT 1 4 1 5 1 6 4 11
REMARK Flexibility Score: inf
ROOT
ATOM      1  C   UNL     1      28.686  26.984  22.779  1.00  0.00     0.227 C 
ENDROOT
BRANCH   1   2
ATOM      2  C   UNL     1      27.923  25.842  22.090  1.00  0.00     0.253 C 
BRANCH   2   3
ATOM      3  N   UNL     1      26.608  26.300  21.631  1.00  0.00    -0.348 N 
ATOM      4  H   UNL     1      26.425  27.268  21.985  1.00  0.00     0.345 HD
ATOM      5  H   UNL     1      26.587  26.326  20.586  1.00  0.00     0.345 HD
ATOM      6  H   UNL     1      25.853  25.661  21.971  1.00  0.00     0.345 HD
ENDBRANCH   2   3
BRANCH   2   7
ATOM      7  C   UNL     1      28.720  25.287  20.938  1.00  0.00     0.102 C 
ATOM      8  O   UNL     1      29.528  24.338  21.118  1.00  0.00    -0.544 OA
ATOM      9  O   UNL     1      28.556  25.815  19.664  1.00  0.00    -0.544 OA
ENDBRANCH   2   7
ENDBRANCH   1   2
BRANCH   1  10
ATOM     10  O   UNL     1      29.828  27.315  22.037  1.00  0.00    -0.390 OA
ATOM     11  H   UNL     1      29.520  27.914  21.308  1.00  0.00     0.210 HD
ENDBRANCH   1  10
TORSDOF 4
ENDMDL
MODEL 8
REMARK VINA RESULT:    -3.052     18.992     19.347
REMARK INTER + INTRA:          -3.814
REMARK INTER:                  -3.426
REMARK INTRA:                  -0.389
REMARK UNBOUND:                -0.228
REMARK SMILES [NH3+][C@H](CO)C(=O)[O-]
REMARK SMILES IDX 3 1 2 2 1 3 5 7 6 8 7 9 4 10
REMARK H PARENT 1 4 1 5 1 6 4 11
REMARK Flexibility Score: inf
ROOT
ATOM      1  C   UNL     1      26.986  26.065  22.422  1.00  0.00     0.227 C 
ENDROOT
BRANCH   1   2
ATOM      2  C   UNL     1      28.381  26.418  21.882  1.00  0.00     0.253 C 
BRANCH   2   3
ATOM      3  N   UNL     1      29.347  26.532  22.979  1.00  0.00    -0.348 N 
ATOM      4  H   UNL     1      29.070  25.899  23.765  1.00  0.00     0.345 HD
ATOM      5  H   UNL     1      30.296  26.244  22.647  1.00  0.00     0.345 HD
ATOM      6  H   UNL     1      29.395  27.517  23.331  1.00  0.00     0.345 HD
ENDBRANCH   2   3
BRANCH   2   7
ATOM      7  C   UNL     1      28.840  25.391  20.881  1.00  0.00     0.102 C 
ATOM      8  O   UNL     1      29.551  24.416  21.245  1.00  0.00    -0.544 OA
ATOM      9  O   UNL     1      28.469  25.508  19.547  1.00  0.00    -0.544 OA
ENDBRANCH   2   7
ENDBRANCH   1   2
BRANCH   1  10
ATOM     10  O   UNL     1      26.635  24.766  22.033  1.00  0.00    -0.390 OA
ATOM     11  H   UNL     1      25.967  24.450  22.695  1.00  0.00     0.210 HD
ENDBRANCH   1  10
TORSDOF 4
ENDMDL
MODEL 9
REMARK VINA RESULT:    -3.004     18.928     19.681
REMARK INTER + INTRA:          -3.758
REMARK INTER:                  -3.750
REMARK INTRA:                  -0.008
REMARK UNBOUND:                -0.228
REMARK SMILES [NH3+][C@H](CO)C(=O)[O-]
REMARK SMILES IDX 3 1 2 2 1 3 5 7 6 8 7 9 4 10
REMARK H PARENT 1 4 1 5 1 6 4 11
REMARK Flexibility Score: inf
ROOT
ATOM      1  C   UNL     1      28.782  25.248  19.770  1.00  0.00     0.227 C 
ENDROOT
BRANCH   1   2
ATOM      2  C   UNL     1      28.397  26.273  20.849  1.00  0.00     0.253 C 
BRANCH   2   3
ATOM      3  N   UNL     1      26.972  26.166  21.180  1.00  0.00    -0.348 N 
ATOM      4  H   UNL     1      26.432  25.869  20.334  1.00  0.00     0.345 HD
ATOM      5  H   UNL     1      26.834  25.446  21.925  1.00  0.00     0.345 HD
ATOM      6  H   UNL     1      26.601  27.084  21.520  1.00  0.00     0.345 HD
ENDBRANCH   2   3
BRANCH   2   7
ATOM      7  C   UNL     1      29.240  26.088  22.083  1.00  0.00     0.102 C 
ATOM      8  O   UNL     1      29.124  26.877  23.060  1.00  0.00    -0.544 OA
ATOM      9  O   UNL     1      30.143  25.036  22.156  1.00  0.00    -0.544 OA
ENDBRANCH   2   7
ENDBRANCH   1   2
BRANCH   1  10
ATOM     10  O   UNL     1      28.018  25.458  18.614  1.00  0.00    -0.390 OA
ATOM     11  H   UNL     1      28.653  25.416  17.852  1.00  0.00     0.210 HD
ENDBRANCH   1  10
TORSDOF 4
ENDMDL
