MODEL 1
REMARK VINA RESULT:    -4.699      0.000      0.000
REMARK INTER + INTRA:          -4.699
REMARK INTER:                  -4.699
REMARK INTRA:                   0.000
REMARK UNBOUND:                 0.000
REMARK SMILES CC1=CC[C@@]2(C)CCCC(C)(C)[C@]23C[C@H]13
REMARK SMILES IDX 1 1 2 2 3 3 4 4 5 5 7 6 8 7 9 8 10 9 13 10 15 11 14 12 11 13
REMARK SMILES IDX 12 14 6 15
REMARK H PARENT
REMARK Flexibility Score: inf
ROOT
ATOM      1  C   UNL     1      23.219  62.375  13.875  1.00  0.00     0.039 C 
ATOM      2  C   UNL     1      21.965  62.920  14.493  1.00  0.00    -0.074 C 
ATOM      3  C   UNL     1      20.784  62.750  13.875  1.00  0.00    -0.027 C 
ATOM      4  C   UNL     1      19.527  63.373  14.422  1.00  0.00     0.034 C 
ATOM      5  C   UNL     1      19.812  64.790  14.989  1.00  0.00    -0.022 C 
ATOM      6  C   UNL     1      18.482  65.419  15.507  1.00  0.00     0.008 C 
ATOM      7  C   UNL     1      18.084  64.987  16.907  1.00  0.00     0.001 C 
ATOM      8  C   UNL     1      19.176  65.390  17.888  1.00  0.00     0.007 C 
ATOM      9  C   UNL     1      20.485  64.596  17.666  1.00  0.00    -0.029 C 
ATOM     10  C   UNL     1      20.927  64.672  16.133  1.00  0.00    -0.012 C 
ATOM     11  C   UNL     1      22.043  63.634  15.822  1.00  0.00     0.022 C 
ATOM     12  C   UNL     1      22.372  65.111  15.760  1.00  0.00     0.017 C 
ATOM     13  C   UNL     1      21.536  65.212  18.623  1.00  0.00     0.012 C 
ATOM     14  C   UNL     1      20.250  63.127  18.126  1.00  0.00     0.012 C 
ATOM     15  C   UNL     1      20.247  65.710  13.807  1.00  0.00     0.012 C 
ENDROOT
TORSDOF 0
ENDMDL
MODEL 2
REMARK VINA RESULT:    -4.662      1.239      3.893
REMARK INTER + INTRA:          -4.662
REMARK INTER:                  -4.662
REMARK INTRA:                   0.000
REMARK UNBOUND:                 0.000
REMARK SMILES CC1=CC[C@@]2(C)CCCC(C)(C)[C@]23C[C@H]13
REMARK SMILES IDX 1 1 2 2 3 3 4 4 5 5 7 6 8 7 9 8 10 9 13 10 15 11 14 12 11 13
REMARK SMILES IDX 12 14 6 15
REMARK H PARENT
REMARK Flexibility Score: inf
ROOT
ATOM      1  C   UNL     1      18.121  66.062  16.768  1.00  0.00     0.039 C 
ATOM      2  C   UNL     1      19.342  65.437  16.159  1.00  0.00    -0.074 C 
ATOM      3  C   UNL     1      19.614  65.628  14.856  1.00  0.00    -0.027 C 
ATOM      4  C   UNL     1      20.776  64.931  14.199  1.00  0.00     0.034 C 
ATOM      5  C   UNL     1      20.925  63.480  14.730  1.00  0.00    -0.022 C 
ATOM      6  C   UNL     1      22.109  62.779  13.997  1.00  0.00     0.008 C 
ATOM      7  C   UNL     1      23.479  63.085  14.574  1.00  0.00     0.001 C 
ATOM      8  C   UNL     1      23.526  62.630  16.027  1.00  0.00     0.007 C 
ATOM      9  C   UNL     1      22.598  63.472  16.934  1.00  0.00    -0.029 C 
ATOM     10  C   UNL     1      21.125  63.532  16.318  1.00  0.00    -0.012 C 
ATOM     11  C   UNL     1      20.268  64.620  17.028  1.00  0.00     0.022 C 
ATOM     12  C   UNL     1      19.897  63.161  17.198  1.00  0.00     0.017 C 
ATOM     13  C   UNL     1      22.635  62.806  18.333  1.00  0.00     0.012 C 
ATOM     14  C   UNL     1      23.219  64.892  17.085  1.00  0.00     0.012 C 
ATOM     15  C   UNL     1      19.663  62.671  14.302  1.00  0.00     0.012 C 
ENDROOT
TORSDOF 0
ENDMDL
MODEL 3
REMARK VINA RESULT:    -4.483      1.484      4.203
REMARK INTER + INTRA:          -4.483
REMARK INTER:                  -4.483
REMARK INTRA:                   0.000
REMARK UNBOUND:                 0.000
REMARK SMILES CC1=CC[C@@]2(C)CCCC(C)(C)[C@]23C[C@H]13
REMARK SMILES IDX 1 1 2 2 3 3 4 4 5 5 7 6 8 7 9 8 10 9 13 10 15 11 14 12 11 13
REMARK SMILES IDX 12 14 6 15
REMARK H PARENT
REMARK Flexibility Score: inf
ROOT
ATOM      1  C   UNL     1      24.479  64.927  19.146  1.00  0.00     0.039 C 
ATOM      2  C   UNL     1      23.421  64.793  18.089  1.00  0.00    -0.074 C 
ATOM      3  C   UNL     1      22.292  65.516  18.176  1.00  0.00    -0.027 C 
ATOM      4  C   UNL     1      21.174  65.326  17.185  1.00  0.00     0.034 C 
ATOM      5  C   UNL     1      21.008  63.826  16.818  1.00  0.00    -0.022 C 
ATOM      6  C   UNL     1      19.818  63.665  15.824  1.00  0.00     0.008 C 
ATOM      7  C   UNL     1      20.165  63.937  14.372  1.00  0.00     0.001 C 
ATOM      8  C   UNL     1      21.251  62.967  13.924  1.00  0.00     0.007 C 
ATOM      9  C   UNL     1      22.600  63.230  14.633  1.00  0.00    -0.029 C 
ATOM     10  C   UNL     1      22.392  63.288  16.217  1.00  0.00    -0.012 C 
ATOM     11  C   UNL     1      23.654  63.862  16.923  1.00  0.00     0.022 C 
ATOM     12  C   UNL     1      23.276  62.413  17.150  1.00  0.00     0.017 C 
ATOM     13  C   UNL     1      23.551  62.088  14.196  1.00  0.00     0.012 C 
ATOM     14  C   UNL     1      23.193  64.559  14.080  1.00  0.00     0.012 C 
ATOM     15  C   UNL     1      20.560  63.056  18.097  1.00  0.00     0.012 C 
ENDROOT
TORSDOF 0
ENDMDL
MODEL 4
REMARK VINA RESULT:    -4.463      1.723      3.890
REMARK INTER + INTRA:          -4.463
REMARK INTER:                  -4.463
REMARK INTRA:                   0.000
REMARK UNBOUND:                 0.000
REMARK SMILES CC1=CC[C@@]2(C)CCCC(C)(C)[C@]23C[C@H]13
REMARK SMILES IDX 1 1 2 2 3 3 4 4 5 5 7 6 8 7 9 8 10 9 13 10 15 11 14 12 11 13
REMARK SMILES IDX 12 14 6 15
REMARK H PARENT
REMARK Flexibility Score: inf
ROOT
ATOM      1  C   UNL     1      21.172  65.565  12.371  1.00  0.00     0.039 C 
ATOM      2  C   UNL     1      21.939  64.952  13.507  1.00  0.00    -0.074 C 
ATOM      3  C   UNL     1      23.279  64.874  13.446  1.00  0.00    -0.027 C 
ATOM      4  C   UNL     1      24.062  64.173  14.524  1.00  0.00     0.034 C 
ATOM      5  C   UNL     1      23.318  62.902  15.014  1.00  0.00    -0.022 C 
ATOM      6  C   UNL     1      24.178  62.183  16.098  1.00  0.00     0.008 C 
ATOM      7  C   UNL     1      24.035  62.753  17.498  1.00  0.00     0.001 C 
ATOM      8  C   UNL     1      22.582  62.643  17.940  1.00  0.00     0.007 C 
ATOM      9  C   UNL     1      21.649  63.565  17.120  1.00  0.00    -0.029 C 
ATOM     10  C   UNL     1      21.872  63.330  15.555  1.00  0.00    -0.012 C 
ATOM     11  C   UNL     1      21.191  64.452  14.721  1.00  0.00     0.022 C 
ATOM     12  C   UNL     1      20.656  63.038  14.630  1.00  0.00     0.017 C 
ATOM     13  C   UNL     1      20.204  63.236  17.574  1.00  0.00     0.012 C 
ATOM     14  C   UNL     1      21.935  65.040  17.528  1.00  0.00     0.012 C 
ATOM     15  C   UNL     1      23.250  61.889  13.830  1.00  0.00     0.012 C 
ENDROOT
TORSDOF 0
ENDMDL
MODEL 5
REMARK VINA RESULT:    -4.354      1.797      3.928
REMARK INTER + INTRA:          -4.354
REMARK INTER:                  -4.354
REMARK INTRA:                   0.000
REMARK UNBOUND:                 0.000
REMARK SMILES CC1=CC[C@@]2(C)CCCC(C)(C)[C@]23C[C@H]13
REMARK SMILES IDX 1 1 2 2 3 3 4 4 5 5 7 6 8 7 9 8 10 9 13 10 15 11 14 12 11 13
REMARK SMILES IDX 12 14 6 15
REMARK H PARENT
REMARK Flexibility Score: inf
ROOT
ATOM      1  C   UNL     1      25.125  64.386  12.811  1.00  0.00     0.039 C 
ATOM      2  C   UNL     1      24.342  64.259  14.086  1.00  0.00    -0.074 C 
ATOM      3  C   UNL     1      24.938  64.500  15.266  1.00  0.00    -0.027 C 
ATOM      4  C   UNL     1      24.204  64.282  16.562  1.00  0.00     0.034 C 
ATOM      5  C   UNL     1      23.310  63.015  16.486  1.00  0.00    -0.022 C 
ATOM      6  C   UNL     1      22.600  62.799  17.857  1.00  0.00     0.008 C 
ATOM      7  C   UNL     1      21.340  63.623  18.053  1.00  0.00     0.001 C 
ATOM      8  C   UNL     1      20.331  63.265  16.970  1.00  0.00     0.007 C 
ATOM      9  C   UNL     1      20.795  63.714  15.565  1.00  0.00    -0.029 C 
ATOM     10  C   UNL     1      22.276  63.187  15.275  1.00  0.00    -0.012 C 
ATOM     11  C   UNL     1      22.880  63.884  14.023  1.00  0.00     0.022 C 
ATOM     12  C   UNL     1      22.581  62.401  13.968  1.00  0.00     0.017 C 
ATOM     13  C   UNL     1      19.754  63.155  14.563  1.00  0.00     0.012 C 
ATOM     14  C   UNL     1      20.712  65.268  15.495  1.00  0.00     0.012 C 
ATOM     15  C   UNL     1      24.237  61.772  16.323  1.00  0.00     0.012 C 
ENDROOT
TORSDOF 0
ENDMDL
MODEL 6
REMARK VINA RESULT:    -4.353      1.114      4.500
REMARK INTER + INTRA:          -4.353
REMARK INTER:                  -4.353
REMARK INTRA:                   0.000
REMARK UNBOUND:                 0.000
REMARK SMILES CC1=CC[C@@]2(C)CCCC(C)(C)[C@]23C[C@H]13
REMARK SMILES IDX 1 1 2 2 3 3 4 4 5 5 7 6 8 7 9 8 10 9 13 10 15 11 14 12 11 13
REMARK SMILES IDX 12 14 6 15
REMARK H PARENT
REMARK Flexibility Score: inf
ROOT
ATOM      1  C   UNL     1      18.087  65.576  17.771  1.00  0.00     0.039 C 
ATOM      2  C   UNL     1      19.233  64.776  17.225  1.00  0.00    -0.074 C 
ATOM      3  C   UNL     1      19.879  63.904  18.016  1.00  0.00    -0.027 C 
ATOM      4  C   UNL     1      21.094  63.164  17.522  1.00  0.00     0.034 C 
ATOM      5  C   UNL     1      21.980  64.082  16.637  1.00  0.00    -0.022 C 
ATOM      6  C   UNL     1      23.246  63.295  16.179  1.00  0.00     0.008 C 
ATOM      7  C   UNL     1      23.033  62.406  14.967  1.00  0.00     0.001 C 
ATOM      8  C   UNL     1      22.592  63.260  13.787  1.00  0.00     0.007 C 
ATOM      9  C   UNL     1      21.183  63.864  13.995  1.00  0.00    -0.029 C 
ATOM     10  C   UNL     1      21.102  64.611  15.406  1.00  0.00    -0.012 C 
ATOM     11  C   UNL     1      19.629  64.944  15.777  1.00  0.00     0.022 C 
ATOM     12  C   UNL     1      20.589  66.077  15.482  1.00  0.00     0.017 C 
ATOM     13  C   UNL     1      20.936  64.817  12.798  1.00  0.00     0.012 C 
ATOM     14  C   UNL     1      20.137  62.715  13.891  1.00  0.00     0.012 C 
ATOM     15  C   UNL     1      22.534  65.234  17.529  1.00  0.00     0.012 C 
ENDROOT
TORSDOF 0
ENDMDL
MODEL 7
REMARK VINA RESULT:    -4.265      1.585      3.374
REMARK INTER + INTRA:          -4.265
REMARK INTER:                  -4.265
REMARK INTRA:                   0.000
REMARK UNBOUND:                 0.000
REMARK SMILES CC1=CC[C@@]2(C)CCCC(C)(C)[C@]23C[C@H]13
REMARK SMILES IDX 1 1 2 2 3 3 4 4 5 5 7 6 8 7 9 8 10 9 13 10 15 11 14 12 11 13
REMARK SMILES IDX 12 14 6 15
REMARK H PARENT
REMARK Flexibility Score: inf
ROOT
ATOM      1  C   UNL     1      24.235  61.613  17.177  1.00  0.00     0.039 C 
ATOM      2  C   UNL     1      23.550  62.343  16.058  1.00  0.00    -0.074 C 
ATOM      3  C   UNL     1      24.098  62.357  14.832  1.00  0.00    -0.027 C 
ATOM      4  C   UNL     1      23.485  63.165  13.719  1.00  0.00     0.034 C 
ATOM      5  C   UNL     1      22.946  64.521  14.250  1.00  0.00    -0.022 C 
ATOM      6  C   UNL     1      22.357  65.345  13.065  1.00  0.00     0.008 C 
ATOM      7  C   UNL     1      20.934  64.978  12.686  1.00  0.00     0.001 C 
ATOM      8  C   UNL     1      20.020  65.208  13.883  1.00  0.00     0.007 C 
ATOM      9  C   UNL     1      20.310  64.222  15.039  1.00  0.00    -0.029 C 
ATOM     10  C   UNL     1      21.867  64.231  15.398  1.00  0.00    -0.012 C 
ATOM     11  C   UNL     1      22.233  63.035  16.322  1.00  0.00     0.022 C 
ATOM     12  C   UNL     1      22.326  64.444  16.869  1.00  0.00     0.017 C 
ATOM     13  C   UNL     1      19.420  64.669  16.225  1.00  0.00     0.012 C 
ATOM     14  C   UNL     1      19.826  62.806  14.609  1.00  0.00     0.012 C 
ATOM     15  C   UNL     1      24.158  65.365  14.752  1.00  0.00     0.012 C 
ENDROOT
TORSDOF 0
ENDMDL
MODEL 8
REMARK VINA RESULT:    -4.164      1.786      4.017
REMARK INTER + INTRA:          -4.164
REMARK INTER:                  -4.164
REMARK INTRA:                   0.000
REMARK UNBOUND:                 0.000
REMARK SMILES CC1=CC[C@@]2(C)CCCC(C)(C)[C@]23C[C@H]13
REMARK SMILES IDX 1 1 2 2 3 3 4 4 5 5 7 6 8 7 9 8 10 9 13 10 15 11 14 12 11 13
REMARK SMILES IDX 12 14 6 15
REMARK H PARENT
REMARK Flexibility Score: inf
ROOT
ATOM      1  C   UNL     1      19.357  62.760  13.878  1.00  0.00     0.039 C 
ATOM      2  C   UNL     1      20.412  63.103  14.889  1.00  0.00    -0.074 C 
ATOM      3  C   UNL     1      20.056  63.481  16.128  1.00  0.00    -0.027 C 
ATOM      4  C   UNL     1      21.089  63.927  17.128  1.00  0.00     0.034 C 
ATOM      5  C   UNL     1      22.197  64.770  16.441  1.00  0.00    -0.022 C 
ATOM      6  C   UNL     1      23.224  65.247  17.513  1.00  0.00     0.008 C 
ATOM      7  C   UNL     1      24.286  64.223  17.870  1.00  0.00     0.001 C 
ATOM      8  C   UNL     1      25.082  63.866  16.622  1.00  0.00     0.007 C 
ATOM      9  C   UNL     1      24.230  63.098  15.585  1.00  0.00    -0.029 C 
ATOM     10  C   UNL     1      22.873  63.888  15.287  1.00  0.00    -0.012 C 
ATOM     11  C   UNL     1      21.869  62.995  14.505  1.00  0.00     0.022 C 
ATOM     12  C   UNL     1      22.463  64.208  13.821  1.00  0.00     0.017 C 
ATOM     13  C   UNL     1      25.118  62.940  14.324  1.00  0.00     0.012 C 
ATOM     14  C   UNL     1      23.957  61.669  16.137  1.00  0.00     0.012 C 
ATOM     15  C   UNL     1      21.550  66.083  15.904  1.00  0.00     0.012 C 
ENDROOT
TORSDOF 0
ENDMDL
MODEL 9
REMARK VINA RESULT:    -4.144      1.415      4.433
REMARK INTER + INTRA:          -4.144
REMARK INTER:                  -4.144
REMARK INTRA:                   0.000
REMARK UNBOUND:                 0.000
REMARK SMILES CC1=CC[C@@]2(C)CCCC(C)(C)[C@]23C[C@H]13
REMARK SMILES IDX 1 1 2 2 3 3 4 4 5 5 7 6 8 7 9 8 10 9 13 10 15 11 14 12 11 13
REMARK SMILES IDX 12 14 6 15
REMARK H PARENT
REMARK Flexibility Score: inf
ROOT
ATOM      1  C   UNL     1      20.913  64.438  19.993  1.00  0.00     0.039 C 
ATOM      2  C   UNL     1      21.397  63.944  18.661  1.00  0.00    -0.074 C 
ATOM      3  C   UNL     1      22.277  62.930  18.601  1.00  0.00    -0.027 C 
ATOM      4  C   UNL     1      22.854  62.484  17.284  1.00  0.00     0.034 C 
ATOM      5  C   UNL     1      23.139  63.701  16.363  1.00  0.00    -0.022 C 
ATOM      6  C   UNL     1      23.773  63.203  15.028  1.00  0.00     0.008 C 
ATOM      7  C   UNL     1      22.772  62.713  13.997  1.00  0.00     0.001 C 
ATOM      8  C   UNL     1      21.821  63.848  13.640  1.00  0.00     0.007 C 
ATOM      9  C   UNL     1      20.903  64.235  14.822  1.00  0.00    -0.029 C 
ATOM     10  C   UNL     1      21.772  64.505  16.136  1.00  0.00    -0.012 C 
ATOM     11  C   UNL     1      20.867  64.581  17.398  1.00  0.00     0.022 C 
ATOM     12  C   UNL     1      21.589  65.828  16.933  1.00  0.00     0.017 C 
ATOM     13  C   UNL     1      20.108  65.485  14.364  1.00  0.00     0.012 C 
ATOM     14  C   UNL     1      19.872  63.089  15.038  1.00  0.00     0.012 C 
ATOM     15  C   UNL     1      24.252  64.567  17.028  1.00  0.00     0.012 C 
ENDROOT
TORSDOF 0
ENDMDL
