MODEL 1
REMARK VINA RESULT:    -5.460      0.000      0.000
REMARK INTER + INTRA:          -7.119
REMARK INTER:                  -6.737
REMARK INTRA:                  -0.382
REMARK UNBOUND:                -0.382
REMARK SMILES Oc1cc(O)c2cc(O)c(-c3cc(O)c(O)c(O)c3)[o+]c2c1
REMARK SMILES IDX 10 1 20 2 21 3 22 4 2 5 3 6 4 7 6 8 7 9 8 10 11 11 12 12
REMARK SMILES IDX 13 13 19 14 15 15 17 16 14 17 16 19 18 21 9 23 1 25 5 27
REMARK H PARENT 14 18 16 20 18 22 9 24 1 26 5 28
REMARK Flexibility Score: inf
ROOT
ATOM      1  C   UNL     1     -21.366  17.909  39.755  1.00  0.00     0.402 A 
ATOM      2  O   UNL     1     -21.106  17.376  38.564  1.00  0.00    -0.202 OA
ATOM      3  C   UNL     1     -20.081  17.748  37.806  1.00  0.00     0.368 A 
ATOM      4  C   UNL     1     -19.894  17.132  36.566  1.00  0.00     0.162 A 
ATOM      5  C   UNL     1     -18.826  17.504  35.746  1.00  0.00     0.128 A 
ATOM      6  C   UNL     1     -17.940  18.501  36.169  1.00  0.00     0.093 A 
ATOM      7  C   UNL     1     -18.106  19.134  37.407  1.00  0.00     0.136 A 
ATOM      8  C   UNL     1     -19.188  18.756  38.243  1.00  0.00     0.125 A 
ATOM      9  C   UNL     1     -19.424  19.326  39.504  1.00  0.00     0.078 A 
ATOM     10  C   UNL     1     -20.511  18.899  40.275  1.00  0.00     0.223 A 
ENDROOT
BRANCH   1  11
ATOM     11  C   UNL     1     -22.546  17.417  40.501  1.00  0.00     0.091 A 
ATOM     12  C   UNL     1     -23.788  18.070  40.421  1.00  0.00     0.068 A 
ATOM     13  C   UNL     1     -24.900  17.576  41.117  1.00  0.00     0.162 A 
ATOM     14  C   UNL     1     -22.441  16.242  41.260  1.00  0.00     0.068 A 
ATOM     15  C   UNL     1     -24.779  16.411  41.893  1.00  0.00     0.200 A 
ATOM     16  C   UNL     1     -23.549  15.743  41.960  1.00  0.00     0.162 A 
BRANCH  13  17
ATOM     17  O   UNL     1     -26.125  18.236  41.035  1.00  0.00    -0.504 OA
ATOM     18  H   UNL     1     -27.003  17.732  41.069  1.00  0.00     0.293 HD
ENDBRANCH  13  17
BRANCH  15  19
ATOM     19  O   UNL     1     -25.869  15.902  42.598  1.00  0.00    -0.502 OA
ATOM     20  H   UNL     1     -26.037  16.132  43.570  1.00  0.00     0.293 HD
ENDBRANCH  15  19
BRANCH  16  21
ATOM     21  O   UNL     1     -23.436  14.583  42.724  1.00  0.00    -0.504 OA
ATOM     22  H   UNL     1     -22.951  14.580  43.615  1.00  0.00     0.293 HD
ENDBRANCH  16  21
ENDBRANCH   1  11
BRANCH  10  23
ATOM     23  O   UNL     1     -20.717  19.429  41.549  1.00  0.00    -0.500 OA
ATOM     24  H   UNL     1     -20.516  20.400  41.761  1.00  0.00     0.294 HD
ENDBRANCH  10  23
BRANCH   5  25
ATOM     25  O   UNL     1     -18.656  16.877  34.514  1.00  0.00    -0.507 OA
ATOM     26  H   UNL     1     -17.856  16.283  34.328  1.00  0.00     0.293 HD
ENDBRANCH   5  25
BRANCH   7  27
ATOM     27  O   UNL     1     -17.179  20.122  37.754  1.00  0.00    -0.507 OA
ATOM     28  H   UNL     1     -16.795  20.243  38.679  1.00  0.00     0.293 HD
ENDBRANCH   7  27
TORSDOF 7
ENDMDL
MODEL 2
REMARK VINA RESULT:    -4.930      2.179      6.683
REMARK INTER + INTRA:          -6.465
REMARK INTER:                  -6.108
REMARK INTRA:                  -0.357
REMARK UNBOUND:                -0.382
REMARK SMILES Oc1cc(O)c2cc(O)c(-c3cc(O)c(O)c(O)c3)[o+]c2c1
REMARK SMILES IDX 10 1 20 2 21 3 22 4 2 5 3 6 4 7 6 8 7 9 8 10 11 11 12 12
REMARK SMILES IDX 13 13 19 14 15 15 17 16 14 17 16 19 18 21 9 23 1 25 5 27
REMARK H PARENT 14 18 16 20 18 22 9 24 1 26 5 28
REMARK Flexibility Score: inf
ROOT
ATOM      1  C   UNL     1     -21.259  17.616  40.393  1.00  0.00     0.402 A 
ATOM      2  O   UNL     1     -22.149  16.780  40.922  1.00  0.00    -0.202 OA
ATOM      3  C   UNL     1     -22.472  16.778  42.210  1.00  0.00     0.368 A 
ATOM      4  C   UNL     1     -23.417  15.858  42.673  1.00  0.00     0.162 A 
ATOM      5  C   UNL     1     -23.774  15.831  44.022  1.00  0.00     0.128 A 
ATOM      6  C   UNL     1     -23.183  16.730  44.916  1.00  0.00     0.093 A 
ATOM      7  C   UNL     1     -22.234  17.661  44.478  1.00  0.00     0.136 A 
ATOM      8  C   UNL     1     -21.870  17.694  43.107  1.00  0.00     0.125 A 
ATOM      9  C   UNL     1     -20.939  18.601  42.576  1.00  0.00     0.078 A 
ATOM     10  C   UNL     1     -20.634  18.575  41.211  1.00  0.00     0.223 A 
ENDROOT
BRANCH   1  11
ATOM     11  C   UNL     1     -20.976  17.513  38.944  1.00  0.00     0.091 A 
ATOM     12  C   UNL     1     -21.812  18.118  37.989  1.00  0.00     0.068 A 
ATOM     13  C   UNL     1     -21.515  18.029  36.622  1.00  0.00     0.162 A 
ATOM     14  C   UNL     1     -19.820  16.846  38.512  1.00  0.00     0.068 A 
ATOM     15  C   UNL     1     -20.366  17.339  36.199  1.00  0.00     0.200 A 
ATOM     16  C   UNL     1     -19.518  16.752  37.146  1.00  0.00     0.162 A 
BRANCH  13  17
ATOM     17  O   UNL     1     -22.355  18.627  35.684  1.00  0.00    -0.504 OA
ATOM     18  H   UNL     1     -23.289  18.278  35.508  1.00  0.00     0.293 HD
ENDBRANCH  13  17
BRANCH  15  19
ATOM     19  O   UNL     1     -20.052  17.232  34.844  1.00  0.00    -0.502 OA
ATOM     20  H   UNL     1     -20.147  18.013  34.206  1.00  0.00     0.293 HD
ENDBRANCH  15  19
BRANCH  16  21
ATOM     21  O   UNL     1     -18.375  16.076  36.723  1.00  0.00    -0.504 OA
ATOM     22  H   UNL     1     -17.558  15.991  37.317  1.00  0.00     0.293 HD
ENDBRANCH  16  21
ENDBRANCH   1  11
BRANCH  10  23
ATOM     23  O   UNL     1     -19.746  19.508  40.675  1.00  0.00    -0.500 OA
ATOM     24  H   UNL     1     -18.834  19.673  41.084  1.00  0.00     0.294 HD
ENDBRANCH  10  23
BRANCH   5  25
ATOM     25  O   UNL     1     -24.718  14.907  44.463  1.00  0.00    -0.507 OA
ATOM     26  H   UNL     1     -25.431  14.540  43.842  1.00  0.00     0.293 HD
ENDBRANCH   5  25
BRANCH   7  27
ATOM     27  O   UNL     1     -21.687  18.522  45.435  1.00  0.00    -0.507 OA
ATOM     28  H   UNL     1     -22.151  19.345  45.792  1.00  0.00     0.293 HD
ENDBRANCH   7  27
TORSDOF 7
ENDMDL
MODEL 3
REMARK VINA RESULT:    -4.885      1.104      7.177
REMARK INTER + INTRA:          -6.409
REMARK INTER:                  -6.043
REMARK INTRA:                  -0.367
REMARK UNBOUND:                -0.382
REMARK SMILES Oc1cc(O)c2cc(O)c(-c3cc(O)c(O)c(O)c3)[o+]c2c1
REMARK SMILES IDX 10 1 20 2 21 3 22 4 2 5 3 6 4 7 6 8 7 9 8 10 11 11 12 12
REMARK SMILES IDX 13 13 19 14 15 15 17 16 14 17 16 19 18 21 9 23 1 25 5 27
REMARK H PARENT 14 18 16 20 18 22 9 24 1 26 5 28
REMARK Flexibility Score: inf
ROOT
ATOM      1  C   UNL     1     -21.466  18.138  38.908  1.00  0.00     0.402 A 
ATOM      2  O   UNL     1     -21.550  17.211  39.858  1.00  0.00    -0.202 OA
ATOM      3  C   UNL     1     -22.638  17.016  40.594  1.00  0.00     0.368 A 
ATOM      4  C   UNL     1     -22.628  16.019  41.572  1.00  0.00     0.162 A 
ATOM      5  C   UNL     1     -23.757  15.793  42.363  1.00  0.00     0.128 A 
ATOM      6  C   UNL     1     -24.904  16.571  42.175  1.00  0.00     0.093 A 
ATOM      7  C   UNL     1     -24.940  17.577  41.202  1.00  0.00     0.136 A 
ATOM      8  C   UNL     1     -23.796  17.807  40.395  1.00  0.00     0.125 A 
ATOM      9  C   UNL     1     -23.745  18.784  39.387  1.00  0.00     0.078 A 
ATOM     10  C   UNL     1     -22.581  18.950  38.629  1.00  0.00     0.223 A 
ENDROOT
BRANCH   1  11
ATOM     11  C   UNL     1     -20.194  18.265  38.163  1.00  0.00     0.091 A 
ATOM     12  C   UNL     1     -20.007  17.637  36.919  1.00  0.00     0.068 A 
ATOM     13  C   UNL     1     -18.803  17.787  36.217  1.00  0.00     0.162 A 
ATOM     14  C   UNL     1     -19.170  19.075  38.678  1.00  0.00     0.068 A 
ATOM     15  C   UNL     1     -17.775  18.582  36.753  1.00  0.00     0.200 A 
ATOM     16  C   UNL     1     -17.963  19.228  37.981  1.00  0.00     0.162 A 
BRANCH  13  17
ATOM     17  O   UNL     1     -18.627  17.154  34.988  1.00  0.00    -0.504 OA
ATOM     18  H   UNL     1     -17.704  16.967  34.614  1.00  0.00     0.293 HD
ENDBRANCH  13  17
BRANCH  15  19
ATOM     19  O   UNL     1     -16.567  18.743  36.076  1.00  0.00    -0.502 OA
ATOM     20  H   UNL     1     -15.894  17.991  35.986  1.00  0.00     0.293 HD
ENDBRANCH  15  19
BRANCH  16  21
ATOM     21  O   UNL     1     -16.944  20.022  38.505  1.00  0.00    -0.504 OA
ATOM     22  H   UNL     1     -16.160  19.617  39.005  1.00  0.00     0.293 HD
ENDBRANCH  16  21
ENDBRANCH   1  11
BRANCH  10  23
ATOM     23  O   UNL     1     -22.548  19.886  37.595  1.00  0.00    -0.500 OA
ATOM     24  H   UNL     1     -23.281  19.936  36.897  1.00  0.00     0.294 HD
ENDBRANCH  10  23
BRANCH   5  25
ATOM     25  O   UNL     1     -23.727  14.793  43.332  1.00  0.00    -0.507 OA
ATOM     26  H   UNL     1     -24.562  14.520  43.838  1.00  0.00     0.293 HD
ENDBRANCH   5  25
BRANCH   7  27
ATOM     27  O   UNL     1     -26.123  18.312  41.079  1.00  0.00    -0.507 OA
ATOM     28  H   UNL     1     -26.904  18.244  41.713  1.00  0.00     0.293 HD
ENDBRANCH   7  27
TORSDOF 7
ENDMDL
MODEL 4
REMARK VINA RESULT:    -4.803      2.196      6.896
REMARK INTER + INTRA:          -6.308
REMARK INTER:                  -5.926
REMARK INTRA:                  -0.381
REMARK UNBOUND:                -0.382
REMARK SMILES Oc1cc(O)c2cc(O)c(-c3cc(O)c(O)c(O)c3)[o+]c2c1
REMARK SMILES IDX 10 1 20 2 21 3 22 4 2 5 3 6 4 7 6 8 7 9 8 10 11 11 12 12
REMARK SMILES IDX 13 13 19 14 15 15 17 16 14 17 16 19 18 21 9 23 1 25 5 27
REMARK H PARENT 14 18 16 20 18 22 9 24 1 26 5 28
REMARK Flexibility Score: inf
ROOT
ATOM      1  C   UNL     1     -21.203  17.652  40.433  1.00  0.00     0.402 A 
ATOM      2  O   UNL     1     -22.086  16.802  40.950  1.00  0.00    -0.202 OA
ATOM      3  C   UNL     1     -22.437  16.805  42.232  1.00  0.00     0.368 A 
ATOM      4  C   UNL     1     -23.371  15.868  42.682  1.00  0.00     0.162 A 
ATOM      5  C   UNL     1     -23.757  15.845  44.024  1.00  0.00     0.128 A 
ATOM      6  C   UNL     1     -23.205  16.764  44.922  1.00  0.00     0.093 A 
ATOM      7  C   UNL     1     -22.266  17.713  44.496  1.00  0.00     0.136 A 
ATOM      8  C   UNL     1     -21.874  17.741  43.133  1.00  0.00     0.125 A 
ATOM      9  C   UNL     1     -20.951  18.663  42.614  1.00  0.00     0.078 A 
ATOM     10  C   UNL     1     -20.616  18.632  41.256  1.00  0.00     0.223 A 
ENDROOT
BRANCH   1  11
ATOM     11  C   UNL     1     -20.886  17.543  38.991  1.00  0.00     0.091 A 
ATOM     12  C   UNL     1     -19.761  16.831  38.540  1.00  0.00     0.068 A 
ATOM     13  C   UNL     1     -19.491  16.719  37.169  1.00  0.00     0.162 A 
ATOM     14  C   UNL     1     -21.756  18.112  38.048  1.00  0.00     0.068 A 
ATOM     15  C   UNL     1     -20.355  17.312  36.234  1.00  0.00     0.200 A 
ATOM     16  C   UNL     1     -21.490  18.004  36.676  1.00  0.00     0.162 A 
BRANCH  13  17
ATOM     17  O   UNL     1     -18.368  16.017  36.733  1.00  0.00    -0.504 OA
ATOM     18  H   UNL     1     -18.396  15.017  36.570  1.00  0.00     0.293 HD
ENDBRANCH  13  17
BRANCH  15  19
ATOM     19  O   UNL     1     -20.105  17.218  34.865  1.00  0.00    -0.502 OA
ATOM     20  H   UNL     1     -20.318  16.382  34.335  1.00  0.00     0.293 HD
ENDBRANCH  15  19
BRANCH  16  21
ATOM     21  O   UNL     1     -22.350  18.584  35.745  1.00  0.00    -0.504 OA
ATOM     22  H   UNL     1     -22.002  19.170  34.994  1.00  0.00     0.293 HD
ENDBRANCH  16  21
ENDBRANCH   1  11
BRANCH  10  23
ATOM     23  O   UNL     1     -19.738  19.580  40.730  1.00  0.00    -0.500 OA
ATOM     24  H   UNL     1     -20.058  20.322  40.119  1.00  0.00     0.294 HD
ENDBRANCH  10  23
BRANCH   5  25
ATOM     25  O   UNL     1     -24.690  14.904  44.453  1.00  0.00    -0.507 OA
ATOM     26  H   UNL     1     -25.112  14.959  45.373  1.00  0.00     0.293 HD
ENDBRANCH   5  25
BRANCH   7  27
ATOM     27  O   UNL     1     -21.760  18.594  45.456  1.00  0.00    -0.507 OA
ATOM     28  H   UNL     1     -22.281  19.357  45.861  1.00  0.00     0.293 HD
ENDBRANCH   7  27
TORSDOF 7
ENDMDL
MODEL 5
REMARK VINA RESULT:    -4.341      2.216      3.212
REMARK INTER + INTRA:          -5.737
REMARK INTER:                  -5.361
REMARK INTRA:                  -0.376
REMARK UNBOUND:                -0.382
REMARK SMILES Oc1cc(O)c2cc(O)c(-c3cc(O)c(O)c(O)c3)[o+]c2c1
REMARK SMILES IDX 10 1 20 2 21 3 22 4 2 5 3 6 4 7 6 8 7 9 8 10 11 11 12 12
REMARK SMILES IDX 13 13 19 14 15 15 17 16 14 17 16 19 18 21 9 23 1 25 5 27
REMARK H PARENT 14 18 16 20 18 22 9 24 1 26 5 28
REMARK Flexibility Score: inf
ROOT
ATOM      1  C   UNL     1     -22.511  17.611  40.583  1.00  0.00     0.402 A 
ATOM      2  O   UNL     1     -21.353  17.243  40.042  1.00  0.00    -0.202 OA
ATOM      3  C   UNL     1     -21.068  17.396  38.753  1.00  0.00     0.368 A 
ATOM      4  C   UNL     1     -19.824  16.973  38.277  1.00  0.00     0.162 A 
ATOM      5  C   UNL     1     -19.498  17.119  36.927  1.00  0.00     0.128 A 
ATOM      6  C   UNL     1     -20.422  17.690  36.046  1.00  0.00     0.093 A 
ATOM      7  C   UNL     1     -21.676  18.122  36.498  1.00  0.00     0.136 A 
ATOM      8  C   UNL     1     -22.009  17.978  37.870  1.00  0.00     0.125 A 
ATOM      9  C   UNL     1     -23.235  18.393  38.414  1.00  0.00     0.078 A 
ATOM     10  C   UNL     1     -23.491  18.222  39.779  1.00  0.00     0.223 A 
ENDROOT
BRANCH   1  11
ATOM     11  C   UNL     1     -22.713  17.379  42.031  1.00  0.00     0.091 A 
ATOM     12  C   UNL     1     -22.296  18.318  42.989  1.00  0.00     0.068 A 
ATOM     13  C   UNL     1     -22.517  18.091  44.355  1.00  0.00     0.162 A 
ATOM     14  C   UNL     1     -23.386  16.223  42.457  1.00  0.00     0.068 A 
ATOM     15  C   UNL     1     -23.171  16.919  44.772  1.00  0.00     0.200 A 
ATOM     16  C   UNL     1     -23.608  15.989  43.820  1.00  0.00     0.162 A 
BRANCH  13  17
ATOM     17  O   UNL     1     -22.093  19.026  45.297  1.00  0.00    -0.504 OA
ATOM     18  H   UNL     1     -21.196  19.489  45.220  1.00  0.00     0.293 HD
ENDBRANCH  13  17
BRANCH  15  19
ATOM     19  O   UNL     1     -23.399  16.668  46.125  1.00  0.00    -0.502 OA
ATOM     20  H   UNL     1     -22.648  16.437  46.764  1.00  0.00     0.293 HD
ENDBRANCH  15  19
BRANCH  16  21
ATOM     21  O   UNL     1     -24.265  14.832  44.238  1.00  0.00    -0.504 OA
ATOM     22  H   UNL     1     -24.015  13.919  43.874  1.00  0.00     0.293 HD
ENDBRANCH  16  21
ENDBRANCH   1  11
BRANCH  10  23
ATOM     23  O   UNL     1     -24.689  18.680  40.329  1.00  0.00    -0.500 OA
ATOM     24  H   UNL     1     -24.921  19.666  40.354  1.00  0.00     0.294 HD
ENDBRANCH  10  23
BRANCH   5  25
ATOM     25  O   UNL     1     -18.253  16.692  36.473  1.00  0.00    -0.507 OA
ATOM     26  H   UNL     1     -17.834  17.079  35.635  1.00  0.00     0.293 HD
ENDBRANCH   5  25
BRANCH   7  27
ATOM     27  O   UNL     1     -22.544  18.679  35.555  1.00  0.00    -0.507 OA
ATOM     28  H   UNL     1     -23.452  18.305  35.325  1.00  0.00     0.293 HD
ENDBRANCH   7  27
TORSDOF 7
ENDMDL
MODEL 6
REMARK VINA RESULT:    -4.242      2.265      3.418
REMARK INTER + INTRA:          -5.615
REMARK INTER:                  -5.232
REMARK INTRA:                  -0.383
REMARK UNBOUND:                -0.382
REMARK SMILES Oc1cc(O)c2cc(O)c(-c3cc(O)c(O)c(O)c3)[o+]c2c1
REMARK SMILES IDX 10 1 20 2 21 3 22 4 2 5 3 6 4 7 6 8 7 9 8 10 11 11 12 12
REMARK SMILES IDX 13 13 19 14 15 15 17 16 14 17 16 19 18 21 9 23 1 25 5 27
REMARK H PARENT 14 18 16 20 18 22 9 24 1 26 5 28
REMARK Flexibility Score: inf
ROOT
ATOM      1  C   UNL     1     -22.772  17.704  40.566  1.00  0.00     0.402 A 
ATOM      2  O   UNL     1     -21.594  17.328  40.076  1.00  0.00    -0.202 OA
ATOM      3  C   UNL     1     -21.254  17.476  38.801  1.00  0.00     0.368 A 
ATOM      4  C   UNL     1     -19.993  17.046  38.379  1.00  0.00     0.162 A 
ATOM      5  C   UNL     1     -19.609  17.186  37.045  1.00  0.00     0.128 A 
ATOM      6  C   UNL     1     -20.492  17.759  36.123  1.00  0.00     0.093 A 
ATOM      7  C   UNL     1     -21.761  18.198  36.520  1.00  0.00     0.136 A 
ATOM      8  C   UNL     1     -22.154  18.060  37.876  1.00  0.00     0.125 A 
ATOM      9  C   UNL     1     -23.400  18.482  38.366  1.00  0.00     0.078 A 
ATOM     10  C   UNL     1     -23.715  18.317  39.719  1.00  0.00     0.223 A 
ENDROOT
BRANCH   1  11
ATOM     11  C   UNL     1     -23.038  17.477  42.005  1.00  0.00     0.091 A 
ATOM     12  C   UNL     1     -23.604  16.275  42.464  1.00  0.00     0.068 A 
ATOM     13  C   UNL     1     -23.826  16.069  43.833  1.00  0.00     0.162 A 
ATOM     14  C   UNL     1     -22.666  18.456  42.938  1.00  0.00     0.068 A 
ATOM     15  C   UNL     1     -23.472  17.065  44.758  1.00  0.00     0.200 A 
ATOM     16  C   UNL     1     -22.888  18.257  44.308  1.00  0.00     0.162 A 
BRANCH  13  17
ATOM     17  O   UNL     1     -24.394  14.876  44.277  1.00  0.00    -0.504 OA
ATOM     18  H   UNL     1     -25.293  14.856  44.743  1.00  0.00     0.293 HD
ENDBRANCH  13  17
BRANCH  15  19
ATOM     19  O   UNL     1     -23.687  16.886  46.124  1.00  0.00    -0.502 OA
ATOM     20  H   UNL     1     -23.178  17.413  46.823  1.00  0.00     0.293 HD
ENDBRANCH  15  19
BRANCH  16  21
ATOM     21  O   UNL     1     -22.529  19.239  45.230  1.00  0.00    -0.504 OA
ATOM     22  H   UNL     1     -22.345  20.194  44.942  1.00  0.00     0.293 HD
ENDBRANCH  16  21
ENDBRANCH   1  11
BRANCH  10  23
ATOM     23  O   UNL     1     -24.933  18.782  40.216  1.00  0.00    -0.500 OA
ATOM     24  H   UNL     1     -25.721  18.161  40.361  1.00  0.00     0.294 HD
ENDBRANCH  10  23
BRANCH   5  25
ATOM     25  O   UNL     1     -18.347  16.752  36.645  1.00  0.00    -0.507 OA
ATOM     26  H   UNL     1     -17.792  16.133  37.224  1.00  0.00     0.293 HD
ENDBRANCH   5  25
BRANCH   7  27
ATOM     27  O   UNL     1     -22.585  18.756  35.538  1.00  0.00    -0.507 OA
ATOM     28  H   UNL     1     -22.261  19.080  34.639  1.00  0.00     0.293 HD
ENDBRANCH   7  27
TORSDOF 7
ENDMDL
MODEL 7
REMARK VINA RESULT:    -4.239      1.914      7.297
REMARK INTER + INTRA:          -5.612
REMARK INTER:                  -5.668
REMARK INTRA:                   0.057
REMARK UNBOUND:                -0.382
REMARK SMILES Oc1cc(O)c2cc(O)c(-c3cc(O)c(O)c(O)c3)[o+]c2c1
REMARK SMILES IDX 10 1 20 2 21 3 22 4 2 5 3 6 4 7 6 8 7 9 8 10 11 11 12 12
REMARK SMILES IDX 13 13 19 14 15 15 17 16 14 17 16 19 18 21 9 23 1 25 5 27
REMARK H PARENT 14 18 16 20 18 22 9 24 1 26 5 28
REMARK Flexibility Score: inf
ROOT
ATOM      1  C   UNL     1     -21.809  17.901  40.070  1.00  0.00     0.402 A 
ATOM      2  O   UNL     1     -21.373  17.707  41.312  1.00  0.00    -0.202 OA
ATOM      3  C   UNL     1     -22.182  17.508  42.346  1.00  0.00     0.368 A 
ATOM      4  C   UNL     1     -21.629  17.317  43.615  1.00  0.00     0.162 A 
ATOM      5  C   UNL     1     -22.454  17.108  44.721  1.00  0.00     0.128 A 
ATOM      6  C   UNL     1     -23.843  17.091  44.559  1.00  0.00     0.093 A 
ATOM      7  C   UNL     1     -24.423  17.280  43.299  1.00  0.00     0.136 A 
ATOM      8  C   UNL     1     -23.587  17.490  42.172  1.00  0.00     0.125 A 
ATOM      9  C   UNL     1     -24.079  17.675  40.869  1.00  0.00     0.078 A 
ATOM     10  C   UNL     1     -23.192  17.872  39.806  1.00  0.00     0.223 A 
ENDROOT
BRANCH   1  11
ATOM     11  C   UNL     1     -20.808  18.123  39.002  1.00  0.00     0.091 A 
ATOM     12  C   UNL     1     -20.934  17.512  37.742  1.00  0.00     0.068 A 
ATOM     13  C   UNL     1     -19.988  17.752  36.736  1.00  0.00     0.162 A 
ATOM     14  C   UNL     1     -19.741  19.005  39.229  1.00  0.00     0.068 A 
ATOM     15  C   UNL     1     -18.910  18.619  36.981  1.00  0.00     0.200 A 
ATOM     16  C   UNL     1     -18.791  19.248  38.228  1.00  0.00     0.162 A 
BRANCH  13  17
ATOM     17  O   UNL     1     -20.118  17.136  35.493  1.00  0.00    -0.504 OA
ATOM     18  H   UNL     1     -20.667  17.550  34.749  1.00  0.00     0.293 HD
ENDBRANCH  13  17
BRANCH  15  19
ATOM     19  O   UNL     1     -17.953  18.871  35.998  1.00  0.00    -0.502 OA
ATOM     20  H   UNL     1     -17.870  18.296  35.168  1.00  0.00     0.293 HD
ENDBRANCH  15  19
BRANCH  16  21
ATOM     21  O   UNL     1     -17.725  20.114  38.464  1.00  0.00    -0.504 OA
ATOM     22  H   UNL     1     -17.446  20.368  39.405  1.00  0.00     0.293 HD
ENDBRANCH  16  21
ENDBRANCH   1  11
BRANCH  10  23
ATOM     23  O   UNL     1     -23.677  18.006  38.505  1.00  0.00    -0.500 OA
ATOM     24  H   UNL     1     -24.332  18.737  38.253  1.00  0.00     0.294 HD
ENDBRANCH  10  23
BRANCH   5  25
ATOM     25  O   UNL     1     -21.882  16.919  45.978  1.00  0.00    -0.507 OA
ATOM     26  H   UNL     1     -21.800  17.680  46.642  1.00  0.00     0.293 HD
ENDBRANCH   5  25
BRANCH   7  27
ATOM     27  O   UNL     1     -25.819  17.252  43.221  1.00  0.00    -0.507 OA
ATOM     28  H   UNL     1     -26.405  16.610  43.733  1.00  0.00     0.293 HD
ENDBRANCH   7  27
TORSDOF 7
ENDMDL
MODEL 8
REMARK VINA RESULT:    -4.082      2.923      6.802
REMARK INTER + INTRA:          -5.418
REMARK INTER:                  -5.114
REMARK INTRA:                  -0.304
REMARK UNBOUND:                -0.382
REMARK SMILES Oc1cc(O)c2cc(O)c(-c3cc(O)c(O)c(O)c3)[o+]c2c1
REMARK SMILES IDX 10 1 20 2 21 3 22 4 2 5 3 6 4 7 6 8 7 9 8 10 11 11 12 12
REMARK SMILES IDX 13 13 19 14 15 15 17 16 14 17 16 19 18 21 9 23 1 25 5 27
REMARK H PARENT 14 18 16 20 18 22 9 24 1 26 5 28
REMARK Flexibility Score: inf
ROOT
ATOM      1  C   UNL     1     -21.897  18.031  40.863  1.00  0.00     0.402 A 
ATOM      2  O   UNL     1     -21.005  18.568  41.692  1.00  0.00    -0.202 OA
ATOM      3  C   UNL     1     -21.232  18.751  42.988  1.00  0.00     0.368 A 
ATOM      4  C   UNL     1     -20.234  19.326  43.778  1.00  0.00     0.162 A 
ATOM      5  C   UNL     1     -20.444  19.533  45.142  1.00  0.00     0.128 A 
ATOM      6  C   UNL     1     -21.663  19.164  45.722  1.00  0.00     0.093 A 
ATOM      7  C   UNL     1     -22.680  18.586  44.952  1.00  0.00     0.136 A 
ATOM      8  C   UNL     1     -22.468  18.371  43.566  1.00  0.00     0.125 A 
ATOM      9  C   UNL     1     -23.424  17.786  42.720  1.00  0.00     0.078 A 
ATOM     10  C   UNL     1     -23.141  17.603  41.362  1.00  0.00     0.223 A 
ENDROOT
BRANCH   1  11
ATOM     11  C   UNL     1     -21.530  17.889  39.436  1.00  0.00     0.091 A 
ATOM     12  C   UNL     1     -22.146  18.667  38.440  1.00  0.00     0.068 A 
ATOM     13  C   UNL     1     -21.768  18.534  37.096  1.00  0.00     0.162 A 
ATOM     14  C   UNL     1     -20.507  17.000  39.072  1.00  0.00     0.068 A 
ATOM     15  C   UNL     1     -20.759  17.624  36.739  1.00  0.00     0.200 A 
ATOM     16  C   UNL     1     -20.127  16.861  37.730  1.00  0.00     0.162 A 
BRANCH  13  17
ATOM     17  O   UNL     1     -22.390  19.306  36.116  1.00  0.00    -0.504 OA
ATOM     18  H   UNL     1     -23.164  18.947  35.569  1.00  0.00     0.293 HD
ENDBRANCH  13  17
BRANCH  15  19
ATOM     19  O   UNL     1     -20.369  17.470  35.409  1.00  0.00    -0.502 OA
ATOM     20  H   UNL     1     -20.354  18.247  34.759  1.00  0.00     0.293 HD
ENDBRANCH  15  19
BRANCH  16  21
ATOM     21  O   UNL     1     -19.119  15.966  37.372  1.00  0.00    -0.504 OA
ATOM     22  H   UNL     1     -19.199  15.381  36.548  1.00  0.00     0.293 HD
ENDBRANCH  16  21
ENDBRANCH   1  11
BRANCH  10  23
ATOM     23  O   UNL     1     -24.071  16.977  40.532  1.00  0.00    -0.500 OA
ATOM     24  H   UNL     1     -23.971  16.977  39.524  1.00  0.00     0.294 HD
ENDBRANCH  10  23
BRANCH   5  25
ATOM     25  O   UNL     1     -19.436  20.108  45.913  1.00  0.00    -0.507 OA
ATOM     26  H   UNL     1     -18.468  20.094  45.613  1.00  0.00     0.293 HD
ENDBRANCH   5  25
BRANCH   7  27
ATOM     27  O   UNL     1     -23.869  18.247  45.605  1.00  0.00    -0.507 OA
ATOM     28  H   UNL     1     -24.709  18.805  45.583  1.00  0.00     0.293 HD
ENDBRANCH   7  27
TORSDOF 7
ENDMDL
MODEL 9
REMARK VINA RESULT:    -3.479      0.153      1.794
REMARK INTER + INTRA:          -4.674
REMARK INTER:                  -4.315
REMARK INTRA:                  -0.359
REMARK UNBOUND:                -0.382
REMARK SMILES Oc1cc(O)c2cc(O)c(-c3cc(O)c(O)c(O)c3)[o+]c2c1
REMARK SMILES IDX 10 1 20 2 21 3 22 4 2 5 3 6 4 7 6 8 7 9 8 10 11 11 12 12
REMARK SMILES IDX 13 13 19 14 15 15 17 16 14 17 16 19 18 21 9 23 1 25 5 27
REMARK H PARENT 14 18 16 20 18 22 9 24 1 26 5 28
REMARK Flexibility Score: inf
ROOT
ATOM      1  C   UNL     1     -21.455  17.815  39.807  1.00  0.00     0.402 A 
ATOM      2  O   UNL     1     -21.193  17.285  38.615  1.00  0.00    -0.202 OA
ATOM      3  C   UNL     1     -20.184  17.680  37.847  1.00  0.00     0.368 A 
ATOM      4  C   UNL     1     -19.993  17.064  36.607  1.00  0.00     0.162 A 
ATOM      5  C   UNL     1     -18.943  17.460  35.777  1.00  0.00     0.128 A 
ATOM      6  C   UNL     1     -18.077  18.479  36.188  1.00  0.00     0.093 A 
ATOM      7  C   UNL     1     -18.248  19.112  37.426  1.00  0.00     0.136 A 
ATOM      8  C   UNL     1     -19.313  18.711  38.273  1.00  0.00     0.125 A 
ATOM      9  C   UNL     1     -19.552  19.279  39.534  1.00  0.00     0.078 A 
ATOM     10  C   UNL     1     -20.620  18.827  40.316  1.00  0.00     0.223 A 
ENDROOT
BRANCH   1  11
ATOM     11  C   UNL     1     -22.616  17.296  40.565  1.00  0.00     0.091 A 
ATOM     12  C   UNL     1     -22.523  16.124  41.336  1.00  0.00     0.068 A 
ATOM     13  C   UNL     1     -23.627  15.661  42.066  1.00  0.00     0.162 A 
ATOM     14  C   UNL     1     -23.819  18.017  40.563  1.00  0.00     0.068 A 
ATOM     15  C   UNL     1     -24.835  16.378  42.038  1.00  0.00     0.200 A 
ATOM     16  C   UNL     1     -24.927  17.559  41.289  1.00  0.00     0.162 A 
BRANCH  13  17
ATOM     17  O   UNL     1     -23.526  14.494  42.821  1.00  0.00    -0.504 OA
ATOM     18  H   UNL     1     -22.821  14.386  43.540  1.00  0.00     0.293 HD
ENDBRANCH  13  17
BRANCH  15  19
ATOM     19  O   UNL     1     -25.949  15.936  42.752  1.00  0.00    -0.502 OA
ATOM     20  H   UNL     1     -26.248  16.379  43.612  1.00  0.00     0.293 HD
ENDBRANCH  15  19
BRANCH  16  21
ATOM     21  O   UNL     1     -26.125  18.272  41.272  1.00  0.00    -0.504 OA
ATOM     22  H   UNL     1     -26.153  19.255  41.025  1.00  0.00     0.293 HD
ENDBRANCH  16  21
ENDBRANCH   1  11
BRANCH  10  23
ATOM     23  O   UNL     1     -20.828  19.357  41.590  1.00  0.00    -0.500 OA
ATOM     24  H   UNL     1     -20.415  20.237  41.875  1.00  0.00     0.294 HD
ENDBRANCH  10  23
BRANCH   5  25
ATOM     25  O   UNL     1     -18.768  16.833  34.545  1.00  0.00    -0.507 OA
ATOM     26  H   UNL     1     -19.554  16.628  33.939  1.00  0.00     0.293 HD
ENDBRANCH   5  25
BRANCH   7  27
ATOM     27  O   UNL     1     -17.343  20.124  37.761  1.00  0.00    -0.507 OA
ATOM     28  H   UNL     1     -16.460  20.276  37.297  1.00  0.00     0.293 HD
ENDBRANCH   7  27
TORSDOF 7
ENDMDL
