MODEL 1
REMARK VINA RESULT:    -6.402      0.000      0.000
REMARK INTER + INTRA:         -10.688
REMARK INTER:                  -9.396
REMARK INTRA:                  -1.292
REMARK UNBOUND:                -1.292
REMARK SMILES O=c1c(O[C@@H]2O[C@H](CO)[C@@H](O)[C@H](O)[C@H]2O)c(-c2ccc(O)c(O)c2)oc2cc(O)cc(O)c12
REMARK SMILES IDX 4 1 3 2 16 3 25 4 2 5 26 6 1 7 33 8 27 9 31 10 28 11 30 12
REMARK SMILES IDX 17 13 18 14 19 15 20 16 24 17 22 18 21 19 23 21 32 23 29 25
REMARK SMILES IDX 5 27 14 28 6 29 12 30 7 31 10 32 15 33 13 35 8 37 9 38 11 40
REMARK H PARENT 21 20 23 22 32 24 29 26 15 34 13 36 9 39 11 41
REMARK Flexibility Score: inf
ROOT
ATOM      1  O   UNL     1      -5.898   6.509  14.253  1.00  0.00    -0.454 OA
ENDROOT
BRANCH   1   2
ATOM      2  C   UNL     1      -4.874   5.730  14.821  1.00  0.00     0.214 A 
ATOM      3  C   UNL     1      -3.536   5.932  14.446  1.00  0.00     0.180 A 
ATOM      4  O   UNL     1      -2.595   5.103  14.882  1.00  0.00    -0.452 OA
ATOM      5  C   UNL     1      -5.171   4.713  15.740  1.00  0.00     0.239 A 
ATOM      6  C   UNL     1      -2.842   4.079  15.689  1.00  0.00     0.146 A 
ATOM      7  O   UNL     1      -6.331   4.653  16.220  1.00  0.00    -0.285 OA
ATOM      8  C   UNL     1      -4.159   3.812  16.149  1.00  0.00     0.111 A 
ATOM      9  C   UNL     1      -1.772   3.278  16.096  1.00  0.00     0.094 A 
ATOM     10  C   UNL     1      -4.367   2.684  16.999  1.00  0.00     0.134 A 
ATOM     11  C   UNL     1      -1.977   2.215  16.971  1.00  0.00     0.123 A 
ATOM     12  C   UNL     1      -3.269   1.923  17.418  1.00  0.00     0.093 A 
BRANCH   3  13
ATOM     13  C   UNL     1      -3.125   7.064  13.600  1.00  0.00     0.025 A 
ATOM     14  C   UNL     1      -3.620   7.180  12.292  1.00  0.00     0.016 A 
ATOM     15  C   UNL     1      -3.161   8.200  11.454  1.00  0.00     0.051 A 
ATOM     16  C   UNL     1      -2.192   9.106  11.909  1.00  0.00     0.157 A 
ATOM     17  C   UNL     1      -2.140   7.956  14.043  1.00  0.00     0.062 A 
ATOM     18  C   UNL     1      -1.676   8.979  13.210  1.00  0.00     0.158 A 
BRANCH  16  19
ATOM     19  O   UNL     1      -1.732  10.123  11.072  1.00  0.00    -0.504 OA
ATOM     20  H   UNL     1      -1.204  10.911  11.433  1.00  0.00     0.293 HD
ENDBRANCH  16  19
BRANCH  18  21
ATOM     21  O   UNL     1      -0.700   9.854  13.689  1.00  0.00    -0.504 OA
ATOM     22  H   UNL     1       0.066   9.537  14.274  1.00  0.00     0.293 HD
ENDBRANCH  18  21
ENDBRANCH   3  13
BRANCH  10  23
ATOM     23  O   UNL     1      -5.622   2.251  17.438  1.00  0.00    -0.507 OA
ATOM     24  H   UNL     1      -6.442   2.832  17.531  1.00  0.00     0.293 HD
ENDBRANCH  10  23
BRANCH  11  25
ATOM     25  O   UNL     1      -0.890   1.454  17.394  1.00  0.00    -0.508 OA
ATOM     26  H   UNL     1      -0.894   0.444  17.321  1.00  0.00     0.293 HD
ENDBRANCH  11  25
ENDBRANCH   1   2
BRANCH   1  27
ATOM     27  C   UNL     1      -6.337   7.728  14.870  1.00  0.00     0.339 C 
ATOM     28  C   UNL     1      -6.113   8.953  13.967  1.00  0.00     0.214 C 
ATOM     29  O   UNL     1      -7.674   7.619  15.332  1.00  0.00    -0.332 OA
ATOM     30  C   UNL     1      -7.057   8.923  12.761  1.00  0.00     0.180 C 
ATOM     31  C   UNL     1      -8.677   7.619  14.319  1.00  0.00     0.179 C 
ATOM     32  C   UNL     1      -8.519   8.692  13.202  1.00  0.00     0.177 C 
BRANCH  28  33
ATOM     33  O   UNL     1      -6.299  10.125  14.723  1.00  0.00    -0.384 OA
ATOM     34  H   UNL     1      -5.849  10.861  14.232  1.00  0.00     0.211 HD
ENDBRANCH  28  33
BRANCH  30  35
ATOM     35  O   UNL     1      -6.643   7.914  11.877  1.00  0.00    -0.387 OA
ATOM     36  H   UNL     1      -5.674   8.055  11.705  1.00  0.00     0.211 HD
ENDBRANCH  30  35
BRANCH  31  37
ATOM     37  C   UNL     1      -8.991   6.208  13.797  1.00  0.00     0.191 C 
BRANCH  37  38
ATOM     38  O   UNL     1      -8.571   5.219  14.692  1.00  0.00    -0.394 OA
ATOM     39  H   UNL     1      -7.607   5.390  14.863  1.00  0.00     0.210 HD
ENDBRANCH  37  38
ENDBRANCH  31  37
BRANCH  32  40
ATOM     40  O   UNL     1      -9.120   9.906  13.592  1.00  0.00    -0.387 OA
ATOM     41  H   UNL     1      -8.953  10.040  14.558  1.00  0.00     0.211 HD
ENDBRANCH  32  40
ENDBRANCH   1  27
TORSDOF 12
ENDMDL
MODEL 2
REMARK VINA RESULT:    -5.240      1.962      4.780
REMARK INTER + INTRA:          -8.982
REMARK INTER:                  -7.528
REMARK INTRA:                  -1.455
REMARK UNBOUND:                -1.292
REMARK SMILES O=c1c(O[C@@H]2O[C@H](CO)[C@@H](O)[C@H](O)[C@H]2O)c(-c2ccc(O)c(O)c2)oc2cc(O)cc(O)c12
REMARK SMILES IDX 4 1 3 2 16 3 25 4 2 5 26 6 1 7 33 8 27 9 31 10 28 11 30 12
REMARK SMILES IDX 17 13 18 14 19 15 20 16 24 17 22 18 21 19 23 21 32 23 29 25
REMARK SMILES IDX 5 27 14 28 6 29 12 30 7 31 10 32 15 33 13 35 8 37 9 38 11 40
REMARK H PARENT 21 20 23 22 32 24 29 26 15 34 13 36 9 39 11 41
REMARK Flexibility Score: inf
ROOT
ATOM      1  O   UNL     1      -3.798   7.022  13.859  1.00  0.00    -0.454 OA
ENDROOT
BRANCH   1   2
ATOM      2  C   UNL     1      -3.538   5.841  14.576  1.00  0.00     0.214 A 
ATOM      3  C   UNL     1      -4.502   4.822  14.642  1.00  0.00     0.180 A 
ATOM      4  O   UNL     1      -4.304   3.774  15.431  1.00  0.00    -0.452 OA
ATOM      5  C   UNL     1      -2.331   5.673  15.271  1.00  0.00     0.239 A 
ATOM      6  C   UNL     1      -3.213   3.612  16.169  1.00  0.00     0.146 A 
ATOM      7  O   UNL     1      -1.397   6.488  15.065  1.00  0.00    -0.285 OA
ATOM      8  C   UNL     1      -2.167   4.572  16.146  1.00  0.00     0.111 A 
ATOM      9  C   UNL     1      -3.104   2.462  16.956  1.00  0.00     0.094 A 
ATOM     10  C   UNL     1      -1.026   4.355  16.977  1.00  0.00     0.134 A 
ATOM     11  C   UNL     1      -1.962   2.232  17.717  1.00  0.00     0.123 A 
ATOM     12  C   UNL     1      -0.930   3.176  17.725  1.00  0.00     0.093 A 
BRANCH   3  13
ATOM     13  C   UNL     1      -5.729   4.857  13.831  1.00  0.00     0.025 A 
ATOM     14  C   UNL     1      -5.765   4.218  12.581  1.00  0.00     0.016 A 
ATOM     15  C   UNL     1      -6.896   4.327  11.767  1.00  0.00     0.051 A 
ATOM     16  C   UNL     1      -7.997   5.088  12.185  1.00  0.00     0.157 A 
ATOM     17  C   UNL     1      -6.822   5.636  14.235  1.00  0.00     0.062 A 
ATOM     18  C   UNL     1      -7.957   5.750  13.424  1.00  0.00     0.158 A 
BRANCH  16  19
ATOM     19  O   UNL     1      -9.124   5.199  11.371  1.00  0.00    -0.504 OA
ATOM     20  H   UNL     1      -9.971   4.673  11.561  1.00  0.00     0.293 HD
ENDBRANCH  16  19
BRANCH  18  21
ATOM     21  O   UNL     1      -9.028   6.528  13.864  1.00  0.00    -0.504 OA
ATOM     22  H   UNL     1      -9.478   7.211  13.266  1.00  0.00     0.293 HD
ENDBRANCH  18  21
ENDBRANCH   3  13
BRANCH  10  23
ATOM     23  O   UNL     1       0.024   5.267  17.126  1.00  0.00    -0.507 OA
ATOM     24  H   UNL     1       0.938   5.181  16.706  1.00  0.00     0.293 HD
ENDBRANCH  10  23
BRANCH  11  25
ATOM     25  O   UNL     1      -1.859   1.060  18.463  1.00  0.00    -0.508 OA
ATOM     26  H   UNL     1      -1.498   0.206  18.055  1.00  0.00     0.293 HD
ENDBRANCH  11  25
ENDBRANCH   1   2
BRANCH   1  27
ATOM     27  C   UNL     1      -3.473   7.135  12.466  1.00  0.00     0.339 C 
ATOM     28  C   UNL     1      -4.727   7.255  11.583  1.00  0.00     0.214 C 
ATOM     29  O   UNL     1      -2.534   8.175  12.238  1.00  0.00    -0.332 OA
ATOM     30  C   UNL     1      -5.418   8.606  11.794  1.00  0.00     0.180 C 
ATOM     31  C   UNL     1      -3.044   9.501  12.359  1.00  0.00     0.179 C 
ATOM     32  C   UNL     1      -4.413   9.773  11.669  1.00  0.00     0.177 C 
BRANCH  28  33
ATOM     33  O   UNL     1      -4.362   7.082  10.235  1.00  0.00    -0.384 OA
ATOM     34  H   UNL     1      -4.076   7.970   9.896  1.00  0.00     0.211 HD
ENDBRANCH  28  33
BRANCH  30  35
ATOM     35  O   UNL     1      -6.031   8.617  13.057  1.00  0.00    -0.387 OA
ATOM     36  H   UNL     1      -6.441   9.515  13.175  1.00  0.00     0.211 HD
ENDBRANCH  30  35
BRANCH  31  37
ATOM     37  C   UNL     1      -2.943  10.045  13.793  1.00  0.00     0.191 C 
BRANCH  37  38
ATOM     38  O   UNL     1      -4.172   9.984  14.458  1.00  0.00    -0.394 OA
ATOM     39  H   UNL     1      -4.647  10.830  14.242  1.00  0.00     0.210 HD
ENDBRANCH  37  38
ENDBRANCH  31  37
BRANCH  32  40
ATOM     40  O   UNL     1      -4.225  10.125  10.317  1.00  0.00    -0.387 OA
ATOM     41  H   UNL     1      -5.112  10.284   9.910  1.00  0.00     0.211 HD
ENDBRANCH  32  40
ENDBRANCH   1  27
TORSDOF 12
ENDMDL
MODEL 3
REMARK VINA RESULT:    -4.829      2.085      6.216
REMARK INTER + INTRA:          -8.379
REMARK INTER:                  -7.022
REMARK INTRA:                  -1.357
REMARK UNBOUND:                -1.292
REMARK SMILES O=c1c(O[C@@H]2O[C@H](CO)[C@@H](O)[C@H](O)[C@H]2O)c(-c2ccc(O)c(O)c2)oc2cc(O)cc(O)c12
REMARK SMILES IDX 4 1 3 2 16 3 25 4 2 5 26 6 1 7 33 8 27 9 31 10 28 11 30 12
REMARK SMILES IDX 17 13 18 14 19 15 20 16 24 17 22 18 21 19 23 21 32 23 29 25
REMARK SMILES IDX 5 27 14 28 6 29 12 30 7 31 10 32 15 33 13 35 8 37 9 38 11 40
REMARK H PARENT 21 20 23 22 32 24 29 26 15 34 13 36 9 39 11 41
REMARK Flexibility Score: inf
ROOT
ATOM      1  O   UNL     1      -5.442   6.642  12.701  1.00  0.00    -0.454 OA
ENDROOT
BRANCH   1   2
ATOM      2  C   UNL     1      -4.171   7.122  13.062  1.00  0.00     0.214 A 
ATOM      3  C   UNL     1      -3.607   6.776  14.301  1.00  0.00     0.180 A 
ATOM      4  O   UNL     1      -2.471   7.341  14.691  1.00  0.00    -0.452 OA
ATOM      5  C   UNL     1      -3.460   7.984  12.214  1.00  0.00     0.239 A 
ATOM      6  C   UNL     1      -1.805   8.223  13.956  1.00  0.00     0.146 A 
ATOM      7  O   UNL     1      -3.868   8.143  11.036  1.00  0.00    -0.285 OA
ATOM      8  C   UNL     1      -2.279   8.613  12.675  1.00  0.00     0.111 A 
ATOM      9  C   UNL     1      -0.612   8.747  14.461  1.00  0.00     0.094 A 
ATOM     10  C   UNL     1      -1.530   9.581  11.939  1.00  0.00     0.134 A 
ATOM     11  C   UNL     1       0.140   9.646  13.710  1.00  0.00     0.123 A 
ATOM     12  C   UNL     1      -0.321  10.058  12.456  1.00  0.00     0.093 A 
BRANCH   3  13
ATOM     13  C   UNL     1      -4.219   5.770  15.183  1.00  0.00     0.025 A 
ATOM     14  C   UNL     1      -5.282   6.129  16.027  1.00  0.00     0.016 A 
ATOM     15  C   UNL     1      -5.806   5.202  16.933  1.00  0.00     0.051 A 
ATOM     16  C   UNL     1      -5.262   3.911  17.017  1.00  0.00     0.157 A 
ATOM     17  C   UNL     1      -3.663   4.488  15.286  1.00  0.00     0.062 A 
ATOM     18  C   UNL     1      -4.181   3.555  16.191  1.00  0.00     0.158 A 
BRANCH  16  19
ATOM     19  O   UNL     1      -5.781   2.987  17.923  1.00  0.00    -0.504 OA
ATOM     20  H   UNL     1      -6.720   2.614  17.822  1.00  0.00     0.293 HD
ENDBRANCH  16  19
BRANCH  18  21
ATOM     21  O   UNL     1      -3.606   2.286  16.259  1.00  0.00    -0.504 OA
ATOM     22  H   UNL     1      -2.739   2.114  16.755  1.00  0.00     0.293 HD
ENDBRANCH  18  21
ENDBRANCH   3  13
BRANCH  10  23
ATOM     23  O   UNL     1      -1.937  10.125  10.716  1.00  0.00    -0.507 OA
ATOM     24  H   UNL     1      -2.128   9.598   9.876  1.00  0.00     0.293 HD
ENDBRANCH  10  23
BRANCH  11  25
ATOM     25  O   UNL     1       1.346  10.125  14.217  1.00  0.00    -0.508 OA
ATOM     26  H   UNL     1       2.231   9.717  13.942  1.00  0.00     0.293 HD
ENDBRANCH  11  25
ENDBRANCH   1   2
BRANCH   1  27
ATOM     27  C   UNL     1      -5.596   5.587  11.741  1.00  0.00     0.339 C 
ATOM     28  C   UNL     1      -6.588   4.510  12.212  1.00  0.00     0.214 C 
ATOM     29  O   UNL     1      -5.907   6.101  10.455  1.00  0.00    -0.332 OA
ATOM     30  C   UNL     1      -8.020   5.054  12.224  1.00  0.00     0.180 C 
ATOM     31  C   UNL     1      -7.229   6.610  10.299  1.00  0.00     0.179 C 
ATOM     32  C   UNL     1      -8.374   5.728  10.880  1.00  0.00     0.177 C 
BRANCH  28  33
ATOM     33  O   UNL     1      -6.484   3.386  11.372  1.00  0.00    -0.384 OA
ATOM     34  H   UNL     1      -7.205   3.463  10.694  1.00  0.00     0.211 HD
ENDBRANCH  28  33
BRANCH  30  35
ATOM     35  O   UNL     1      -8.158   5.964  13.284  1.00  0.00    -0.387 OA
ATOM     36  H   UNL     1      -8.363   6.850  12.883  1.00  0.00     0.211 HD
ENDBRANCH  30  35
BRANCH  31  37
ATOM     37  C   UNL     1      -7.336   8.099  10.661  1.00  0.00     0.191 C 
BRANCH  37  38
ATOM     38  O   UNL     1      -7.568   8.285  12.028  1.00  0.00    -0.394 OA
ATOM     39  H   UNL     1      -6.719   8.634  12.408  1.00  0.00     0.210 HD
ENDBRANCH  37  38
ENDBRANCH  31  37
BRANCH  32  40
ATOM     40  O   UNL     1      -8.788   4.768   9.935  1.00  0.00    -0.387 OA
ATOM     41  H   UNL     1      -8.166   4.798   9.166  1.00  0.00     0.211 HD
ENDBRANCH  32  40
ENDBRANCH   1  27
TORSDOF 12
ENDMDL
MODEL 4
REMARK VINA RESULT:    -4.429      1.979      5.859
REMARK INTER + INTRA:          -7.792
REMARK INTER:                  -6.436
REMARK INTRA:                  -1.356
REMARK UNBOUND:                -1.292
REMARK SMILES O=c1c(O[C@@H]2O[C@H](CO)[C@@H](O)[C@H](O)[C@H]2O)c(-c2ccc(O)c(O)c2)oc2cc(O)cc(O)c12
REMARK SMILES IDX 4 1 3 2 16 3 25 4 2 5 26 6 1 7 33 8 27 9 31 10 28 11 30 12
REMARK SMILES IDX 17 13 18 14 19 15 20 16 24 17 22 18 21 19 23 21 32 23 29 25
REMARK SMILES IDX 5 27 14 28 6 29 12 30 7 31 10 32 15 33 13 35 8 37 9 38 11 40
REMARK H PARENT 21 20 23 22 32 24 29 26 15 34 13 36 9 39 11 41
REMARK Flexibility Score: inf
ROOT
ATOM      1  O   UNL     1      -5.108   6.337  12.691  1.00  0.00    -0.454 OA
ENDROOT
BRANCH   1   2
ATOM      2  C   UNL     1      -3.892   6.876  13.147  1.00  0.00     0.214 A 
ATOM      3  C   UNL     1      -3.425   6.587  14.439  1.00  0.00     0.180 A 
ATOM      4  O   UNL     1      -2.350   7.207  14.908  1.00  0.00    -0.452 OA
ATOM      5  C   UNL     1      -3.141   7.742  12.337  1.00  0.00     0.239 A 
ATOM      6  C   UNL     1      -1.655   8.094  14.207  1.00  0.00     0.146 A 
ATOM      7  O   UNL     1      -3.451   7.853  11.124  1.00  0.00    -0.285 OA
ATOM      8  C   UNL     1      -2.029   8.429  12.878  1.00  0.00     0.111 A 
ATOM      9  C   UNL     1      -0.531   8.678  14.796  1.00  0.00     0.094 A 
ATOM     10  C   UNL     1      -1.255   9.406  12.180  1.00  0.00     0.134 A 
ATOM     11  C   UNL     1       0.250   9.585  14.086  1.00  0.00     0.123 A 
ATOM     12  C   UNL     1      -0.114   9.944  12.785  1.00  0.00     0.093 A 
BRANCH   3  13
ATOM     13  C   UNL     1      -4.075   5.583  15.296  1.00  0.00     0.025 A 
ATOM     14  C   UNL     1      -5.185   5.938  16.078  1.00  0.00     0.016 A 
ATOM     15  C   UNL     1      -5.748   5.013  16.963  1.00  0.00     0.051 A 
ATOM     16  C   UNL     1      -5.197   3.728  17.087  1.00  0.00     0.157 A 
ATOM     17  C   UNL     1      -3.513   4.307  15.439  1.00  0.00     0.062 A 
ATOM     18  C   UNL     1      -4.071   3.376  16.323  1.00  0.00     0.158 A 
BRANCH  16  19
ATOM     19  O   UNL     1      -5.756   2.807  17.971  1.00  0.00    -0.504 OA
ATOM     20  H   UNL     1      -6.151   3.095  18.860  1.00  0.00     0.293 HD
ENDBRANCH  16  19
BRANCH  18  21
ATOM     21  O   UNL     1      -3.489   2.113  16.432  1.00  0.00    -0.504 OA
ATOM     22  H   UNL     1      -3.873   1.395  17.036  1.00  0.00     0.293 HD
ENDBRANCH  18  21
ENDBRANCH   3  13
BRANCH  10  23
ATOM     23  O   UNL     1      -1.573   9.900  10.911  1.00  0.00    -0.507 OA
ATOM     24  H   UNL     1      -1.170  10.723  10.486  1.00  0.00     0.293 HD
ENDBRANCH  10  23
BRANCH  11  25
ATOM     25  O   UNL     1       1.389  10.125  14.680  1.00  0.00    -0.508 OA
ATOM     26  H   UNL     1       2.199   9.552  14.884  1.00  0.00     0.293 HD
ENDBRANCH  11  25
ENDBRANCH   1   2
BRANCH   1  27
ATOM     27  C   UNL     1      -6.294   7.141  12.607  1.00  0.00     0.339 C 
ATOM     28  C   UNL     1      -6.420   7.853  11.249  1.00  0.00     0.214 C 
ATOM     29  O   UNL     1      -7.450   6.391  12.947  1.00  0.00    -0.332 OA
ATOM     30  C   UNL     1      -6.711   6.849  10.129  1.00  0.00     0.180 C 
ATOM     31  C   UNL     1      -7.872   5.436  11.977  1.00  0.00     0.179 C 
ATOM     32  C   UNL     1      -7.895   5.928  10.499  1.00  0.00     0.177 C 
BRANCH  28  33
ATOM     33  O   UNL     1      -7.433   8.825  11.329  1.00  0.00    -0.384 OA
ATOM     34  H   UNL     1      -8.207   8.402  11.784  1.00  0.00     0.211 HD
ENDBRANCH  28  33
BRANCH  30  35
ATOM     35  O   UNL     1      -5.557   6.091   9.878  1.00  0.00    -0.387 OA
ATOM     36  H   UNL     1      -5.827   5.134   9.888  1.00  0.00     0.211 HD
ENDBRANCH  30  35
BRANCH  31  37
ATOM     37  C   UNL     1      -7.211   4.062  12.172  1.00  0.00     0.191 C 
BRANCH  37  38
ATOM     38  O   UNL     1      -6.574   3.966  13.413  1.00  0.00    -0.394 OA
ATOM     39  H   UNL     1      -5.634   4.250  13.266  1.00  0.00     0.210 HD
ENDBRANCH  37  38
ENDBRANCH  31  37
BRANCH  32  40
ATOM     40  O   UNL     1      -9.123   6.553  10.205  1.00  0.00    -0.387 OA
ATOM     41  H   UNL     1      -9.559   6.803  11.057  1.00  0.00     0.211 HD
ENDBRANCH  32  40
ENDBRANCH   1  27
TORSDOF 12
ENDMDL
MODEL 5
REMARK VINA RESULT:    -4.405     12.587     16.102
REMARK INTER + INTRA:          -7.757
REMARK INTER:                  -7.036
REMARK INTRA:                  -0.721
REMARK UNBOUND:                -1.292
REMARK SMILES O=c1c(O[C@@H]2O[C@H](CO)[C@@H](O)[C@H](O)[C@H]2O)c(-c2ccc(O)c(O)c2)oc2cc(O)cc(O)c12
REMARK SMILES IDX 4 1 3 2 16 3 25 4 2 5 26 6 1 7 33 8 27 9 31 10 28 11 30 12
REMARK SMILES IDX 17 13 18 14 19 15 20 16 24 17 22 18 21 19 23 21 32 23 29 25
REMARK SMILES IDX 5 27 14 28 6 29 12 30 7 31 10 32 15 33 13 35 8 37 9 38 11 40
REMARK H PARENT 21 20 23 22 32 24 29 26 15 34 13 36 9 39 11 41
REMARK Flexibility Score: inf
ROOT
ATOM      1  O   UNL     1      -5.787  -6.035  22.760  1.00  0.00    -0.454 OA
ENDROOT
BRANCH   1   2
ATOM      2  C   UNL     1      -4.803  -6.638  23.563  1.00  0.00     0.214 A 
ATOM      3  C   UNL     1      -4.275  -7.893  23.218  1.00  0.00     0.180 A 
ATOM      4  O   UNL     1      -3.450  -8.515  24.052  1.00  0.00    -0.452 OA
ATOM      5  C   UNL     1      -4.360  -6.020  24.742  1.00  0.00     0.239 A 
ATOM      6  C   UNL     1      -3.066  -8.003  25.215  1.00  0.00     0.146 A 
ATOM      7  O   UNL     1      -4.684  -4.825  24.955  1.00  0.00    -0.285 OA
ATOM      8  C   UNL     1      -3.521  -6.726  25.638  1.00  0.00     0.111 A 
ATOM      9  C   UNL     1      -2.184  -8.741  26.009  1.00  0.00     0.094 A 
ATOM     10  C   UNL     1      -3.091  -6.237  26.908  1.00  0.00     0.134 A 
ATOM     11  C   UNL     1      -1.725  -8.229  27.219  1.00  0.00     0.123 A 
ATOM     12  C   UNL     1      -2.178  -6.983  27.663  1.00  0.00     0.093 A 
BRANCH   3  13
ATOM     13  C   UNL     1      -4.579  -8.541  21.933  1.00  0.00     0.025 A 
ATOM     14  C   UNL     1      -3.628  -8.536  20.900  1.00  0.00     0.016 A 
ATOM     15  C   UNL     1      -3.947  -9.068  19.647  1.00  0.00     0.051 A 
ATOM     16  C   UNL     1      -5.224  -9.596  19.408  1.00  0.00     0.157 A 
ATOM     17  C   UNL     1      -5.862  -9.047  21.683  1.00  0.00     0.062 A 
ATOM     18  C   UNL     1      -6.188  -9.580  20.431  1.00  0.00     0.158 A 
BRANCH  16  19
ATOM     19  O   UNL     1      -5.544 -10.123  18.157  1.00  0.00    -0.504 OA
ATOM     20  H   UNL     1      -5.222 -11.042  17.870  1.00  0.00     0.293 HD
ENDBRANCH  16  19
BRANCH  18  21
ATOM     21  O   UNL     1      -7.473 -10.082  20.222  1.00  0.00    -0.504 OA
ATOM     22  H   UNL     1      -7.926 -10.695  20.891  1.00  0.00     0.293 HD
ENDBRANCH  18  21
ENDBRANCH   3  13
BRANCH  10  23
ATOM     23  O   UNL     1      -3.543  -5.047  27.487  1.00  0.00    -0.507 OA
ATOM     24  H   UNL     1      -4.385  -4.554  27.228  1.00  0.00     0.293 HD
ENDBRANCH  10  23
BRANCH  11  25
ATOM     25  O   UNL     1      -0.815  -8.965  27.976  1.00  0.00    -0.508 OA
ATOM     26  H   UNL     1      -1.116  -9.741  28.552  1.00  0.00     0.293 HD
ENDBRANCH  11  25
ENDBRANCH   1   2
BRANCH   1  27
ATOM     27  C   UNL     1      -5.641  -4.689  22.287  1.00  0.00     0.339 C 
ATOM     28  C   UNL     1      -5.300  -4.631  20.788  1.00  0.00     0.214 C 
ATOM     29  O   UNL     1      -6.769  -3.897  22.628  1.00  0.00    -0.332 OA
ATOM     30  C   UNL     1      -6.495  -5.072  19.937  1.00  0.00     0.180 C 
ATOM     31  C   UNL     1      -7.956  -4.166  21.886  1.00  0.00     0.179 C 
ATOM     32  C   UNL     1      -7.781  -4.319  20.347  1.00  0.00     0.177 C 
BRANCH  28  33
ATOM     33  O   UNL     1      -4.900  -3.324  20.454  1.00  0.00    -0.384 OA
ATOM     34  H   UNL     1      -5.722  -2.769  20.419  1.00  0.00     0.211 HD
ENDBRANCH  28  33
BRANCH  30  35
ATOM     35  O   UNL     1      -6.671  -6.458  20.074  1.00  0.00    -0.387 OA
ATOM     36  H   UNL     1      -5.800  -6.886  19.860  1.00  0.00     0.211 HD
ENDBRANCH  30  35
BRANCH  31  37
ATOM     37  C   UNL     1      -8.823  -5.258  22.532  1.00  0.00     0.191 C 
BRANCH  37  38
ATOM     38  O   UNL     1      -8.451  -5.498  23.859  1.00  0.00    -0.394 OA
ATOM     39  H   UNL     1      -7.458  -5.535  23.867  1.00  0.00     0.210 HD
ENDBRANCH  37  38
ENDBRANCH  31  37
BRANCH  32  40
ATOM     40  O   UNL     1      -7.844  -3.061  19.714  1.00  0.00    -0.387 OA
ATOM     41  H   UNL     1      -6.994  -2.583  19.882  1.00  0.00     0.211 HD
ENDBRANCH  32  40
ENDBRANCH   1  27
TORSDOF 12
ENDMDL
MODEL 6
REMARK VINA RESULT:    -4.379     12.444     16.345
REMARK INTER + INTRA:          -7.719
REMARK INTER:                  -5.914
REMARK INTRA:                  -1.806
REMARK UNBOUND:                -1.292
REMARK SMILES O=c1c(O[C@@H]2O[C@H](CO)[C@@H](O)[C@H](O)[C@H]2O)c(-c2ccc(O)c(O)c2)oc2cc(O)cc(O)c12
REMARK SMILES IDX 4 1 3 2 16 3 25 4 2 5 26 6 1 7 33 8 27 9 31 10 28 11 30 12
REMARK SMILES IDX 17 13 18 14 19 15 20 16 24 17 22 18 21 19 23 21 32 23 29 25
REMARK SMILES IDX 5 27 14 28 6 29 12 30 7 31 10 32 15 33 13 35 8 37 9 38 11 40
REMARK H PARENT 21 20 23 22 32 24 29 26 15 34 13 36 9 39 11 41
REMARK Flexibility Score: inf
ROOT
ATOM      1  O   UNL     1      -5.430  -7.730  22.423  1.00  0.00    -0.454 OA
ENDROOT
BRANCH   1   2
ATOM      2  C   UNL     1      -4.997  -7.154  23.630  1.00  0.00     0.214 A 
ATOM      3  C   UNL     1      -5.314  -5.820  23.935  1.00  0.00     0.180 A 
ATOM      4  O   UNL     1      -4.787  -5.244  25.008  1.00  0.00    -0.452 OA
ATOM      5  C   UNL     1      -4.208  -7.883  24.532  1.00  0.00     0.239 A 
ATOM      6  C   UNL     1      -3.972  -5.872  25.847  1.00  0.00     0.146 A 
ATOM      7  O   UNL     1      -4.081  -9.121  24.359  1.00  0.00    -0.285 OA
ATOM      8  C   UNL     1      -3.617  -7.231  25.641  1.00  0.00     0.111 A 
ATOM      9  C   UNL     1      -3.484  -5.171  26.953  1.00  0.00     0.094 A 
ATOM     10  C   UNL     1      -2.719  -7.847  26.565  1.00  0.00     0.134 A 
ATOM     11  C   UNL     1      -2.656  -5.798  27.879  1.00  0.00     0.123 A 
ATOM     12  C   UNL     1      -2.278  -7.129  27.682  1.00  0.00     0.093 A 
BRANCH   3  13
ATOM     13  C   UNL     1      -6.250  -5.034  23.115  1.00  0.00     0.025 A 
ATOM     14  C   UNL     1      -7.631  -5.110  23.356  1.00  0.00     0.016 A 
ATOM     15  C   UNL     1      -8.529  -4.439  22.522  1.00  0.00     0.051 A 
ATOM     16  C   UNL     1      -8.058  -3.697  21.428  1.00  0.00     0.157 A 
ATOM     17  C   UNL     1      -5.784  -4.312  22.008  1.00  0.00     0.062 A 
ATOM     18  C   UNL     1      -6.678  -3.638  21.169  1.00  0.00     0.158 A 
BRANCH  16  19
ATOM     19  O   UNL     1      -8.954  -3.029  20.593  1.00  0.00    -0.504 OA
ATOM     20  H   UNL     1      -9.060  -3.283  19.616  1.00  0.00     0.293 HD
ENDBRANCH  16  19
BRANCH  18  21
ATOM     21  O   UNL     1      -6.176  -2.922  20.081  1.00  0.00    -0.504 OA
ATOM     22  H   UNL     1      -6.665  -2.124  19.691  1.00  0.00     0.293 HD
ENDBRANCH  18  21
ENDBRANCH   3  13
BRANCH  10  23
ATOM     23  O   UNL     1      -2.210  -9.142  26.422  1.00  0.00    -0.507 OA
ATOM     24  H   UNL     1      -1.447  -9.532  26.955  1.00  0.00     0.293 HD
ENDBRANCH  10  23
BRANCH  11  25
ATOM     25  O   UNL     1      -2.214  -5.091  28.995  1.00  0.00    -0.508 OA
ATOM     26  H   UNL     1      -2.444  -4.113  29.125  1.00  0.00     0.293 HD
ENDBRANCH  11  25
ENDBRANCH   1   2
BRANCH   1  27
ATOM     27  C   UNL     1      -4.549  -7.854  21.297  1.00  0.00     0.339 C 
ATOM     28  C   UNL     1      -4.316  -9.321  20.897  1.00  0.00     0.214 C 
ATOM     29  O   UNL     1      -4.982  -7.047  20.213  1.00  0.00    -0.332 OA
ATOM     30  C   UNL     1      -5.586  -9.932  20.296  1.00  0.00     0.180 C 
ATOM     31  C   UNL     1      -6.139  -7.513  19.522  1.00  0.00     0.179 C 
ATOM     32  C   UNL     1      -6.166  -9.032  19.182  1.00  0.00     0.177 C 
BRANCH  28  33
ATOM     33  O   UNL     1      -3.246  -9.389  19.987  1.00  0.00    -0.384 OA
ATOM     34  H   UNL     1      -3.045  -8.458  19.706  1.00  0.00     0.211 HD
ENDBRANCH  28  33
BRANCH  30  35
ATOM     35  O   UNL     1      -6.532 -10.125  21.315  1.00  0.00    -0.387 OA
ATOM     36  H   UNL     1      -6.150 -10.789  21.947  1.00  0.00     0.211 HD
ENDBRANCH  30  35
BRANCH  31  37
ATOM     37  C   UNL     1      -7.446  -6.982  20.132  1.00  0.00     0.191 C 
BRANCH  37  38
ATOM     38  O   UNL     1      -7.938  -7.834  21.125  1.00  0.00    -0.394 OA
ATOM     39  H   UNL     1      -8.891  -7.585  21.258  1.00  0.00     0.210 HD
ENDBRANCH  37  38
ENDBRANCH  31  37
BRANCH  32  40
ATOM     40  O   UNL     1      -5.515  -9.277  17.956  1.00  0.00    -0.387 OA
ATOM     41  H   UNL     1      -6.203  -9.392  17.254  1.00  0.00     0.211 HD
ENDBRANCH  32  40
ENDBRANCH   1  27
TORSDOF 12
ENDMDL
