MODEL 1
REMARK VINA RESULT:    -3.382      0.000      0.000
REMARK INTER + INTRA:          -3.382
REMARK INTER:                  -3.382
REMARK INTRA:                   0.000
REMARK UNBOUND:                 0.000
REMARK SMILES CC1(C)C(=O)[C@]2(C)CC[C@H]1C2
REMARK SMILES IDX 1 1 2 2 10 3 9 4 8 5 6 6 11 7 4 8 5 9 7 10 3 11
REMARK H PARENT
REMARK Flexibility Score: inf
ROOT
ATOM      1  C   UNL     1      -6.579  22.145   9.797  1.00  0.00     0.020 C 
ATOM      2  C   UNL     1      -6.995  22.684  11.183  1.00  0.00     0.027 C 
ATOM      3  C   UNL     1      -8.463  23.238  11.247  1.00  0.00     0.003 C 
ATOM      4  C   UNL     1      -9.465  22.241  10.613  1.00  0.00     0.005 C 
ATOM      5  C   UNL     1      -9.453  21.055  11.604  1.00  0.00     0.015 C 
ATOM      6  C   UNL     1      -8.527  21.564  12.726  1.00  0.00     0.027 C 
ATOM      7  C   UNL     1      -8.828  23.049  12.719  1.00  0.00     0.019 C 
ATOM      8  C   UNL     1      -7.123  21.575  12.188  1.00  0.00     0.144 C 
ATOM      9  O   UNL     1      -6.250  20.765  12.464  1.00  0.00    -0.298 OA
ATOM     10  C   UNL     1      -8.703  20.880  14.083  1.00  0.00     0.020 C 
ATOM     11  C   UNL     1      -5.967  23.739  11.644  1.00  0.00     0.020 C 
ENDROOT
TORSDOF 0
ENDMDL
MODEL 2
REMARK VINA RESULT:    -3.284      1.009      3.118
REMARK INTER + INTRA:          -3.284
REMARK INTER:                  -3.284
REMARK INTRA:                   0.000
REMARK UNBOUND:                 0.000
REMARK SMILES CC1(C)C(=O)[C@]2(C)CC[C@H]1C2
REMARK SMILES IDX 1 1 2 2 10 3 9 4 8 5 6 6 11 7 4 8 5 9 7 10 3 11
REMARK H PARENT
REMARK Flexibility Score: inf
ROOT
ATOM      1  C   UNL     1      -8.233  22.507  14.263  1.00  0.00     0.020 C 
ATOM      2  C   UNL     1      -8.410  21.717  12.948  1.00  0.00     0.027 C 
ATOM      3  C   UNL     1      -9.470  22.331  11.964  1.00  0.00     0.003 C 
ATOM      4  C   UNL     1      -9.246  23.854  11.780  1.00  0.00     0.005 C 
ATOM      5  C   UNL     1      -7.910  23.920  11.005  1.00  0.00     0.015 C 
ATOM      6  C   UNL     1      -7.592  22.432  10.757  1.00  0.00     0.027 C 
ATOM      7  C   UNL     1      -8.980  21.846  10.599  1.00  0.00     0.019 C 
ATOM      8  C   UNL     1      -7.194  21.826  12.073  1.00  0.00     0.144 C 
ATOM      9  O   UNL     1      -6.054  21.538  12.408  1.00  0.00    -0.298 OA
ATOM     10  C   UNL     1      -6.641  22.150   9.592  1.00  0.00     0.020 C 
ATOM     11  C   UNL     1      -8.730  20.244  13.281  1.00  0.00     0.020 C 
ENDROOT
TORSDOF 0
ENDMDL
MODEL 3
REMARK VINA RESULT:    -3.231      2.007      3.726
REMARK INTER + INTRA:          -3.231
REMARK INTER:                  -3.231
REMARK INTRA:                   0.000
REMARK UNBOUND:                 0.000
REMARK SMILES CC1(C)C(=O)[C@]2(C)CC[C@H]1C2
REMARK SMILES IDX 1 1 2 2 10 3 9 4 8 5 6 6 11 7 4 8 5 9 7 10 3 11
REMARK H PARENT
REMARK Flexibility Score: inf
ROOT
ATOM      1  C   UNL     1     -10.643  22.220  15.000  1.00  0.00     0.020 C 
ATOM      2  C   UNL     1      -9.266  22.202  14.300  1.00  0.00     0.027 C 
ATOM      3  C   UNL     1      -8.712  20.763  14.000  1.00  0.00     0.003 C 
ATOM      4  C   UNL     1      -9.793  19.877  13.328  1.00  0.00     0.005 C 
ATOM      5  C   UNL     1      -9.962  20.528  11.936  1.00  0.00     0.015 C 
ATOM      6  C   UNL     1      -8.891  21.636  11.950  1.00  0.00     0.027 C 
ATOM      7  C   UNL     1      -7.805  20.998  12.793  1.00  0.00     0.019 C 
ATOM      8  C   UNL     1      -9.360  22.711  12.890  1.00  0.00     0.144 C 
ATOM      9  O   UNL     1      -9.817  23.795  12.558  1.00  0.00    -0.298 OA
ATOM     10  C   UNL     1      -8.432  22.122  10.575  1.00  0.00     0.020 C 
ATOM     11  C   UNL     1      -8.265  23.035  15.129  1.00  0.00     0.020 C 
ENDROOT
TORSDOF 0
ENDMDL
MODEL 4
REMARK VINA RESULT:    -3.204      1.841      3.029
REMARK INTER + INTRA:          -3.204
REMARK INTER:                  -3.204
REMARK INTRA:                   0.000
REMARK UNBOUND:                 0.000
REMARK SMILES CC1(C)C(=O)[C@]2(C)CC[C@H]1C2
REMARK SMILES IDX 1 1 2 2 10 3 9 4 8 5 6 6 11 7 4 8 5 9 7 10 3 11
REMARK H PARENT
REMARK Flexibility Score: inf
ROOT
ATOM      1  C   UNL     1      -7.932  23.476  13.122  1.00  0.00     0.020 C 
ATOM      2  C   UNL     1      -7.987  21.959  12.835  1.00  0.00     0.027 C 
ATOM      3  C   UNL     1      -8.613  21.104  13.995  1.00  0.00     0.003 C 
ATOM      4  C   UNL     1      -9.949  21.720  14.483  1.00  0.00     0.005 C 
ATOM      5  C   UNL     1     -10.896  21.500  13.282  1.00  0.00     0.015 C 
ATOM      6  C   UNL     1     -10.015  20.701  12.302  1.00  0.00     0.027 C 
ATOM      7  C   UNL     1      -9.163  19.886  13.253  1.00  0.00     0.019 C 
ATOM      8  C   UNL     1      -8.978  21.640  11.752  1.00  0.00     0.144 C 
ATOM      9  O   UNL     1      -8.982  22.126  10.631  1.00  0.00    -0.298 OA
ATOM     10  C   UNL     1     -10.774  19.880  11.258  1.00  0.00     0.020 C 
ATOM     11  C   UNL     1      -6.573  21.463  12.462  1.00  0.00     0.020 C 
ENDROOT
TORSDOF 0
ENDMDL
MODEL 5
REMARK VINA RESULT:    -3.189      2.136      3.460
REMARK INTER + INTRA:          -3.189
REMARK INTER:                  -3.189
REMARK INTRA:                   0.000
REMARK UNBOUND:                 0.000
REMARK SMILES CC1(C)C(=O)[C@]2(C)CC[C@H]1C2
REMARK SMILES IDX 1 1 2 2 10 3 9 4 8 5 6 6 11 7 4 8 5 9 7 10 3 11
REMARK H PARENT
REMARK Flexibility Score: inf
ROOT
ATOM      1  C   UNL     1      -9.059  21.744  10.494  1.00  0.00     0.020 C 
ATOM      2  C   UNL     1      -9.457  21.210  11.888  1.00  0.00     0.027 C 
ATOM      3  C   UNL     1      -8.243  20.778  12.786  1.00  0.00     0.003 C 
ATOM      4  C   UNL     1      -7.142  21.870  12.799  1.00  0.00     0.005 C 
ATOM      5  C   UNL     1      -7.808  23.028  13.577  1.00  0.00     0.015 C 
ATOM      6  C   UNL     1      -9.161  22.419  13.994  1.00  0.00     0.027 C 
ATOM      7  C   UNL     1      -8.789  20.965  14.201  1.00  0.00     0.019 C 
ATOM      8  C   UNL     1     -10.009  22.303  12.758  1.00  0.00     0.144 C 
ATOM      9  O   UNL     1     -10.948  23.031  12.469  1.00  0.00    -0.298 OA
ATOM     10  C   UNL     1      -9.838  23.084  15.193  1.00  0.00     0.020 C 
ATOM     11  C   UNL     1     -10.476  20.063  11.719  1.00  0.00     0.020 C 
ENDROOT
TORSDOF 0
ENDMDL
MODEL 6
REMARK VINA RESULT:    -3.155      1.498      2.440
REMARK INTER + INTRA:          -3.155
REMARK INTER:                  -3.155
REMARK INTRA:                   0.000
REMARK UNBOUND:                 0.000
REMARK SMILES CC1(C)C(=O)[C@]2(C)CC[C@H]1C2
REMARK SMILES IDX 1 1 2 2 10 3 9 4 8 5 6 6 11 7 4 8 5 9 7 10 3 11
REMARK H PARENT
REMARK Flexibility Score: inf
ROOT
ATOM      1  C   UNL     1      -8.255  24.078  10.144  1.00  0.00     0.020 C 
ATOM      2  C   UNL     1      -7.575  22.779  10.629  1.00  0.00     0.027 C 
ATOM      3  C   UNL     1      -6.627  22.970  11.868  1.00  0.00     0.003 C 
ATOM      4  C   UNL     1      -7.323  23.793  12.982  1.00  0.00     0.005 C 
ATOM      5  C   UNL     1      -8.431  22.838  13.482  1.00  0.00     0.015 C 
ATOM      6  C   UNL     1      -8.166  21.558  12.664  1.00  0.00     0.027 C 
ATOM      7  C   UNL     1      -6.658  21.591  12.527  1.00  0.00     0.019 C 
ATOM      8  C   UNL     1      -8.569  21.835  11.243  1.00  0.00     0.144 C 
ATOM      9  O   UNL     1      -9.582  21.422  10.697  1.00  0.00    -0.298 OA
ATOM     10  C   UNL     1      -8.727  20.268  13.265  1.00  0.00     0.020 C 
ATOM     11  C   UNL     1      -6.837  22.121   9.444  1.00  0.00     0.020 C 
ENDROOT
TORSDOF 0
ENDMDL
MODEL 7
REMARK VINA RESULT:    -3.086      2.495      3.685
REMARK INTER + INTRA:          -3.086
REMARK INTER:                  -3.086
REMARK INTRA:                   0.000
REMARK UNBOUND:                 0.000
REMARK SMILES CC1(C)C(=O)[C@]2(C)CC[C@H]1C2
REMARK SMILES IDX 1 1 2 2 10 3 9 4 8 5 6 6 11 7 4 8 5 9 7 10 3 11
REMARK H PARENT
REMARK Flexibility Score: inf
ROOT
ATOM      1  C   UNL     1      -3.376  23.932   8.447  1.00  0.00     0.020 C 
ATOM      2  C   UNL     1      -4.412  24.485   9.450  1.00  0.00     0.027 C 
ATOM      3  C   UNL     1      -5.889  24.490   8.916  1.00  0.00     0.003 C 
ATOM      4  C   UNL     1      -6.261  23.122   8.289  1.00  0.00     0.005 C 
ATOM      5  C   UNL     1      -6.290  22.173   9.509  1.00  0.00     0.015 C 
ATOM      6  C   UNL     1      -6.032  23.133  10.687  1.00  0.00     0.027 C 
ATOM      7  C   UNL     1      -6.710  24.399  10.202  1.00  0.00     0.019 C 
ATOM      8  C   UNL     1      -4.592  23.560  10.619  1.00  0.00     0.144 C 
ATOM      9  O   UNL     1      -3.697  23.160  11.350  1.00  0.00    -0.298 OA
ATOM     10  C   UNL     1      -6.505  22.636  12.054  1.00  0.00     0.020 C 
ATOM     11  C   UNL     1      -3.969  25.890   9.911  1.00  0.00     0.020 C 
ENDROOT
TORSDOF 0
ENDMDL
MODEL 8
REMARK VINA RESULT:    -3.079     12.295     14.238
REMARK INTER + INTRA:          -3.079
REMARK INTER:                  -3.079
REMARK INTRA:                   0.000
REMARK UNBOUND:                 0.000
REMARK SMILES CC1(C)C(=O)[C@]2(C)CC[C@H]1C2
REMARK SMILES IDX 1 1 2 2 10 3 9 4 8 5 6 6 11 7 4 8 5 9 7 10 3 11
REMARK H PARENT
REMARK Flexibility Score: inf
ROOT
ATOM      1  C   UNL     1       3.871  23.617  18.477  1.00  0.00     0.020 C 
ATOM      2  C   UNL     1       4.089  23.461  16.956  1.00  0.00     0.027 C 
ATOM      3  C   UNL     1       5.140  24.457  16.348  1.00  0.00     0.003 C 
ATOM      4  C   UNL     1       6.442  24.477  17.190  1.00  0.00     0.005 C 
ATOM      5  C   UNL     1       7.042  23.075  16.939  1.00  0.00     0.015 C 
ATOM      6  C   UNL     1       6.066  22.470  15.912  1.00  0.00     0.027 C 
ATOM      7  C   UNL     1       5.653  23.697  15.124  1.00  0.00     0.019 C 
ATOM      8  C   UNL     1       4.779  22.168  16.629  1.00  0.00     0.144 C 
ATOM      9  O   UNL     1       4.395  21.057  16.961  1.00  0.00    -0.298 OA
ATOM     10  C   UNL     1       6.628  21.326  15.066  1.00  0.00     0.020 C 
ATOM     11  C   UNL     1       2.726  23.564  16.237  1.00  0.00     0.020 C 
ENDROOT
TORSDOF 0
ENDMDL
MODEL 9
REMARK VINA RESULT:    -3.050      1.487      2.469
REMARK INTER + INTRA:          -3.050
REMARK INTER:                  -3.050
REMARK INTRA:                   0.000
REMARK UNBOUND:                 0.000
REMARK SMILES CC1(C)C(=O)[C@]2(C)CC[C@H]1C2
REMARK SMILES IDX 1 1 2 2 10 3 9 4 8 5 6 6 11 7 4 8 5 9 7 10 3 11
REMARK H PARENT
REMARK Flexibility Score: inf
ROOT
ATOM      1  C   UNL     1      -6.711  24.803  12.190  1.00  0.00     0.020 C 
ATOM      2  C   UNL     1      -7.964  23.911  12.045  1.00  0.00     0.027 C 
ATOM      3  C   UNL     1      -7.872  22.850  10.890  1.00  0.00     0.003 C 
ATOM      4  C   UNL     1      -6.529  22.078  10.946  1.00  0.00     0.005 C 
ATOM      5  C   UNL     1      -6.662  21.238  12.236  1.00  0.00     0.015 C 
ATOM      6  C   UNL     1      -8.097  21.558  12.699  1.00  0.00     0.027 C 
ATOM      7  C   UNL     1      -8.810  21.745  11.375  1.00  0.00     0.019 C 
ATOM      8  C   UNL     1      -8.107  22.972  13.209  1.00  0.00     0.144 C 
ATOM      9  O   UNL     1      -8.146  23.304  14.385  1.00  0.00    -0.298 OA
ATOM     10  C   UNL     1      -8.733  20.522  13.628  1.00  0.00     0.020 C 
ATOM     11  C   UNL     1      -9.210  24.809  11.895  1.00  0.00     0.020 C 
ENDROOT
TORSDOF 0
ENDMDL
