MODEL 1
REMARK VINA RESULT:    -4.885      0.000      0.000
REMARK INTER + INTRA:          -8.553
REMARK INTER:                  -7.455
REMARK INTRA:                  -1.098
REMARK UNBOUND:                -1.098
REMARK SMILES OC[C@@H]1O[C@H](O[C@@]2(CO)O[C@@H](CO)[C@H](O)[C@H]2O)[C@H](O)[C@@H](O)[C@@H]1O
REMARK SMILES IDX 6 1 5 2 3 3 22 4 4 5 20 6 18 7 2 8 1 9 23 11 21 13 19 15
REMARK SMILES IDX 7 17 16 18 10 19 14 20 11 21 8 22 9 23 17 25 15 27 12 29
REMARK SMILES IDX 13 30
REMARK H PARENT 1 10 23 12 21 14 19 16 9 24 17 26 15 28 13 31
REMARK Flexibility Score: inf
ROOT
ATOM      1  O   UNL     1      45.853  40.696  48.538  1.00  0.00    -0.313 OA
ENDROOT
BRANCH   1   2
ATOM      2  C   UNL     1      45.697  41.398  49.765  1.00  0.00     0.285 C 
ATOM      3  C   UNL     1      46.747  41.934  51.792  1.00  0.00     0.178 C 
ATOM      4  C   UNL     1      45.620  43.009  51.971  1.00  0.00     0.177 C 
ATOM      5  O   UNL     1      46.940  41.552  50.435  1.00  0.00    -0.341 OA
ATOM      6  C   UNL     1      45.410  43.774  50.644  1.00  0.00     0.179 C 
ATOM      7  C   UNL     1      45.113  42.801  49.477  1.00  0.00     0.202 C 
BRANCH   3   8
ATOM      8  C   UNL     1      48.110  42.377  52.354  1.00  0.00     0.191 C 
BRANCH   8   9
ATOM      9  O   UNL     1      48.571  43.543  51.725  1.00  0.00    -0.394 OA
ATOM     10  H   UNL     1      49.160  43.259  50.976  1.00  0.00     0.210 HD
ENDBRANCH   8   9
ENDBRANCH   3   8
BRANCH   4  11
ATOM     11  O   UNL     1      45.902  43.915  53.007  1.00  0.00    -0.387 OA
ATOM     12  H   UNL     1      46.664  44.475  52.704  1.00  0.00     0.211 HD
ENDBRANCH   4  11
BRANCH   6  13
ATOM     13  O   UNL     1      44.395  44.745  50.745  1.00  0.00    -0.387 OA
ATOM     14  H   UNL     1      43.761  44.463  51.457  1.00  0.00     0.211 HD
ENDBRANCH   6  13
BRANCH   7  15
ATOM     15  O   UNL     1      45.669  43.308  48.292  1.00  0.00    -0.385 OA
ATOM     16  H   UNL     1      46.166  42.564  47.863  1.00  0.00     0.211 HD
ENDBRANCH   7  15
ENDBRANCH   1   2
BRANCH   1  17
ATOM     17  C   UNL     1      45.421  39.333  48.543  1.00  0.00     0.224 C 
ATOM     18  C   UNL     1      44.156  39.157  47.666  1.00  0.00     0.208 C 
ATOM     19  O   UNL     1      45.071  39.029  49.878  1.00  0.00    -0.337 OA
ATOM     20  C   UNL     1      43.256  38.263  48.491  1.00  0.00     0.180 C 
ATOM     21  C   UNL     1      43.777  38.469  49.919  1.00  0.00     0.179 C 
BRANCH  17  22
ATOM     22  C   UNL     1      46.562  38.336  48.140  1.00  0.00     0.225 C 
BRANCH  22  23
ATOM     23  O   UNL     1      46.226  37.558  47.016  1.00  0.00    -0.391 OA
ATOM     24  H   UNL     1      46.088  36.621  47.320  1.00  0.00     0.210 HD
ENDBRANCH  22  23
ENDBRANCH  17  22
BRANCH  18  25
ATOM     25  O   UNL     1      43.528  40.392  47.389  1.00  0.00    -0.385 OA
ATOM     26  H   UNL     1      42.551  40.239  47.317  1.00  0.00     0.211 HD
ENDBRANCH  18  25
BRANCH  20  27
ATOM     27  O   UNL     1      43.431  36.923  48.105  1.00  0.00    -0.387 OA
ATOM     28  H   UNL     1      44.408  36.743  48.122  1.00  0.00     0.211 HD
ENDBRANCH  20  27
BRANCH  21  29
ATOM     29  C   UNL     1      42.875  39.389  50.760  1.00  0.00     0.191 C 
BRANCH  29  30
ATOM     30  O   UNL     1      43.579  39.916  51.859  1.00  0.00    -0.394 OA
ATOM     31  H   UNL     1      43.388  40.893  51.871  1.00  0.00     0.210 HD
ENDBRANCH  29  30
ENDBRANCH  21  29
ENDBRANCH   1  17
TORSDOF 13
ENDMDL
MODEL 2
REMARK VINA RESULT:    -4.862      1.958      5.937
REMARK INTER + INTRA:          -8.518
REMARK INTER:                  -7.350
REMARK INTRA:                  -1.169
REMARK UNBOUND:                -1.098
REMARK SMILES OC[C@@H]1O[C@H](O[C@@]2(CO)O[C@@H](CO)[C@H](O)[C@H]2O)[C@H](O)[C@@H](O)[C@@H]1O
REMARK SMILES IDX 6 1 5 2 3 3 22 4 4 5 20 6 18 7 2 8 1 9 23 11 21 13 19 15
REMARK SMILES IDX 7 17 16 18 10 19 14 20 11 21 8 22 9 23 17 25 15 27 12 29
REMARK SMILES IDX 13 30
REMARK H PARENT 1 10 23 12 21 14 19 16 9 24 17 26 15 28 13 31
REMARK Flexibility Score: inf
ROOT
ATOM      1  O   UNL     1      47.479  39.831  49.802  1.00  0.00    -0.313 OA
ENDROOT
BRANCH   1   2
ATOM      2  C   UNL     1      46.370  39.192  49.183  1.00  0.00     0.285 C 
ATOM      3  C   UNL     1      45.728  37.373  47.850  1.00  0.00     0.178 C 
ATOM      4  C   UNL     1      44.258  37.717  48.272  1.00  0.00     0.177 C 
ATOM      5  O   UNL     1      46.699  37.878  48.760  1.00  0.00    -0.341 OA
ATOM      6  C   UNL     1      44.201  37.999  49.791  1.00  0.00     0.179 C 
ATOM      7  C   UNL     1      45.201  39.110  50.193  1.00  0.00     0.202 C 
BRANCH   3   8
ATOM      8  C   UNL     1      45.979  35.863  47.684  1.00  0.00     0.191 C 
BRANCH   8   9
ATOM      9  O   UNL     1      45.837  35.463  46.346  1.00  0.00    -0.394 OA
ATOM     10  H   UNL     1      45.052  35.947  45.976  1.00  0.00     0.210 HD
ENDBRANCH   8   9
ENDBRANCH   3   8
BRANCH   4  11
ATOM     11  O   UNL     1      43.351  36.697  47.939  1.00  0.00    -0.387 OA
ATOM     12  H   UNL     1      43.236  36.136  48.751  1.00  0.00     0.211 HD
ENDBRANCH   4  11
BRANCH   6  13
ATOM     13  O   UNL     1      42.901  38.330  50.222  1.00  0.00    -0.387 OA
ATOM     14  H   UNL     1      42.971  38.813  51.088  1.00  0.00     0.211 HD
ENDBRANCH   6  13
BRANCH   7  15
ATOM     15  O   UNL     1      45.707  38.843  51.475  1.00  0.00    -0.385 OA
ATOM     16  H   UNL     1      45.856  37.863  51.529  1.00  0.00     0.211 HD
ENDBRANCH   7  15
ENDBRANCH   1   2
BRANCH   1  17
ATOM     17  C   UNL     1      47.831  41.115  49.278  1.00  0.00     0.224 C 
ATOM     18  C   UNL     1      47.868  42.175  50.407  1.00  0.00     0.208 C 
ATOM     19  O   UNL     1      46.802  41.474  48.377  1.00  0.00    -0.337 OA
ATOM     20  C   UNL     1      47.169  43.377  49.808  1.00  0.00     0.180 C 
ATOM     21  C   UNL     1      46.320  42.762  48.688  1.00  0.00     0.179 C 
BRANCH  17  22
ATOM     22  C   UNL     1      49.162  41.086  48.452  1.00  0.00     0.225 C 
BRANCH  22  23
ATOM     23  O   UNL     1      49.943  42.241  48.646  1.00  0.00    -0.391 OA
ATOM     24  H   UNL     1      50.312  42.515  47.765  1.00  0.00     0.210 HD
ENDBRANCH  22  23
ENDBRANCH  17  22
BRANCH  18  25
ATOM     25  O   UNL     1      47.203  41.731  51.573  1.00  0.00    -0.385 OA
ATOM     26  H   UNL     1      46.789  42.515  52.017  1.00  0.00     0.211 HD
ENDBRANCH  18  25
BRANCH  20  27
ATOM     27  O   UNL     1      48.120  44.257  49.262  1.00  0.00    -0.387 OA
ATOM     28  H   UNL     1      47.672  44.740  48.518  1.00  0.00     0.211 HD
ENDBRANCH  20  27
BRANCH  21  29
ATOM     29  C   UNL     1      44.831  42.650  49.057  1.00  0.00     0.191 C 
BRANCH  29  30
ATOM     30  O   UNL     1      44.245  43.924  49.173  1.00  0.00    -0.394 OA
ATOM     31  H   UNL     1      43.347  43.783  49.577  1.00  0.00     0.210 HD
ENDBRANCH  29  30
ENDBRANCH  21  29
ENDBRANCH   1  17
TORSDOF 13
ENDMDL
MODEL 3
REMARK VINA RESULT:    -4.729      1.674      3.280
REMARK INTER + INTRA:          -8.314
REMARK INTER:                  -7.141
REMARK INTRA:                  -1.174
REMARK UNBOUND:                -1.098
REMARK SMILES OC[C@@H]1O[C@H](O[C@@]2(CO)O[C@@H](CO)[C@H](O)[C@H]2O)[C@H](O)[C@@H](O)[C@@H]1O
REMARK SMILES IDX 6 1 5 2 3 3 22 4 4 5 20 6 18 7 2 8 1 9 23 11 21 13 19 15
REMARK SMILES IDX 7 17 16 18 10 19 14 20 11 21 8 22 9 23 17 25 15 27 12 29
REMARK SMILES IDX 13 30
REMARK H PARENT 1 10 23 12 21 14 19 16 9 24 17 26 15 28 13 31
REMARK Flexibility Score: inf
ROOT
ATOM      1  O   UNL     1      46.266  39.389  48.884  1.00  0.00    -0.313 OA
ENDROOT
BRANCH   1   2
ATOM      2  C   UNL     1      45.979  40.716  49.309  1.00  0.00     0.285 C 
ATOM      3  C   UNL     1      45.243  42.012  51.119  1.00  0.00     0.178 C 
ATOM      4  C   UNL     1      45.754  43.250  50.305  1.00  0.00     0.177 C 
ATOM      5  O   UNL     1      45.860  40.793  50.721  1.00  0.00    -0.341 OA
ATOM      6  C   UNL     1      47.148  42.946  49.708  1.00  0.00     0.179 C 
ATOM      7  C   UNL     1      47.122  41.654  48.856  1.00  0.00     0.202 C 
BRANCH   3   8
ATOM      8  C   UNL     1      45.429  42.161  52.639  1.00  0.00     0.191 C 
BRANCH   8   9
ATOM      9  O   UNL     1      44.431  42.972  53.203  1.00  0.00    -0.394 OA
ATOM     10  H   UNL     1      43.881  43.323  52.454  1.00  0.00     0.210 HD
ENDBRANCH   8   9
ENDBRANCH   3   8
BRANCH   4  11
ATOM     11  O   UNL     1      45.812  44.419  51.083  1.00  0.00    -0.387 OA
ATOM     12  H   UNL     1      46.727  44.467  51.466  1.00  0.00     0.211 HD
ENDBRANCH   4  11
BRANCH   6  13
ATOM     13  O   UNL     1      47.650  44.023  48.952  1.00  0.00    -0.387 OA
ATOM     14  H   UNL     1      46.966  44.278  48.276  1.00  0.00     0.211 HD
ENDBRANCH   6  13
BRANCH   7  15
ATOM     15  O   UNL     1      48.352  40.988  48.979  1.00  0.00    -0.385 OA
ATOM     16  H   UNL     1      48.253  40.327  49.712  1.00  0.00     0.211 HD
ENDBRANCH   7  15
ENDBRANCH   1   2
BRANCH   1  17
ATOM     17  C   UNL     1      45.190  38.691  48.252  1.00  0.00     0.224 C 
ATOM     18  C   UNL     1      44.439  37.804  49.275  1.00  0.00     0.208 C 
ATOM     19  O   UNL     1      45.777  37.842  47.286  1.00  0.00    -0.337 OA
ATOM     20  C   UNL     1      44.219  36.498  48.541  1.00  0.00     0.180 C 
ATOM     21  C   UNL     1      45.304  36.524  47.456  1.00  0.00     0.179 C 
BRANCH  17  22
ATOM     22  C   UNL     1      44.221  39.649  47.478  1.00  0.00     0.225 C 
BRANCH  22  23
ATOM     23  O   UNL     1      42.875  39.476  47.856  1.00  0.00    -0.391 OA
ATOM     24  H   UNL     1      42.614  40.245  48.428  1.00  0.00     0.210 HD
ENDBRANCH  22  23
ENDBRANCH  17  22
BRANCH  18  25
ATOM     25  O   UNL     1      45.192  37.601  50.454  1.00  0.00    -0.385 OA
ATOM     26  H   UNL     1      45.800  38.376  50.576  1.00  0.00     0.211 HD
ENDBRANCH  18  25
BRANCH  20  27
ATOM     27  O   UNL     1      42.946  36.494  47.946  1.00  0.00    -0.387 OA
ATOM     28  H   UNL     1      42.677  35.543  47.846  1.00  0.00     0.211 HD
ENDBRANCH  20  27
BRANCH  21  29
ATOM     29  C   UNL     1      46.501  35.615  47.783  1.00  0.00     0.191 C 
BRANCH  29  30
ATOM     30  O   UNL     1      46.250  34.290  47.379  1.00  0.00    -0.394 OA
ATOM     31  H   UNL     1      46.081  33.772  48.212  1.00  0.00     0.210 HD
ENDBRANCH  29  30
ENDBRANCH  21  29
ENDBRANCH   1  17
TORSDOF 13
ENDMDL
MODEL 4
REMARK VINA RESULT:    -4.724      1.966      6.349
REMARK INTER + INTRA:          -8.308
REMARK INTER:                  -6.951
REMARK INTRA:                  -1.357
REMARK UNBOUND:                -1.098
REMARK SMILES OC[C@@H]1O[C@H](O[C@@]2(CO)O[C@@H](CO)[C@H](O)[C@H]2O)[C@H](O)[C@@H](O)[C@@H]1O
REMARK SMILES IDX 6 1 5 2 3 3 22 4 4 5 20 6 18 7 2 8 1 9 23 11 21 13 19 15
REMARK SMILES IDX 7 17 16 18 10 19 14 20 11 21 8 22 9 23 17 25 15 27 12 29
REMARK SMILES IDX 13 30
REMARK H PARENT 1 10 23 12 21 14 19 16 9 24 17 26 15 28 13 31
REMARK Flexibility Score: inf
ROOT
ATOM      1  O   UNL     1      45.581  43.031  52.651  1.00  0.00    -0.313 OA
ENDROOT
BRANCH   1   2
ATOM      2  C   UNL     1      45.526  42.254  51.460  1.00  0.00     0.285 C 
ATOM      3  C   UNL     1      44.438  40.461  50.412  1.00  0.00     0.178 C 
ATOM      4  C   UNL     1      45.116  40.960  49.089  1.00  0.00     0.177 C 
ATOM      5  O   UNL     1      44.339  41.478  51.403  1.00  0.00    -0.341 OA
ATOM      6  C   UNL     1      44.986  42.497  48.981  1.00  0.00     0.179 C 
ATOM      7  C   UNL     1      45.562  43.198  50.235  1.00  0.00     0.202 C 
BRANCH   3   8
ATOM      8  C   UNL     1      43.031  39.876  50.195  1.00  0.00     0.191 C 
BRANCH   8   9
ATOM      9  O   UNL     1      43.088  38.520  49.835  1.00  0.00    -0.394 OA
ATOM     10  H   UNL     1      42.206  38.284  49.443  1.00  0.00     0.210 HD
ENDBRANCH   8   9
ENDBRANCH   3   8
BRANCH   4  11
ATOM     11  O   UNL     1      44.573  40.351  47.945  1.00  0.00    -0.387 OA
ATOM     12  H   UNL     1      45.330  40.164  47.330  1.00  0.00     0.211 HD
ENDBRANCH   4  11
BRANCH   6  13
ATOM     13  O   UNL     1      45.593  43.001  47.814  1.00  0.00    -0.387 OA
ATOM     14  H   UNL     1      45.435  43.982  47.777  1.00  0.00     0.211 HD
ENDBRANCH   6  13
BRANCH   7  15
ATOM     15  O   UNL     1      44.814  44.353  50.510  1.00  0.00    -0.385 OA
ATOM     16  H   UNL     1      44.838  44.916  49.693  1.00  0.00     0.211 HD
ENDBRANCH   7  15
ENDBRANCH   1   2
BRANCH   1  17
ATOM     17  C   UNL     1      46.311  42.454  53.737  1.00  0.00     0.224 C 
ATOM     18  C   UNL     1      47.085  43.546  54.516  1.00  0.00     0.208 C 
ATOM     19  O   UNL     1      47.257  41.576  53.161  1.00  0.00    -0.337 OA
ATOM     20  C   UNL     1      48.447  42.932  54.758  1.00  0.00     0.180 C 
ATOM     21  C   UNL     1      48.543  41.860  53.664  1.00  0.00     0.179 C 
BRANCH  17  22
ATOM     22  C   UNL     1      45.407  41.586  54.678  1.00  0.00     0.225 C 
BRANCH  22  23
ATOM     23  O   UNL     1      45.462  42.010  56.020  1.00  0.00    -0.391 OA
ATOM     24  H   UNL     1      45.944  42.879  56.049  1.00  0.00     0.210 HD
ENDBRANCH  22  23
ENDBRANCH  17  22
BRANCH  18  25
ATOM     25  O   UNL     1      47.195  44.747  53.777  1.00  0.00    -0.385 OA
ATOM     26  H   UNL     1      48.084  45.147  53.957  1.00  0.00     0.211 HD
ENDBRANCH  18  25
BRANCH  20  27
ATOM     27  O   UNL     1      48.478  42.327  56.027  1.00  0.00    -0.387 OA
ATOM     28  H   UNL     1      49.422  42.073  56.202  1.00  0.00     0.211 HD
ENDBRANCH  20  27
BRANCH  21  29
ATOM     29  C   UNL     1      49.444  42.281  52.491  1.00  0.00     0.191 C 
BRANCH  29  30
ATOM     30  O   UNL     1      48.803  43.240  51.684  1.00  0.00    -0.394 OA
ATOM     31  H   UNL     1      49.423  43.428  50.928  1.00  0.00     0.210 HD
ENDBRANCH  29  30
ENDBRANCH  21  29
ENDBRANCH   1  17
TORSDOF 13
ENDMDL
MODEL 5
REMARK VINA RESULT:    -4.720      1.561      2.546
REMARK INTER + INTRA:          -8.301
REMARK INTER:                  -6.925
REMARK INTRA:                  -1.376
REMARK UNBOUND:                -1.098
REMARK SMILES OC[C@@H]1O[C@H](O[C@@]2(CO)O[C@@H](CO)[C@H](O)[C@H]2O)[C@H](O)[C@@H](O)[C@@H]1O
REMARK SMILES IDX 6 1 5 2 3 3 22 4 4 5 20 6 18 7 2 8 1 9 23 11 21 13 19 15
REMARK SMILES IDX 7 17 16 18 10 19 14 20 11 21 8 22 9 23 17 25 15 27 12 29
REMARK SMILES IDX 13 30
REMARK H PARENT 1 10 23 12 21 14 19 16 9 24 17 26 15 28 13 31
REMARK Flexibility Score: inf
ROOT
ATOM      1  O   UNL     1      46.054  39.611  50.445  1.00  0.00    -0.313 OA
ENDROOT
BRANCH   1   2
ATOM      2  C   UNL     1      45.971  41.023  50.595  1.00  0.00     0.285 C 
ATOM      3  C   UNL     1      46.067  42.777  52.149  1.00  0.00     0.178 C 
ATOM      4  C   UNL     1      46.183  43.729  50.909  1.00  0.00     0.177 C 
ATOM      5  O   UNL     1      46.461  41.440  51.861  1.00  0.00    -0.341 OA
ATOM      6  C   UNL     1      47.193  43.148  49.894  1.00  0.00     0.179 C 
ATOM      7  C   UNL     1      46.812  41.702  49.490  1.00  0.00     0.202 C 
BRANCH   3   8
ATOM      8  C   UNL     1      46.879  43.255  53.366  1.00  0.00     0.191 C 
BRANCH   8   9
ATOM      9  O   UNL     1      48.254  43.291  53.085  1.00  0.00    -0.394 OA
ATOM     10  H   UNL     1      48.467  44.213  52.781  1.00  0.00     0.210 HD
ENDBRANCH   8   9
ENDBRANCH   3   8
BRANCH   4  11
ATOM     11  O   UNL     1      46.561  45.034  51.268  1.00  0.00    -0.387 OA
ATOM     12  H   UNL     1      47.082  44.963  52.111  1.00  0.00     0.211 HD
ENDBRANCH   4  11
BRANCH   6  13
ATOM     13  O   UNL     1      47.325  43.959  48.750  1.00  0.00    -0.387 OA
ATOM     14  H   UNL     1      47.839  44.773  49.000  1.00  0.00     0.211 HD
ENDBRANCH   6  13
BRANCH   7  15
ATOM     15  O   UNL     1      47.980  40.957  49.263  1.00  0.00    -0.385 OA
ATOM     16  H   UNL     1      48.732  41.604  49.212  1.00  0.00     0.211 HD
ENDBRANCH   7  15
ENDBRANCH   1   2
BRANCH   1  17
ATOM     17  C   UNL     1      44.842  38.952  50.071  1.00  0.00     0.224 C 
ATOM     18  C   UNL     1      45.068  38.053  48.831  1.00  0.00     0.208 C 
ATOM     19  O   UNL     1      43.929  39.970  49.710  1.00  0.00    -0.337 OA
ATOM     20  C   UNL     1      43.865  38.322  47.954  1.00  0.00     0.180 C 
ATOM     21  C   UNL     1      43.381  39.694  48.440  1.00  0.00     0.179 C 
BRANCH  17  22
ATOM     22  C   UNL     1      44.190  38.166  51.259  1.00  0.00     0.225 C 
BRANCH  22  23
ATOM     23  O   UNL     1      44.031  36.795  50.976  1.00  0.00    -0.391 OA
ATOM     24  H   UNL     1      44.808  36.309  51.362  1.00  0.00     0.210 HD
ENDBRANCH  22  23
ENDBRANCH  17  22
BRANCH  18  25
ATOM     25  O   UNL     1      46.269  38.374  48.156  1.00  0.00    -0.385 OA
ATOM     26  H   UNL     1      46.690  39.146  48.614  1.00  0.00     0.211 HD
ENDBRANCH  18  25
BRANCH  20  27
ATOM     27  O   UNL     1      42.875  37.352  48.192  1.00  0.00    -0.387 OA
ATOM     28  H   UNL     1      42.239  37.396  47.430  1.00  0.00     0.211 HD
ENDBRANCH  20  27
BRANCH  21  29
ATOM     29  C   UNL     1      43.764  40.838  47.485  1.00  0.00     0.191 C 
BRANCH  29  30
ATOM     30  O   UNL     1      43.584  42.090  48.103  1.00  0.00    -0.394 OA
ATOM     31  H   UNL     1      44.451  42.570  48.019  1.00  0.00     0.210 HD
ENDBRANCH  29  30
ENDBRANCH  21  29
ENDBRANCH   1  17
TORSDOF 13
ENDMDL
MODEL 6
REMARK VINA RESULT:    -4.681      3.207      6.287
REMARK INTER + INTRA:          -8.241
REMARK INTER:                  -6.954
REMARK INTRA:                  -1.287
REMARK UNBOUND:                -1.098
REMARK SMILES OC[C@@H]1O[C@H](O[C@@]2(CO)O[C@@H](CO)[C@H](O)[C@H]2O)[C@H](O)[C@@H](O)[C@@H]1O
REMARK SMILES IDX 6 1 5 2 3 3 22 4 4 5 20 6 18 7 2 8 1 9 23 11 21 13 19 15
REMARK SMILES IDX 7 17 16 18 10 19 14 20 11 21 8 22 9 23 17 25 15 27 12 29
REMARK SMILES IDX 13 30
REMARK H PARENT 1 10 23 12 21 14 19 16 9 24 17 26 15 28 13 31
REMARK Flexibility Score: inf
ROOT
ATOM      1  O   UNL     1      45.905  36.179  46.868  1.00  0.00    -0.313 OA
ENDROOT
BRANCH   1   2
ATOM      2  C   UNL     1      45.632  37.190  47.831  1.00  0.00     0.285 C 
ATOM      3  C   UNL     1      44.901  39.401  48.109  1.00  0.00     0.178 C 
ATOM      4  C   UNL     1      44.747  39.048  49.628  1.00  0.00     0.177 C 
ATOM      5  O   UNL     1      44.879  38.253  47.267  1.00  0.00    -0.341 OA
ATOM      6  C   UNL     1      44.060  37.671  49.779  1.00  0.00     0.179 C 
ATOM      7  C   UNL     1      44.824  36.575  48.998  1.00  0.00     0.202 C 
BRANCH   3   8
ATOM      8  C   UNL     1      43.832  40.382  47.597  1.00  0.00     0.191 C 
BRANCH   8   9
ATOM      9  O   UNL     1      44.186  41.713  47.862  1.00  0.00    -0.394 OA
ATOM     10  H   UNL     1      44.456  42.123  46.998  1.00  0.00     0.210 HD
ENDBRANCH   8   9
ENDBRANCH   3   8
BRANCH   4  11
ATOM     11  O   UNL     1      44.024  40.024  50.335  1.00  0.00    -0.387 OA
ATOM     12  H   UNL     1      43.061  39.808  50.225  1.00  0.00     0.211 HD
ENDBRANCH   4  11
BRANCH   6  13
ATOM     13  O   UNL     1      43.909  37.297  51.129  1.00  0.00    -0.387 OA
ATOM     14  H   UNL     1      42.972  37.487  51.404  1.00  0.00     0.211 HD
ENDBRANCH   6  13
BRANCH   7  15
ATOM     15  O   UNL     1      43.909  35.637  48.493  1.00  0.00    -0.385 OA
ATOM     16  H   UNL     1      44.434  34.843  48.210  1.00  0.00     0.211 HD
ENDBRANCH   7  15
ENDBRANCH   1   2
BRANCH   1  17
ATOM     17  C   UNL     1      47.288  35.905  46.629  1.00  0.00     0.224 C 
ATOM     18  C   UNL     1      47.509  35.439  45.169  1.00  0.00     0.208 C 
ATOM     19  O   UNL     1      47.636  34.834  47.484  1.00  0.00    -0.337 OA
ATOM     20  C   UNL     1      48.463  34.271  45.293  1.00  0.00     0.180 C 
ATOM     21  C   UNL     1      48.260  33.810  46.742  1.00  0.00     0.179 C 
BRANCH  17  22
ATOM     22  C   UNL     1      48.217  37.106  47.013  1.00  0.00     0.225 C 
BRANCH  22  23
ATOM     23  O   UNL     1      48.945  37.599  45.912  1.00  0.00    -0.391 OA
ATOM     24  H   UNL     1      48.902  38.592  45.934  1.00  0.00     0.210 HD
ENDBRANCH  22  23
ENDBRANCH  17  22
BRANCH  18  25
ATOM     25  O   UNL     1      46.300  35.044  44.550  1.00  0.00    -0.385 OA
ATOM     26  H   UNL     1      45.645  34.815  45.258  1.00  0.00     0.211 HD
ENDBRANCH  18  25
BRANCH  20  27
ATOM     27  O   UNL     1      49.784  34.714  45.111  1.00  0.00    -0.387 OA
ATOM     28  H   UNL     1      50.088  34.363  44.232  1.00  0.00     0.211 HD
ENDBRANCH  20  27
BRANCH  21  29
ATOM     29  C   UNL     1      47.403  32.537  46.852  1.00  0.00     0.191 C 
BRANCH  29  30
ATOM     30  O   UNL     1      46.796  32.232  45.620  1.00  0.00    -0.394 OA
ATOM     31  H   UNL     1      47.522  32.246  44.939  1.00  0.00     0.210 HD
ENDBRANCH  29  30
ENDBRANCH  21  29
ENDBRANCH   1  17
TORSDOF 13
ENDMDL
MODEL 7
REMARK VINA RESULT:    -4.612      1.671      5.934
REMARK INTER + INTRA:          -8.136
REMARK INTER:                  -7.024
REMARK INTRA:                  -1.112
REMARK UNBOUND:                -1.098
REMARK SMILES OC[C@@H]1O[C@H](O[C@@]2(CO)O[C@@H](CO)[C@H](O)[C@H]2O)[C@H](O)[C@@H](O)[C@@H]1O
REMARK SMILES IDX 6 1 5 2 3 3 22 4 4 5 20 6 18 7 2 8 1 9 23 11 21 13 19 15
REMARK SMILES IDX 7 17 16 18 10 19 14 20 11 21 8 22 9 23 17 25 15 27 12 29
REMARK SMILES IDX 13 30
REMARK H PARENT 1 10 23 12 21 14 19 16 9 24 17 26 15 28 13 31
REMARK Flexibility Score: inf
ROOT
ATOM      1  O   UNL     1      45.160  40.253  50.106  1.00  0.00    -0.313 OA
ENDROOT
BRANCH   1   2
ATOM      2  C   UNL     1      45.231  39.225  49.126  1.00  0.00     0.285 C 
ATOM      3  C   UNL     1      46.566  37.488  48.290  1.00  0.00     0.178 C 
ATOM      4  C   UNL     1      45.284  37.014  47.522  1.00  0.00     0.177 C 
ATOM      5  O   UNL     1      46.268  38.300  49.420  1.00  0.00    -0.341 OA
ATOM      6  C   UNL     1      44.061  37.058  48.466  1.00  0.00     0.179 C 
ATOM      7  C   UNL     1      43.885  38.464  49.089  1.00  0.00     0.202 C 
BRANCH   3   8
ATOM      8  C   UNL     1      47.458  36.327  48.766  1.00  0.00     0.191 C 
BRANCH   8   9
ATOM      9  O   UNL     1      48.245  35.821  47.720  1.00  0.00    -0.394 OA
ATOM     10  H   UNL     1      47.651  35.266  47.148  1.00  0.00     0.210 HD
ENDBRANCH   8   9
ENDBRANCH   3   8
BRANCH   4  11
ATOM     11  O   UNL     1      45.427  35.723  46.984  1.00  0.00    -0.387 OA
ATOM     12  H   UNL     1      44.751  35.148  47.427  1.00  0.00     0.211 HD
ENDBRANCH   4  11
BRANCH   6  13
ATOM     13  O   UNL     1      42.876  36.655  47.821  1.00  0.00    -0.387 OA
ATOM     14  H   UNL     1      43.102  35.940  47.167  1.00  0.00     0.211 HD
ENDBRANCH   6  13
BRANCH   7  15
ATOM     15  O   UNL     1      43.380  38.339  50.393  1.00  0.00    -0.385 OA
ATOM     16  H   UNL     1      43.239  37.370  50.557  1.00  0.00     0.211 HD
ENDBRANCH   7  15
ENDBRANCH   1   2
BRANCH   1  17
ATOM     17  C   UNL     1      45.498  41.567  49.654  1.00  0.00     0.224 C 
ATOM     18  C   UNL     1      47.029  41.704  49.465  1.00  0.00     0.208 C 
ATOM     19  O   UNL     1      45.105  42.456  50.681  1.00  0.00    -0.337 OA
ATOM     20  C   UNL     1      47.357  43.053  50.068  1.00  0.00     0.180 C 
ATOM     21  C   UNL     1      46.180  43.302  51.021  1.00  0.00     0.179 C 
BRANCH  17  22
ATOM     22  C   UNL     1      44.705  41.987  48.369  1.00  0.00     0.225 C 
BRANCH  22  23
ATOM     23  O   UNL     1      45.455  42.825  47.522  1.00  0.00    -0.391 OA
ATOM     24  H   UNL     1      44.824  43.433  47.053  1.00  0.00     0.210 HD
ENDBRANCH  22  23
ENDBRANCH  17  22
BRANCH  18  25
ATOM     25  O   UNL     1      47.738  40.670  50.120  1.00  0.00    -0.385 OA
ATOM     26  H   UNL     1      47.158  39.867  50.158  1.00  0.00     0.211 HD
ENDBRANCH  18  25
BRANCH  20  27
ATOM     27  O   UNL     1      47.375  44.033  49.061  1.00  0.00    -0.387 OA
ATOM     28  H   UNL     1      48.274  44.456  49.087  1.00  0.00     0.211 HD
ENDBRANCH  20  27
BRANCH  21  29
ATOM     29  C   UNL     1      46.542  43.061  52.497  1.00  0.00     0.191 C 
BRANCH  29  30
ATOM     30  O   UNL     1      46.478  41.692  52.813  1.00  0.00    -0.394 OA
ATOM     31  H   UNL     1      46.868  41.207  52.036  1.00  0.00     0.210 HD
ENDBRANCH  29  30
ENDBRANCH  21  29
ENDBRANCH   1  17
TORSDOF 13
ENDMDL
MODEL 8
REMARK VINA RESULT:    -4.553      2.477      5.049
REMARK INTER + INTRA:          -8.046
REMARK INTER:                  -7.040
REMARK INTRA:                  -1.006
REMARK UNBOUND:                -1.098
REMARK SMILES OC[C@@H]1O[C@H](O[C@@]2(CO)O[C@@H](CO)[C@H](O)[C@H]2O)[C@H](O)[C@@H](O)[C@@H]1O
REMARK SMILES IDX 6 1 5 2 3 3 22 4 4 5 20 6 18 7 2 8 1 9 23 11 21 13 19 15
REMARK SMILES IDX 7 17 16 18 10 19 14 20 11 21 8 22 9 23 17 25 15 27 12 29
REMARK SMILES IDX 13 30
REMARK H PARENT 1 10 23 12 21 14 19 16 9 24 17 26 15 28 13 31
REMARK Flexibility Score: inf
ROOT
ATOM      1  O   UNL     1      47.722  42.050  51.732  1.00  0.00    -0.313 OA
ENDROOT
BRANCH   1   2
ATOM      2  C   UNL     1      48.300  43.009  52.609  1.00  0.00     0.285 C 
ATOM      3  C   UNL     1      47.969  44.203  54.600  1.00  0.00     0.178 C 
ATOM      4  C   UNL     1      49.493  44.562  54.515  1.00  0.00     0.177 C 
ATOM      5  O   UNL     1      47.632  43.033  53.862  1.00  0.00    -0.341 OA
ATOM      6  C   UNL     1      50.309  43.300  54.151  1.00  0.00     0.179 C 
ATOM      7  C   UNL     1      49.786  42.651  52.846  1.00  0.00     0.202 C 
BRANCH   3   8
ATOM      8  C   UNL     1      47.466  44.010  56.042  1.00  0.00     0.191 C 
BRANCH   8   9
ATOM      9  O   UNL     1      48.076  42.906  56.657  1.00  0.00    -0.394 OA
ATOM     10  H   UNL     1      47.358  42.387  57.107  1.00  0.00     0.210 HD
ENDBRANCH   8   9
ENDBRANCH   3   8
BRANCH   4  11
ATOM     11  O   UNL     1      49.981  45.120  55.709  1.00  0.00    -0.387 OA
ATOM     12  H   UNL     1      50.243  46.056  55.504  1.00  0.00     0.211 HD
ENDBRANCH   4  11
BRANCH   6  13
ATOM     13  O   UNL     1      51.688  43.570  54.046  1.00  0.00    -0.387 OA
ATOM     14  H   UNL     1      51.820  44.554  54.109  1.00  0.00     0.211 HD
ENDBRANCH   6  13
BRANCH   7  15
ATOM     15  O   UNL     1      49.926  41.257  52.929  1.00  0.00    -0.385 OA
ATOM     16  H   UNL     1      49.095  40.906  53.344  1.00  0.00     0.211 HD
ENDBRANCH   7  15
ENDBRANCH   1   2
BRANCH   1  17
ATOM     17  C   UNL     1      47.076  42.578  50.571  1.00  0.00     0.224 C 
ATOM     18  C   UNL     1      45.682  43.147  50.933  1.00  0.00     0.208 C 
ATOM     19  O   UNL     1      46.886  41.489  49.689  1.00  0.00    -0.337 OA
ATOM     20  C   UNL     1      44.781  42.653  49.822  1.00  0.00     0.180 C 
ATOM     21  C   UNL     1      45.539  41.435  49.277  1.00  0.00     0.179 C 
BRANCH  17  22
ATOM     22  C   UNL     1      47.961  43.623  49.810  1.00  0.00     0.225 C 
BRANCH  22  23
ATOM     23  O   UNL     1      47.431  43.964  48.550  1.00  0.00    -0.391 OA
ATOM     24  H   UNL     1      47.132  44.911  48.588  1.00  0.00     0.210 HD
ENDBRANCH  22  23
ENDBRANCH  17  22
BRANCH  18  25
ATOM     25  O   UNL     1      45.233  42.688  52.193  1.00  0.00    -0.385 OA
ATOM     26  H   UNL     1      44.275  42.926  52.291  1.00  0.00     0.211 HD
ENDBRANCH  18  25
BRANCH  20  27
ATOM     27  O   UNL     1      44.670  43.636  48.824  1.00  0.00    -0.387 OA
ATOM     28  H   UNL     1      44.733  43.169  47.950  1.00  0.00     0.211 HD
ENDBRANCH  20  27
BRANCH  21  29
ATOM     29  C   UNL     1      44.939  40.098  49.743  1.00  0.00     0.191 C 
BRANCH  29  30
ATOM     30  O   UNL     1      44.221  40.260  50.942  1.00  0.00    -0.394 OA
ATOM     31  H   UNL     1      43.540  40.965  50.767  1.00  0.00     0.210 HD
ENDBRANCH  29  30
ENDBRANCH  21  29
ENDBRANCH   1  17
TORSDOF 13
ENDMDL
MODEL 9
REMARK VINA RESULT:    -4.550      2.000      5.919
REMARK INTER + INTRA:          -8.041
REMARK INTER:                  -6.674
REMARK INTRA:                  -1.367
REMARK UNBOUND:                -1.098
REMARK SMILES OC[C@@H]1O[C@H](O[C@@]2(CO)O[C@@H](CO)[C@H](O)[C@H]2O)[C@H](O)[C@@H](O)[C@@H]1O
REMARK SMILES IDX 6 1 5 2 3 3 22 4 4 5 20 6 18 7 2 8 1 9 23 11 21 13 19 15
REMARK SMILES IDX 7 17 16 18 10 19 14 20 11 21 8 22 9 23 17 25 15 27 12 29
REMARK SMILES IDX 13 30
REMARK H PARENT 1 10 23 12 21 14 19 16 9 24 17 26 15 28 13 31
REMARK Flexibility Score: inf
ROOT
ATOM      1  O   UNL     1      46.348  43.169  50.721  1.00  0.00    -0.313 OA
ENDROOT
BRANCH   1   2
ATOM      2  C   UNL     1      45.746  42.011  50.155  1.00  0.00     0.285 C 
ATOM      3  C   UNL     1      44.382  40.161  50.619  1.00  0.00     0.178 C 
ATOM      4  C   UNL     1      44.274  39.984  49.066  1.00  0.00     0.177 C 
ATOM      5  O   UNL     1      44.738  41.484  51.004  1.00  0.00    -0.341 OA
ATOM      6  C   UNL     1      44.019  41.355  48.398  1.00  0.00     0.179 C 
ATOM      7  C   UNL     1      45.107  42.382  48.797  1.00  0.00     0.202 C 
BRANCH   3   8
ATOM      8  C   UNL     1      43.094  39.782  51.370  1.00  0.00     0.191 C 
BRANCH   8   9
ATOM      9  O   UNL     1      42.987  38.393  51.540  1.00  0.00    -0.394 OA
ATOM     10  H   UNL     1      42.025  38.159  51.454  1.00  0.00     0.210 HD
ENDBRANCH   8   9
ENDBRANCH   3   8
BRANCH   4  11
ATOM     11  O   UNL     1      43.264  39.077  48.698  1.00  0.00    -0.387 OA
ATOM     12  H   UNL     1      43.184  39.119  47.709  1.00  0.00     0.211 HD
ENDBRANCH   4  11
BRANCH   6  13
ATOM     13  O   UNL     1      43.928  41.255  46.997  1.00  0.00    -0.387 OA
ATOM     14  H   UNL     1      44.154  40.324  46.732  1.00  0.00     0.211 HD
ENDBRANCH   6  13
BRANCH   7  15
ATOM     15  O   UNL     1      44.535  43.661  48.881  1.00  0.00    -0.385 OA
ATOM     16  H   UNL     1      45.177  44.235  49.373  1.00  0.00     0.211 HD
ENDBRANCH   7  15
ENDBRANCH   1   2
BRANCH   1  17
ATOM     17  C   UNL     1      47.676  42.998  51.224  1.00  0.00     0.224 C 
ATOM     18  C   UNL     1      48.671  43.908  50.463  1.00  0.00     0.208 C 
ATOM     19  O   UNL     1      48.030  41.654  50.967  1.00  0.00    -0.337 OA
ATOM     20  C   UNL     1      49.866  43.016  50.207  1.00  0.00     0.180 C 
ATOM     21  C   UNL     1      49.272  41.605  50.300  1.00  0.00     0.179 C 
BRANCH  17  22
ATOM     22  C   UNL     1      47.763  43.195  52.777  1.00  0.00     0.225 C 
BRANCH  22  23
ATOM     23  O   UNL     1      48.597  44.271  53.137  1.00  0.00    -0.391 OA
ATOM     24  H   UNL     1      48.200  45.105  52.770  1.00  0.00     0.210 HD
ENDBRANCH  22  23
ENDBRANCH  17  22
BRANCH  18  25
ATOM     25  O   UNL     1      48.127  44.388  49.249  1.00  0.00    -0.385 OA
ATOM     26  H   UNL     1      47.323  44.931  49.457  1.00  0.00     0.211 HD
ENDBRANCH  18  25
BRANCH  20  27
ATOM     27  O   UNL     1      50.825  43.201  51.219  1.00  0.00    -0.387 OA
ATOM     28  H   UNL     1      50.476  43.911  51.820  1.00  0.00     0.211 HD
ENDBRANCH  20  27
BRANCH  21  29
ATOM     29  C   UNL     1      49.061  40.950  48.924  1.00  0.00     0.191 C 
BRANCH  29  30
ATOM     30  O   UNL     1      49.301  41.872  47.888  1.00  0.00    -0.394 OA
ATOM     31  H   UNL     1      50.172  42.307  48.096  1.00  0.00     0.210 HD
ENDBRANCH  29  30
ENDBRANCH  21  29
ENDBRANCH   1  17
TORSDOF 13
ENDMDL
