MODEL 1
REMARK VINA RESULT:    -3.239      0.000      0.000
REMARK INTER + INTRA:          -3.924
REMARK INTER:                  -3.807
REMARK INTRA:                  -0.118
REMARK UNBOUND:                -0.118
REMARK SMILES O=C([O-])CCC(=O)[O-]
REMARK SMILES IDX 4 1 2 2 1 3 3 4 5 5 6 6 7 7 8 8
REMARK H PARENT
REMARK Flexibility Score: inf
ROOT
ATOM      1  C   UNL     1      -7.279  13.727   7.848  1.00  0.00     0.059 C 
ENDROOT
BRANCH   1   2
ATOM      2  C   UNL     1      -8.724  13.903   8.191  1.00  0.00     0.042 C 
ATOM      3  O   UNL     1      -9.530  12.946   8.051  1.00  0.00    -0.550 OA
ATOM      4  O   UNL     1      -9.191  15.140   8.618  1.00  0.00    -0.550 OA
ENDBRANCH   1   2
BRANCH   1   5
ATOM      5  C   UNL     1      -7.088  13.700   6.331  1.00  0.00     0.059 C 
BRANCH   5   6
ATOM      6  C   UNL     1      -6.608  15.029   5.840  1.00  0.00     0.042 C 
ATOM      7  O   UNL     1      -7.435  15.923   5.522  1.00  0.00    -0.550 OA
ATOM      8  O   UNL     1      -5.246  15.297   5.779  1.00  0.00    -0.550 OA
ENDBRANCH   5   6
ENDBRANCH   1   5
TORSDOF 3
ENDMDL
MODEL 2
REMARK VINA RESULT:    -3.238      5.535      7.248
REMARK INTER + INTRA:          -3.924
REMARK INTER:                  -3.798
REMARK INTRA:                  -0.126
REMARK UNBOUND:                -0.118
REMARK SMILES O=C([O-])CCC(=O)[O-]
REMARK SMILES IDX 4 1 2 2 1 3 3 4 5 5 6 6 7 7 8 8
REMARK H PARENT
REMARK Flexibility Score: inf
ROOT
ATOM      1  C   UNL     1      -8.456  17.642  12.182  1.00  0.00     0.059 C 
ENDROOT
BRANCH   1   2
ATOM      2  C   UNL     1      -9.519  17.499  11.140  1.00  0.00     0.042 C 
ATOM      3  O   UNL     1     -10.050  18.521  10.632  1.00  0.00    -0.550 OA
ATOM      4  O   UNL     1      -9.958  16.235  10.765  1.00  0.00    -0.550 OA
ENDBRANCH   1   2
BRANCH   1   5
ATOM      5  C   UNL     1      -9.071  17.625  13.582  1.00  0.00     0.059 C 
BRANCH   5   6
ATOM      6  C   UNL     1      -8.894  16.282  14.216  1.00  0.00     0.042 C 
ATOM      7  O   UNL     1      -9.767  15.388  14.064  1.00  0.00    -0.550 OA
ATOM      8  O   UNL     1      -7.739  16.001  14.936  1.00  0.00    -0.550 OA
ENDBRANCH   5   6
ENDBRANCH   1   5
TORSDOF 3
ENDMDL
MODEL 3
REMARK VINA RESULT:    -3.224      0.045      3.777
REMARK INTER + INTRA:          -3.908
REMARK INTER:                  -3.790
REMARK INTRA:                  -0.117
REMARK UNBOUND:                -0.118
REMARK SMILES O=C([O-])CCC(=O)[O-]
REMARK SMILES IDX 4 1 2 2 1 3 3 4 5 5 6 6 7 7 8 8
REMARK H PARENT
REMARK Flexibility Score: inf
ROOT
ATOM      1  C   UNL     1      -7.052  13.731   6.323  1.00  0.00     0.059 C 
ENDROOT
BRANCH   1   2
ATOM      2  C   UNL     1      -6.569  15.070   5.866  1.00  0.00     0.042 C 
ATOM      3  O   UNL     1      -7.393  15.951   5.504  1.00  0.00    -0.550 OA
ATOM      4  O   UNL     1      -5.206  15.329   5.792  1.00  0.00    -0.550 OA
ENDBRANCH   1   2
BRANCH   1   5
ATOM      5  C   UNL     1      -7.276  13.730   7.836  1.00  0.00     0.059 C 
BRANCH   5   6
ATOM      6  C   UNL     1      -8.725  13.925   8.152  1.00  0.00     0.042 C 
ATOM      7  O   UNL     1      -9.528  12.959   8.065  1.00  0.00    -0.550 OA
ATOM      8  O   UNL     1      -9.180  15.162   8.589  1.00  0.00    -0.550 OA
ENDBRANCH   5   6
ENDBRANCH   1   5
TORSDOF 3
ENDMDL
MODEL 4
REMARK VINA RESULT:    -3.204      5.453      6.802
REMARK INTER + INTRA:          -3.884
REMARK INTER:                  -3.793
REMARK INTRA:                  -0.091
REMARK UNBOUND:                -0.118
REMARK SMILES O=C([O-])CCC(=O)[O-]
REMARK SMILES IDX 4 1 2 2 1 3 3 4 5 5 6 6 7 7 8 8
REMARK H PARENT
REMARK Flexibility Score: inf
ROOT
ATOM      1  C   UNL     1      -8.995  17.595  13.694  1.00  0.00     0.059 C 
ENDROOT
BRANCH   1   2
ATOM      2  C   UNL     1      -8.816  16.241  14.304  1.00  0.00     0.042 C 
ATOM      3  O   UNL     1      -7.767  15.968  14.944  1.00  0.00    -0.550 OA
ATOM      4  O   UNL     1      -9.788  15.265  14.123  1.00  0.00    -0.550 OA
ENDBRANCH   1   2
BRANCH   1   5
ATOM      5  C   UNL     1      -8.429  17.622  12.274  1.00  0.00     0.059 C 
BRANCH   5   6
ATOM      6  C   UNL     1      -9.531  17.517  11.268  1.00  0.00     0.042 C 
ATOM      7  O   UNL     1     -10.488  18.335  11.289  1.00  0.00    -0.550 OA
ATOM      8  O   UNL     1      -9.476  16.546  10.276  1.00  0.00    -0.550 OA
ENDBRANCH   5   6
ENDBRANCH   1   5
TORSDOF 3
ENDMDL
MODEL 5
REMARK VINA RESULT:    -3.003      4.838      6.380
REMARK INTER + INTRA:          -3.648
REMARK INTER:                  -3.562
REMARK INTRA:                  -0.086
REMARK UNBOUND:                -0.118
REMARK SMILES O=C([O-])CCC(=O)[O-]
REMARK SMILES IDX 4 1 2 2 1 3 3 4 5 5 6 6 7 7 8 8
REMARK H PARENT
REMARK Flexibility Score: inf
ROOT
ATOM      1  C   UNL     1      -8.534  17.517  12.161  1.00  0.00     0.059 C 
ENDROOT
BRANCH   1   2
ATOM      2  C   UNL     1      -9.047  17.212  13.532  1.00  0.00     0.042 C 
ATOM      3  O   UNL     1     -10.254  17.424  13.819  1.00  0.00    -0.550 OA
ATOM      4  O   UNL     1      -8.179  16.740  14.509  1.00  0.00    -0.550 OA
ENDBRANCH   1   2
BRANCH   1   5
ATOM      5  C   UNL     1      -9.692  17.632  11.169  1.00  0.00     0.059 C 
BRANCH   5   6
ATOM      6  C   UNL     1      -9.969  16.308  10.530  1.00  0.00     0.042 C 
ATOM      7  O   UNL     1      -9.466  16.027   9.411  1.00  0.00    -0.550 OA
ATOM      8  O   UNL     1     -10.743  15.365  11.195  1.00  0.00    -0.550 OA
ENDBRANCH   5   6
ENDBRANCH   1   5
TORSDOF 3
ENDMDL
MODEL 6
REMARK VINA RESULT:    -2.998      1.587      3.595
REMARK INTER + INTRA:          -3.642
REMARK INTER:                  -3.532
REMARK INTRA:                  -0.110
REMARK UNBOUND:                -0.118
REMARK SMILES O=C([O-])CCC(=O)[O-]
REMARK SMILES IDX 4 1 2 2 1 3 3 4 5 5 6 6 7 7 8 8
REMARK H PARENT
REMARK Flexibility Score: inf
ROOT
ATOM      1  C   UNL     1      -7.699  13.765   7.893  1.00  0.00     0.059 C 
ENDROOT
BRANCH   1   2
ATOM      2  C   UNL     1      -7.487  13.867   6.415  1.00  0.00     0.042 C 
ATOM      3  O   UNL     1      -6.334  14.072   5.953  1.00  0.00    -0.550 OA
ATOM      4  O   UNL     1      -8.571  13.784   5.551  1.00  0.00    -0.550 OA
ENDBRANCH   1   2
BRANCH   1   5
ATOM      5  C   UNL     1      -9.185  13.896   8.231  1.00  0.00     0.059 C 
BRANCH   5   6
ATOM      6  C   UNL     1      -9.526  15.318   8.550  1.00  0.00     0.042 C 
ATOM      7  O   UNL     1      -9.474  15.731   9.738  1.00  0.00    -0.550 OA
ATOM      8  O   UNL     1      -9.853  16.199   7.527  1.00  0.00    -0.550 OA
ENDBRANCH   5   6
ENDBRANCH   1   5
TORSDOF 3
ENDMDL
MODEL 7
REMARK VINA RESULT:    -2.997      1.605      2.316
REMARK INTER + INTRA:          -3.640
REMARK INTER:                  -3.532
REMARK INTRA:                  -0.108
REMARK UNBOUND:                -0.118
REMARK SMILES O=C([O-])CCC(=O)[O-]
REMARK SMILES IDX 4 1 2 2 1 3 3 4 5 5 6 6 7 7 8 8
REMARK H PARENT
REMARK Flexibility Score: inf
ROOT
ATOM      1  C   UNL     1      -9.148  13.848   8.229  1.00  0.00     0.059 C 
ENDROOT
BRANCH   1   2
ATOM      2  C   UNL     1      -9.529  15.258   8.551  1.00  0.00     0.042 C 
ATOM      3  O   UNL     1      -9.494  15.668   9.741  1.00  0.00    -0.550 OA
ATOM      4  O   UNL     1      -9.970  16.106   7.543  1.00  0.00    -0.550 OA
ENDBRANCH   1   2
BRANCH   1   5
ATOM      5  C   UNL     1      -7.663  13.762   7.872  1.00  0.00     0.059 C 
BRANCH   5   6
ATOM      6  C   UNL     1      -7.474  13.868   6.392  1.00  0.00     0.042 C 
ATOM      7  O   UNL     1      -6.317  13.973   5.907  1.00  0.00    -0.550 OA
ATOM      8  O   UNL     1      -8.573  13.800   5.544  1.00  0.00    -0.550 OA
ENDBRANCH   5   6
ENDBRANCH   1   5
TORSDOF 3
ENDMDL
MODEL 8
REMARK VINA RESULT:    -2.988      4.785      6.679
REMARK INTER + INTRA:          -3.630
REMARK INTER:                  -3.536
REMARK INTRA:                  -0.094
REMARK UNBOUND:                -0.118
REMARK SMILES O=C([O-])CCC(=O)[O-]
REMARK SMILES IDX 4 1 2 2 1 3 3 4 5 5 6 6 7 7 8 8
REMARK H PARENT
REMARK Flexibility Score: inf
ROOT
ATOM      1  C   UNL     1      -9.756  17.909  10.879  1.00  0.00     0.059 C 
ENDROOT
BRANCH   1   2
ATOM      2  C   UNL     1     -10.038  16.693  10.054  1.00  0.00     0.042 C 
ATOM      3  O   UNL     1     -10.291  15.593  10.612  1.00  0.00    -0.550 OA
ATOM      4  O   UNL     1      -9.973  16.763   8.668  1.00  0.00    -0.550 OA
ENDBRANCH   1   2
BRANCH   1   5
ATOM      5  C   UNL     1      -8.708  17.600  11.947  1.00  0.00     0.059 C 
BRANCH   5   6
ATOM      6  C   UNL     1      -9.342  17.532  13.300  1.00  0.00     0.042 C 
ATOM      7  O   UNL     1      -8.630  17.580  14.338  1.00  0.00    -0.550 OA
ATOM      8  O   UNL     1     -10.725  17.465  13.416  1.00  0.00    -0.550 OA
ENDBRANCH   5   6
ENDBRANCH   1   5
TORSDOF 3
ENDMDL
MODEL 9
REMARK VINA RESULT:    -2.785     15.827     16.745
REMARK INTER + INTRA:          -3.392
REMARK INTER:                  -3.270
REMARK INTRA:                  -0.122
REMARK UNBOUND:                -0.118
REMARK SMILES O=C([O-])CCC(=O)[O-]
REMARK SMILES IDX 4 1 2 2 1 3 3 4 5 5 6 6 7 7 8 8
REMARK H PARENT
REMARK Flexibility Score: inf
ROOT
ATOM      1  C   UNL     1       6.179  10.342  15.830  1.00  0.00     0.059 C 
ENDROOT
BRANCH   1   2
ATOM      2  C   UNL     1       4.912  10.332  15.035  1.00  0.00     0.042 C 
ATOM      3  O   UNL     1       4.403   9.241  14.668  1.00  0.00    -0.550 OA
ATOM      4  O   UNL     1       4.320  11.531  14.656  1.00  0.00    -0.550 OA
ENDBRANCH   1   2
BRANCH   1   5
ATOM      5  C   UNL     1       6.526  11.766  16.268  1.00  0.00     0.059 C 
BRANCH   5   6
ATOM      6  C   UNL     1       6.170  11.973  17.706  1.00  0.00     0.042 C 
ATOM      7  O   UNL     1       5.001  12.313  18.027  1.00  0.00    -0.550 OA
ATOM      8  O   UNL     1       7.117  11.742  18.696  1.00  0.00    -0.550 OA
ENDBRANCH   5   6
ENDBRANCH   1   5
TORSDOF 3
ENDMDL
