MODEL 1
REMARK VINA RESULT:    -3.193      0.000      0.000
REMARK INTER + INTRA:          -4.586
REMARK INTER:                  -4.313
REMARK INTRA:                  -0.273
REMARK UNBOUND:                -0.273
REMARK SMILES CCCCCCCC(=O)[O-]
REMARK SMILES IDX 5 1 6 2 7 3 8 4 9 5 10 6 4 7 3 8 2 9 1 10
REMARK H PARENT
REMARK Flexibility Score: inf
ROOT
ATOM      1  C   UNL     1      53.050  18.995  86.385  1.00  0.00     0.000 C 
ENDROOT
BRANCH   1   2
ATOM      2  C   UNL     1      52.133  18.719  85.184  1.00  0.00     0.006 C 
BRANCH   2   3
ATOM      3  C   UNL     1      50.960  19.705  85.110  1.00  0.00     0.053 C 
BRANCH   3   4
ATOM      4  C   UNL     1      49.698  19.110  85.655  1.00  0.00     0.041 C 
ATOM      5  O   UNL     1      49.427  19.211  86.880  1.00  0.00    -0.550 OA
ATOM      6  O   UNL     1      48.804  18.473  84.802  1.00  0.00    -0.550 OA
ENDBRANCH   3   4
ENDBRANCH   2   3
ENDBRANCH   1   2
BRANCH   1   7
ATOM      7  C   UNL     1      54.326  18.143  86.309  1.00  0.00     0.000 C 
BRANCH   7   8
ATOM      8  C   UNL     1      54.867  18.013  84.877  1.00  0.00    -0.000 C 
BRANCH   8   9
ATOM      9  C   UNL     1      56.007  16.991  84.766  1.00  0.00    -0.003 C 
ATOM     10  C   UNL     1      56.124  16.158  86.039  1.00  0.00     0.004 C 
ENDBRANCH   8   9
ENDBRANCH   7   8
ENDBRANCH   1   7
TORSDOF 6
ENDMDL
MODEL 2
REMARK VINA RESULT:    -3.029     12.227     14.862
REMARK INTER + INTRA:          -4.364
REMARK INTER:                  -3.848
REMARK INTRA:                  -0.516
REMARK UNBOUND:                -0.273
REMARK SMILES CCCCCCCC(=O)[O-]
REMARK SMILES IDX 5 1 6 2 7 3 8 4 9 5 10 6 4 7 3 8 2 9 1 10
REMARK H PARENT
REMARK Flexibility Score: inf
ROOT
ATOM      1  C   UNL     1      39.481  21.733  78.913  1.00  0.00     0.000 C 
ENDROOT
BRANCH   1   2
ATOM      2  C   UNL     1      40.233  20.470  78.466  1.00  0.00     0.006 C 
BRANCH   2   3
ATOM      3  C   UNL     1      41.180  19.943  79.552  1.00  0.00     0.053 C 
BRANCH   3   4
ATOM      4  C   UNL     1      42.564  20.494  79.398  1.00  0.00     0.041 C 
ATOM      5  O   UNL     1      43.399  19.912  78.657  1.00  0.00    -0.550 OA
ATOM      6  O   UNL     1      42.922  21.670  80.047  1.00  0.00    -0.550 OA
ENDBRANCH   3   4
ENDBRANCH   2   3
ENDBRANCH   1   2
BRANCH   1   7
ATOM      7  C   UNL     1      38.787  21.509  80.265  1.00  0.00     0.000 C 
BRANCH   7   8
ATOM      8  C   UNL     1      37.422  20.817  80.123  1.00  0.00    -0.000 C 
BRANCH   8   9
ATOM      9  C   UNL     1      37.321  19.531  80.956  1.00  0.00    -0.003 C 
ATOM     10  C   UNL     1      37.499  18.294  80.081  1.00  0.00     0.004 C 
ENDBRANCH   8   9
ENDBRANCH   7   8
ENDBRANCH   1   7
TORSDOF 6
ENDMDL
MODEL 3
REMARK VINA RESULT:    -2.986     11.019     12.792
REMARK INTER + INTRA:          -4.307
REMARK INTER:                  -4.050
REMARK INTRA:                  -0.257
REMARK UNBOUND:                -0.273
REMARK SMILES CCCCCCCC(=O)[O-]
REMARK SMILES IDX 5 1 6 2 7 3 8 4 9 5 10 6 4 7 3 8 2 9 1 10
REMARK H PARENT
REMARK Flexibility Score: inf
ROOT
ATOM      1  C   UNL     1      44.625  20.810  78.841  1.00  0.00     0.000 C 
ENDROOT
BRANCH   1   2
ATOM      2  C   UNL     1      45.720  20.008  78.123  1.00  0.00     0.006 C 
BRANCH   2   3
ATOM      3  C   UNL     1      45.260  18.589  77.763  1.00  0.00     0.053 C 
BRANCH   3   4
ATOM      4  C   UNL     1      45.710  18.190  76.391  1.00  0.00     0.041 C 
ATOM      5  O   UNL     1      46.106  19.063  75.575  1.00  0.00    -0.550 OA
ATOM      6  O   UNL     1      45.723  16.849  76.026  1.00  0.00    -0.550 OA
ENDBRANCH   3   4
ENDBRANCH   2   3
ENDBRANCH   1   2
BRANCH   1   7
ATOM      7  C   UNL     1      43.228  20.306  78.447  1.00  0.00     0.000 C 
BRANCH   7   8
ATOM      8  C   UNL     1      42.209  20.427  79.591  1.00  0.00    -0.000 C 
BRANCH   8   9
ATOM      9  C   UNL     1      40.768  20.174  79.128  1.00  0.00    -0.003 C 
ATOM     10  C   UNL     1      40.419  21.039  77.920  1.00  0.00     0.004 C 
ENDBRANCH   8   9
ENDBRANCH   7   8
ENDBRANCH   1   7
TORSDOF 6
ENDMDL
MODEL 4
REMARK VINA RESULT:    -2.966     13.841     15.179
REMARK INTER + INTRA:          -4.280
REMARK INTER:                  -3.982
REMARK INTRA:                  -0.297
REMARK UNBOUND:                -0.273
REMARK SMILES CCCCCCCC(=O)[O-]
REMARK SMILES IDX 5 1 6 2 7 3 8 4 9 5 10 6 4 7 3 8 2 9 1 10
REMARK H PARENT
REMARK Flexibility Score: inf
ROOT
ATOM      1  C   UNL     1      46.927  31.372  90.328  1.00  0.00     0.000 C 
ENDROOT
BRANCH   1   2
ATOM      2  C   UNL     1      45.481  31.650  90.765  1.00  0.00     0.006 C 
BRANCH   2   3
ATOM      3  C   UNL     1      44.832  30.431  91.434  1.00  0.00     0.053 C 
BRANCH   3   4
ATOM      4  C   UNL     1      43.647  30.816  92.265  1.00  0.00     0.041 C 
ATOM      5  O   UNL     1      42.588  30.138  92.211  1.00  0.00    -0.550 OA
ATOM      6  O   UNL     1      43.724  31.907  93.123  1.00  0.00    -0.550 OA
ENDBRANCH   3   4
ENDBRANCH   2   3
ENDBRANCH   1   2
BRANCH   1   7
ATOM      7  C   UNL     1      47.280  29.888  90.509  1.00  0.00     0.000 C 
BRANCH   7   8
ATOM      8  C   UNL     1      48.769  29.666  90.816  1.00  0.00    -0.000 C 
BRANCH   8   9
ATOM      9  C   UNL     1      49.610  30.935  90.617  1.00  0.00    -0.003 C 
ATOM     10  C   UNL     1      50.483  31.213  91.837  1.00  0.00     0.004 C 
ENDBRANCH   8   9
ENDBRANCH   7   8
ENDBRANCH   1   7
TORSDOF 6
ENDMDL
MODEL 5
REMARK VINA RESULT:    -2.950     13.712     15.118
REMARK INTER + INTRA:          -4.259
REMARK INTER:                  -3.844
REMARK INTRA:                  -0.415
REMARK UNBOUND:                -0.273
REMARK SMILES CCCCCCCC(=O)[O-]
REMARK SMILES IDX 5 1 6 2 7 3 8 4 9 5 10 6 4 7 3 8 2 9 1 10
REMARK H PARENT
REMARK Flexibility Score: inf
ROOT
ATOM      1  C   UNL     1      41.062  20.021  79.754  1.00  0.00     0.000 C 
ENDROOT
BRANCH   1   2
ATOM      2  C   UNL     1      39.618  19.605  79.435  1.00  0.00     0.006 C 
BRANCH   2   3
ATOM      3  C   UNL     1      38.596  20.328  80.322  1.00  0.00     0.053 C 
BRANCH   3   4
ATOM      4  C   UNL     1      37.591  19.379  80.898  1.00  0.00     0.041 C 
ATOM      5  O   UNL     1      37.197  18.389  80.229  1.00  0.00    -0.550 OA
ATOM      6  O   UNL     1      37.113  19.571  82.189  1.00  0.00    -0.550 OA
ENDBRANCH   3   4
ENDBRANCH   2   3
ENDBRANCH   1   2
BRANCH   1   7
ATOM      7  C   UNL     1      41.618  20.954  78.668  1.00  0.00     0.000 C 
BRANCH   7   8
ATOM      8  C   UNL     1      40.668  21.099  77.468  1.00  0.00    -0.000 C 
BRANCH   8   9
ATOM      9  C   UNL     1      40.389  22.566  77.110  1.00  0.00    -0.003 C 
ATOM     10  C   UNL     1      39.352  23.173  78.050  1.00  0.00     0.004 C 
ENDBRANCH   8   9
ENDBRANCH   7   8
ENDBRANCH   1   7
TORSDOF 6
ENDMDL
MODEL 6
REMARK VINA RESULT:    -2.893     11.271     12.198
REMARK INTER + INTRA:          -4.181
REMARK INTER:                  -3.954
REMARK INTRA:                  -0.227
REMARK UNBOUND:                -0.273
REMARK SMILES CCCCCCCC(=O)[O-]
REMARK SMILES IDX 5 1 6 2 7 3 8 4 9 5 10 6 4 7 3 8 2 9 1 10
REMARK H PARENT
REMARK Flexibility Score: inf
ROOT
ATOM      1  C   UNL     1      43.281  21.227  79.515  1.00  0.00     0.000 C 
ENDROOT
BRANCH   1   2
ATOM      2  C   UNL     1      42.114  20.325  79.089  1.00  0.00     0.006 C 
BRANCH   2   3
ATOM      3  C   UNL     1      41.238  19.908  80.278  1.00  0.00     0.053 C 
BRANCH   3   4
ATOM      4  C   UNL     1      39.780  19.959  79.941  1.00  0.00     0.041 C 
ATOM      5  O   UNL     1      38.991  19.097  80.408  1.00  0.00    -0.550 OA
ATOM      6  O   UNL     1      39.287  20.980  79.136  1.00  0.00    -0.550 OA
ENDBRANCH   3   4
ENDBRANCH   2   3
ENDBRANCH   1   2
BRANCH   1   7
ATOM      7  C   UNL     1      44.596  20.766  78.868  1.00  0.00     0.000 C 
BRANCH   7   8
ATOM      8  C   UNL     1      44.430  19.484  78.037  1.00  0.00    -0.000 C 
BRANCH   8   9
ATOM      9  C   UNL     1      45.771  18.812  77.712  1.00  0.00    -0.003 C 
ATOM     10  C   UNL     1      45.571  17.586  76.825  1.00  0.00     0.004 C 
ENDBRANCH   8   9
ENDBRANCH   7   8
ENDBRANCH   1   7
TORSDOF 6
ENDMDL
MODEL 7
REMARK VINA RESULT:    -2.885     11.238     12.521
REMARK INTER + INTRA:          -4.170
REMARK INTER:                  -4.040
REMARK INTRA:                  -0.131
REMARK UNBOUND:                -0.273
REMARK SMILES CCCCCCCC(=O)[O-]
REMARK SMILES IDX 5 1 6 2 7 3 8 4 9 5 10 6 4 7 3 8 2 9 1 10
REMARK H PARENT
REMARK Flexibility Score: inf
ROOT
ATOM      1  C   UNL     1      52.866  21.066  73.877  1.00  0.00     0.000 C 
ENDROOT
BRANCH   1   2
ATOM      2  C   UNL     1      54.013  20.093  74.192  1.00  0.00     0.006 C 
BRANCH   2   3
ATOM      3  C   UNL     1      53.893  18.781  73.407  1.00  0.00     0.053 C 
BRANCH   3   4
ATOM      4  C   UNL     1      55.104  17.917  73.579  1.00  0.00     0.041 C 
ATOM      5  O   UNL     1      56.095  18.337  74.232  1.00  0.00    -0.550 OA
ATOM      6  O   UNL     1      55.126  16.634  73.045  1.00  0.00    -0.550 OA
ENDBRANCH   3   4
ENDBRANCH   2   3
ENDBRANCH   1   2
BRANCH   1   7
ATOM      7  C   UNL     1      52.438  21.836  75.136  1.00  0.00     0.000 C 
BRANCH   7   8
ATOM      8  C   UNL     1      50.942  22.186  75.137  1.00  0.00    -0.000 C 
BRANCH   8   9
ATOM      9  C   UNL     1      50.269  21.899  76.487  1.00  0.00    -0.003 C 
ATOM     10  C   UNL     1      48.833  21.418  76.294  1.00  0.00     0.004 C 
ENDBRANCH   8   9
ENDBRANCH   7   8
ENDBRANCH   1   7
TORSDOF 6
ENDMDL
MODEL 8
REMARK VINA RESULT:    -2.872     14.517     15.449
REMARK INTER + INTRA:          -4.153
REMARK INTER:                  -3.903
REMARK INTRA:                  -0.250
REMARK UNBOUND:                -0.273
REMARK SMILES CCCCCCCC(=O)[O-]
REMARK SMILES IDX 5 1 6 2 7 3 8 4 9 5 10 6 4 7 3 8 2 9 1 10
REMARK H PARENT
REMARK Flexibility Score: inf
ROOT
ATOM      1  C   UNL     1      46.728  29.741  90.770  1.00  0.00     0.000 C 
ENDROOT
BRANCH   1   2
ATOM      2  C   UNL     1      45.247  29.359  90.905  1.00  0.00     0.006 C 
BRANCH   2   3
ATOM      3  C   UNL     1      44.755  29.444  92.355  1.00  0.00     0.053 C 
BRANCH   3   4
ATOM      4  C   UNL     1      43.611  30.399  92.500  1.00  0.00     0.041 C 
ATOM      5  O   UNL     1      42.464  30.080  92.091  1.00  0.00    -0.550 OA
ATOM      6  O   UNL     1      43.804  31.629  93.118  1.00  0.00    -0.550 OA
ENDBRANCH   3   4
ENDBRANCH   2   3
ENDBRANCH   1   2
BRANCH   1   7
ATOM      7  C   UNL     1      46.888  31.254  90.555  1.00  0.00     0.000 C 
BRANCH   7   8
ATOM      8  C   UNL     1      46.399  31.711  89.171  1.00  0.00    -0.000 C 
BRANCH   8   9
ATOM      9  C   UNL     1      47.497  32.411  88.358  1.00  0.00    -0.003 C 
ATOM     10  C   UNL     1      47.699  31.730  87.008  1.00  0.00     0.004 C 
ENDBRANCH   8   9
ENDBRANCH   7   8
ENDBRANCH   1   7
TORSDOF 6
ENDMDL
MODEL 9
REMARK VINA RESULT:    -2.857     12.963     14.603
REMARK INTER + INTRA:          -4.133
REMARK INTER:                  -3.720
REMARK INTRA:                  -0.413
REMARK UNBOUND:                -0.273
REMARK SMILES CCCCCCCC(=O)[O-]
REMARK SMILES IDX 5 1 6 2 7 3 8 4 9 5 10 6 4 7 3 8 2 9 1 10
REMARK H PARENT
REMARK Flexibility Score: inf
ROOT
ATOM      1  C   UNL     1      39.361  21.847  78.870  1.00  0.00     0.000 C 
ENDROOT
BRANCH   1   2
ATOM      2  C   UNL     1      39.123  21.112  80.198  1.00  0.00     0.006 C 
BRANCH   2   3
ATOM      3  C   UNL     1      39.050  19.591  80.015  1.00  0.00     0.053 C 
BRANCH   3   4
ATOM      4  C   UNL     1      37.776  19.025  80.564  1.00  0.00     0.041 C 
ATOM      5  O   UNL     1      37.179  19.607  81.507  1.00  0.00    -0.550 OA
ATOM      6  O   UNL     1      37.232  17.872  80.011  1.00  0.00    -0.550 OA
ENDBRANCH   3   4
ENDBRANCH   2   3
ENDBRANCH   1   2
BRANCH   1   7
ATOM      7  C   UNL     1      40.314  21.050  77.965  1.00  0.00     0.000 C 
BRANCH   7   8
ATOM      8  C   UNL     1      41.515  21.883  77.491  1.00  0.00    -0.000 C 
BRANCH   8   9
ATOM      9  C   UNL     1      42.861  21.243  77.860  1.00  0.00    -0.003 C 
ATOM     10  C   UNL     1      42.675  20.125  78.882  1.00  0.00     0.004 C 
ENDBRANCH   8   9
ENDBRANCH   7   8
ENDBRANCH   1   7
TORSDOF 6
ENDMDL
