MODEL 1
REMARK VINA RESULT:    -4.448      0.000      0.000
REMARK INTER + INTRA:          -4.965
REMARK INTER:                  -4.838
REMARK INTRA:                  -0.127
REMARK UNBOUND:                -0.127
REMARK SMILES C=C(C)[C@@H]1CC[C@@H](C)C[C@H]1O
REMARK SMILES IDX 8 1 7 2 6 3 5 4 4 5 10 6 9 7 11 8 2 10 1 11 3 12
REMARK H PARENT 11 9
REMARK Flexibility Score: inf
ROOT
ATOM      1  C   UNL     1      10.248  -9.906  29.154  1.00  0.00     0.008 C 
ATOM      2  C   UNL     1      10.178  -8.631  28.306  1.00  0.00    -0.012 C 
ATOM      3  C   UNL     1       8.712  -8.226  28.061  1.00  0.00     0.004 C 
ATOM      4  C   UNL     1       8.626  -6.957  27.203  1.00  0.00     0.011 C 
ATOM      5  C   UNL     1       9.362  -7.145  25.862  1.00  0.00     0.043 C 
ATOM      6  C   UNL     1      10.836  -7.562  26.097  1.00  0.00     0.121 C 
ATOM      7  C   UNL     1      10.916  -8.831  26.969  1.00  0.00     0.035 C 
ENDROOT
BRANCH   6   8
ATOM      8  O   UNL     1      11.505  -7.765  24.877  1.00  0.00    -0.392 OA
ATOM      9  H   UNL     1      12.120  -8.535  24.995  1.00  0.00     0.210 HD
ENDBRANCH   6   8
BRANCH   5  10
ATOM     10  C   UNL     1       9.261  -5.893  24.999  1.00  0.00    -0.075 C 
ATOM     11  C   UNL     1       8.365  -5.802  24.001  1.00  0.00     0.008 C 
ATOM     12  C   UNL     1      10.171  -4.720  25.259  1.00  0.00     0.039 C 
ENDBRANCH   5  10
TORSDOF 2
ENDMDL
MODEL 2
REMARK VINA RESULT:    -4.444      2.211      3.344
REMARK INTER + INTRA:          -4.960
REMARK INTER:                  -4.774
REMARK INTRA:                  -0.186
REMARK UNBOUND:                -0.127
REMARK SMILES C=C(C)[C@@H]1CC[C@@H](C)C[C@H]1O
REMARK SMILES IDX 8 1 7 2 6 3 5 4 4 5 10 6 9 7 11 8 2 10 1 11 3 12
REMARK H PARENT 11 9
REMARK Flexibility Score: inf
ROOT
ATOM      1  C   UNL     1      12.833 -12.638  25.584  1.00  0.00     0.008 C 
ATOM      2  C   UNL     1      12.479 -11.191  25.941  1.00  0.00    -0.012 C 
ATOM      3  C   UNL     1      11.704 -11.138  27.272  1.00  0.00     0.004 C 
ATOM      4  C   UNL     1      11.333  -9.694  27.636  1.00  0.00     0.011 C 
ATOM      5  C   UNL     1      10.513  -9.033  26.511  1.00  0.00     0.043 C 
ATOM      6  C   UNL     1      11.280  -9.089  25.165  1.00  0.00     0.121 C 
ATOM      7  C   UNL     1      11.660 -10.540  24.810  1.00  0.00     0.035 C 
ENDROOT
BRANCH   6   8
ATOM      8  O   UNL     1      10.524  -8.515  24.129  1.00  0.00    -0.392 OA
ATOM      9  H   UNL     1       9.869  -7.893  24.542  1.00  0.00     0.210 HD
ENDBRANCH   6   8
BRANCH   5  10
ATOM     10  C   UNL     1      10.125  -7.606  26.880  1.00  0.00    -0.075 C 
ATOM     11  C   UNL     1       8.850  -7.275  27.147  1.00  0.00     0.008 C 
ATOM     12  C   UNL     1      11.180  -6.532  26.958  1.00  0.00     0.039 C 
ENDBRANCH   5  10
TORSDOF 2
ENDMDL
MODEL 3
REMARK VINA RESULT:    -4.413      2.034      4.311
REMARK INTER + INTRA:          -4.927
REMARK INTER:                  -4.748
REMARK INTRA:                  -0.179
REMARK UNBOUND:                -0.127
REMARK SMILES C=C(C)[C@@H]1CC[C@@H](C)C[C@H]1O
REMARK SMILES IDX 8 1 7 2 6 3 5 4 4 5 10 6 9 7 11 8 2 10 1 11 3 12
REMARK H PARENT 11 9
REMARK Flexibility Score: inf
ROOT
ATOM      1  C   UNL     1       8.669  -6.664  27.063  1.00  0.00     0.008 C 
ATOM      2  C   UNL     1       9.435  -7.950  26.736  1.00  0.00    -0.012 C 
ATOM      3  C   UNL     1      10.205  -8.448  27.974  1.00  0.00     0.004 C 
ATOM      4  C   UNL     1      10.987  -9.730  27.658  1.00  0.00     0.011 C 
ATOM      5  C   UNL     1      11.954  -9.511  26.478  1.00  0.00     0.043 C 
ATOM      6  C   UNL     1      11.191  -9.000  25.229  1.00  0.00     0.121 C 
ATOM      7  C   UNL     1      10.399  -7.719  25.556  1.00  0.00     0.035 C 
ENDROOT
BRANCH   6   8
ATOM      8  O   UNL     1      12.072  -8.769  24.159  1.00  0.00    -0.392 OA
ATOM      9  H   UNL     1      12.603  -9.597  24.021  1.00  0.00     0.210 HD
ENDBRANCH   6   8
BRANCH   5  10
ATOM     10  C   UNL     1      12.748 -10.776  26.176  1.00  0.00    -0.075 C 
ATOM     11  C   UNL     1      12.138 -11.964  26.021  1.00  0.00     0.008 C 
ATOM     12  C   UNL     1      14.247 -10.713  26.038  1.00  0.00     0.039 C 
ENDBRANCH   5  10
TORSDOF 2
ENDMDL
MODEL 4
REMARK VINA RESULT:    -4.318      6.837      9.035
REMARK INTER + INTRA:          -4.824
REMARK INTER:                  -4.640
REMARK INTRA:                  -0.185
REMARK UNBOUND:                -0.127
REMARK SMILES C=C(C)[C@@H]1CC[C@@H](C)C[C@H]1O
REMARK SMILES IDX 8 1 7 2 6 3 5 4 4 5 10 6 9 7 11 8 2 10 1 11 3 12
REMARK H PARENT 11 9
REMARK Flexibility Score: inf
ROOT
ATOM      1  C   UNL     1      11.149 -12.049  23.130  1.00  0.00     0.008 C 
ATOM      2  C   UNL     1      12.307 -12.700  23.894  1.00  0.00    -0.012 C 
ATOM      3  C   UNL     1      12.987 -13.777  23.027  1.00  0.00     0.004 C 
ATOM      4  C   UNL     1      14.142 -14.446  23.783  1.00  0.00     0.011 C 
ATOM      5  C   UNL     1      13.653 -15.057  25.111  1.00  0.00     0.043 C 
ATOM      6  C   UNL     1      12.959 -13.984  25.988  1.00  0.00     0.121 C 
ATOM      7  C   UNL     1      11.807 -13.307  25.218  1.00  0.00     0.035 C 
ENDROOT
BRANCH   6   8
ATOM      8  O   UNL     1      12.483 -14.542  27.187  1.00  0.00    -0.392 OA
ATOM      9  H   UNL     1      12.034 -15.399  26.964  1.00  0.00     0.210 HD
ENDBRANCH   6   8
BRANCH   5  10
ATOM     10  C   UNL     1      14.794 -15.741  25.855  1.00  0.00    -0.075 C 
ATOM     11  C   UNL     1      14.848 -17.078  25.975  1.00  0.00     0.008 C 
ATOM     12  C   UNL     1      15.897 -14.917  26.469  1.00  0.00     0.039 C 
ENDBRANCH   5  10
TORSDOF 2
ENDMDL
MODEL 5
REMARK VINA RESULT:    -4.295      1.718      2.501
REMARK INTER + INTRA:          -4.799
REMARK INTER:                  -4.615
REMARK INTRA:                  -0.184
REMARK UNBOUND:                -0.127
REMARK SMILES C=C(C)[C@@H]1CC[C@@H](C)C[C@H]1O
REMARK SMILES IDX 8 1 7 2 6 3 5 4 4 5 10 6 9 7 11 8 2 10 1 11 3 12
REMARK H PARENT 11 9
REMARK Flexibility Score: inf
ROOT
ATOM      1  C   UNL     1       9.862  -9.536  29.220  1.00  0.00     0.008 C 
ATOM      2  C   UNL     1       9.518  -8.775  27.935  1.00  0.00    -0.012 C 
ATOM      3  C   UNL     1      10.783  -8.135  27.332  1.00  0.00     0.004 C 
ATOM      4  C   UNL     1      10.452  -7.360  26.051  1.00  0.00     0.011 C 
ATOM      5  C   UNL     1       9.380  -6.283  26.317  1.00  0.00     0.043 C 
ATOM      6  C   UNL     1       8.106  -6.916  26.932  1.00  0.00     0.121 C 
ATOM      7  C   UNL     1       8.448  -7.703  28.213  1.00  0.00     0.035 C 
ENDROOT
BRANCH   6   8
ATOM      8  O   UNL     1       7.137  -5.935  27.205  1.00  0.00    -0.392 OA
ATOM      9  H   UNL     1       7.502  -5.060  26.911  1.00  0.00     0.210 HD
ENDBRANCH   6   8
BRANCH   5  10
ATOM     10  C   UNL     1       9.064  -5.498  25.050  1.00  0.00    -0.075 C 
ATOM     11  C   UNL     1       9.437  -4.213  24.912  1.00  0.00     0.008 C 
ATOM     12  C   UNL     1       8.325  -6.159  23.915  1.00  0.00     0.039 C 
ENDBRANCH   5  10
TORSDOF 2
ENDMDL
MODEL 6
REMARK VINA RESULT:    -4.271      3.912      5.886
REMARK INTER + INTRA:          -4.773
REMARK INTER:                  -4.579
REMARK INTRA:                  -0.194
REMARK UNBOUND:                -0.127
REMARK SMILES C=C(C)[C@@H]1CC[C@@H](C)C[C@H]1O
REMARK SMILES IDX 8 1 7 2 6 3 5 4 4 5 10 6 9 7 11 8 2 10 1 11 3 12
REMARK H PARENT 11 9
REMARK Flexibility Score: inf
ROOT
ATOM      1  C   UNL     1       9.747  -9.564  35.360  1.00  0.00     0.008 C 
ATOM      2  C   UNL     1       9.333  -9.282  33.912  1.00  0.00    -0.012 C 
ATOM      3  C   UNL     1       9.380 -10.576  33.077  1.00  0.00     0.004 C 
ATOM      4  C   UNL     1       8.978 -10.307  31.621  1.00  0.00     0.011 C 
ATOM      5  C   UNL     1       9.879  -9.227  30.989  1.00  0.00     0.043 C 
ATOM      6  C   UNL     1       9.846  -7.924  31.827  1.00  0.00     0.121 C 
ATOM      7  C   UNL     1      10.240  -8.203  33.291  1.00  0.00     0.035 C 
ENDROOT
BRANCH   6   8
ATOM      8  O   UNL     1      10.690  -6.946  31.273  1.00  0.00    -0.392 OA
ATOM      9  H   UNL     1      10.164  -6.441  30.599  1.00  0.00     0.210 HD
ENDBRANCH   6   8
BRANCH   5  10
ATOM     10  C   UNL     1       9.496  -8.973  29.536  1.00  0.00    -0.075 C 
ATOM     11  C   UNL     1      10.349  -9.237  28.531  1.00  0.00     0.008 C 
ATOM     12  C   UNL     1       8.135  -8.420  29.199  1.00  0.00     0.039 C 
ENDBRANCH   5  10
TORSDOF 2
ENDMDL
MODEL 7
REMARK VINA RESULT:    -4.256      1.875      4.630
REMARK INTER + INTRA:          -4.756
REMARK INTER:                  -4.725
REMARK INTRA:                  -0.031
REMARK UNBOUND:                -0.127
REMARK SMILES C=C(C)[C@@H]1CC[C@@H](C)C[C@H]1O
REMARK SMILES IDX 8 1 7 2 6 3 5 4 4 5 10 6 9 7 11 8 2 10 1 11 3 12
REMARK H PARENT 11 9
REMARK Flexibility Score: inf
ROOT
ATOM      1  C   UNL     1       9.075  -4.617  24.791  1.00  0.00     0.008 C 
ATOM      2  C   UNL     1       9.400  -5.499  26.001  1.00  0.00    -0.012 C 
ATOM      3  C   UNL     1      10.640  -6.369  25.716  1.00  0.00     0.004 C 
ATOM      4  C   UNL     1      10.971  -7.266  26.916  1.00  0.00     0.011 C 
ATOM      5  C   UNL     1       9.767  -8.154  27.291  1.00  0.00     0.043 C 
ATOM      6  C   UNL     1       8.512  -7.288  27.571  1.00  0.00     0.121 C 
ATOM      7  C   UNL     1       8.192  -6.381  26.367  1.00  0.00     0.035 C 
ENDROOT
BRANCH   6   8
ATOM      8  O   UNL     1       7.403  -8.093  27.884  1.00  0.00    -0.392 OA
ATOM      9  H   UNL     1       7.108  -8.538  27.047  1.00  0.00     0.210 HD
ENDBRANCH   6   8
BRANCH   5  10
ATOM     10  C   UNL     1      10.100  -9.062  28.469  1.00  0.00    -0.075 C 
ATOM     11  C   UNL     1      10.619 -10.287  28.283  1.00  0.00     0.008 C 
ATOM     12  C   UNL     1       9.855  -8.590  29.880  1.00  0.00     0.039 C 
ENDBRANCH   5  10
TORSDOF 2
ENDMDL
MODEL 8
REMARK VINA RESULT:    -4.254      3.278      5.348
REMARK INTER + INTRA:          -4.754
REMARK INTER:                  -4.562
REMARK INTRA:                  -0.191
REMARK UNBOUND:                -0.127
REMARK SMILES C=C(C)[C@@H]1CC[C@@H](C)C[C@H]1O
REMARK SMILES IDX 8 1 7 2 6 3 5 4 4 5 10 6 9 7 11 8 2 10 1 11 3 12
REMARK H PARENT 11 9
REMARK Flexibility Score: inf
ROOT
ATOM      1  C   UNL     1      10.043  -7.308  27.157  1.00  0.00     0.008 C 
ATOM      2  C   UNL     1      11.064  -8.366  26.726  1.00  0.00    -0.012 C 
ATOM      3  C   UNL     1      10.919  -8.674  25.223  1.00  0.00     0.004 C 
ATOM      4  C   UNL     1      11.928  -9.741  24.779  1.00  0.00     0.011 C 
ATOM      5  C   UNL     1      11.771 -11.031  25.608  1.00  0.00     0.043 C 
ATOM      6  C   UNL     1      11.906 -10.731  27.123  1.00  0.00     0.121 C 
ATOM      7  C   UNL     1      10.897  -9.650  27.561  1.00  0.00     0.035 C 
ENDROOT
BRANCH   6   8
ATOM      8  O   UNL     1      11.733 -11.898  27.886  1.00  0.00    -0.392 OA
ATOM      9  H   UNL     1      11.347 -12.593  27.291  1.00  0.00     0.210 HD
ENDBRANCH   6   8
BRANCH   5  10
ATOM     10  C   UNL     1      12.758 -12.100  25.155  1.00  0.00    -0.075 C 
ATOM     11  C   UNL     1      14.078 -11.852  25.096  1.00  0.00     0.008 C 
ATOM     12  C   UNL     1      12.264 -13.469  24.767  1.00  0.00     0.039 C 
ENDBRANCH   5  10
TORSDOF 2
ENDMDL
MODEL 9
REMARK VINA RESULT:    -4.220      1.520      4.415
REMARK INTER + INTRA:          -4.717
REMARK INTER:                  -4.523
REMARK INTRA:                  -0.195
REMARK UNBOUND:                -0.127
REMARK SMILES C=C(C)[C@@H]1CC[C@@H](C)C[C@H]1O
REMARK SMILES IDX 8 1 7 2 6 3 5 4 4 5 10 6 9 7 11 8 2 10 1 11 3 12
REMARK H PARENT 11 9
REMARK Flexibility Score: inf
ROOT
ATOM      1  C   UNL     1      10.103  -2.539  24.876  1.00  0.00     0.008 C 
ATOM      2  C   UNL     1      10.376  -4.047  24.880  1.00  0.00    -0.012 C 
ATOM      3  C   UNL     1       9.056  -4.833  25.003  1.00  0.00     0.004 C 
ATOM      4  C   UNL     1       9.315  -6.345  25.020  1.00  0.00     0.011 C 
ATOM      5  C   UNL     1      10.275  -6.729  26.163  1.00  0.00     0.043 C 
ATOM      6  C   UNL     1      11.603  -5.937  26.055  1.00  0.00     0.121 C 
ATOM      7  C   UNL     1      11.336  -4.419  26.026  1.00  0.00     0.035 C 
ENDROOT
BRANCH   6   8
ATOM      8  O   UNL     1      12.472  -6.260  27.112  1.00  0.00    -0.392 OA
ATOM      9  H   UNL     1      13.373  -6.413  26.725  1.00  0.00     0.210 HD
ENDBRANCH   6   8
BRANCH   5  10
ATOM     10  C   UNL     1      10.517  -8.233  26.196  1.00  0.00    -0.075 C 
ATOM     11  C   UNL     1      10.984  -8.890  25.120  1.00  0.00     0.008 C 
ATOM     12  C   UNL     1      10.238  -9.017  27.453  1.00  0.00     0.039 C 
ENDBRANCH   5  10
TORSDOF 2
ENDMDL
