MODEL 1
REMARK VINA RESULT:     8.154      0.000      0.000
REMARK INTER + INTRA:           8.869
REMARK INTER:                   8.869
REMARK INTRA:                   0.000
REMARK UNBOUND:                 0.000
REMARK SMILES Cc1cc(O)c2c(c1)C(=O)c1cc(O)cc(O)c1C2=O
REMARK SMILES IDX 1 1 2 2 8 3 7 4 6 5 4 6 3 7 19 8 20 9 18 10 11 11 9 12 10 13
REMARK SMILES IDX 12 14 13 15 15 16 16 17 5 18 17 20 14 22
REMARK H PARENT 5 19 17 21 14 23
REMARK Flexibility Score: inf
ROOT
ATOM      1  C   UNL     1      29.871  21.136  31.060  1.00  0.00     0.044 C 
ATOM      2  C   UNL     1      29.422  20.415  32.298  1.00  0.00    -0.047 A 
ATOM      3  C   UNL     1      28.059  20.238  32.556  1.00  0.00     0.016 A 
ATOM      4  C   UNL     1      27.629  19.525  33.687  1.00  0.00     0.038 A 
ATOM      5  C   UNL     1      28.580  18.952  34.564  1.00  0.00     0.076 A 
ATOM      6  C   UNL     1      29.962  19.187  34.327  1.00  0.00     0.127 A 
ATOM      7  C   UNL     1      30.364  19.878  33.180  1.00  0.00     0.050 A 
ATOM      8  C   UNL     1      28.090  18.072  35.662  1.00  0.00     0.201 C 
ATOM      9  O   UNL     1      28.864  17.229  36.191  1.00  0.00    -0.288 OA
ATOM     10  C   UNL     1      26.659  18.100  36.060  1.00  0.00     0.076 A 
ATOM     11  C   UNL     1      25.722  18.729  35.212  1.00  0.00     0.041 A 
ATOM     12  C   UNL     1      26.180  19.381  33.964  1.00  0.00     0.194 C 
ATOM     13  O   UNL     1      25.333  19.831  33.144  1.00  0.00    -0.289 OA
ATOM     14  C   UNL     1      24.359  18.731  35.555  1.00  0.00     0.059 A 
ATOM     15  C   UNL     1      23.924  18.120  36.736  1.00  0.00     0.120 A 
ATOM     16  C   UNL     1      24.848  17.505  37.580  1.00  0.00     0.093 A 
ATOM     17  C   UNL     1      26.211  17.490  37.255  1.00  0.00     0.131 A 
ENDROOT
BRANCH   6  18
ATOM     18  O   UNL     1      30.965  18.785  35.214  1.00  0.00    -0.507 OA
ATOM     19  H   UNL     1      30.896  17.972  35.807  1.00  0.00     0.293 HD
ENDBRANCH   6  18
BRANCH  17  20
ATOM     20  O   UNL     1      27.114  16.880  38.125  1.00  0.00    -0.507 OA
ATOM     21  H   UNL     1      27.692  16.100  37.833  1.00  0.00     0.293 HD
ENDBRANCH  17  20
BRANCH  15  22
ATOM     22  O   UNL     1      22.573  18.121  37.080  1.00  0.00    -0.508 OA
ATOM     23  H   UNL     1      22.263  17.853  38.006  1.00  0.00     0.293 HD
ENDBRANCH  15  22
TORSDOF 3
ENDMDL
MODEL 2
REMARK VINA RESULT:    10.568      1.321      6.221
REMARK INTER + INTRA:          11.494
REMARK INTER:                  11.494
REMARK INTRA:                   0.000
REMARK UNBOUND:                 0.000
REMARK SMILES Cc1cc(O)c2c(c1)C(=O)c1cc(O)cc(O)c1C2=O
REMARK SMILES IDX 1 1 2 2 8 3 7 4 6 5 4 6 3 7 19 8 20 9 18 10 11 11 9 12 10 13
REMARK SMILES IDX 12 14 13 15 15 16 16 17 5 18 17 20 14 22
REMARK H PARENT 5 19 17 21 14 23
REMARK Flexibility Score: inf
ROOT
ATOM      1  C   UNL     1      22.970  17.238  38.125  1.00  0.00     0.044 C 
ATOM      2  C   UNL     1      23.889  17.847  37.106  1.00  0.00    -0.047 A 
ATOM      3  C   UNL     1      25.246  17.510  37.091  1.00  0.00     0.016 A 
ATOM      4  C   UNL     1      26.107  18.037  36.114  1.00  0.00     0.038 A 
ATOM      5  C   UNL     1      25.596  18.897  35.113  1.00  0.00     0.076 A 
ATOM      6  C   UNL     1      24.228  19.281  35.171  1.00  0.00     0.127 A 
ATOM      7  C   UNL     1      23.388  18.722  36.138  1.00  0.00     0.050 A 
ATOM      8  C   UNL     1      26.501  19.309  34.004  1.00  0.00     0.201 C 
ATOM      9  O   UNL     1      26.020  19.706  32.909  1.00  0.00    -0.288 OA
ATOM     10  C   UNL     1      27.972  19.147  34.141  1.00  0.00     0.076 A 
ATOM     11  C   UNL     1      28.480  18.338  35.181  1.00  0.00     0.041 A 
ATOM     12  C   UNL     1      27.550  17.698  36.138  1.00  0.00     0.194 C 
ATOM     13  O   UNL     1      27.991  16.875  36.987  1.00  0.00    -0.289 OA
ATOM     14  C   UNL     1      29.867  18.143  35.300  1.00  0.00     0.059 A 
ATOM     15  C   UNL     1      30.749  18.750  34.400  1.00  0.00     0.120 A 
ATOM     16  C   UNL     1      30.251  19.556  33.377  1.00  0.00     0.093 A 
ATOM     17  C   UNL     1      28.872  19.762  33.240  1.00  0.00     0.131 A 
ENDROOT
BRANCH   6  18
ATOM     18  O   UNL     1      23.670  20.235  34.316  1.00  0.00    -0.507 OA
ATOM     19  H   UNL     1      24.195  20.737  33.616  1.00  0.00     0.293 HD
ENDBRANCH   6  18
BRANCH  17  20
ATOM     20  O   UNL     1      28.402  20.585  32.216  1.00  0.00    -0.507 OA
ATOM     21  H   UNL     1      28.131  20.211  31.313  1.00  0.00     0.293 HD
ENDBRANCH  17  20
BRANCH  15  22
ATOM     22  O   UNL     1      32.125  18.560  34.516  1.00  0.00    -0.508 OA
ATOM     23  H   UNL     1      32.707  19.207  35.035  1.00  0.00     0.293 HD
ENDBRANCH  15  22
TORSDOF 3
ENDMDL
