MODEL 1
REMARK VINA RESULT:    -2.924      0.000      0.000
REMARK INTER + INTRA:          -6.019
REMARK INTER:                  -4.633
REMARK INTRA:                  -1.386
REMARK UNBOUND:                -1.386
REMARK SMILES CCCCCCCCCCCC(=O)[O-]
REMARK SMILES IDX 7 1 8 2 9 3 10 4 11 5 12 6 13 7 14 8 6 9 5 10 4 11 3 12 2 13
REMARK SMILES IDX 1 14
REMARK H PARENT
REMARK Flexibility Score: inf
ROOT
ATOM      1  C   UNL     1      57.137  26.410  49.765  1.00  0.00     0.000 C 
ENDROOT
BRANCH   1   2
ATOM      2  C   UNL     1      56.870  26.721  51.250  1.00  0.00     0.000 C 
BRANCH   2   3
ATOM      3  C   UNL     1      56.540  28.205  51.522  1.00  0.00     0.000 C 
BRANCH   3   4
ATOM      4  C   UNL     1      56.427  29.029  50.228  1.00  0.00     0.006 C 
BRANCH   4   5
ATOM      5  C   UNL     1      54.977  29.428  49.920  1.00  0.00     0.053 C 
BRANCH   5   6
ATOM      6  C   UNL     1      54.475  30.467  50.875  1.00  0.00     0.041 C 
ATOM      7  O   UNL     1      53.302  30.398  51.329  1.00  0.00    -0.550 OA
ATOM      8  O   UNL     1      55.293  31.527  51.242  1.00  0.00    -0.550 OA
ENDBRANCH   5   6
ENDBRANCH   4   5
ENDBRANCH   3   4
ENDBRANCH   2   3
ENDBRANCH   1   2
BRANCH   1   9
ATOM      9  C   UNL     1      58.293  25.426  49.507  1.00  0.00     0.000 C 
BRANCH   9  10
ATOM     10  C   UNL     1      59.616  26.075  49.050  1.00  0.00    -0.000 C 
BRANCH  10  11
ATOM     11  C   UNL     1      59.518  27.571  48.696  1.00  0.00    -0.000 C 
BRANCH  11  12
ATOM     12  C   UNL     1      60.523  28.435  49.477  1.00  0.00    -0.000 C 
BRANCH  12  13
ATOM     13  C   UNL     1      60.387  28.265  50.998  1.00  0.00    -0.003 C 
ATOM     14  C   UNL     1      59.916  29.542  51.693  1.00  0.00     0.004 C 
ENDBRANCH  12  13
ENDBRANCH  11  12
ENDBRANCH  10  11
ENDBRANCH   9  10
ENDBRANCH   1   9
TORSDOF 10
ENDMDL
MODEL 2
REMARK VINA RESULT:    -2.904      9.340     10.612
REMARK INTER + INTRA:          -5.988
REMARK INTER:                  -4.631
REMARK INTRA:                  -1.356
REMARK UNBOUND:                -1.386
REMARK SMILES CCCCCCCCCCCC(=O)[O-]
REMARK SMILES IDX 7 1 8 2 9 3 10 4 11 5 12 6 13 7 14 8 6 9 5 10 4 11 3 12 2 13
REMARK SMILES IDX 1 14
REMARK H PARENT
REMARK Flexibility Score: inf
ROOT
ATOM      1  C   UNL     1      59.083  16.307  52.768  1.00  0.00     0.000 C 
ENDROOT
BRANCH   1   2
ATOM      2  C   UNL     1      58.313  17.592  53.128  1.00  0.00     0.000 C 
BRANCH   2   3
ATOM      3  C   UNL     1      57.012  17.333  53.918  1.00  0.00     0.000 C 
BRANCH   3   4
ATOM      4  C   UNL     1      55.878  18.291  53.513  1.00  0.00     0.006 C 
BRANCH   4   5
ATOM      5  C   UNL     1      56.174  19.014  52.192  1.00  0.00     0.053 C 
BRANCH   5   6
ATOM      6  C   UNL     1      54.958  19.089  51.319  1.00  0.00     0.041 C 
ATOM      7  O   UNL     1      53.909  19.643  51.739  1.00  0.00    -0.550 OA
ATOM      8  O   UNL     1      54.976  18.520  50.052  1.00  0.00    -0.550 OA
ENDBRANCH   5   6
ENDBRANCH   4   5
ENDBRANCH   3   4
ENDBRANCH   2   3
ENDBRANCH   1   2
BRANCH   1   9
ATOM      9  C   UNL     1      59.193  16.019  51.260  1.00  0.00     0.000 C 
BRANCH   9  10
ATOM     10  C   UNL     1      57.925  16.329  50.439  1.00  0.00    -0.000 C 
BRANCH  10  11
ATOM     11  C   UNL     1      58.083  17.449  49.395  1.00  0.00    -0.000 C 
BRANCH  11  12
ATOM     12  C   UNL     1      59.507  18.029  49.352  1.00  0.00    -0.000 C 
BRANCH  12  13
ATOM     13  C   UNL     1      59.619  19.369  50.095  1.00  0.00    -0.003 C 
ATOM     14  C   UNL     1      60.843  19.435  51.009  1.00  0.00     0.004 C 
ENDBRANCH  12  13
ENDBRANCH  11  12
ENDBRANCH  10  11
ENDBRANCH   9  10
ENDBRANCH   1   9
TORSDOF 10
ENDMDL
MODEL 3
REMARK VINA RESULT:    -2.901      8.912     10.818
REMARK INTER + INTRA:          -5.983
REMARK INTER:                  -4.339
REMARK INTRA:                  -1.644
REMARK UNBOUND:                -1.386
REMARK SMILES CCCCCCCCCCCC(=O)[O-]
REMARK SMILES IDX 7 1 8 2 9 3 10 4 11 5 12 6 13 7 14 8 6 9 5 10 4 11 3 12 2 13
REMARK SMILES IDX 1 14
REMARK H PARENT
REMARK Flexibility Score: inf
ROOT
ATOM      1  C   UNL     1      57.343  17.224  49.753  1.00  0.00     0.000 C 
ENDROOT
BRANCH   1   2
ATOM      2  C   UNL     1      58.673  17.830  49.266  1.00  0.00     0.000 C 
BRANCH   2   3
ATOM      3  C   UNL     1      59.888  17.432  50.133  1.00  0.00     0.000 C 
BRANCH   3   4
ATOM      4  C   UNL     1      60.457  18.620  50.927  1.00  0.00     0.006 C 
BRANCH   4   5
ATOM      5  C   UNL     1      59.909  19.965  50.430  1.00  0.00     0.053 C 
BRANCH   5   6
ATOM      6  C   UNL     1      60.922  20.707  49.611  1.00  0.00     0.041 C 
ATOM      7  O   UNL     1      62.075  20.920  50.069  1.00  0.00    -0.550 OA
ATOM      8  O   UNL     1      60.581  21.188  48.354  1.00  0.00    -0.550 OA
ENDBRANCH   5   6
ENDBRANCH   4   5
ENDBRANCH   3   4
ENDBRANCH   2   3
ENDBRANCH   1   2
BRANCH   1   9
ATOM      9  C   UNL     1      56.257  18.254  50.117  1.00  0.00     0.000 C 
BRANCH   9  10
ATOM     10  C   UNL     1      55.954  18.381  51.624  1.00  0.00    -0.000 C 
BRANCH  10  11
ATOM     11  C   UNL     1      56.819  19.408  52.377  1.00  0.00    -0.000 C 
BRANCH  11  12
ATOM     12  C   UNL     1      57.671  18.772  53.487  1.00  0.00    -0.000 C 
BRANCH  12  13
ATOM     13  C   UNL     1      57.566  17.239  53.503  1.00  0.00    -0.003 C 
ATOM     14  C   UNL     1      58.925  16.557  53.651  1.00  0.00     0.004 C 
ENDBRANCH  12  13
ENDBRANCH  11  12
ENDBRANCH  10  11
ENDBRANCH   9  10
ENDBRANCH   1   9
TORSDOF 10
ENDMDL
MODEL 4
REMARK VINA RESULT:    -2.883     10.129     12.127
REMARK INTER + INTRA:          -5.954
REMARK INTER:                  -5.241
REMARK INTRA:                  -0.713
REMARK UNBOUND:                -1.386
REMARK SMILES CCCCCCCCCCCC(=O)[O-]
REMARK SMILES IDX 7 1 8 2 9 3 10 4 11 5 12 6 13 7 14 8 6 9 5 10 4 11 3 12 2 13
REMARK SMILES IDX 1 14
REMARK H PARENT
REMARK Flexibility Score: inf
ROOT
ATOM      1  C   UNL     1      64.179  31.715  59.675  1.00  0.00     0.000 C 
ENDROOT
BRANCH   1   2
ATOM      2  C   UNL     1      64.431  30.223  59.967  1.00  0.00     0.000 C 
BRANCH   2   3
ATOM      3  C   UNL     1      63.513  29.645  61.066  1.00  0.00     0.000 C 
BRANCH   3   4
ATOM      4  C   UNL     1      62.497  28.632  60.511  1.00  0.00     0.006 C 
BRANCH   4   5
ATOM      5  C   UNL     1      61.049  29.034  60.823  1.00  0.00     0.053 C 
BRANCH   5   6
ATOM      6  C   UNL     1      60.082  28.400  59.871  1.00  0.00     0.041 C 
ATOM      7  O   UNL     1      59.572  27.280  60.136  1.00  0.00    -0.550 OA
ATOM      8  O   UNL     1      59.767  29.034  58.675  1.00  0.00    -0.550 OA
ENDBRANCH   5   6
ENDBRANCH   4   5
ENDBRANCH   3   4
ENDBRANCH   2   3
ENDBRANCH   1   2
BRANCH   1   9
ATOM      9  C   UNL     1      62.804  32.032  59.060  1.00  0.00     0.000 C 
BRANCH   9  10
ATOM     10  C   UNL     1      62.665  33.446  58.459  1.00  0.00    -0.000 C 
BRANCH  10  11
ATOM     11  C   UNL     1      63.373  34.561  59.250  1.00  0.00    -0.000 C 
BRANCH  11  12
ATOM     12  C   UNL     1      62.414  35.353  60.154  1.00  0.00    -0.000 C 
BRANCH  12  13
ATOM     13  C   UNL     1      63.063  35.758  61.486  1.00  0.00    -0.003 C 
ATOM     14  C   UNL     1      64.374  35.018  61.752  1.00  0.00     0.004 C 
ENDBRANCH  12  13
ENDBRANCH  11  12
ENDBRANCH  10  11
ENDBRANCH   9  10
ENDBRANCH   1   9
TORSDOF 10
ENDMDL
MODEL 5
REMARK VINA RESULT:    -2.860      8.871     10.669
REMARK INTER + INTRA:          -5.919
REMARK INTER:                  -4.456
REMARK INTRA:                  -1.463
REMARK UNBOUND:                -1.386
REMARK SMILES CCCCCCCCCCCC(=O)[O-]
REMARK SMILES IDX 7 1 8 2 9 3 10 4 11 5 12 6 13 7 14 8 6 9 5 10 4 11 3 12 2 13
REMARK SMILES IDX 1 14
REMARK H PARENT
REMARK Flexibility Score: inf
ROOT
ATOM      1  C   UNL     1      59.294  16.232  51.086  1.00  0.00     0.000 C 
ENDROOT
BRANCH   1   2
ATOM      2  C   UNL     1      60.237  17.411  50.781  1.00  0.00     0.000 C 
BRANCH   2   3
ATOM      3  C   UNL     1      60.634  18.226  52.031  1.00  0.00     0.000 C 
BRANCH   3   4
ATOM      4  C   UNL     1      60.967  19.690  51.698  1.00  0.00     0.006 C 
BRANCH   4   5
ATOM      5  C   UNL     1      60.118  20.227  50.537  1.00  0.00     0.053 C 
BRANCH   5   6
ATOM      6  C   UNL     1      60.968  20.860  49.478  1.00  0.00     0.041 C 
ATOM      7  O   UNL     1      60.522  21.009  48.310  1.00  0.00    -0.550 OA
ATOM      8  O   UNL     1      62.265  21.260  49.775  1.00  0.00    -0.550 OA
ENDBRANCH   5   6
ENDBRANCH   4   5
ENDBRANCH   3   4
ENDBRANCH   2   3
ENDBRANCH   1   2
BRANCH   1   9
ATOM      9  C   UNL     1      57.922  16.302  50.391  1.00  0.00     0.000 C 
BRANCH   9  10
ATOM     10  C   UNL     1      57.635  17.619  49.641  1.00  0.00    -0.000 C 
BRANCH  10  11
ATOM     11  C   UNL     1      56.236  18.214  49.883  1.00  0.00    -0.000 C 
BRANCH  11  12
ATOM     12  C   UNL     1      55.896  18.352  51.376  1.00  0.00    -0.000 C 
BRANCH  12  13
ATOM     13  C   UNL     1      56.822  19.340  52.101  1.00  0.00    -0.003 C 
ATOM     14  C   UNL     1      57.392  18.768  53.399  1.00  0.00     0.004 C 
ENDBRANCH  12  13
ENDBRANCH  11  12
ENDBRANCH  10  11
ENDBRANCH   9  10
ENDBRANCH   1   9
TORSDOF 10
ENDMDL
MODEL 6
REMARK VINA RESULT:    -2.837      9.516     11.663
REMARK INTER + INTRA:          -5.882
REMARK INTER:                  -5.014
REMARK INTRA:                  -0.868
REMARK UNBOUND:                -1.386
REMARK SMILES CCCCCCCCCCCC(=O)[O-]
REMARK SMILES IDX 7 1 8 2 9 3 10 4 11 5 12 6 13 7 14 8 6 9 5 10 4 11 3 12 2 13
REMARK SMILES IDX 1 14
REMARK H PARENT
REMARK Flexibility Score: inf
ROOT
ATOM      1  C   UNL     1      64.385  29.409  60.118  1.00  0.00     0.000 C 
ENDROOT
BRANCH   1   2
ATOM      2  C   UNL     1      63.162  28.472  60.116  1.00  0.00     0.000 C 
BRANCH   2   3
ATOM      3  C   UNL     1      62.087  28.856  61.156  1.00  0.00     0.000 C 
BRANCH   3   4
ATOM      4  C   UNL     1      60.731  29.183  60.507  1.00  0.00     0.006 C 
BRANCH   4   5
ATOM      5  C   UNL     1      60.766  29.024  58.981  1.00  0.00     0.053 C 
BRANCH   5   6
ATOM      6  C   UNL     1      60.709  30.350  58.285  1.00  0.00     0.041 C 
ATOM      7  O   UNL     1      59.730  31.120  58.466  1.00  0.00    -0.550 OA
ATOM      8  O   UNL     1      61.724  30.721  57.413  1.00  0.00    -0.550 OA
ENDBRANCH   5   6
ENDBRANCH   4   5
ENDBRANCH   3   4
ENDBRANCH   2   3
ENDBRANCH   1   2
BRANCH   1   9
ATOM      9  C   UNL     1      64.082  30.869  60.503  1.00  0.00     0.000 C 
BRANCH   9  10
ATOM     10  C   UNL     1      64.307  31.902  59.380  1.00  0.00    -0.000 C 
BRANCH  10  11
ATOM     11  C   UNL     1      63.362  33.117  59.416  1.00  0.00    -0.000 C 
BRANCH  11  12
ATOM     12  C   UNL     1      64.082  34.421  59.797  1.00  0.00    -0.000 C 
BRANCH  12  13
ATOM     13  C   UNL     1      64.608  34.402  61.240  1.00  0.00    -0.003 C 
ATOM     14  C   UNL     1      64.062  35.556  62.081  1.00  0.00     0.004 C 
ENDBRANCH  12  13
ENDBRANCH  11  12
ENDBRANCH  10  11
ENDBRANCH   9  10
ENDBRANCH   1   9
TORSDOF 10
ENDMDL
MODEL 7
REMARK VINA RESULT:    -2.834     10.180     11.382
REMARK INTER + INTRA:          -5.877
REMARK INTER:                  -4.463
REMARK INTRA:                  -1.414
REMARK UNBOUND:                -1.386
REMARK SMILES CCCCCCCCCCCC(=O)[O-]
REMARK SMILES IDX 7 1 8 2 9 3 10 4 11 5 12 6 13 7 14 8 6 9 5 10 4 11 3 12 2 13
REMARK SMILES IDX 1 14
REMARK H PARENT
REMARK Flexibility Score: inf
ROOT
ATOM      1  C   UNL     1      57.039  18.443  49.808  1.00  0.00     0.000 C 
ENDROOT
BRANCH   1   2
ATOM      2  C   UNL     1      55.953  18.082  50.839  1.00  0.00     0.000 C 
BRANCH   2   3
ATOM      3  C   UNL     1      55.826  19.106  51.988  1.00  0.00     0.000 C 
BRANCH   3   4
ATOM      4  C   UNL     1      54.710  18.740  52.981  1.00  0.00     0.006 C 
BRANCH   4   5
ATOM      5  C   UNL     1      55.199  17.779  54.074  1.00  0.00     0.053 C 
BRANCH   5   6
ATOM      6  C   UNL     1      54.062  17.027  54.697  1.00  0.00     0.041 C 
ATOM      7  O   UNL     1      52.876  17.413  54.527  1.00  0.00    -0.550 OA
ATOM      8  O   UNL     1      54.317  15.917  55.493  1.00  0.00    -0.550 OA
ENDBRANCH   5   6
ENDBRANCH   4   5
ENDBRANCH   3   4
ENDBRANCH   2   3
ENDBRANCH   1   2
BRANCH   1   9
ATOM      9  C   UNL     1      58.030  17.309  49.487  1.00  0.00     0.000 C 
BRANCH   9  10
ATOM     10  C   UNL     1      58.132  16.205  50.559  1.00  0.00    -0.000 C 
BRANCH  10  11
ATOM     11  C   UNL     1      59.222  16.429  51.622  1.00  0.00    -0.000 C 
BRANCH  11  12
ATOM     12  C   UNL     1      58.648  16.602  53.039  1.00  0.00    -0.000 C 
BRANCH  12  13
ATOM     13  C   UNL     1      58.913  18.003  53.612  1.00  0.00    -0.003 C 
ATOM     14  C   UNL     1      59.549  18.947  52.592  1.00  0.00     0.004 C 
ENDBRANCH  12  13
ENDBRANCH  11  12
ENDBRANCH  10  11
ENDBRANCH   9  10
ENDBRANCH   1   9
TORSDOF 10
ENDMDL
MODEL 8
REMARK VINA RESULT:    -2.809     13.207     15.429
REMARK INTER + INTRA:          -5.837
REMARK INTER:                  -4.453
REMARK INTRA:                  -1.384
REMARK UNBOUND:                -1.386
REMARK SMILES CCCCCCCCCCCC(=O)[O-]
REMARK SMILES IDX 7 1 8 2 9 3 10 4 11 5 12 6 13 7 14 8 6 9 5 10 4 11 3 12 2 13
REMARK SMILES IDX 1 14
REMARK H PARENT
REMARK Flexibility Score: inf
ROOT
ATOM      1  C   UNL     1      69.734  28.329  60.939  1.00  0.00     0.000 C 
ENDROOT
BRANCH   1   2
ATOM      2  C   UNL     1      69.929  27.345  59.770  1.00  0.00     0.000 C 
BRANCH   2   3
ATOM      3  C   UNL     1      69.240  27.794  58.462  1.00  0.00     0.000 C 
BRANCH   3   4
ATOM      4  C   UNL     1      68.326  29.014  58.668  1.00  0.00     0.006 C 
BRANCH   4   5
ATOM      5  C   UNL     1      66.844  28.668  58.467  1.00  0.00     0.053 C 
BRANCH   5   6
ATOM      6  C   UNL     1      66.035  28.971  59.691  1.00  0.00     0.041 C 
ATOM      7  O   UNL     1      66.123  28.234  60.708  1.00  0.00    -0.550 OA
ATOM      8  O   UNL     1      65.160  30.050  59.696  1.00  0.00    -0.550 OA
ENDBRANCH   5   6
ENDBRANCH   4   5
ENDBRANCH   3   4
ENDBRANCH   2   3
ENDBRANCH   1   2
BRANCH   1   9
ATOM      9  C   UNL     1      71.015  29.051  61.398  1.00  0.00     0.000 C 
BRANCH   9  10
ATOM     10  C   UNL     1      72.230  28.886  60.463  1.00  0.00    -0.000 C 
BRANCH  10  11
ATOM     11  C   UNL     1      72.720  30.185  59.797  1.00  0.00    -0.000 C 
BRANCH  11  12
ATOM     12  C   UNL     1      71.921  30.546  58.534  1.00  0.00    -0.000 C 
BRANCH  12  13
ATOM     13  C   UNL     1      70.886  31.652  58.791  1.00  0.00    -0.003 C 
ATOM     14  C   UNL     1      71.316  32.617  59.895  1.00  0.00     0.004 C 
ENDBRANCH  12  13
ENDBRANCH  11  12
ENDBRANCH  10  11
ENDBRANCH   9  10
ENDBRANCH   1   9
TORSDOF 10
ENDMDL
MODEL 9
REMARK VINA RESULT:    -2.781      9.258     11.281
REMARK INTER + INTRA:          -5.793
REMARK INTER:                  -4.289
REMARK INTRA:                  -1.503
REMARK UNBOUND:                -1.386
REMARK SMILES CCCCCCCCCCCC(=O)[O-]
REMARK SMILES IDX 7 1 8 2 9 3 10 4 11 5 12 6 13 7 14 8 6 9 5 10 4 11 3 12 2 13
REMARK SMILES IDX 1 14
REMARK H PARENT
REMARK Flexibility Score: inf
ROOT
ATOM      1  C   UNL     1      59.152  15.989  51.125  1.00  0.00     0.000 C 
ENDROOT
BRANCH   1   2
ATOM      2  C   UNL     1      57.796  16.279  50.455  1.00  0.00     0.000 C 
BRANCH   2   3
ATOM      3  C   UNL     1      57.879  17.311  49.310  1.00  0.00     0.000 C 
BRANCH   3   4
ATOM      4  C   UNL     1      59.306  17.848  49.104  1.00  0.00     0.006 C 
BRANCH   4   5
ATOM      5  C   UNL     1      59.382  19.372  49.269  1.00  0.00     0.053 C 
BRANCH   5   6
ATOM      6  C   UNL     1      60.024  19.756  50.567  1.00  0.00     0.041 C 
ATOM      7  O   UNL     1      59.630  20.774  51.194  1.00  0.00    -0.550 OA
ATOM      8  O   UNL     1      61.079  19.005  51.069  1.00  0.00    -0.550 OA
ENDBRANCH   5   6
ENDBRANCH   4   5
ENDBRANCH   3   4
ENDBRANCH   2   3
ENDBRANCH   1   2
BRANCH   1   9
ATOM      9  C   UNL     1      59.206  16.284  52.635  1.00  0.00     0.000 C 
BRANCH   9  10
ATOM     10  C   UNL     1      58.451  17.553  53.082  1.00  0.00    -0.000 C 
BRANCH  10  11
ATOM     11  C   UNL     1      57.241  17.302  53.999  1.00  0.00    -0.000 C 
BRANCH  11  12
ATOM     12  C   UNL     1      55.997  18.104  53.580  1.00  0.00    -0.000 C 
BRANCH  12  13
ATOM     13  C   UNL     1      56.268  19.025  52.380  1.00  0.00    -0.003 C 
ATOM     14  C   UNL     1      55.202  18.904  51.292  1.00  0.00     0.004 C 
ENDBRANCH  12  13
ENDBRANCH  11  12
ENDBRANCH  10  11
ENDBRANCH   9  10
ENDBRANCH   1   9
TORSDOF 10
ENDMDL
