MODEL 1
REMARK VINA RESULT:    -5.451      0.000      0.000
REMARK INTER + INTRA:          -6.042
REMARK INTER:                  -5.929
REMARK INTRA:                  -0.113
REMARK UNBOUND:                -0.113
REMARK SMILES C=C(C)[C@@H]1CC=C(C)[C@@H](O)C1
REMARK SMILES IDX 8 1 7 2 6 3 5 4 4 5 11 6 9 7 10 8 2 10 1 11 3 12
REMARK H PARENT 10 9
REMARK Flexibility Score: inf
ROOT
ATOM      1  C   UNL     1     137.466 123.461 137.771  1.00  0.00     0.042 C 
ATOM      2  C   UNL     1     136.369 123.730 138.772  1.00  0.00    -0.049 C 
ATOM      3  C   UNL     1     136.259 124.958 139.309  1.00  0.00    -0.025 C 
ATOM      4  C   UNL     1     135.177 125.237 140.315  1.00  0.00     0.035 C 
ATOM      5  C   UNL     1     135.120 124.109 141.371  1.00  0.00     0.021 C 
ATOM      6  C   UNL     1     135.256 122.676 140.762  1.00  0.00     0.044 C 
ATOM      7  C   UNL     1     135.385 122.662 139.222  1.00  0.00     0.140 C 
ENDROOT
BRANCH   7   8
ATOM      8  O   UNL     1     135.788 121.387 138.793  1.00  0.00    -0.389 OA
ATOM      9  H   UNL     1     136.219 120.946 139.572  1.00  0.00     0.211 HD
ENDBRANCH   7   8
BRANCH   5  10
ATOM     10  C   UNL     1     133.867 124.242 142.219  1.00  0.00    -0.077 C 
ATOM     11  C   UNL     1     133.588 123.294 143.125  1.00  0.00     0.008 C 
ATOM     12  C   UNL     1     132.951 125.432 142.071  1.00  0.00     0.039 C 
ENDBRANCH   5  10
TORSDOF 2
ENDMDL
MODEL 2
REMARK VINA RESULT:    -5.377      1.409      1.784
REMARK INTER + INTRA:          -5.961
REMARK INTER:                  -5.837
REMARK INTRA:                  -0.124
REMARK UNBOUND:                -0.113
REMARK SMILES C=C(C)[C@@H]1CC=C(C)[C@@H](O)C1
REMARK SMILES IDX 8 1 7 2 6 3 5 4 4 5 11 6 9 7 10 8 2 10 1 11 3 12
REMARK H PARENT 10 9
REMARK Flexibility Score: inf
ROOT
ATOM      1  C   UNL     1     137.964 124.115 138.160  1.00  0.00     0.042 C 
ATOM      2  C   UNL     1     136.778 124.086 139.092  1.00  0.00    -0.049 C 
ATOM      3  C   UNL     1     135.673 124.780 138.768  1.00  0.00    -0.025 C 
ATOM      4  C   UNL     1     134.487 124.767 139.692  1.00  0.00     0.035 C 
ATOM      5  C   UNL     1     134.940 124.998 141.152  1.00  0.00     0.021 C 
ATOM      6  C   UNL     1     136.229 124.203 141.540  1.00  0.00     0.044 C 
ATOM      7  C   UNL     1     136.780 123.315 140.402  1.00  0.00     0.140 C 
ENDROOT
BRANCH   7   8
ATOM      8  O   UNL     1     138.072 122.873 140.731  1.00  0.00    -0.389 OA
ATOM      9  H   UNL     1     138.249 122.069 140.175  1.00  0.00     0.211 HD
ENDBRANCH   7   8
BRANCH   5  10
ATOM     10  C   UNL     1     133.797 124.716 142.112  1.00  0.00    -0.077 C 
ATOM     11  C   UNL     1     132.707 125.496 142.078  1.00  0.00     0.008 C 
ATOM     12  C   UNL     1     133.864 123.560 143.080  1.00  0.00     0.039 C 
ENDBRANCH   5  10
TORSDOF 2
ENDMDL
MODEL 3
REMARK VINA RESULT:    -5.356      2.366      4.469
REMARK INTER + INTRA:          -5.939
REMARK INTER:                  -5.817
REMARK INTRA:                  -0.122
REMARK UNBOUND:                -0.113
REMARK SMILES C=C(C)[C@@H]1CC=C(C)[C@@H](O)C1
REMARK SMILES IDX 8 1 7 2 6 3 5 4 4 5 11 6 9 7 10 8 2 10 1 11 3 12
REMARK H PARENT 10 9
REMARK Flexibility Score: inf
ROOT
ATOM      1  C   UNL     1     136.331 124.494 144.381  1.00  0.00     0.042 C 
ATOM      2  C   UNL     1     136.263 124.220 142.898  1.00  0.00    -0.049 C 
ATOM      3  C   UNL     1     137.402 123.996 142.220  1.00  0.00    -0.025 C 
ATOM      4  C   UNL     1     137.349 123.731 140.741  1.00  0.00     0.035 C 
ATOM      5  C   UNL     1     136.422 124.753 140.044  1.00  0.00     0.021 C 
ATOM      6  C   UNL     1     135.096 125.028 140.826  1.00  0.00     0.044 C 
ATOM      7  C   UNL     1     134.955 124.202 142.124  1.00  0.00     0.140 C 
ENDROOT
BRANCH   7   8
ATOM      8  O   UNL     1     133.899 124.713 142.897  1.00  0.00    -0.389 OA
ATOM      9  H   UNL     1     134.071 124.435 143.835  1.00  0.00     0.211 HD
ENDBRANCH   7   8
BRANCH   5  10
ATOM     10  C   UNL     1     136.149 124.328 138.611  1.00  0.00    -0.077 C 
ATOM     11  C   UNL     1     134.921 124.497 138.102  1.00  0.00     0.008 C 
ATOM     12  C   UNL     1     137.245 123.743 137.753  1.00  0.00     0.039 C 
ENDBRANCH   5  10
TORSDOF 2
ENDMDL
MODEL 4
REMARK VINA RESULT:    -5.309      2.307      4.357
REMARK INTER + INTRA:          -5.887
REMARK INTER:                  -5.770
REMARK INTRA:                  -0.118
REMARK UNBOUND:                -0.113
REMARK SMILES C=C(C)[C@@H]1CC=C(C)[C@@H](O)C1
REMARK SMILES IDX 8 1 7 2 6 3 5 4 4 5 11 6 9 7 10 8 2 10 1 11 3 12
REMARK H PARENT 10 9
REMARK Flexibility Score: inf
ROOT
ATOM      1  C   UNL     1     136.015 124.327 144.478  1.00  0.00     0.042 C 
ATOM      2  C   UNL     1     135.950 124.500 142.981  1.00  0.00    -0.049 C 
ATOM      3  C   UNL     1     134.752 124.662 142.391  1.00  0.00    -0.025 C 
ATOM      4  C   UNL     1     134.673 124.826 140.899  1.00  0.00     0.035 C 
ATOM      5  C   UNL     1     135.556 123.772 140.193  1.00  0.00     0.021 C 
ATOM      6  C   UNL     1     136.948 123.567 140.873  1.00  0.00     0.044 C 
ATOM      7  C   UNL     1     137.186 124.482 142.096  1.00  0.00     0.140 C 
ENDROOT
BRANCH   7   8
ATOM      8  O   UNL     1     138.314 124.038 142.806  1.00  0.00    -0.389 OA
ATOM      9  H   UNL     1     138.256 124.439 143.712  1.00  0.00     0.211 HD
ENDBRANCH   7   8
BRANCH   5  10
ATOM     10  C   UNL     1     135.696 124.101 138.717  1.00  0.00    -0.077 C 
ATOM     11  C   UNL     1     134.715 124.777 138.102  1.00  0.00     0.008 C 
ATOM     12  C   UNL     1     136.929 123.699 137.945  1.00  0.00     0.039 C 
ENDBRANCH   5  10
TORSDOF 2
ENDMDL
MODEL 5
REMARK VINA RESULT:    -5.305      1.628      2.283
REMARK INTER + INTRA:          -5.883
REMARK INTER:                  -5.750
REMARK INTRA:                  -0.132
REMARK UNBOUND:                -0.113
REMARK SMILES C=C(C)[C@@H]1CC=C(C)[C@@H](O)C1
REMARK SMILES IDX 8 1 7 2 6 3 5 4 4 5 11 6 9 7 10 8 2 10 1 11 3 12
REMARK H PARENT 10 9
REMARK Flexibility Score: inf
ROOT
ATOM      1  C   UNL     1     137.231 123.549 137.378  1.00  0.00     0.042 C 
ATOM      2  C   UNL     1     136.661 123.546 138.775  1.00  0.00    -0.049 C 
ATOM      3  C   UNL     1     135.747 122.617 139.107  1.00  0.00    -0.025 C 
ATOM      4  C   UNL     1     135.164 122.609 140.493  1.00  0.00     0.035 C 
ATOM      5  C   UNL     1     134.754 124.038 140.914  1.00  0.00     0.021 C 
ATOM      6  C   UNL     1     135.804 125.129 140.526  1.00  0.00     0.044 C 
ATOM      7  C   UNL     1     137.062 124.564 139.830  1.00  0.00     0.140 C 
ENDROOT
BRANCH   7   8
ATOM      8  O   UNL     1     137.803 125.616 139.266  1.00  0.00    -0.389 OA
ATOM      9  H   UNL     1     137.180 126.124 138.684  1.00  0.00     0.211 HD
ENDBRANCH   7   8
BRANCH   5  10
ATOM     10  C   UNL     1     134.423 124.080 142.396  1.00  0.00    -0.077 C 
ATOM     11  C   UNL     1     135.365 124.473 143.265  1.00  0.00     0.008 C 
ATOM     12  C   UNL     1     133.048 123.707 142.896  1.00  0.00     0.039 C 
ENDBRANCH   5  10
TORSDOF 2
ENDMDL
MODEL 6
REMARK VINA RESULT:    -4.978      2.427      2.777
REMARK INTER + INTRA:          -5.527
REMARK INTER:                  -5.388
REMARK INTRA:                  -0.139
REMARK UNBOUND:                -0.113
REMARK SMILES C=C(C)[C@@H]1CC=C(C)[C@@H](O)C1
REMARK SMILES IDX 8 1 7 2 6 3 5 4 4 5 11 6 9 7 10 8 2 10 1 11 3 12
REMARK H PARENT 10 9
REMARK Flexibility Score: inf
ROOT
ATOM      1  C   UNL     1     139.014 123.623 140.637  1.00  0.00     0.042 C 
ATOM      2  C   UNL     1     137.583 123.627 141.115  1.00  0.00    -0.049 C 
ATOM      3  C   UNL     1     136.591 123.489 140.217  1.00  0.00    -0.025 C 
ATOM      4  C   UNL     1     135.161 123.500 140.679  1.00  0.00     0.035 C 
ATOM      5  C   UNL     1     134.923 124.666 141.667  1.00  0.00     0.021 C 
ATOM      6  C   UNL     1     136.072 124.843 142.711  1.00  0.00     0.044 C 
ATOM      7  C   UNL     1     137.204 123.800 142.577  1.00  0.00     0.140 C 
ENDROOT
BRANCH   7   8
ATOM      8  O   UNL     1     138.310 124.200 143.345  1.00  0.00    -0.389 OA
ATOM      9  H   UNL     1     138.590 123.410 143.876  1.00  0.00     0.211 HD
ENDBRANCH   7   8
BRANCH   5  10
ATOM     10  C   UNL     1     133.570 124.520 142.341  1.00  0.00    -0.077 C 
ATOM     11  C   UNL     1     133.352 123.474 143.150  1.00  0.00     0.008 C 
ATOM     12  C   UNL     1     132.483 125.547 142.130  1.00  0.00     0.039 C 
ENDBRANCH   5  10
TORSDOF 2
ENDMDL
MODEL 7
REMARK VINA RESULT:    -4.959      2.094      4.474
REMARK INTER + INTRA:          -5.507
REMARK INTER:                  -5.382
REMARK INTRA:                  -0.125
REMARK UNBOUND:                -0.113
REMARK SMILES C=C(C)[C@@H]1CC=C(C)[C@@H](O)C1
REMARK SMILES IDX 8 1 7 2 6 3 5 4 4 5 11 6 9 7 10 8 2 10 1 11 3 12
REMARK H PARENT 10 9
REMARK Flexibility Score: inf
ROOT
ATOM      1  C   UNL     1     132.970 125.006 142.275  1.00  0.00     0.042 C 
ATOM      2  C   UNL     1     134.247 124.913 141.476  1.00  0.00    -0.049 C 
ATOM      3  C   UNL     1     134.183 124.953 140.133  1.00  0.00    -0.025 C 
ATOM      4  C   UNL     1     135.446 124.852 139.324  1.00  0.00     0.035 C 
ATOM      5  C   UNL     1     136.334 123.702 139.853  1.00  0.00     0.021 C 
ATOM      6  C   UNL     1     136.410 123.638 141.413  1.00  0.00     0.044 C 
ATOM      7  C   UNL     1     135.613 124.756 142.122  1.00  0.00     0.140 C 
ENDROOT
BRANCH   7   8
ATOM      8  O   UNL     1     135.498 124.459 143.490  1.00  0.00    -0.389 OA
ATOM      9  H   UNL     1     135.040 123.579 143.553  1.00  0.00     0.211 HD
ENDBRANCH   7   8
BRANCH   5  10
ATOM     10  C   UNL     1     137.716 123.769 139.226  1.00  0.00    -0.077 C 
ATOM     11  C   UNL     1     138.794 123.782 140.022  1.00  0.00     0.008 C 
ATOM     12  C   UNL     1     137.888 123.798 137.726  1.00  0.00     0.039 C 
ENDBRANCH   5  10
TORSDOF 2
ENDMDL
MODEL 8
REMARK VINA RESULT:    -4.848      2.610      3.721
REMARK INTER + INTRA:          -5.386
REMARK INTER:                  -5.256
REMARK INTRA:                  -0.130
REMARK UNBOUND:                -0.113
REMARK SMILES C=C(C)[C@@H]1CC=C(C)[C@@H](O)C1
REMARK SMILES IDX 8 1 7 2 6 3 5 4 4 5 11 6 9 7 10 8 2 10 1 11 3 12
REMARK H PARENT 10 9
REMARK Flexibility Score: inf
ROOT
ATOM      1  C   UNL     1     139.802 123.891 141.416  1.00  0.00     0.042 C 
ATOM      2  C   UNL     1     138.538 123.787 140.598  1.00  0.00    -0.049 C 
ATOM      3  C   UNL     1     138.629 123.732 139.257  1.00  0.00    -0.025 C 
ATOM      4  C   UNL     1     137.377 123.637 138.430  1.00  0.00     0.035 C 
ATOM      5  C   UNL     1     136.327 124.659 138.923  1.00  0.00     0.021 C 
ATOM      6  C   UNL     1     136.218 124.740 140.480  1.00  0.00     0.044 C 
ATOM      7  C   UNL     1     137.153 123.760 141.223  1.00  0.00     0.140 C 
ENDROOT
BRANCH   7   8
ATOM      8  O   UNL     1     137.203 124.096 142.585  1.00  0.00    -0.389 OA
ATOM      9  H   UNL     1     136.711 123.385 143.074  1.00  0.00     0.211 HD
ENDBRANCH   7   8
BRANCH   5  10
ATOM     10  C   UNL     1     134.979 124.385 138.279  1.00  0.00    -0.077 C 
ATOM     11  C   UNL     1     134.662 123.129 137.935  1.00  0.00     0.008 C 
ATOM     12  C   UNL     1     133.989 125.500 138.046  1.00  0.00     0.039 C 
ENDBRANCH   5  10
TORSDOF 2
ENDMDL
MODEL 9
REMARK VINA RESULT:    -4.688      2.596      3.787
REMARK INTER + INTRA:          -5.212
REMARK INTER:                  -5.088
REMARK INTRA:                  -0.124
REMARK UNBOUND:                -0.113
REMARK SMILES C=C(C)[C@@H]1CC=C(C)[C@@H](O)C1
REMARK SMILES IDX 8 1 7 2 6 3 5 4 4 5 11 6 9 7 10 8 2 10 1 11 3 12
REMARK H PARENT 10 9
REMARK Flexibility Score: inf
ROOT
ATOM      1  C   UNL     1     133.947 125.217 138.120  1.00  0.00     0.042 C 
ATOM      2  C   UNL     1     135.174 124.970 138.963  1.00  0.00    -0.049 C 
ATOM      3  C   UNL     1     136.332 124.653 138.356  1.00  0.00    -0.025 C 
ATOM      4  C   UNL     1     137.560 124.395 139.184  1.00  0.00     0.035 C 
ATOM      5  C   UNL     1     137.224 123.463 140.370  1.00  0.00     0.021 C 
ATOM      6  C   UNL     1     135.876 123.815 141.079  1.00  0.00     0.044 C 
ATOM      7  C   UNL     1     135.159 125.046 140.481  1.00  0.00     0.140 C 
ENDROOT
BRANCH   7   8
ATOM      8  O   UNL     1     133.846 125.114 140.974  1.00  0.00    -0.389 OA
ATOM      9  H   UNL     1     133.254 125.266 140.191  1.00  0.00     0.211 HD
ENDBRANCH   7   8
BRANCH   5  10
ATOM     10  C   UNL     1     138.381 123.420 141.354  1.00  0.00    -0.077 C 
ATOM     11  C   UNL     1     139.581 122.995 140.933  1.00  0.00     0.008 C 
ATOM     12  C   UNL     1     138.202 123.870 142.783  1.00  0.00     0.039 C 
ENDBRANCH   5  10
TORSDOF 2
ENDMDL
