MODEL 1
REMARK VINA RESULT:    -3.552      0.000      0.000
REMARK INTER + INTRA:          -4.384
REMARK INTER:                  -4.279
REMARK INTRA:                  -0.105
REMARK UNBOUND:                -0.105
REMARK SMILES CC[C@H](C)[C@@H]([NH3+])C(=O)[O-]
REMARK SMILES IDX 3 1 4 2 5 3 6 4 7 8 8 9 9 10 2 11 1 12
REMARK H PARENT 6 5 6 6 6 7
REMARK Flexibility Score: inf
ROOT
ATOM      1  C   UNL     1      29.516  16.265  22.433  1.00  0.00     0.050 C 
ATOM      2  C   UNL     1      29.376  16.444  23.956  1.00  0.00     0.014 C 
ENDROOT
BRANCH   1   3
ATOM      3  C   UNL     1      29.093  17.539  21.631  1.00  0.00     0.230 C 
BRANCH   3   4
ATOM      4  N   UNL     1      29.407  18.793  22.333  1.00  0.00    -0.350 N 
ATOM      5  H   UNL     1      30.396  19.087  22.165  1.00  0.00     0.345 HD
ATOM      6  H   UNL     1      28.771  19.552  21.994  1.00  0.00     0.345 HD
ATOM      7  H   UNL     1      29.244  18.687  23.359  1.00  0.00     0.345 HD
ENDBRANCH   3   4
BRANCH   3   8
ATOM      8  C   UNL     1      29.700  17.534  20.248  1.00  0.00     0.099 C 
ATOM      9  O   UNL     1      30.948  17.447  20.111  1.00  0.00    -0.544 OA
ATOM     10  O   UNL     1      28.898  17.671  19.121  1.00  0.00    -0.544 OA
ENDBRANCH   3   8
ENDBRANCH   1   3
BRANCH   1  11
ATOM     11  C   UNL     1      28.773  14.978  21.997  1.00  0.00     0.006 C 
ATOM     12  C   UNL     1      27.279  14.997  22.319  1.00  0.00     0.004 C 
ENDBRANCH   1  11
TORSDOF 4
ENDMDL
MODEL 2
REMARK VINA RESULT:    -3.541      3.624      4.781
REMARK INTER + INTRA:          -4.371
REMARK INTER:                  -4.275
REMARK INTRA:                  -0.096
REMARK UNBOUND:                -0.105
REMARK SMILES CC[C@H](C)[C@@H]([NH3+])C(=O)[O-]
REMARK SMILES IDX 3 1 4 2 5 3 6 4 7 8 8 9 9 10 2 11 1 12
REMARK H PARENT 6 5 6 6 6 7
REMARK Flexibility Score: inf
ROOT
ATOM      1  C   UNL     1      30.432  17.394  18.619  1.00  0.00     0.050 C 
ATOM      2  C   UNL     1      30.523  17.556  20.147  1.00  0.00     0.014 C 
ENDROOT
BRANCH   1   3
ATOM      3  C   UNL     1      31.658  18.011  17.869  1.00  0.00     0.230 C 
BRANCH   3   4
ATOM      4  N   UNL     1      32.591  18.709  18.766  1.00  0.00    -0.350 N 
ATOM      5  H   UNL     1      33.567  18.351  18.656  1.00  0.00     0.345 HD
ATOM      6  H   UNL     1      32.585  19.732  18.549  1.00  0.00     0.345 HD
ATOM      7  H   UNL     1      32.290  18.600  19.760  1.00  0.00     0.345 HD
ENDBRANCH   3   4
BRANCH   3   8
ATOM      8  C   UNL     1      32.380  16.960  17.058  1.00  0.00     0.099 C 
ATOM      9  O   UNL     1      32.346  15.755  17.421  1.00  0.00    -0.544 OA
ATOM     10  O   UNL     1      33.124  17.315  15.939  1.00  0.00    -0.544 OA
ENDBRANCH   3   8
ENDBRANCH   1   3
BRANCH   1  11
ATOM     11  C   UNL     1      29.065  17.932  18.127  1.00  0.00     0.006 C 
ATOM     12  C   UNL     1      29.071  18.365  16.661  1.00  0.00     0.004 C 
ENDBRANCH   1  11
TORSDOF 4
ENDMDL
MODEL 3
REMARK VINA RESULT:    -3.415      3.032      3.801
REMARK INTER + INTRA:          -4.219
REMARK INTER:                  -4.159
REMARK INTRA:                  -0.061
REMARK UNBOUND:                -0.105
REMARK SMILES CC[C@H](C)[C@@H]([NH3+])C(=O)[O-]
REMARK SMILES IDX 3 1 4 2 5 3 6 4 7 8 8 9 9 10 2 11 1 12
REMARK H PARENT 6 5 6 6 6 7
REMARK Flexibility Score: inf
ROOT
ATOM      1  C   UNL     1      30.767  17.115  19.480  1.00  0.00     0.050 C 
ATOM      2  C   UNL     1      31.745  17.036  20.665  1.00  0.00     0.014 C 
ENDROOT
BRANCH   1   3
ATOM      3  C   UNL     1      31.289  18.024  18.320  1.00  0.00     0.230 C 
BRANCH   3   4
ATOM      4  N   UNL     1      32.587  18.648  18.617  1.00  0.00    -0.350 N 
ATOM      5  H   UNL     1      33.235  17.976  19.088  1.00  0.00     0.345 HD
ATOM      6  H   UNL     1      33.032  18.969  17.726  1.00  0.00     0.345 HD
ATOM      7  H   UNL     1      32.457  19.490  19.220  1.00  0.00     0.345 HD
ENDBRANCH   3   4
BRANCH   3   8
ATOM      8  C   UNL     1      31.348  17.260  17.018  1.00  0.00     0.099 C 
ATOM      9  O   UNL     1      32.422  16.706  16.664  1.00  0.00    -0.544 OA
ATOM     10  O   UNL     1      30.241  17.201  16.179  1.00  0.00    -0.544 OA
ENDBRANCH   3   8
ENDBRANCH   1   3
BRANCH   1  11
ATOM     11  C   UNL     1      29.363  17.512  19.999  1.00  0.00     0.006 C 
ATOM     12  C   UNL     1      29.334  17.841  21.492  1.00  0.00     0.004 C 
ENDBRANCH   1  11
TORSDOF 4
ENDMDL
MODEL 4
REMARK VINA RESULT:    -3.409      5.039      5.946
REMARK INTER + INTRA:          -4.212
REMARK INTER:                  -4.114
REMARK INTRA:                  -0.097
REMARK UNBOUND:                -0.105
REMARK SMILES CC[C@H](C)[C@@H]([NH3+])C(=O)[O-]
REMARK SMILES IDX 3 1 4 2 5 3 6 4 7 8 8 9 9 10 2 11 1 12
REMARK H PARENT 6 5 6 6 6 7
REMARK Flexibility Score: inf
ROOT
ATOM      1  C   UNL     1      31.208  17.103  16.139  1.00  0.00     0.050 C 
ATOM      2  C   UNL     1      31.808  16.332  14.949  1.00  0.00     0.014 C 
ENDROOT
BRANCH   1   3
ATOM      3  C   UNL     1      31.577  16.472  17.521  1.00  0.00     0.230 C 
BRANCH   3   4
ATOM      4  N   UNL     1      32.356  15.230  17.398  1.00  0.00    -0.350 N 
ATOM      5  H   UNL     1      33.281  15.403  16.942  1.00  0.00     0.345 HD
ATOM      6  H   UNL     1      32.524  14.827  18.348  1.00  0.00     0.345 HD
ATOM      7  H   UNL     1      31.823  14.519  16.848  1.00  0.00     0.345 HD
ENDBRANCH   3   4
BRANCH   3   8
ATOM      8  C   UNL     1      32.297  17.470  18.397  1.00  0.00     0.099 C 
ATOM      9  O   UNL     1      33.125  18.270  17.887  1.00  0.00    -0.544 OA
ATOM     10  O   UNL     1      32.092  17.485  19.772  1.00  0.00    -0.544 OA
ENDBRANCH   3   8
ENDBRANCH   1   3
BRANCH   1  11
ATOM     11  C   UNL     1      29.685  17.279  15.921  1.00  0.00     0.006 C 
ATOM     12  C   UNL     1      29.046  18.296  16.867  1.00  0.00     0.004 C 
ENDBRANCH   1  11
TORSDOF 4
ENDMDL
MODEL 5
REMARK VINA RESULT:    -3.375      4.591      5.884
REMARK INTER + INTRA:          -4.171
REMARK INTER:                  -4.085
REMARK INTRA:                  -0.086
REMARK UNBOUND:                -0.105
REMARK SMILES CC[C@H](C)[C@@H]([NH3+])C(=O)[O-]
REMARK SMILES IDX 3 1 4 2 5 3 6 4 7 8 8 9 9 10 2 11 1 12
REMARK H PARENT 6 5 6 6 6 7
REMARK Flexibility Score: inf
ROOT
ATOM      1  C   UNL     1      30.787  16.895  16.576  1.00  0.00     0.050 C 
ATOM      2  C   UNL     1      29.645  17.102  15.564  1.00  0.00     0.014 C 
ENDROOT
BRANCH   1   3
ATOM      3  C   UNL     1      30.853  18.023  17.657  1.00  0.00     0.230 C 
BRANCH   3   4
ATOM      4  N   UNL     1      29.607  18.158  18.425  1.00  0.00    -0.350 N 
ATOM      5  H   UNL     1      28.872  17.498  18.082  1.00  0.00     0.345 HD
ATOM      6  H   UNL     1      29.794  17.951  19.434  1.00  0.00     0.345 HD
ATOM      7  H   UNL     1      29.250  19.138  18.370  1.00  0.00     0.345 HD
ENDBRANCH   3   4
BRANCH   3   8
ATOM      8  C   UNL     1      32.031  17.818  18.581  1.00  0.00     0.099 C 
ATOM      9  O   UNL     1      32.008  16.889  19.430  1.00  0.00    -0.544 OA
ATOM     10  O   UNL     1      33.124  18.675  18.537  1.00  0.00    -0.544 OA
ENDBRANCH   3   8
ENDBRANCH   1   3
BRANCH   1  11
ATOM     11  C   UNL     1      32.118  16.685  15.811  1.00  0.00     0.006 C 
ATOM     12  C   UNL     1      31.930  16.438  14.314  1.00  0.00     0.004 C 
ENDBRANCH   1  11
TORSDOF 4
ENDMDL
MODEL 6
REMARK VINA RESULT:    -3.345      1.780      2.791
REMARK INTER + INTRA:          -4.134
REMARK INTER:                  -4.039
REMARK INTRA:                  -0.095
REMARK UNBOUND:                -0.105
REMARK SMILES CC[C@H](C)[C@@H]([NH3+])C(=O)[O-]
REMARK SMILES IDX 3 1 4 2 5 3 6 4 7 8 8 9 9 10 2 11 1 12
REMARK H PARENT 6 5 6 6 6 7
REMARK Flexibility Score: inf
ROOT
ATOM      1  C   UNL     1      29.141  17.508  21.213  1.00  0.00     0.050 C 
ATOM      2  C   UNL     1      28.602  16.164  21.737  1.00  0.00     0.014 C 
ENDROOT
BRANCH   1   3
ATOM      3  C   UNL     1      30.394  17.344  20.293  1.00  0.00     0.230 C 
BRANCH   3   4
ATOM      4  N   UNL     1      30.966  15.989  20.334  1.00  0.00    -0.350 N 
ATOM      5  H   UNL     1      30.256  15.267  20.075  1.00  0.00     0.345 HD
ATOM      6  H   UNL     1      31.765  15.927  19.662  1.00  0.00     0.345 HD
ATOM      7  H   UNL     1      31.343  15.783  21.286  1.00  0.00     0.345 HD
ENDBRANCH   3   4
BRANCH   3   8
ATOM      8  C   UNL     1      30.078  17.747  18.872  1.00  0.00     0.099 C 
ATOM      9  O   UNL     1      28.880  17.821  18.492  1.00  0.00    -0.544 OA
ATOM     10  O   UNL     1      31.098  17.994  17.961  1.00  0.00    -0.544 OA
ENDBRANCH   3   8
ENDBRANCH   1   3
BRANCH   1  11
ATOM     11  C   UNL     1      29.366  18.470  22.407  1.00  0.00     0.006 C 
ATOM     12  C   UNL     1      29.702  17.752  23.714  1.00  0.00     0.004 C 
ENDBRANCH   1  11
TORSDOF 4
ENDMDL
MODEL 7
REMARK VINA RESULT:    -3.301      2.494      4.170
REMARK INTER + INTRA:          -4.081
REMARK INTER:                  -3.993
REMARK INTRA:                  -0.088
REMARK UNBOUND:                -0.105
REMARK SMILES CC[C@H](C)[C@@H]([NH3+])C(=O)[O-]
REMARK SMILES IDX 3 1 4 2 5 3 6 4 7 8 8 9 9 10 2 11 1 12
REMARK H PARENT 6 5 6 6 6 7
REMARK Flexibility Score: inf
ROOT
ATOM      1  C   UNL     1      30.394  17.847  18.976  1.00  0.00     0.050 C 
ATOM      2  C   UNL     1      31.509  17.583  17.948  1.00  0.00     0.014 C 
ENDROOT
BRANCH   1   3
ATOM      3  C   UNL     1      30.446  16.870  20.195  1.00  0.00     0.230 C 
BRANCH   3   4
ATOM      4  N   UNL     1      31.789  16.754  20.783  1.00  0.00    -0.350 N 
ATOM      5  H   UNL     1      31.797  17.065  21.781  1.00  0.00     0.345 HD
ATOM      6  H   UNL     1      32.104  15.757  20.743  1.00  0.00     0.345 HD
ATOM      7  H   UNL     1      32.476  17.319  20.235  1.00  0.00     0.345 HD
ENDBRANCH   3   4
BRANCH   3   8
ATOM      8  C   UNL     1      29.434  17.261  21.246  1.00  0.00     0.099 C 
ATOM      9  O   UNL     1      29.492  18.399  21.780  1.00  0.00    -0.544 OA
ATOM     10  O   UNL     1      28.464  16.359  21.667  1.00  0.00    -0.544 OA
ENDBRANCH   3   8
ENDBRANCH   1   3
BRANCH   1  11
ATOM     11  C   UNL     1      29.024  17.868  18.252  1.00  0.00     0.006 C 
ATOM     12  C   UNL     1      29.107  18.345  16.801  1.00  0.00     0.004 C 
ENDBRANCH   1  11
TORSDOF 4
ENDMDL
MODEL 8
REMARK VINA RESULT:    -3.281      2.678      3.802
REMARK INTER + INTRA:          -4.058
REMARK INTER:                  -3.969
REMARK INTRA:                  -0.088
REMARK UNBOUND:                -0.105
REMARK SMILES CC[C@H](C)[C@@H]([NH3+])C(=O)[O-]
REMARK SMILES IDX 3 1 4 2 5 3 6 4 7 8 8 9 9 10 2 11 1 12
REMARK H PARENT 6 5 6 6 6 7
REMARK Flexibility Score: inf
ROOT
ATOM      1  C   UNL     1      29.136  17.140  20.986  1.00  0.00     0.050 C 
ATOM      2  C   UNL     1      29.374  18.224  22.053  1.00  0.00     0.014 C 
ENDROOT
BRANCH   1   3
ATOM      3  C   UNL     1      29.393  15.693  21.521  1.00  0.00     0.230 C 
BRANCH   3   4
ATOM      4  N   UNL     1      30.770  15.491  21.997  1.00  0.00    -0.350 N 
ATOM      5  H   UNL     1      30.805  15.394  23.037  1.00  0.00     0.345 HD
ATOM      6  H   UNL     1      31.163  14.621  21.568  1.00  0.00     0.345 HD
ATOM      7  H   UNL     1      31.378  16.286  21.699  1.00  0.00     0.345 HD
ENDBRANCH   3   4
BRANCH   3   8
ATOM      8  C   UNL     1      28.397  15.330  22.598  1.00  0.00     0.099 C 
ATOM      9  O   UNL     1      27.184  15.168  22.301  1.00  0.00    -0.544 OA
ATOM     10  O   UNL     1      28.796  15.218  23.924  1.00  0.00    -0.544 OA
ENDBRANCH   3   8
ENDBRANCH   1   3
BRANCH   1  11
ATOM     11  C   UNL     1      29.948  17.486  19.714  1.00  0.00     0.006 C 
ATOM     12  C   UNL     1      29.075  17.809  18.501  1.00  0.00     0.004 C 
ENDBRANCH   1  11
TORSDOF 4
ENDMDL
