MODEL 1
REMARK VINA RESULT:    -3.706      0.000      0.000
REMARK INTER + INTRA:          -4.536
REMARK INTER:                  -4.464
REMARK INTRA:                  -0.072
REMARK UNBOUND:                -0.072
REMARK SMILES CC[C@@H](C)[C@@H]([NH3+])C(=O)[O-]
REMARK SMILES IDX 3 1 4 2 5 3 6 4 7 8 8 9 9 10 2 11 1 12
REMARK H PARENT 6 5 6 6 6 7
REMARK Flexibility Score: inf
ROOT
ATOM      1  C   UNL     1     112.467 107.154 120.916  1.00  0.00     0.050 C 
ATOM      2  C   UNL     1     112.679 108.480 120.158  1.00  0.00     0.014 C 
ENDROOT
BRANCH   1   3
ATOM      3  C   UNL     1     111.804 107.354 122.315  1.00  0.00     0.230 C 
BRANCH   3   4
ATOM      4  N   UNL     1     110.656 106.458 122.515  1.00  0.00    -0.350 N 
ATOM      5  H   UNL     1     109.768 106.992 122.652  1.00  0.00     0.345 HD
ATOM      6  H   UNL     1     110.545 105.844 121.675  1.00  0.00     0.345 HD
ATOM      7  H   UNL     1     110.820 105.843 123.345  1.00  0.00     0.345 HD
ENDBRANCH   3   4
BRANCH   3   8
ATOM      8  C   UNL     1     112.794 107.215 123.448  1.00  0.00     0.099 C 
ATOM      9  O   UNL     1     112.405 106.824 124.580  1.00  0.00    -0.544 OA
ATOM     10  O   UNL     1     114.132 107.546 123.264  1.00  0.00    -0.544 OA
ENDBRANCH   3   8
ENDBRANCH   1   3
BRANCH   1  11
ATOM     11  C   UNL     1     111.652 106.147 120.064  1.00  0.00     0.006 C 
ATOM     12  C   UNL     1     112.391 105.689 118.806  1.00  0.00     0.004 C 
ENDBRANCH   1  11
TORSDOF 4
ENDMDL
MODEL 2
REMARK VINA RESULT:    -3.608      1.732      2.338
REMARK INTER + INTRA:          -4.418
REMARK INTER:                  -4.263
REMARK INTRA:                  -0.155
REMARK UNBOUND:                -0.072
REMARK SMILES CC[C@@H](C)[C@@H]([NH3+])C(=O)[O-]
REMARK SMILES IDX 3 1 4 2 5 3 6 4 7 8 8 9 9 10 2 11 1 12
REMARK H PARENT 6 5 6 6 6 7
REMARK Flexibility Score: inf
ROOT
ATOM      1  C   UNL     1     112.665 108.041 122.165  1.00  0.00     0.050 C 
ATOM      2  C   UNL     1     112.542 109.386 121.420  1.00  0.00     0.014 C 
ENDROOT
BRANCH   1   3
ATOM      3  C   UNL     1     111.285 107.471 122.619  1.00  0.00     0.230 C 
BRANCH   3   4
ATOM      4  N   UNL     1     110.831 106.373 121.753  1.00  0.00    -0.350 N 
ATOM      5  H   UNL     1     111.562 106.102 121.056  1.00  0.00     0.345 HD
ATOM      6  H   UNL     1     110.609 105.536 122.340  1.00  0.00     0.345 HD
ATOM      7  H   UNL     1     109.959 106.652 121.246  1.00  0.00     0.345 HD
ENDBRANCH   3   4
BRANCH   3   8
ATOM      8  C   UNL     1     111.285 107.043 124.068  1.00  0.00     0.099 C 
ATOM      9  O   UNL     1     112.373 106.947 124.696  1.00  0.00    -0.544 OA
ATOM     10  O   UNL     1     110.095 106.722 124.711  1.00  0.00    -0.544 OA
ENDBRANCH   3   8
ENDBRANCH   1   3
BRANCH   1  11
ATOM     11  C   UNL     1     113.435 106.999 121.314  1.00  0.00     0.006 C 
ATOM     12  C   UNL     1     114.678 106.450 122.016  1.00  0.00     0.004 C 
ENDBRANCH   1  11
TORSDOF 4
ENDMDL
MODEL 3
REMARK VINA RESULT:    -3.534      1.821      2.055
REMARK INTER + INTRA:          -4.328
REMARK INTER:                  -4.290
REMARK INTRA:                  -0.038
REMARK UNBOUND:                -0.072
REMARK SMILES CC[C@@H](C)[C@@H]([NH3+])C(=O)[O-]
REMARK SMILES IDX 3 1 4 2 5 3 6 4 7 8 8 9 9 10 2 11 1 12
REMARK H PARENT 6 5 6 6 6 7
REMARK Flexibility Score: inf
ROOT
ATOM      1  C   UNL     1     113.196 107.512 120.961  1.00  0.00     0.050 C 
ATOM      2  C   UNL     1     112.730 108.958 121.227  1.00  0.00     0.014 C 
ENDROOT
BRANCH   1   3
ATOM      3  C   UNL     1     113.799 106.827 122.228  1.00  0.00     0.230 C 
BRANCH   3   4
ATOM      4  N   UNL     1     115.260 106.977 122.293  1.00  0.00    -0.350 N 
ATOM      5  H   UNL     1     115.749 106.062 122.161  1.00  0.00     0.345 HD
ATOM      6  H   UNL     1     115.576 107.630 121.539  1.00  0.00     0.345 HD
ATOM      7  H   UNL     1     115.539 107.387 123.214  1.00  0.00     0.345 HD
ENDBRANCH   3   4
BRANCH   3   8
ATOM      8  C   UNL     1     113.155 107.309 123.507  1.00  0.00     0.099 C 
ATOM      9  O   UNL     1     113.794 108.060 124.290  1.00  0.00    -0.544 OA
ATOM     10  O   UNL     1     111.869 106.905 123.848  1.00  0.00    -0.544 OA
ENDBRANCH   3   8
ENDBRANCH   1   3
BRANCH   1  11
ATOM     11  C   UNL     1     112.049 106.655 120.369  1.00  0.00     0.006 C 
ATOM     12  C   UNL     1     112.447 105.923 119.086  1.00  0.00     0.004 C 
ENDBRANCH   1  11
TORSDOF 4
ENDMDL
MODEL 4
REMARK VINA RESULT:    -3.489      2.741      3.928
REMARK INTER + INTRA:          -4.275
REMARK INTER:                  -4.182
REMARK INTRA:                  -0.093
REMARK UNBOUND:                -0.072
REMARK SMILES CC[C@@H](C)[C@@H]([NH3+])C(=O)[O-]
REMARK SMILES IDX 3 1 4 2 5 3 6 4 7 8 8 9 9 10 2 11 1 12
REMARK H PARENT 6 5 6 6 6 7
REMARK Flexibility Score: inf
ROOT
ATOM      1  C   UNL     1     112.844 107.543 121.619  1.00  0.00     0.050 C 
ATOM      2  C   UNL     1     114.163 106.846 122.008  1.00  0.00     0.014 C 
ENDROOT
BRANCH   1   3
ATOM      3  C   UNL     1     112.064 106.785 120.500  1.00  0.00     0.230 C 
BRANCH   3   4
ATOM      4  N   UNL     1     110.870 106.105 121.024  1.00  0.00    -0.350 N 
ATOM      5  H   UNL     1     110.002 106.414 120.531  1.00  0.00     0.345 HD
ATOM      6  H   UNL     1     110.973 105.072 120.893  1.00  0.00     0.345 HD
ATOM      7  H   UNL     1     110.770 106.292 122.048  1.00  0.00     0.345 HD
ENDBRANCH   3   4
BRANCH   3   8
ATOM      8  C   UNL     1     111.702 107.682 119.339  1.00  0.00     0.099 C 
ATOM      9  O   UNL     1     111.430 108.895 119.541  1.00  0.00    -0.544 OA
ATOM     10  O   UNL     1     111.634 107.174 118.047  1.00  0.00    -0.544 OA
ENDBRANCH   3   8
ENDBRANCH   1   3
BRANCH   1  11
ATOM     11  C   UNL     1     111.942 107.765 122.860  1.00  0.00     0.006 C 
ATOM     12  C   UNL     1     112.525 107.166 124.142  1.00  0.00     0.004 C 
ENDBRANCH   1  11
TORSDOF 4
ENDMDL
MODEL 5
REMARK VINA RESULT:    -3.448      2.786      3.484
REMARK INTER + INTRA:          -4.225
REMARK INTER:                  -4.073
REMARK INTRA:                  -0.152
REMARK UNBOUND:                -0.072
REMARK SMILES CC[C@@H](C)[C@@H]([NH3+])C(=O)[O-]
REMARK SMILES IDX 3 1 4 2 5 3 6 4 7 8 8 9 9 10 2 11 1 12
REMARK H PARENT 6 5 6 6 6 7
REMARK Flexibility Score: inf
ROOT
ATOM      1  C   UNL     1     112.072 109.567 122.899  1.00  0.00     0.050 C 
ATOM      2  C   UNL     1     113.055 110.501 123.632  1.00  0.00     0.014 C 
ENDROOT
BRANCH   1   3
ATOM      3  C   UNL     1     110.904 109.078 123.812  1.00  0.00     0.230 C 
BRANCH   3   4
ATOM      4  N   UNL     1     109.635 109.749 123.491  1.00  0.00    -0.350 N 
ATOM      5  H   UNL     1     109.105 109.238 122.749  1.00  0.00     0.345 HD
ATOM      6  H   UNL     1     109.040 109.793 124.350  1.00  0.00     0.345 HD
ATOM      7  H   UNL     1     109.817 110.728 123.173  1.00  0.00     0.345 HD
ENDBRANCH   3   4
BRANCH   3   8
ATOM      8  C   UNL     1     110.737 107.576 123.782  1.00  0.00     0.099 C 
ATOM      9  O   UNL     1     111.170 106.914 122.802  1.00  0.00    -0.544 OA
ATOM     10  O   UNL     1     110.079 106.916 124.814  1.00  0.00    -0.544 OA
ENDBRANCH   3   8
ENDBRANCH   1   3
BRANCH   1  11
ATOM     11  C   UNL     1     111.518 110.235 121.614  1.00  0.00     0.006 C 
ATOM     12  C   UNL     1     111.795 109.424 120.348  1.00  0.00     0.004 C 
ENDBRANCH   1  11
TORSDOF 4
ENDMDL
MODEL 6
REMARK VINA RESULT:    -3.437      2.075      2.414
REMARK INTER + INTRA:          -4.212
REMARK INTER:                  -4.116
REMARK INTRA:                  -0.097
REMARK UNBOUND:                -0.072
REMARK SMILES CC[C@@H](C)[C@@H]([NH3+])C(=O)[O-]
REMARK SMILES IDX 3 1 4 2 5 3 6 4 7 8 8 9 9 10 2 11 1 12
REMARK H PARENT 6 5 6 6 6 7
REMARK Flexibility Score: inf
ROOT
ATOM      1  C   UNL     1     112.280 107.242 121.812  1.00  0.00     0.050 C 
ATOM      2  C   UNL     1     113.807 107.036 121.758  1.00  0.00     0.014 C 
ENDROOT
BRANCH   1   3
ATOM      3  C   UNL     1     111.878 108.687 122.245  1.00  0.00     0.230 C 
BRANCH   3   4
ATOM      4  N   UNL     1     111.270 109.444 121.141  1.00  0.00    -0.350 N 
ATOM      5  H   UNL     1     110.517 110.085 121.480  1.00  0.00     0.345 HD
ATOM      6  H   UNL     1     112.005 110.021 120.669  1.00  0.00     0.345 HD
ATOM      7  H   UNL     1     110.870 108.788 120.432  1.00  0.00     0.345 HD
ENDBRANCH   3   4
BRANCH   3   8
ATOM      8  C   UNL     1     110.978 108.697 123.459  1.00  0.00     0.099 C 
ATOM      9  O   UNL     1     110.671 109.789 124.006  1.00  0.00    -0.544 OA
ATOM     10  O   UNL     1     110.508 107.506 124.001  1.00  0.00    -0.544 OA
ENDBRANCH   3   8
ENDBRANCH   1   3
BRANCH   1  11
ATOM     11  C   UNL     1     111.617 106.872 120.460  1.00  0.00     0.006 C 
ATOM     12  C   UNL     1     112.558 106.123 119.515  1.00  0.00     0.004 C 
ENDBRANCH   1  11
TORSDOF 4
ENDMDL
MODEL 7
REMARK VINA RESULT:    -3.433      1.824      2.400
REMARK INTER + INTRA:          -4.207
REMARK INTER:                  -4.092
REMARK INTRA:                  -0.115
REMARK UNBOUND:                -0.072
REMARK SMILES CC[C@@H](C)[C@@H]([NH3+])C(=O)[O-]
REMARK SMILES IDX 3 1 4 2 5 3 6 4 7 8 8 9 9 10 2 11 1 12
REMARK H PARENT 6 5 6 6 6 7
REMARK Flexibility Score: inf
ROOT
ATOM      1  C   UNL     1     111.592 107.379 119.930  1.00  0.00     0.050 C 
ATOM      2  C   UNL     1     112.636 106.327 119.502  1.00  0.00     0.014 C 
ENDROOT
BRANCH   1   3
ATOM      3  C   UNL     1     112.047 108.216 121.166  1.00  0.00     0.230 C 
BRANCH   3   4
ATOM      4  N   UNL     1     111.235 109.430 121.338  1.00  0.00    -0.350 N 
ATOM      5  H   UNL     1     110.253 109.289 121.007  1.00  0.00     0.345 HD
ATOM      6  H   UNL     1     111.206 109.688 122.351  1.00  0.00     0.345 HD
ATOM      7  H   UNL     1     111.664 110.227 120.814  1.00  0.00     0.345 HD
ENDBRANCH   3   4
BRANCH   3   8
ATOM      8  C   UNL     1     112.068 107.403 122.439  1.00  0.00     0.099 C 
ATOM      9  O   UNL     1     113.153 107.217 123.050  1.00  0.00    -0.544 OA
ATOM     10  O   UNL     1     110.901 106.827 122.930  1.00  0.00    -0.544 OA
ENDBRANCH   3   8
ENDBRANCH   1   3
BRANCH   1  11
ATOM     11  C   UNL     1     111.218 108.308 118.747  1.00  0.00     0.006 C 
ATOM     12  C   UNL     1     112.424 108.723 117.904  1.00  0.00     0.004 C 
ENDBRANCH   1  11
TORSDOF 4
ENDMDL
MODEL 8
REMARK VINA RESULT:    -3.399      2.589      3.865
REMARK INTER + INTRA:          -4.166
REMARK INTER:                  -4.026
REMARK INTRA:                  -0.140
REMARK UNBOUND:                -0.072
REMARK SMILES CC[C@@H](C)[C@@H]([NH3+])C(=O)[O-]
REMARK SMILES IDX 3 1 4 2 5 3 6 4 7 8 8 9 9 10 2 11 1 12
REMARK H PARENT 6 5 6 6 6 7
REMARK Flexibility Score: inf
ROOT
ATOM      1  C   UNL     1     112.613 108.023 123.513  1.00  0.00     0.050 C 
ATOM      2  C   UNL     1     113.727 108.583 124.420  1.00  0.00     0.014 C 
ENDROOT
BRANCH   1   3
ATOM      3  C   UNL     1     113.113 107.693 122.071  1.00  0.00     0.230 C 
BRANCH   3   4
ATOM      4  N   UNL     1     113.772 106.380 122.003  1.00  0.00    -0.350 N 
ATOM      5  H   UNL     1     114.000 106.012 122.955  1.00  0.00     0.345 HD
ATOM      6  H   UNL     1     113.137 105.697 121.530  1.00  0.00     0.345 HD
ATOM      7  H   UNL     1     114.651 106.448 121.441  1.00  0.00     0.345 HD
ENDBRANCH   3   4
BRANCH   3   8
ATOM      8  C   UNL     1     112.012 107.792 121.041  1.00  0.00     0.099 C 
ATOM      9  O   UNL     1     111.655 108.919 120.608  1.00  0.00    -0.544 OA
ATOM     10  O   UNL     1     111.363 106.649 120.587  1.00  0.00    -0.544 OA
ENDBRANCH   3   8
ENDBRANCH   1   3
BRANCH   1  11
ATOM     11  C   UNL     1     111.940 106.783 124.155  1.00  0.00     0.006 C 
ATOM     12  C   UNL     1     110.423 106.926 124.289  1.00  0.00     0.004 C 
ENDBRANCH   1  11
TORSDOF 4
ENDMDL
MODEL 9
REMARK VINA RESULT:    -3.306      1.601      2.409
REMARK INTER + INTRA:          -4.054
REMARK INTER:                  -3.959
REMARK INTRA:                  -0.095
REMARK UNBOUND:                -0.072
REMARK SMILES CC[C@@H](C)[C@@H]([NH3+])C(=O)[O-]
REMARK SMILES IDX 3 1 4 2 5 3 6 4 7 8 8 9 9 10 2 11 1 12
REMARK H PARENT 6 5 6 6 6 7
REMARK Flexibility Score: inf
ROOT
ATOM      1  C   UNL     1     112.970 107.507 121.335  1.00  0.00     0.050 C 
ATOM      2  C   UNL     1     114.190 106.798 121.958  1.00  0.00     0.014 C 
ENDROOT
BRANCH   1   3
ATOM      3  C   UNL     1     111.738 107.550 122.293  1.00  0.00     0.230 C 
BRANCH   3   4
ATOM      4  N   UNL     1     110.850 106.395 122.100  1.00  0.00    -0.350 N 
ATOM      5  H   UNL     1     110.417 106.395 121.148  1.00  0.00     0.345 HD
ATOM      6  H   UNL     1     111.399 105.512 122.212  1.00  0.00     0.345 HD
ATOM      7  H   UNL     1     110.093 106.399 122.822  1.00  0.00     0.345 HD
ENDBRANCH   3   4
BRANCH   3   8
ATOM      8  C   UNL     1     112.139 107.679 123.744  1.00  0.00     0.099 C 
ATOM      9  O   UNL     1     112.004 106.700 124.524  1.00  0.00    -0.544 OA
ATOM     10  O   UNL     1     112.629 108.883 124.239  1.00  0.00    -0.544 OA
ENDBRANCH   3   8
ENDBRANCH   1   3
BRANCH   1  11
ATOM     11  C   UNL     1     113.339 108.934 120.854  1.00  0.00     0.006 C 
ATOM     12  C   UNL     1     114.679 109.426 121.402  1.00  0.00     0.004 C 
ENDBRANCH   1  11
TORSDOF 4
ENDMDL
