MODEL 1
REMARK VINA RESULT:    -5.210      0.000      0.000
REMARK INTER + INTRA:         -10.493
REMARK INTER:                  -9.169
REMARK INTRA:                  -1.324
REMARK UNBOUND:                -1.324
REMARK SMILES CCCCCCC=CCCCCCCCC(=O)[O-]
REMARK SMILES IDX 10 1 11 2 12 3 13 4 14 5 15 6 16 7 17 8 18 9 9 10 8 11 7 12
REMARK SMILES IDX 6 13 5 14 4 15 3 16 2 17 1 18
REMARK H PARENT
REMARK Flexibility Score: inf
ROOT
ATOM      1  C   UNL     1     -22.831 -29.701   4.770  1.00  0.00     0.004 C 
ENDROOT
BRANCH   1   2
ATOM      2  C   UNL     1     -22.543 -31.213   4.803  1.00  0.00     0.000 C 
BRANCH   2   3
ATOM      3  C   UNL     1     -23.222 -31.984   5.954  1.00  0.00     0.000 C 
BRANCH   3   4
ATOM      4  C   UNL     1     -22.695 -31.651   7.361  1.00  0.00     0.000 C 
BRANCH   4   5
ATOM      5  C   UNL     1     -22.530 -32.898   8.247  1.00  0.00     0.006 C 
BRANCH   5   6
ATOM      6  C   UNL     1     -21.421 -32.721   9.293  1.00  0.00     0.053 C 
BRANCH   6   7
ATOM      7  C   UNL     1     -21.939 -32.909  10.686  1.00  0.00     0.041 C 
ATOM      8  O   UNL     1     -23.052 -33.466  10.880  1.00  0.00    -0.550 OA
ATOM      9  O   UNL     1     -21.208 -32.437  11.770  1.00  0.00    -0.550 OA
ENDBRANCH   6   7
ENDBRANCH   5   6
ENDBRANCH   4   5
ENDBRANCH   3   4
ENDBRANCH   2   3
ENDBRANCH   1   2
BRANCH   1  10
ATOM     10  C   UNL     1     -24.127 -29.359   4.023  1.00  0.00     0.027 C 
BRANCH  10  11
ATOM     11  C   UNL     1     -24.859 -28.216   4.683  1.00  0.00    -0.031 C 
ATOM     12  C   UNL     1     -25.766 -28.340   5.671  1.00  0.00    -0.031 C 
BRANCH  12  13
ATOM     13  C   UNL     1     -26.196 -29.642   6.307  1.00  0.00     0.027 C 
BRANCH  13  14
ATOM     14  C   UNL     1     -26.992 -29.418   7.605  1.00  0.00     0.004 C 
BRANCH  14  15
ATOM     15  C   UNL     1     -26.252 -28.616   8.692  1.00  0.00     0.000 C 
BRANCH  15  16
ATOM     16  C   UNL     1     -27.108 -27.483   9.287  1.00  0.00    -0.000 C 
BRANCH  16  17
ATOM     17  C   UNL     1     -26.350 -26.147   9.353  1.00  0.00    -0.003 C 
ATOM     18  C   UNL     1     -25.025 -26.178   8.593  1.00  0.00     0.004 C 
ENDBRANCH  16  17
ENDBRANCH  15  16
ENDBRANCH  14  15
ENDBRANCH  13  14
ENDBRANCH  12  13
ENDBRANCH  10  11
ENDBRANCH   1  10
TORSDOF 13
ENDMDL
MODEL 2
REMARK VINA RESULT:    -5.151      8.522     10.148
REMARK INTER + INTRA:         -10.390
REMARK INTER:                  -9.149
REMARK INTRA:                  -1.240
REMARK UNBOUND:                -1.324
REMARK SMILES CCCCCCC=CCCCCCCCC(=O)[O-]
REMARK SMILES IDX 10 1 11 2 12 3 13 4 14 5 15 6 16 7 17 8 18 9 9 10 8 11 7 12
REMARK SMILES IDX 6 13 5 14 4 15 3 16 2 17 1 18
REMARK H PARENT
REMARK Flexibility Score: inf
ROOT
ATOM      1  C   UNL     1     -18.644 -26.354  14.012  1.00  0.00     0.004 C 
ENDROOT
BRANCH   1   2
ATOM      2  C   UNL     1     -17.401 -26.715  13.180  1.00  0.00     0.000 C 
BRANCH   2   3
ATOM      3  C   UNL     1     -16.485 -25.527  12.822  1.00  0.00     0.000 C 
BRANCH   3   4
ATOM      4  C   UNL     1     -15.580 -25.748  11.597  1.00  0.00     0.000 C 
BRANCH   4   5
ATOM      5  C   UNL     1     -16.374 -26.079  10.320  1.00  0.00     0.006 C 
BRANCH   5   6
ATOM      6  C   UNL     1     -15.735 -27.225   9.524  1.00  0.00     0.053 C 
BRANCH   6   7
ATOM      7  C   UNL     1     -15.472 -26.832   8.103  1.00  0.00     0.041 C 
ATOM      8  O   UNL     1     -15.004 -25.693   7.836  1.00  0.00    -0.550 OA
ATOM      9  O   UNL     1     -15.776 -27.710   7.069  1.00  0.00    -0.550 OA
ENDBRANCH   6   7
ENDBRANCH   5   6
ENDBRANCH   4   5
ENDBRANCH   3   4
ENDBRANCH   2   3
ENDBRANCH   1   2
BRANCH   1  10
ATOM     10  C   UNL     1     -18.596 -24.920  14.560  1.00  0.00     0.027 C 
BRANCH  10  11
ATOM     11  C   UNL     1     -19.938 -24.240  14.443  1.00  0.00    -0.031 C 
ATOM     12  C   UNL     1     -20.343 -23.492  13.398  1.00  0.00    -0.031 C 
BRANCH  12  13
ATOM     13  C   UNL     1     -19.534 -23.220  12.150  1.00  0.00     0.027 C 
BRANCH  13  14
ATOM     14  C   UNL     1     -19.375 -21.713  11.880  1.00  0.00     0.004 C 
BRANCH  14  15
ATOM     15  C   UNL     1     -19.205 -21.332  10.397  1.00  0.00     0.000 C 
BRANCH  15  16
ATOM     16  C   UNL     1     -19.506 -22.499   9.440  1.00  0.00    -0.000 C 
BRANCH  16  17
ATOM     17  C   UNL     1     -20.852 -22.332   8.717  1.00  0.00    -0.003 C 
ATOM     18  C   UNL     1     -21.313 -20.876   8.648  1.00  0.00     0.004 C 
ENDBRANCH  16  17
ENDBRANCH  15  16
ENDBRANCH  14  15
ENDBRANCH  13  14
ENDBRANCH  12  13
ENDBRANCH  10  11
ENDBRANCH   1  10
TORSDOF 13
ENDMDL
MODEL 3
REMARK VINA RESULT:    -5.095      1.322      2.312
REMARK INTER + INTRA:         -10.291
REMARK INTER:                  -8.708
REMARK INTRA:                  -1.584
REMARK UNBOUND:                -1.324
REMARK SMILES CCCCCCC=CCCCCCCCC(=O)[O-]
REMARK SMILES IDX 10 1 11 2 12 3 13 4 14 5 15 6 16 7 17 8 18 9 9 10 8 11 7 12
REMARK SMILES IDX 6 13 5 14 4 15 3 16 2 17 1 18
REMARK H PARENT
REMARK Flexibility Score: inf
ROOT
ATOM      1  C   UNL     1     -21.411 -30.856   4.881  1.00  0.00     0.004 C 
ENDROOT
BRANCH   1   2
ATOM      2  C   UNL     1     -22.600 -31.778   5.207  1.00  0.00     0.000 C 
BRANCH   2   3
ATOM      3  C   UNL     1     -22.884 -31.972   6.711  1.00  0.00     0.000 C 
BRANCH   3   4
ATOM      4  C   UNL     1     -22.794 -30.693   7.562  1.00  0.00     0.000 C 
BRANCH   4   5
ATOM      5  C   UNL     1     -22.671 -30.985   9.068  1.00  0.00     0.006 C 
BRANCH   5   6
ATOM      6  C   UNL     1     -22.474 -32.480   9.353  1.00  0.00     0.053 C 
BRANCH   6   7
ATOM      7  C   UNL     1     -22.430 -32.763  10.823  1.00  0.00     0.041 C 
ATOM      8  O   UNL     1     -21.323 -32.873  11.414  1.00  0.00    -0.550 OA
ATOM      9  O   UNL     1     -23.610 -32.939  11.535  1.00  0.00    -0.550 OA
ENDBRANCH   6   7
ENDBRANCH   5   6
ENDBRANCH   4   5
ENDBRANCH   3   4
ENDBRANCH   2   3
ENDBRANCH   1   2
BRANCH   1  10
ATOM     10  C   UNL     1     -21.770 -29.759   3.869  1.00  0.00     0.027 C 
BRANCH  10  11
ATOM     11  C   UNL     1     -23.169 -29.941   3.332  1.00  0.00    -0.031 C 
ATOM     12  C   UNL     1     -24.229 -29.172   3.649  1.00  0.00    -0.031 C 
BRANCH  12  13
ATOM     13  C   UNL     1     -24.202 -27.981   4.579  1.00  0.00     0.027 C 
BRANCH  13  14
ATOM     14  C   UNL     1     -25.353 -28.017   5.600  1.00  0.00     0.004 C 
BRANCH  14  15
ATOM     15  C   UNL     1     -25.722 -29.421   6.118  1.00  0.00     0.000 C 
BRANCH  15  16
ATOM     16  C   UNL     1     -27.116 -29.472   6.767  1.00  0.00    -0.000 C 
BRANCH  16  17
ATOM     17  C   UNL     1     -27.143 -28.809   8.153  1.00  0.00    -0.003 C 
ATOM     18  C   UNL     1     -25.873 -29.072   8.962  1.00  0.00     0.004 C 
ENDBRANCH  16  17
ENDBRANCH  15  16
ENDBRANCH  14  15
ENDBRANCH  13  14
ENDBRANCH  12  13
ENDBRANCH  10  11
ENDBRANCH   1  10
TORSDOF 13
ENDMDL
MODEL 4
REMARK VINA RESULT:    -5.078      9.186     10.280
REMARK INTER + INTRA:         -10.261
REMARK INTER:                  -8.670
REMARK INTRA:                  -1.591
REMARK UNBOUND:                -1.324
REMARK SMILES CCCCCCC=CCCCCCCCC(=O)[O-]
REMARK SMILES IDX 10 1 11 2 12 3 13 4 14 5 15 6 16 7 17 8 18 9 9 10 8 11 7 12
REMARK SMILES IDX 6 13 5 14 4 15 3 16 2 17 1 18
REMARK H PARENT
REMARK Flexibility Score: inf
ROOT
ATOM      1  C   UNL     1     -25.210 -24.100  15.933  1.00  0.00     0.004 C 
ENDROOT
BRANCH   1   2
ATOM      2  C   UNL     1     -24.404 -25.274  15.349  1.00  0.00     0.000 C 
BRANCH   2   3
ATOM      3  C   UNL     1     -23.402 -25.928  16.322  1.00  0.00     0.000 C 
BRANCH   3   4
ATOM      4  C   UNL     1     -24.017 -26.472  17.623  1.00  0.00     0.000 C 
BRANCH   4   5
ATOM      5  C   UNL     1     -23.168 -27.582  18.267  1.00  0.00     0.006 C 
BRANCH   5   6
ATOM      6  C   UNL     1     -22.919 -28.751  17.305  1.00  0.00     0.053 C 
BRANCH   6   7
ATOM      7  C   UNL     1     -21.463 -29.087  17.206  1.00  0.00     0.041 C 
ATOM      8  O   UNL     1     -20.646 -28.241  16.755  1.00  0.00    -0.550 OA
ATOM      9  O   UNL     1     -21.011 -30.347  17.581  1.00  0.00    -0.550 OA
ENDBRANCH   6   7
ENDBRANCH   5   6
ENDBRANCH   4   5
ENDBRANCH   3   4
ENDBRANCH   2   3
ENDBRANCH   1   2
BRANCH   1  10
ATOM     10  C   UNL     1     -26.612 -23.977  15.318  1.00  0.00     0.027 C 
BRANCH  10  11
ATOM     11  C   UNL     1     -27.230 -25.333  15.080  1.00  0.00    -0.031 C 
ATOM     12  C   UNL     1     -28.444 -25.551  14.538  1.00  0.00    -0.031 C 
BRANCH  12  13
ATOM     13  C   UNL     1     -29.392 -24.478  14.054  1.00  0.00     0.027 C 
BRANCH  13  14
ATOM     14  C   UNL     1     -30.820 -24.679  14.592  1.00  0.00     0.004 C 
BRANCH  14  15
ATOM     15  C   UNL     1     -31.131 -23.936  15.905  1.00  0.00     0.000 C 
BRANCH  15  16
ATOM     16  C   UNL     1     -30.165 -22.769  16.177  1.00  0.00    -0.000 C 
BRANCH  16  17
ATOM     17  C   UNL     1     -29.461 -22.894  17.537  1.00  0.00    -0.003 C 
ATOM     18  C   UNL     1     -29.462 -24.324  18.077  1.00  0.00     0.004 C 
ENDBRANCH  16  17
ENDBRANCH  15  16
ENDBRANCH  14  15
ENDBRANCH  13  14
ENDBRANCH  12  13
ENDBRANCH  10  11
ENDBRANCH   1  10
TORSDOF 13
ENDMDL
MODEL 5
REMARK VINA RESULT:    -5.076      8.460     10.237
REMARK INTER + INTRA:         -10.257
REMARK INTER:                  -8.269
REMARK INTRA:                  -1.989
REMARK UNBOUND:                -1.324
REMARK SMILES CCCCCCC=CCCCCCCCC(=O)[O-]
REMARK SMILES IDX 10 1 11 2 12 3 13 4 14 5 15 6 16 7 17 8 18 9 9 10 8 11 7 12
REMARK SMILES IDX 6 13 5 14 4 15 3 16 2 17 1 18
REMARK H PARENT
REMARK Flexibility Score: inf
ROOT
ATOM      1  C   UNL     1     -20.398 -25.964  15.183  1.00  0.00     0.004 C 
ENDROOT
BRANCH   1   2
ATOM      2  C   UNL     1     -21.900 -25.910  14.855  1.00  0.00     0.000 C 
BRANCH   2   3
ATOM      3  C   UNL     1     -22.835 -26.385  15.988  1.00  0.00     0.000 C 
BRANCH   3   4
ATOM      4  C   UNL     1     -22.120 -26.912  17.244  1.00  0.00     0.000 C 
BRANCH   4   5
ATOM      5  C   UNL     1     -22.361 -28.414  17.483  1.00  0.00     0.006 C 
BRANCH   5   6
ATOM      6  C   UNL     1     -21.244 -29.280  16.886  1.00  0.00     0.053 C 
BRANCH   6   7
ATOM      7  C   UNL     1     -21.703 -30.007  15.659  1.00  0.00     0.041 C 
ATOM      8  O   UNL     1     -21.392 -29.580  14.516  1.00  0.00    -0.550 OA
ATOM      9  O   UNL     1     -22.503 -31.137  15.777  1.00  0.00    -0.550 OA
ENDBRANCH   6   7
ENDBRANCH   5   6
ENDBRANCH   4   5
ENDBRANCH   3   4
ENDBRANCH   2   3
ENDBRANCH   1   2
BRANCH   1  10
ATOM     10  C   UNL     1     -19.702 -24.607  15.007  1.00  0.00     0.027 C 
BRANCH  10  11
ATOM     11  C   UNL     1     -20.267 -23.847  13.832  1.00  0.00    -0.031 C 
ATOM     12  C   UNL     1     -19.634 -23.646  12.659  1.00  0.00    -0.031 C 
BRANCH  12  13
ATOM     13  C   UNL     1     -18.259 -24.163  12.306  1.00  0.00     0.027 C 
BRANCH  13  14
ATOM     14  C   UNL     1     -18.278 -25.660  11.946  1.00  0.00     0.004 C 
BRANCH  14  15
ATOM     15  C   UNL     1     -17.397 -26.555  12.838  1.00  0.00     0.000 C 
BRANCH  15  16
ATOM     16  C   UNL     1     -16.335 -25.762  13.620  1.00  0.00    -0.000 C 
BRANCH  16  17
ATOM     17  C   UNL     1     -16.281 -26.159  15.104  1.00  0.00    -0.003 C 
ATOM     18  C   UNL     1     -17.012 -27.470  15.395  1.00  0.00     0.004 C 
ENDBRANCH  16  17
ENDBRANCH  15  16
ENDBRANCH  14  15
ENDBRANCH  13  14
ENDBRANCH  12  13
ENDBRANCH  10  11
ENDBRANCH   1  10
TORSDOF 13
ENDMDL
MODEL 6
REMARK VINA RESULT:    -5.073      8.060     11.028
REMARK INTER + INTRA:         -10.252
REMARK INTER:                  -8.001
REMARK INTRA:                  -2.251
REMARK UNBOUND:                -1.324
REMARK SMILES CCCCCCC=CCCCCCCCC(=O)[O-]
REMARK SMILES IDX 10 1 11 2 12 3 13 4 14 5 15 6 16 7 17 8 18 9 9 10 8 11 7 12
REMARK SMILES IDX 6 13 5 14 4 15 3 16 2 17 1 18
REMARK H PARENT
REMARK Flexibility Score: inf
ROOT
ATOM      1  C   UNL     1     -20.685 -24.155  12.595  1.00  0.00     0.004 C 
ENDROOT
BRANCH   1   2
ATOM      2  C   UNL     1     -20.010 -22.795  12.845  1.00  0.00     0.000 C 
BRANCH   2   3
ATOM      3  C   UNL     1     -19.045 -22.329  11.735  1.00  0.00     0.000 C 
BRANCH   3   4
ATOM      4  C   UNL     1     -19.076 -20.819  11.438  1.00  0.00     0.000 C 
BRANCH   4   5
ATOM      5  C   UNL     1     -19.796 -20.485  10.119  1.00  0.00     0.006 C 
BRANCH   5   6
ATOM      6  C   UNL     1     -19.980 -21.722   9.231  1.00  0.00     0.053 C 
BRANCH   6   7
ATOM      7  C   UNL     1     -21.424 -21.972   8.921  1.00  0.00     0.041 C 
ATOM      8  O   UNL     1     -21.995 -23.008   9.353  1.00  0.00    -0.550 OA
ATOM      9  O   UNL     1     -22.132 -21.078   8.127  1.00  0.00    -0.550 OA
ENDBRANCH   6   7
ENDBRANCH   5   6
ENDBRANCH   4   5
ENDBRANCH   3   4
ENDBRANCH   2   3
ENDBRANCH   1   2
BRANCH   1  10
ATOM     10  C   UNL     1     -20.495 -25.136  13.761  1.00  0.00     0.027 C 
BRANCH  10  11
ATOM     11  C   UNL     1     -19.495 -24.614  14.763  1.00  0.00    -0.031 C 
ATOM     12  C   UNL     1     -18.208 -25.002  14.852  1.00  0.00    -0.031 C 
BRANCH  12  13
ATOM     13  C   UNL     1     -17.533 -26.011  13.952  1.00  0.00     0.027 C 
BRANCH  13  14
ATOM     14  C   UNL     1     -16.806 -25.340  12.773  1.00  0.00     0.004 C 
BRANCH  14  15
ATOM     15  C   UNL     1     -16.983 -26.042  11.413  1.00  0.00     0.000 C 
BRANCH  15  16
ATOM     16  C   UNL     1     -18.302 -26.830  11.314  1.00  0.00    -0.000 C 
BRANCH  16  17
ATOM     17  C   UNL     1     -19.047 -26.564   9.996  1.00  0.00    -0.003 C 
ATOM     18  C   UNL     1     -18.766 -25.174   9.425  1.00  0.00     0.004 C 
ENDBRANCH  16  17
ENDBRANCH  15  16
ENDBRANCH  14  15
ENDBRANCH  13  14
ENDBRANCH  12  13
ENDBRANCH  10  11
ENDBRANCH   1  10
TORSDOF 13
ENDMDL
MODEL 7
REMARK VINA RESULT:    -5.038      4.743      7.464
REMARK INTER + INTRA:         -10.190
REMARK INTER:                  -8.607
REMARK INTRA:                  -1.583
REMARK UNBOUND:                -1.324
REMARK SMILES CCCCCCC=CCCCCCCCC(=O)[O-]
REMARK SMILES IDX 10 1 11 2 12 3 13 4 14 5 15 6 16 7 17 8 18 9 9 10 8 11 7 12
REMARK SMILES IDX 6 13 5 14 4 15 3 16 2 17 1 18
REMARK H PARENT
REMARK Flexibility Score: inf
ROOT
ATOM      1  C   UNL     1     -23.809 -28.845   3.303  1.00  0.00     0.004 C 
ENDROOT
BRANCH   1   2
ATOM      2  C   UNL     1     -22.699 -28.157   2.489  1.00  0.00     0.000 C 
BRANCH   2   3
ATOM      3  C   UNL     1     -22.513 -26.652   2.776  1.00  0.00     0.000 C 
BRANCH   3   4
ATOM      4  C   UNL     1     -21.577 -25.914   1.803  1.00  0.00     0.000 C 
BRANCH   4   5
ATOM      5  C   UNL     1     -20.655 -26.868   1.022  1.00  0.00     0.006 C 
BRANCH   5   6
ATOM      6  C   UNL     1     -19.194 -26.402   1.040  1.00  0.00     0.053 C 
BRANCH   6   7
ATOM      7  C   UNL     1     -18.393 -27.130   2.076  1.00  0.00     0.041 C 
ATOM      8  O   UNL     1     -18.955 -27.945   2.855  1.00  0.00    -0.550 OA
ATOM      9  O   UNL     1     -17.032 -26.882   2.206  1.00  0.00    -0.550 OA
ENDBRANCH   6   7
ENDBRANCH   5   6
ENDBRANCH   4   5
ENDBRANCH   3   4
ENDBRANCH   2   3
ENDBRANCH   1   2
BRANCH   1  10
ATOM     10  C   UNL     1     -24.258 -28.015   4.514  1.00  0.00     0.027 C 
BRANCH  10  11
ATOM     11  C   UNL     1     -25.426 -28.659   5.221  1.00  0.00    -0.031 C 
ATOM     12  C   UNL     1     -25.330 -29.557   6.221  1.00  0.00    -0.031 C 
BRANCH  12  13
ATOM     13  C   UNL     1     -24.040 -30.063   6.824  1.00  0.00     0.027 C 
BRANCH  13  14
ATOM     14  C   UNL     1     -23.618 -31.421   6.235  1.00  0.00     0.004 C 
BRANCH  14  15
ATOM     15  C   UNL     1     -22.405 -31.372   5.286  1.00  0.00     0.000 C 
BRANCH  15  16
ATOM     16  C   UNL     1     -22.490 -32.409   4.152  1.00  0.00    -0.000 C 
BRANCH  16  17
ATOM     17  C   UNL     1     -21.816 -31.923   2.860  1.00  0.00    -0.003 C 
ATOM     18  C   UNL     1     -20.551 -31.105   3.121  1.00  0.00     0.004 C 
ENDBRANCH  16  17
ENDBRANCH  15  16
ENDBRANCH  14  15
ENDBRANCH  13  14
ENDBRANCH  12  13
ENDBRANCH  10  11
ENDBRANCH   1  10
TORSDOF 13
ENDMDL
MODEL 8
REMARK VINA RESULT:    -5.031      7.924      9.628
REMARK INTER + INTRA:         -10.179
REMARK INTER:                  -8.756
REMARK INTRA:                  -1.423
REMARK UNBOUND:                -1.324
REMARK SMILES CCCCCCC=CCCCCCCCC(=O)[O-]
REMARK SMILES IDX 10 1 11 2 12 3 13 4 14 5 15 6 16 7 17 8 18 9 9 10 8 11 7 12
REMARK SMILES IDX 6 13 5 14 4 15 3 16 2 17 1 18
REMARK H PARENT
REMARK Flexibility Score: inf
ROOT
ATOM      1  C   UNL     1     -17.699 -26.662  13.782  1.00  0.00     0.004 C 
ENDROOT
BRANCH   1   2
ATOM      2  C   UNL     1     -18.204 -26.502  15.226  1.00  0.00     0.000 C 
BRANCH   2   3
ATOM      3  C   UNL     1     -19.587 -25.833  15.366  1.00  0.00     0.000 C 
BRANCH   3   4
ATOM      4  C   UNL     1     -20.732 -26.540  14.621  1.00  0.00     0.000 C 
BRANCH   4   5
ATOM      5  C   UNL     1     -21.571 -27.447  15.538  1.00  0.00     0.006 C 
BRANCH   5   6
ATOM      6  C   UNL     1     -21.134 -28.916  15.456  1.00  0.00     0.053 C 
BRANCH   6   7
ATOM      7  C   UNL     1     -22.035 -29.808  16.254  1.00  0.00     0.041 C 
ATOM      8  O   UNL     1     -22.674 -29.347  17.238  1.00  0.00    -0.550 OA
ATOM      9  O   UNL     1     -22.143 -31.155  15.934  1.00  0.00    -0.550 OA
ENDBRANCH   6   7
ENDBRANCH   5   6
ENDBRANCH   4   5
ENDBRANCH   3   4
ENDBRANCH   2   3
ENDBRANCH   1   2
BRANCH   1  10
ATOM     10  C   UNL     1     -17.068 -25.376  13.228  1.00  0.00     0.027 C 
BRANCH  10  11
ATOM     11  C   UNL     1     -17.670 -24.995  11.898  1.00  0.00    -0.031 C 
ATOM     12  C   UNL     1     -18.689 -24.131  11.725  1.00  0.00    -0.031 C 
BRANCH  12  13
ATOM     13  C   UNL     1     -19.394 -23.375  12.828  1.00  0.00     0.027 C 
BRANCH  13  14
ATOM     14  C   UNL     1     -19.822 -21.965  12.382  1.00  0.00     0.004 C 
BRANCH  14  15
ATOM     15  C   UNL     1     -18.931 -21.325  11.302  1.00  0.00     0.000 C 
BRANCH  15  16
ATOM     16  C   UNL     1     -19.730 -20.822  10.086  1.00  0.00    -0.000 C 
BRANCH  16  17
ATOM     17  C   UNL     1     -20.011 -21.938   9.067  1.00  0.00    -0.003 C 
ATOM     18  C   UNL     1     -21.494 -22.297   8.973  1.00  0.00     0.004 C 
ENDBRANCH  16  17
ENDBRANCH  15  16
ENDBRANCH  14  15
ENDBRANCH  13  14
ENDBRANCH  12  13
ENDBRANCH  10  11
ENDBRANCH   1  10
TORSDOF 13
ENDMDL
MODEL 9
REMARK VINA RESULT:    -4.997      8.885     10.440
REMARK INTER + INTRA:         -10.119
REMARK INTER:                  -8.313
REMARK INTRA:                  -1.806
REMARK UNBOUND:                -1.324
REMARK SMILES CCCCCCC=CCCCCCCCC(=O)[O-]
REMARK SMILES IDX 10 1 11 2 12 3 13 4 14 5 15 6 16 7 17 8 18 9 9 10 8 11 7 12
REMARK SMILES IDX 6 13 5 14 4 15 3 16 2 17 1 18
REMARK H PARENT
REMARK Flexibility Score: inf
ROOT
ATOM      1  C   UNL     1     -19.265 -27.866  14.120  1.00  0.00     0.004 C 
ENDROOT
BRANCH   1   2
ATOM      2  C   UNL     1     -18.597 -26.611  14.711  1.00  0.00     0.000 C 
BRANCH   2   3
ATOM      3  C   UNL     1     -19.570 -25.560  15.284  1.00  0.00     0.000 C 
BRANCH   3   4
ATOM      4  C   UNL     1     -19.462 -24.160  14.654  1.00  0.00     0.000 C 
BRANCH   4   5
ATOM      5  C   UNL     1     -19.945 -24.124  13.193  1.00  0.00     0.006 C 
BRANCH   5   6
ATOM      6  C   UNL     1     -18.849 -23.641  12.234  1.00  0.00     0.053 C 
BRANCH   6   7
ATOM      7  C   UNL     1     -19.302 -22.467  11.421  1.00  0.00     0.041 C 
ATOM      8  O   UNL     1     -20.187 -22.613  10.536  1.00  0.00    -0.550 OA
ATOM      9  O   UNL     1     -18.722 -21.219  11.615  1.00  0.00    -0.550 OA
ENDBRANCH   6   7
ENDBRANCH   5   6
ENDBRANCH   4   5
ENDBRANCH   3   4
ENDBRANCH   2   3
ENDBRANCH   1   2
BRANCH   1  10
ATOM     10  C   UNL     1     -20.790 -27.865  14.297  1.00  0.00     0.027 C 
BRANCH  10  11
ATOM     11  C   UNL     1     -21.291 -29.212  14.757  1.00  0.00    -0.031 C 
ATOM     12  C   UNL     1     -21.687 -29.508  16.011  1.00  0.00    -0.031 C 
BRANCH  12  13
ATOM     13  C   UNL     1     -21.718 -28.540  17.171  1.00  0.00     0.027 C 
BRANCH  13  14
ATOM     14  C   UNL     1     -23.139 -28.351  17.730  1.00  0.00     0.004 C 
BRANCH  14  15
ATOM     15  C   UNL     1     -23.681 -26.910  17.661  1.00  0.00     0.000 C 
BRANCH  15  16
ATOM     16  C   UNL     1     -22.783 -25.972  16.835  1.00  0.00    -0.000 C 
BRANCH  16  17
ATOM     17  C   UNL     1     -23.416 -25.591  15.487  1.00  0.00    -0.003 C 
ATOM     18  C   UNL     1     -24.885 -25.189  15.614  1.00  0.00     0.004 C 
ENDBRANCH  16  17
ENDBRANCH  15  16
ENDBRANCH  14  15
ENDBRANCH  13  14
ENDBRANCH  12  13
ENDBRANCH  10  11
ENDBRANCH   1  10
TORSDOF 13
ENDMDL
