MODEL 1
REMARK VINA RESULT:    -5.051      0.000      0.000
REMARK INTER + INTRA:          -7.995
REMARK INTER:                  -7.118
REMARK INTRA:                  -0.877
REMARK UNBOUND:                -0.877
REMARK SMILES OCC1=C[C@@H](O)[C@H]2C=CO[C@H](O[C@@H]3O[C@H](CO)[C@H](O)[C@@H](O)[C@@H]3O)[C@@H]12
REMARK SMILES IDX 12 1 11 2 8 3 9 4 7 5 10 6 24 7 5 8 3 9 4 10 6 11 2 13 1 14
REMARK SMILES IDX 13 16 22 17 14 18 20 19 15 20 18 21 23 22 21 24 16 26 17 27
REMARK SMILES IDX 19 29
REMARK H PARENT 6 12 1 15 23 23 21 25 17 28 19 30
REMARK Flexibility Score: inf
ROOT
ATOM      1  O   UNL     1     -37.356  75.106 -26.878  1.00  0.00    -0.310 OA
ENDROOT
BRANCH   1   2
ATOM      2  C   UNL     1     -35.997  74.993 -26.470  1.00  0.00     0.316 C 
ATOM      3  C   UNL     1     -34.984  74.913 -29.125  1.00  0.00     0.018 C 
ATOM      4  C   UNL     1     -35.186  73.788 -28.445  1.00  0.00     0.186 C 
ATOM      5  C   UNL     1     -34.805  76.247 -28.425  1.00  0.00     0.061 C 
ATOM      6  O   UNL     1     -35.437  73.833 -27.077  1.00  0.00    -0.472 OA
ATOM      7  C   UNL     1     -35.243  76.265 -26.929  1.00  0.00     0.096 C 
ATOM      8  C   UNL     1     -33.318  76.702 -28.419  1.00  0.00     0.145 C 
ATOM      9  C   UNL     1     -33.968  76.499 -26.174  1.00  0.00    -0.036 C 
ATOM     10  C   UNL     1     -32.940  76.714 -26.983  1.00  0.00     0.007 C 
BRANCH   8  11
ATOM     11  O   UNL     1     -32.462  75.834 -29.117  1.00  0.00    -0.388 OA
ATOM     12  H   UNL     1     -32.885  75.670 -30.000  1.00  0.00     0.211 HD
ENDBRANCH   8  11
BRANCH   9  13
ATOM     13  C   UNL     1     -33.877  76.661 -24.676  1.00  0.00     0.187 C 
BRANCH  13  14
ATOM     14  O   UNL     1     -32.538  76.641 -24.260  1.00  0.00    -0.392 OA
ATOM     15  H   UNL     1     -32.531  76.383 -23.302  1.00  0.00     0.211 HD
ENDBRANCH  13  14
ENDBRANCH   9  13
ENDBRANCH   1   2
BRANCH   1  16
ATOM     16  C   UNL     1     -38.041  76.196 -26.273  1.00  0.00     0.286 C 
ATOM     17  C   UNL     1     -39.425  76.468 -26.950  1.00  0.00     0.202 C 
ATOM     18  O   UNL     1     -38.092  76.041 -24.855  1.00  0.00    -0.341 OA
ATOM     19  C   UNL     1     -40.600  76.014 -26.051  1.00  0.00     0.179 C 
ATOM     20  C   UNL     1     -38.994  76.962 -24.278  1.00  0.00     0.178 C 
ATOM     21  C   UNL     1     -40.457  76.541 -24.592  1.00  0.00     0.177 C 
BRANCH  17  22
ATOM     22  O   UNL     1     -39.492  75.837 -28.203  1.00  0.00    -0.385 OA
ATOM     23  H   UNL     1     -38.704  75.234 -28.267  1.00  0.00     0.211 HD
ENDBRANCH  17  22
BRANCH  19  24
ATOM     24  O   UNL     1     -41.834  76.407 -26.601  1.00  0.00    -0.387 OA
ATOM     25  H   UNL     1     -42.449  75.630 -26.548  1.00  0.00     0.211 HD
ENDBRANCH  19  24
BRANCH  20  26
ATOM     26  C   UNL     1     -38.714  77.097 -22.770  1.00  0.00     0.191 C 
BRANCH  26  27
ATOM     27  O   UNL     1     -38.582  75.840 -22.159  1.00  0.00    -0.394 OA
ATOM     28  H   UNL     1     -38.950  75.169 -22.792  1.00  0.00     0.210 HD
ENDBRANCH  26  27
ENDBRANCH  20  26
BRANCH  21  29
ATOM     29  O   UNL     1     -40.936  75.583 -23.681  1.00  0.00    -0.387 OA
ATOM     30  H   UNL     1     -41.701  75.117 -24.110  1.00  0.00     0.211 HD
ENDBRANCH  21  29
ENDBRANCH   1  16
TORSDOF 10
ENDMDL
MODEL 2
REMARK VINA RESULT:    -4.134      1.694      3.004
REMARK INTER + INTRA:          -6.702
REMARK INTER:                  -6.838
REMARK INTRA:                   0.135
REMARK UNBOUND:                -0.877
REMARK SMILES OCC1=C[C@@H](O)[C@H]2C=CO[C@H](O[C@@H]3O[C@H](CO)[C@H](O)[C@@H](O)[C@@H]3O)[C@@H]12
REMARK SMILES IDX 12 1 11 2 8 3 9 4 7 5 10 6 24 7 5 8 3 9 4 10 6 11 2 13 1 14
REMARK SMILES IDX 13 16 22 17 14 18 20 19 15 20 18 21 23 22 21 24 16 26 17 27
REMARK SMILES IDX 19 29
REMARK H PARENT 6 12 1 15 23 23 21 25 17 28 19 30
REMARK Flexibility Score: inf
ROOT
ATOM      1  O   UNL     1     -37.375  75.540 -24.792  1.00  0.00    -0.310 OA
ENDROOT
BRANCH   1   2
ATOM      2  C   UNL     1     -36.878  75.925 -26.069  1.00  0.00     0.316 C 
ATOM      3  C   UNL     1     -34.165  76.013 -25.223  1.00  0.00     0.018 C 
ATOM      4  C   UNL     1     -34.893  77.125 -25.274  1.00  0.00     0.186 C 
ATOM      5  C   UNL     1     -34.531  74.783 -26.032  1.00  0.00     0.061 C 
ATOM      6  O   UNL     1     -36.125  77.125 -25.919  1.00  0.00    -0.472 OA
ATOM      7  C   UNL     1     -35.980  74.784 -26.607  1.00  0.00     0.096 C 
ATOM      8  C   UNL     1     -33.604  74.606 -27.268  1.00  0.00     0.145 C 
ATOM      9  C   UNL     1     -35.788  74.835 -28.093  1.00  0.00    -0.036 C 
ATOM     10  C   UNL     1     -34.509  74.758 -28.436  1.00  0.00     0.007 C 
BRANCH   8  11
ATOM     11  O   UNL     1     -32.583  75.568 -27.346  1.00  0.00    -0.388 OA
ATOM     12  H   UNL     1     -32.679  76.148 -26.545  1.00  0.00     0.211 HD
ENDBRANCH   8  11
BRANCH   9  13
ATOM     13  C   UNL     1     -36.909  74.792 -29.104  1.00  0.00     0.187 C 
BRANCH  13  14
ATOM     14  O   UNL     1     -37.636  75.991 -29.082  1.00  0.00    -0.392 OA
ATOM     15  H   UNL     1     -38.416  75.873 -29.684  1.00  0.00     0.211 HD
ENDBRANCH  13  14
ENDBRANCH   9  13
ENDBRANCH   1   2
BRANCH   1  16
ATOM     16  C   UNL     1     -38.278  76.481 -24.227  1.00  0.00     0.286 C 
ATOM     17  C   UNL     1     -39.589  76.618 -25.070  1.00  0.00     0.202 C 
ATOM     18  O   UNL     1     -38.488  76.214 -22.840  1.00  0.00    -0.341 OA
ATOM     19  C   UNL     1     -40.794  75.947 -24.368  1.00  0.00     0.179 C 
ATOM     20  C   UNL     1     -39.578  76.962 -22.341  1.00  0.00     0.178 C 
ATOM     21  C   UNL     1     -40.914  76.377 -22.875  1.00  0.00     0.177 C 
BRANCH  17  22
ATOM     22  O   UNL     1     -39.405  76.079 -26.354  1.00  0.00    -0.385 OA
ATOM     23  H   UNL     1     -38.637  75.451 -26.298  1.00  0.00     0.211 HD
ENDBRANCH  17  22
BRANCH  19  24
ATOM     24  O   UNL     1     -41.990  76.213 -25.059  1.00  0.00    -0.387 OA
ATOM     25  H   UNL     1     -42.523  76.844 -24.508  1.00  0.00     0.211 HD
ENDBRANCH  19  24
BRANCH  20  26
ATOM     26  C   UNL     1     -39.514  77.020 -20.804  1.00  0.00     0.191 C 
BRANCH  26  27
ATOM     27  O   UNL     1     -38.919  75.865 -20.272  1.00  0.00    -0.394 OA
ATOM     28  H   UNL     1     -38.804  76.021 -19.298  1.00  0.00     0.210 HD
ENDBRANCH  26  27
ENDBRANCH  20  26
BRANCH  21  29
ATOM     29  O   UNL     1     -41.366  75.298 -22.094  1.00  0.00    -0.387 OA
ATOM     30  H   UNL     1     -41.403  75.606 -21.150  1.00  0.00     0.211 HD
ENDBRANCH  21  29
ENDBRANCH   1  16
TORSDOF 10
ENDMDL
MODEL 3
REMARK VINA RESULT:    -3.352      1.659      6.727
REMARK INTER + INTRA:          -5.601
REMARK INTER:                  -5.906
REMARK INTRA:                   0.305
REMARK UNBOUND:                -0.877
REMARK SMILES OCC1=C[C@@H](O)[C@H]2C=CO[C@H](O[C@@H]3O[C@H](CO)[C@H](O)[C@@H](O)[C@@H]3O)[C@@H]12
REMARK SMILES IDX 12 1 11 2 8 3 9 4 7 5 10 6 24 7 5 8 3 9 4 10 6 11 2 13 1 14
REMARK SMILES IDX 13 16 22 17 14 18 20 19 15 20 18 21 23 22 21 24 16 26 17 27
REMARK SMILES IDX 19 29
REMARK H PARENT 6 12 1 15 23 23 21 25 17 28 19 30
REMARK Flexibility Score: inf
ROOT
ATOM      1  O   UNL     1     -37.841  75.273 -25.167  1.00  0.00    -0.310 OA
ENDROOT
BRANCH   1   2
ATOM      2  C   UNL     1     -38.810  76.289 -24.937  1.00  0.00     0.316 C 
ATOM      3  C   UNL     1     -40.316  75.679 -27.269  1.00  0.00     0.018 C 
ATOM      4  C   UNL     1     -39.422  76.664 -27.281  1.00  0.00     0.186 C 
ATOM      5  C   UNL     1     -40.928  75.173 -25.977  1.00  0.00     0.061 C 
ATOM      6  O   UNL     1     -38.874  77.125 -26.088  1.00  0.00    -0.472 OA
ATOM      7  C   UNL     1     -40.177  75.609 -24.682  1.00  0.00     0.096 C 
ATOM      8  C   UNL     1     -42.387  75.679 -25.791  1.00  0.00     0.145 C 
ATOM      9  C   UNL     1     -41.155  76.497 -23.970  1.00  0.00    -0.036 C 
ATOM     10  C   UNL     1     -42.329  76.541 -24.583  1.00  0.00     0.007 C 
BRANCH   8  11
ATOM     11  O   UNL     1     -42.863  76.433 -26.876  1.00  0.00    -0.388 OA
ATOM     12  H   UNL     1     -42.743  77.389 -26.631  1.00  0.00     0.211 HD
ENDBRANCH   8  11
BRANCH   9  13
ATOM     13  C   UNL     1     -40.913  77.125 -22.618  1.00  0.00     0.187 C 
BRANCH  13  14
ATOM     14  O   UNL     1     -40.511  76.154 -21.690  1.00  0.00    -0.392 OA
ATOM     15  H   UNL     1     -40.184  76.633 -20.885  1.00  0.00     0.211 HD
ENDBRANCH  13  14
ENDBRANCH   9  13
ENDBRANCH   1   2
BRANCH   1  16
ATOM     16  C   UNL     1     -36.863  75.630 -26.136  1.00  0.00     0.286 C 
ATOM     17  C   UNL     1     -35.698  76.470 -25.515  1.00  0.00     0.202 C 
ATOM     18  O   UNL     1     -36.441  74.485 -26.877  1.00  0.00    -0.341 OA
ATOM     19  C   UNL     1     -34.399  75.641 -25.389  1.00  0.00     0.179 C 
ATOM     20  C   UNL     1     -35.289  74.775 -27.643  1.00  0.00     0.178 C 
ATOM     21  C   UNL     1     -34.050  74.896 -26.713  1.00  0.00     0.177 C 
BRANCH  17  22
ATOM     22  O   UNL     1     -36.077  76.984 -24.263  1.00  0.00    -0.385 OA
ATOM     23  H   UNL     1     -37.055  76.833 -24.171  1.00  0.00     0.211 HD
ENDBRANCH  17  22
BRANCH  19  24
ATOM     24  O   UNL     1     -33.323  76.450 -24.978  1.00  0.00    -0.387 OA
ATOM     25  H   UNL     1     -33.685  77.147 -24.372  1.00  0.00     0.211 HD
ENDBRANCH  19  24
BRANCH  20  26
ATOM     26  C   UNL     1     -35.115  73.719 -28.749  1.00  0.00     0.191 C 
BRANCH  26  27
ATOM     27  O   UNL     1     -36.309  73.017 -28.980  1.00  0.00    -0.394 OA
ATOM     28  H   UNL     1     -36.156  72.080 -28.689  1.00  0.00     0.210 HD
ENDBRANCH  26  27
ENDBRANCH  20  26
BRANCH  21  29
ATOM     29  O   UNL     1     -33.481  73.642 -26.429  1.00  0.00    -0.387 OA
ATOM     30  H   UNL     1     -32.530  73.793 -26.184  1.00  0.00     0.211 HD
ENDBRANCH  21  29
ENDBRANCH   1  16
TORSDOF 10
ENDMDL
MODEL 4
REMARK VINA RESULT:    -2.833      3.615      8.071
REMARK INTER + INTRA:          -4.869
REMARK INTER:                  -3.714
REMARK INTRA:                  -1.156
REMARK UNBOUND:                -0.877
REMARK SMILES OCC1=C[C@@H](O)[C@H]2C=CO[C@H](O[C@@H]3O[C@H](CO)[C@H](O)[C@@H](O)[C@@H]3O)[C@@H]12
REMARK SMILES IDX 12 1 11 2 8 3 9 4 7 5 10 6 24 7 5 8 3 9 4 10 6 11 2 13 1 14
REMARK SMILES IDX 13 16 22 17 14 18 20 19 15 20 18 21 23 22 21 24 16 26 17 27
REMARK SMILES IDX 19 29
REMARK H PARENT 6 12 1 15 23 23 21 25 17 28 19 30
REMARK Flexibility Score: inf
ROOT
ATOM      1  O   UNL     1     -39.869  76.085 -23.051  1.00  0.00    -0.310 OA
ENDROOT
BRANCH   1   2
ATOM      2  C   UNL     1     -40.886  75.427 -22.305  1.00  0.00     0.316 C 
ATOM      3  C   UNL     1     -39.990  76.424 -19.798  1.00  0.00     0.018 C 
ATOM      4  C   UNL     1     -39.635  75.209 -20.208  1.00  0.00     0.186 C 
ATOM      5  C   UNL     1     -41.217  77.125 -20.349  1.00  0.00     0.061 C 
ATOM      6  O   UNL     1     -40.269  74.628 -21.301  1.00  0.00    -0.472 OA
ATOM      7  C   UNL     1     -41.791  76.506 -21.660  1.00  0.00     0.096 C 
ATOM      8  C   UNL     1     -42.399  77.104 -19.339  1.00  0.00     0.145 C 
ATOM      9  C   UNL     1     -43.140  75.983 -21.262  1.00  0.00    -0.036 C 
ATOM     10  C   UNL     1     -43.447  76.294 -20.010  1.00  0.00     0.007 C 
BRANCH   8  11
ATOM     11  O   UNL     1     -42.073  76.512 -18.107  1.00  0.00    -0.388 OA
ATOM     12  H   UNL     1     -41.332  75.875 -18.286  1.00  0.00     0.211 HD
ENDBRANCH   8  11
BRANCH   9  13
ATOM     13  C   UNL     1     -44.124  75.341 -22.210  1.00  0.00     0.187 C 
BRANCH  13  14
ATOM     14  O   UNL     1     -44.078  75.968 -23.463  1.00  0.00    -0.392 OA
ATOM     15  H   UNL     1     -44.275  76.930 -23.319  1.00  0.00     0.211 HD
ENDBRANCH  13  14
ENDBRANCH   9  13
ENDBRANCH   1   2
BRANCH   1  16
ATOM     16  C   UNL     1     -40.302  76.535 -24.328  1.00  0.00     0.286 C 
ATOM     17  C   UNL     1     -39.101  76.896 -25.264  1.00  0.00     0.202 C 
ATOM     18  O   UNL     1     -41.245  75.625 -24.895  1.00  0.00    -0.341 OA
ATOM     19  C   UNL     1     -38.901  75.836 -26.373  1.00  0.00     0.179 C 
ATOM     20  C   UNL     1     -41.470  75.915 -26.260  1.00  0.00     0.178 C 
ATOM     21  C   UNL     1     -40.235  75.496 -27.104  1.00  0.00     0.177 C 
BRANCH  17  22
ATOM     22  O   UNL     1     -37.924  77.050 -24.513  1.00  0.00    -0.385 OA
ATOM     23  H   UNL     1     -37.392  76.220 -24.633  1.00  0.00     0.211 HD
ENDBRANCH  17  22
BRANCH  19  24
ATOM     24  O   UNL     1     -37.923  76.253 -27.295  1.00  0.00    -0.387 OA
ATOM     25  H   UNL     1     -37.246  76.783 -26.799  1.00  0.00     0.211 HD
ENDBRANCH  19  24
BRANCH  20  26
ATOM     26  C   UNL     1     -42.777  75.250 -26.728  1.00  0.00     0.191 C 
BRANCH  26  27
ATOM     27  O   UNL     1     -43.403  74.555 -25.681  1.00  0.00    -0.394 OA
ATOM     28  H   UNL     1     -44.351  74.424 -25.947  1.00  0.00     0.210 HD
ENDBRANCH  26  27
ENDBRANCH  20  26
BRANCH  21  29
ATOM     29  O   UNL     1     -40.267  74.132 -27.444  1.00  0.00    -0.387 OA
ATOM     30  H   UNL     1     -41.108  73.968 -27.947  1.00  0.00     0.211 HD
ENDBRANCH  21  29
ENDBRANCH   1  16
TORSDOF 10
ENDMDL
MODEL 5
REMARK VINA RESULT:    -2.772      1.591      6.814
REMARK INTER + INTRA:          -4.784
REMARK INTER:                  -3.459
REMARK INTRA:                  -1.325
REMARK UNBOUND:                -0.877
REMARK SMILES OCC1=C[C@@H](O)[C@H]2C=CO[C@H](O[C@@H]3O[C@H](CO)[C@H](O)[C@@H](O)[C@@H]3O)[C@@H]12
REMARK SMILES IDX 12 1 11 2 8 3 9 4 7 5 10 6 24 7 5 8 3 9 4 10 6 11 2 13 1 14
REMARK SMILES IDX 13 16 22 17 14 18 20 19 15 20 18 21 23 22 21 24 16 26 17 27
REMARK SMILES IDX 19 29
REMARK H PARENT 6 12 1 15 23 23 21 25 17 28 19 30
REMARK Flexibility Score: inf
ROOT
ATOM      1  O   UNL     1     -36.854  76.643 -24.682  1.00  0.00    -0.310 OA
ENDROOT
BRANCH   1   2
ATOM      2  C   UNL     1     -37.933  75.721 -24.781  1.00  0.00     0.316 C 
ATOM      3  C   UNL     1     -39.223  76.650 -22.425  1.00  0.00     0.018 C 
ATOM      4  C   UNL     1     -38.435  75.579 -22.386  1.00  0.00     0.186 C 
ATOM      5  C   UNL     1     -39.860  77.125 -23.717  1.00  0.00     0.061 C 
ATOM      6  O   UNL     1     -38.010  74.980 -23.568  1.00  0.00    -0.472 OA
ATOM      7  C   UNL     1     -39.238  76.522 -25.014  1.00  0.00     0.096 C 
ATOM      8  C   UNL     1     -41.371  76.764 -23.786  1.00  0.00     0.145 C 
ATOM      9  C   UNL     1     -40.342  75.694 -25.602  1.00  0.00    -0.036 C 
ATOM     10  C   UNL     1     -41.475  75.817 -24.925  1.00  0.00     0.007 C 
BRANCH   8  11
ATOM     11  O   UNL     1     -41.853  76.143 -22.621  1.00  0.00    -0.388 OA
ATOM     12  H   UNL     1     -42.238  75.271 -22.904  1.00  0.00     0.211 HD
ENDBRANCH   8  11
BRANCH   9  13
ATOM     13  C   UNL     1     -40.249  74.950 -26.912  1.00  0.00     0.187 C 
BRANCH  13  14
ATOM     14  O   UNL     1     -39.312  75.561 -27.759  1.00  0.00    -0.392 OA
ATOM     15  H   UNL     1     -39.640  75.452 -28.689  1.00  0.00     0.211 HD
ENDBRANCH  13  14
ENDBRANCH   9  13
ENDBRANCH   1   2
BRANCH   1  16
ATOM     16  C   UNL     1     -36.106  76.774 -25.885  1.00  0.00     0.286 C 
ATOM     17  C   UNL     1     -34.566  76.836 -25.616  1.00  0.00     0.202 C 
ATOM     18  O   UNL     1     -36.504  75.791 -26.840  1.00  0.00    -0.341 OA
ATOM     19  C   UNL     1     -33.860  75.523 -26.030  1.00  0.00     0.179 C 
ATOM     20  C   UNL     1     -35.594  75.736 -27.919  1.00  0.00     0.178 C 
ATOM     21  C   UNL     1     -34.269  75.066 -27.463  1.00  0.00     0.177 C 
BRANCH  17  22
ATOM     22  O   UNL     1     -34.315  77.125 -24.265  1.00  0.00    -0.385 OA
ATOM     23  H   UNL     1     -35.198  77.237 -23.823  1.00  0.00     0.211 HD
ENDBRANCH  17  22
BRANCH  19  24
ATOM     24  O   UNL     1     -32.462  75.651 -25.930  1.00  0.00    -0.387 OA
ATOM     25  H   UNL     1     -32.105  75.781 -26.847  1.00  0.00     0.211 HD
ENDBRANCH  19  24
BRANCH  20  26
ATOM     26  C   UNL     1     -36.246  75.030 -29.121  1.00  0.00     0.191 C 
BRANCH  26  27
ATOM     27  O   UNL     1     -37.120  74.013 -28.706  1.00  0.00    -0.394 OA
ATOM     28  H   UNL     1     -37.993  74.182 -29.149  1.00  0.00     0.210 HD
ENDBRANCH  26  27
ENDBRANCH  20  26
BRANCH  21  29
ATOM     29  O   UNL     1     -34.340  73.663 -27.523  1.00  0.00    -0.387 OA
ATOM     30  H   UNL     1     -33.410  73.316 -27.551  1.00  0.00     0.211 HD
ENDBRANCH  21  29
ENDBRANCH   1  16
TORSDOF 10
ENDMDL
MODEL 6
REMARK VINA RESULT:    -2.551      1.572      6.381
REMARK INTER + INTRA:          -4.472
REMARK INTER:                  -3.761
REMARK INTRA:                  -0.710
REMARK UNBOUND:                -0.877
REMARK SMILES OCC1=C[C@@H](O)[C@H]2C=CO[C@H](O[C@@H]3O[C@H](CO)[C@H](O)[C@@H](O)[C@@H]3O)[C@@H]12
REMARK SMILES IDX 12 1 11 2 8 3 9 4 7 5 10 6 24 7 5 8 3 9 4 10 6 11 2 13 1 14
REMARK SMILES IDX 13 16 22 17 14 18 20 19 15 20 18 21 23 22 21 24 16 26 17 27
REMARK SMILES IDX 19 29
REMARK H PARENT 6 12 1 15 23 23 21 25 17 28 19 30
REMARK Flexibility Score: inf
ROOT
ATOM      1  O   UNL     1     -38.409  75.038 -26.174  1.00  0.00    -0.310 OA
ENDROOT
BRANCH   1   2
ATOM      2  C   UNL     1     -38.843  76.163 -25.420  1.00  0.00     0.316 C 
ATOM      3  C   UNL     1     -41.522  76.029 -26.360  1.00  0.00     0.018 C 
ATOM      4  C   UNL     1     -40.649  76.860 -26.923  1.00  0.00     0.186 C 
ATOM      5  C   UNL     1     -41.324  75.498 -24.954  1.00  0.00     0.061 C 
ATOM      6  O   UNL     1     -39.426  77.109 -26.310  1.00  0.00    -0.472 OA
ATOM      7  C   UNL     1     -39.885  75.680 -24.381  1.00  0.00     0.096 C 
ATOM      8  C   UNL     1     -42.261  76.202 -23.931  1.00  0.00     0.145 C 
ATOM      9  C   UNL     1     -40.062  76.633 -23.236  1.00  0.00    -0.036 C 
ATOM     10  C   UNL     1     -41.338  76.920 -23.016  1.00  0.00     0.007 C 
BRANCH   8  11
ATOM     11  O   UNL     1     -43.141  77.125 -24.520  1.00  0.00    -0.388 OA
ATOM     12  H   UNL     1     -44.049  76.725 -24.464  1.00  0.00     0.211 HD
ENDBRANCH   8  11
BRANCH   9  13
ATOM     13  C   UNL     1     -38.953  77.079 -22.314  1.00  0.00     0.187 C 
BRANCH  13  14
ATOM     14  O   UNL     1     -38.538  76.017 -21.497  1.00  0.00    -0.392 OA
ATOM     15  H   UNL     1     -38.913  75.183 -21.883  1.00  0.00     0.211 HD
ENDBRANCH  13  14
ENDBRANCH   9  13
ENDBRANCH   1   2
BRANCH   1  16
ATOM     16  C   UNL     1     -37.025  74.748 -26.017  1.00  0.00     0.286 C 
ATOM     17  C   UNL     1     -36.440  73.988 -27.253  1.00  0.00     0.202 C 
ATOM     18  O   UNL     1     -36.301  75.919 -25.641  1.00  0.00    -0.341 OA
ATOM     19  C   UNL     1     -35.534  74.903 -28.112  1.00  0.00     0.179 C 
ATOM     20  C   UNL     1     -34.908  75.708 -25.749  1.00  0.00     0.178 C 
ATOM     21  C   UNL     1     -34.490  75.670 -27.245  1.00  0.00     0.177 C 
BRANCH  17  22
ATOM     22  O   UNL     1     -37.476  73.449 -28.034  1.00  0.00    -0.385 OA
ATOM     23  H   UNL     1     -37.856  74.196 -28.568  1.00  0.00     0.211 HD
ENDBRANCH  17  22
BRANCH  19  24
ATOM     24  O   UNL     1     -34.893  74.167 -29.125  1.00  0.00    -0.387 OA
ATOM     25  H   UNL     1     -35.594  73.817 -29.734  1.00  0.00     0.211 HD
ENDBRANCH  19  24
BRANCH  20  26
ATOM     26  C   UNL     1     -34.151  76.775 -24.937  1.00  0.00     0.191 C 
BRANCH  26  27
ATOM     27  O   UNL     1     -32.785  76.467 -24.835  1.00  0.00    -0.394 OA
ATOM     28  H   UNL     1     -32.327  77.287 -24.512  1.00  0.00     0.210 HD
ENDBRANCH  26  27
ENDBRANCH  20  26
BRANCH  21  29
ATOM     29  O   UNL     1     -34.281  76.959 -27.767  1.00  0.00    -0.387 OA
ATOM     30  H   UNL     1     -34.268  77.594 -27.002  1.00  0.00     0.211 HD
ENDBRANCH  21  29
ENDBRANCH   1  16
TORSDOF 10
ENDMDL
MODEL 7
REMARK VINA RESULT:    -2.521      2.707      7.894
REMARK INTER + INTRA:          -4.429
REMARK INTER:                  -3.471
REMARK INTRA:                  -0.958
REMARK UNBOUND:                -0.877
REMARK SMILES OCC1=C[C@@H](O)[C@H]2C=CO[C@H](O[C@@H]3O[C@H](CO)[C@H](O)[C@@H](O)[C@@H]3O)[C@@H]12
REMARK SMILES IDX 12 1 11 2 8 3 9 4 7 5 10 6 24 7 5 8 3 9 4 10 6 11 2 13 1 14
REMARK SMILES IDX 13 16 22 17 14 18 20 19 15 20 18 21 23 22 21 24 16 26 17 27
REMARK SMILES IDX 19 29
REMARK H PARENT 6 12 1 15 23 23 21 25 17 28 19 30
REMARK Flexibility Score: inf
ROOT
ATOM      1  O   UNL     1     -39.457  76.460 -23.235  1.00  0.00    -0.310 OA
ENDROOT
BRANCH   1   2
ATOM      2  C   UNL     1     -40.610  75.639 -23.091  1.00  0.00     0.316 C 
ATOM      3  C   UNL     1     -41.163  76.511 -20.443  1.00  0.00     0.018 C 
ATOM      4  C   UNL     1     -40.498  75.379 -20.656  1.00  0.00     0.186 C 
ATOM      5  C   UNL     1     -42.058  77.122 -21.505  1.00  0.00     0.061 C 
ATOM      6  O   UNL     1     -40.448  74.828 -21.932  1.00  0.00    -0.472 OA
ATOM      7  C   UNL     1     -41.847  76.558 -22.943  1.00  0.00     0.096 C 
ATOM      8  C   UNL     1     -43.565  76.892 -21.196  1.00  0.00     0.145 C 
ATOM      9  C   UNL     1     -43.139  75.865 -23.261  1.00  0.00    -0.036 C 
ATOM     10  C   UNL     1     -44.046  76.036 -22.309  1.00  0.00     0.007 C 
BRANCH   8  11
ATOM     11  O   UNL     1     -43.793  76.237 -19.974  1.00  0.00    -0.388 OA
ATOM     12  H   UNL     1     -42.900  76.063 -19.575  1.00  0.00     0.211 HD
ENDBRANCH   8  11
BRANCH   9  13
ATOM     13  C   UNL     1     -43.454  75.205 -24.582  1.00  0.00     0.187 C 
BRANCH  13  14
ATOM     14  O   UNL     1     -42.840  75.897 -25.636  1.00  0.00    -0.392 OA
ATOM     15  H   UNL     1     -41.861  75.869 -25.476  1.00  0.00     0.211 HD
ENDBRANCH  13  14
ENDBRANCH   9  13
ENDBRANCH   1   2
BRANCH   1  16
ATOM     16  C   UNL     1     -39.079  76.677 -24.589  1.00  0.00     0.286 C 
ATOM     17  C   UNL     1     -37.529  76.815 -24.753  1.00  0.00     0.202 C 
ATOM     18  O   UNL     1     -39.685  75.710 -25.447  1.00  0.00    -0.341 OA
ATOM     19  C   UNL     1     -36.910  75.560 -25.412  1.00  0.00     0.179 C 
ATOM     20  C   UNL     1     -39.109  75.747 -26.737  1.00  0.00     0.178 C 
ATOM     21  C   UNL     1     -37.681  75.135 -26.699  1.00  0.00     0.177 C 
BRANCH  17  22
ATOM     22  O   UNL     1     -36.925  77.066 -23.510  1.00  0.00    -0.385 OA
ATOM     23  H   UNL     1     -37.026  78.038 -23.329  1.00  0.00     0.211 HD
ENDBRANCH  17  22
BRANCH  19  24
ATOM     24  O   UNL     1     -35.547  75.762 -25.695  1.00  0.00    -0.387 OA
ATOM     25  H   UNL     1     -35.484  76.469 -26.389  1.00  0.00     0.211 HD
ENDBRANCH  19  24
BRANCH  20  26
ATOM     26  C   UNL     1     -40.038  75.052 -27.747  1.00  0.00     0.191 C 
BRANCH  26  27
ATOM     27  O   UNL     1     -40.238  73.702 -27.416  1.00  0.00    -0.394 OA
ATOM     28  H   UNL     1     -41.022  73.666 -26.807  1.00  0.00     0.210 HD
ENDBRANCH  26  27
ENDBRANCH  20  26
BRANCH  21  29
ATOM     29  O   UNL     1     -37.706  73.733 -26.809  1.00  0.00    -0.387 OA
ATOM     30  H   UNL     1     -37.214  73.362 -26.029  1.00  0.00     0.211 HD
ENDBRANCH  21  29
ENDBRANCH   1  16
TORSDOF 10
ENDMDL
MODEL 8
REMARK VINA RESULT:    -2.418      4.301      7.707
REMARK INTER + INTRA:          -4.285
REMARK INTER:                  -3.430
REMARK INTRA:                  -0.855
REMARK UNBOUND:                -0.877
REMARK SMILES OCC1=C[C@@H](O)[C@H]2C=CO[C@H](O[C@@H]3O[C@H](CO)[C@H](O)[C@@H](O)[C@@H]3O)[C@@H]12
REMARK SMILES IDX 12 1 11 2 8 3 9 4 7 5 10 6 24 7 5 8 3 9 4 10 6 11 2 13 1 14
REMARK SMILES IDX 13 16 22 17 14 18 20 19 15 20 18 21 23 22 21 24 16 26 17 27
REMARK SMILES IDX 19 29
REMARK H PARENT 6 12 1 15 23 23 21 25 17 28 19 30
REMARK Flexibility Score: inf
ROOT
ATOM      1  O   UNL     1     -39.961  75.430 -22.587  1.00  0.00    -0.310 OA
ENDROOT
BRANCH   1   2
ATOM      2  C   UNL     1     -40.581  75.357 -21.309  1.00  0.00     0.316 C 
ATOM      3  C   UNL     1     -38.125  75.217 -19.886  1.00  0.00     0.018 C 
ATOM      4  C   UNL     1     -38.802  74.109 -20.176  1.00  0.00     0.186 C 
ATOM      5  C   UNL     1     -38.799  76.575 -19.841  1.00  0.00     0.061 C 
ATOM      6  O   UNL     1     -40.110  74.191 -20.641  1.00  0.00    -0.472 OA
ATOM      7  C   UNL     1     -40.206  76.630 -20.511  1.00  0.00     0.096 C 
ATOM      8  C   UNL     1     -39.025  77.061 -18.381  1.00  0.00     0.145 C 
ATOM      9  C   UNL     1     -41.144  76.913 -19.376  1.00  0.00    -0.036 C 
ATOM     10  C   UNL     1     -40.502  77.125 -18.236  1.00  0.00     0.007 C 
BRANCH   8  11
ATOM     11  O   UNL     1     -38.501  76.189 -17.412  1.00  0.00    -0.388 OA
ATOM     12  H   UNL     1     -38.129  76.760 -16.689  1.00  0.00     0.211 HD
ENDBRANCH   8  11
BRANCH   9  13
ATOM     13  C   UNL     1     -42.632  77.123 -19.527  1.00  0.00     0.187 C 
BRANCH  13  14
ATOM     14  O   UNL     1     -43.261  77.099 -18.274  1.00  0.00    -0.392 OA
ATOM     15  H   UNL     1     -43.973  77.789 -18.288  1.00  0.00     0.211 HD
ENDBRANCH  13  14
ENDBRANCH   9  13
ENDBRANCH   1   2
BRANCH   1  16
ATOM     16  C   UNL     1     -40.631  76.295 -23.496  1.00  0.00     0.286 C 
ATOM     17  C   UNL     1     -39.667  76.855 -24.594  1.00  0.00     0.202 C 
ATOM     18  O   UNL     1     -41.816  75.681 -24.001  1.00  0.00    -0.341 OA
ATOM     19  C   UNL     1     -39.924  76.197 -25.970  1.00  0.00     0.179 C 
ATOM     20  C   UNL     1     -42.335  76.408 -25.096  1.00  0.00     0.178 C 
ATOM     21  C   UNL     1     -41.437  76.200 -26.346  1.00  0.00     0.177 C 
BRANCH  17  22
ATOM     22  O   UNL     1     -38.328  76.680 -24.207  1.00  0.00    -0.385 OA
ATOM     23  H   UNL     1     -37.770  77.186 -24.856  1.00  0.00     0.211 HD
ENDBRANCH  17  22
BRANCH  19  24
ATOM     24  O   UNL     1     -39.162  76.820 -26.976  1.00  0.00    -0.387 OA
ATOM     25  H   UNL     1     -38.904  77.720 -26.645  1.00  0.00     0.211 HD
ENDBRANCH  19  24
BRANCH  20  26
ATOM     26  C   UNL     1     -43.805  76.019 -25.335  1.00  0.00     0.191 C 
BRANCH  26  27
ATOM     27  O   UNL     1     -43.992  74.632 -25.224  1.00  0.00    -0.394 OA
ATOM     28  H   UNL     1     -43.090  74.216 -25.229  1.00  0.00     0.210 HD
ENDBRANCH  26  27
ENDBRANCH  20  26
BRANCH  21  29
ATOM     29  O   UNL     1     -41.766  75.023 -27.041  1.00  0.00    -0.387 OA
ATOM     30  H   UNL     1     -41.080  74.889 -27.747  1.00  0.00     0.211 HD
ENDBRANCH  21  29
ENDBRANCH   1  16
TORSDOF 10
ENDMDL
