MODEL 1
REMARK VINA RESULT:    -3.904      0.000      0.000
REMARK INTER + INTRA:          -5.060
REMARK INTER:                  -4.816
REMARK INTRA:                  -0.243
REMARK UNBOUND:                -0.243
REMARK SMILES CCCCCC(=O)[O-]
REMARK SMILES IDX 4 1 5 2 6 3 7 4 8 5 3 6 2 7 1 8
REMARK H PARENT
REMARK Flexibility Score: inf
ROOT
ATOM      1  C   UNL     1       9.964  22.671  -8.213  1.00  0.00     0.006 C 
ENDROOT
BRANCH   1   2
ATOM      2  C   UNL     1       9.996  21.207  -7.754  1.00  0.00     0.053 C 
BRANCH   2   3
ATOM      3  C   UNL     1      11.396  20.679  -7.791  1.00  0.00     0.041 C 
ATOM      4  O   UNL     1      11.605  19.450  -7.967  1.00  0.00    -0.550 OA
ATOM      5  O   UNL     1      12.468  21.536  -7.582  1.00  0.00    -0.550 OA
ENDBRANCH   2   3
ENDBRANCH   1   2
BRANCH   1   6
ATOM      6  C   UNL     1       9.831  22.810  -9.738  1.00  0.00     0.000 C 
BRANCH   6   7
ATOM      7  C   UNL     1      11.076  23.431 -10.386  1.00  0.00    -0.003 C 
ATOM      8  C   UNL     1      11.727  24.452  -9.458  1.00  0.00     0.004 C 
ENDBRANCH   6   7
ENDBRANCH   1   6
TORSDOF 4
ENDMDL
MODEL 2
REMARK VINA RESULT:    -3.899      1.796      2.227
REMARK INTER + INTRA:          -5.054
REMARK INTER:                  -4.855
REMARK INTRA:                  -0.199
REMARK UNBOUND:                -0.243
REMARK SMILES CCCCCC(=O)[O-]
REMARK SMILES IDX 4 1 5 2 6 3 7 4 8 5 3 6 2 7 1 8
REMARK H PARENT
REMARK Flexibility Score: inf
ROOT
ATOM      1  C   UNL     1       9.664  23.137  -9.432  1.00  0.00     0.006 C 
ENDROOT
BRANCH   1   2
ATOM      2  C   UNL     1       9.638  21.828  -8.632  1.00  0.00     0.053 C 
BRANCH   2   3
ATOM      3  C   UNL     1       9.631  22.114  -7.164  1.00  0.00     0.041 C 
ATOM      4  O   UNL     1       8.609  22.609  -6.620  1.00  0.00    -0.550 OA
ATOM      5  O   UNL     1      10.770  21.881  -6.404  1.00  0.00    -0.550 OA
ENDBRANCH   2   3
ENDBRANCH   1   2
BRANCH   1   6
ATOM      6  C   UNL     1      10.985  23.340 -10.190  1.00  0.00     0.000 C 
BRANCH   6   7
ATOM      7  C   UNL     1      11.769  24.564  -9.694  1.00  0.00    -0.003 C 
ATOM      8  C   UNL     1      12.579  24.228  -8.446  1.00  0.00     0.004 C 
ENDBRANCH   6   7
ENDBRANCH   1   6
TORSDOF 4
ENDMDL
MODEL 3
REMARK VINA RESULT:    -3.880      5.001      5.877
REMARK INTER + INTRA:          -5.031
REMARK INTER:                  -4.862
REMARK INTRA:                  -0.169
REMARK UNBOUND:                -0.243
REMARK SMILES CCCCCC(=O)[O-]
REMARK SMILES IDX 4 1 5 2 6 3 7 4 8 5 3 6 2 7 1 8
REMARK H PARENT
REMARK Flexibility Score: inf
ROOT
ATOM      1  C   UNL     1       6.825  24.058  -8.647  1.00  0.00     0.006 C 
ENDROOT
BRANCH   1   2
ATOM      2  C   UNL     1       7.481  23.642  -7.323  1.00  0.00     0.053 C 
BRANCH   2   3
ATOM      3  C   UNL     1       6.577  23.954  -6.172  1.00  0.00     0.041 C 
ATOM      4  O   UNL     1       6.616  25.087  -5.626  1.00  0.00    -0.550 OA
ATOM      5  O   UNL     1       5.727  22.977  -5.671  1.00  0.00    -0.550 OA
ENDBRANCH   2   3
ENDBRANCH   1   2
BRANCH   1   6
ATOM      6  C   UNL     1       6.738  22.900  -9.653  1.00  0.00     0.000 C 
BRANCH   6   7
ATOM      7  C   UNL     1       5.302  22.637 -10.129  1.00  0.00    -0.003 C 
ATOM      8  C   UNL     1       4.337  22.566  -8.949  1.00  0.00     0.004 C 
ENDBRANCH   6   7
ENDBRANCH   1   6
TORSDOF 4
ENDMDL
MODEL 4
REMARK VINA RESULT:    -3.829      4.593      5.331
REMARK INTER + INTRA:          -4.967
REMARK INTER:                  -4.743
REMARK INTRA:                  -0.224
REMARK UNBOUND:                -0.243
REMARK SMILES CCCCCC(=O)[O-]
REMARK SMILES IDX 4 1 5 2 6 3 7 4 8 5 3 6 2 7 1 8
REMARK H PARENT
REMARK Flexibility Score: inf
ROOT
ATOM      1  C   UNL     1       6.890  24.359  -8.233  1.00  0.00     0.006 C 
ENDROOT
BRANCH   1   2
ATOM      2  C   UNL     1       6.878  24.562  -6.712  1.00  0.00     0.053 C 
BRANCH   2   3
ATOM      3  C   UNL     1       6.288  23.367  -6.031  1.00  0.00     0.041 C 
ATOM      4  O   UNL     1       6.979  22.696  -5.220  1.00  0.00    -0.550 OA
ATOM      5  O   UNL     1       4.993  22.965  -6.330  1.00  0.00    -0.550 OA
ENDBRANCH   2   3
ENDBRANCH   1   2
BRANCH   1   6
ATOM      6  C   UNL     1       7.891  23.280  -8.677  1.00  0.00     0.000 C 
BRANCH   6   7
ATOM      7  C   UNL     1       7.412  22.500  -9.909  1.00  0.00    -0.003 C 
ATOM      8  C   UNL     1       5.893  22.561 -10.041  1.00  0.00     0.004 C 
ENDBRANCH   6   7
ENDBRANCH   1   6
TORSDOF 4
ENDMDL
MODEL 5
REMARK VINA RESULT:    -3.815      2.360      3.431
REMARK INTER + INTRA:          -4.951
REMARK INTER:                  -4.837
REMARK INTRA:                  -0.113
REMARK UNBOUND:                -0.243
REMARK SMILES CCCCCC(=O)[O-]
REMARK SMILES IDX 4 1 5 2 6 3 7 4 8 5 3 6 2 7 1 8
REMARK H PARENT
REMARK Flexibility Score: inf
ROOT
ATOM      1  C   UNL     1       9.213  22.466  -9.184  1.00  0.00     0.006 C 
ENDROOT
BRANCH   1   2
ATOM      2  C   UNL     1      10.407  22.906 -10.043  1.00  0.00     0.053 C 
BRANCH   2   3
ATOM      3  C   UNL     1      11.415  23.626  -9.204  1.00  0.00     0.041 C 
ATOM      4  O   UNL     1      11.626  23.263  -8.017  1.00  0.00    -0.550 OA
ATOM      5  O   UNL     1      12.086  24.729  -9.716  1.00  0.00    -0.550 OA
ENDBRANCH   2   3
ENDBRANCH   1   2
BRANCH   1   6
ATOM      6  C   UNL     1       7.895  22.443  -9.974  1.00  0.00     0.000 C 
BRANCH   6   7
ATOM      7  C   UNL     1       6.768  23.209  -9.264  1.00  0.00    -0.003 C 
ATOM      8  C   UNL     1       7.322  24.387  -8.469  1.00  0.00     0.004 C 
ENDBRANCH   6   7
ENDBRANCH   1   6
TORSDOF 4
ENDMDL
MODEL 6
REMARK VINA RESULT:    -3.792      4.065      4.689
REMARK INTER + INTRA:          -4.922
REMARK INTER:                  -4.766
REMARK INTRA:                  -0.156
REMARK UNBOUND:                -0.243
REMARK SMILES CCCCCC(=O)[O-]
REMARK SMILES IDX 4 1 5 2 6 3 7 4 8 5 3 6 2 7 1 8
REMARK H PARENT
REMARK Flexibility Score: inf
ROOT
ATOM      1  C   UNL     1       7.387  24.009  -8.452  1.00  0.00     0.006 C 
ENDROOT
BRANCH   1   2
ATOM      2  C   UNL     1       6.328  23.626  -7.409  1.00  0.00     0.053 C 
BRANCH   2   3
ATOM      3  C   UNL     1       6.796  23.987  -6.034  1.00  0.00     0.041 C 
ATOM      4  O   UNL     1       7.317  23.113  -5.293  1.00  0.00    -0.550 OA
ATOM      5  O   UNL     1       6.611  25.276  -5.552  1.00  0.00    -0.550 OA
ENDBRANCH   2   3
ENDBRANCH   1   2
BRANCH   1   6
ATOM      6  C   UNL     1       7.672  22.873  -9.447  1.00  0.00     0.000 C 
BRANCH   6   7
ATOM      7  C   UNL     1       9.162  22.511  -9.520  1.00  0.00    -0.003 C 
ATOM      8  C   UNL     1       9.693  22.094  -8.152  1.00  0.00     0.004 C 
ENDBRANCH   6   7
ENDBRANCH   1   6
TORSDOF 4
ENDMDL
MODEL 7
REMARK VINA RESULT:    -3.765      3.002      4.039
REMARK INTER + INTRA:          -4.889
REMARK INTER:                  -4.792
REMARK INTRA:                  -0.097
REMARK UNBOUND:                -0.243
REMARK SMILES CCCCCC(=O)[O-]
REMARK SMILES IDX 4 1 5 2 6 3 7 4 8 5 3 6 2 7 1 8
REMARK H PARENT
REMARK Flexibility Score: inf
ROOT
ATOM      1  C   UNL     1       8.341  23.420  -8.545  1.00  0.00     0.006 C 
ENDROOT
BRANCH   1   2
ATOM      2  C   UNL     1       8.898  22.519  -9.655  1.00  0.00     0.053 C 
BRANCH   2   3
ATOM      3  C   UNL     1      10.394  22.561  -9.659  1.00  0.00     0.041 C 
ATOM      4  O   UNL     1      11.005  23.259 -10.510  1.00  0.00    -0.550 OA
ATOM      5  O   UNL     1      11.113  21.790  -8.756  1.00  0.00    -0.550 OA
ENDBRANCH   2   3
ENDBRANCH   1   2
BRANCH   1   6
ATOM      6  C   UNL     1       6.872  23.807  -8.780  1.00  0.00     0.000 C 
BRANCH   6   7
ATOM      7  C   UNL     1       6.163  22.867  -9.765  1.00  0.00    -0.003 C 
ATOM      8  C   UNL     1       4.713  22.631  -9.353  1.00  0.00     0.004 C 
ENDBRANCH   6   7
ENDBRANCH   1   6
TORSDOF 4
ENDMDL
MODEL 8
REMARK VINA RESULT:    -3.744      2.224      2.858
REMARK INTER + INTRA:          -4.863
REMARK INTER:                  -4.640
REMARK INTRA:                  -0.223
REMARK UNBOUND:                -0.243
REMARK SMILES CCCCCC(=O)[O-]
REMARK SMILES IDX 4 1 5 2 6 3 7 4 8 5 3 6 2 7 1 8
REMARK H PARENT
REMARK Flexibility Score: inf
ROOT
ATOM      1  C   UNL     1       9.356  23.092  -9.075  1.00  0.00     0.006 C 
ENDROOT
BRANCH   1   2
ATOM      2  C   UNL     1      10.386  22.019  -8.696  1.00  0.00     0.053 C 
BRANCH   2   3
ATOM      3  C   UNL     1       9.965  21.309  -7.447  1.00  0.00     0.041 C 
ATOM      4  O   UNL     1      10.191  20.078  -7.312  1.00  0.00    -0.550 OA
ATOM      5  O   UNL     1       9.277  21.996  -6.456  1.00  0.00    -0.550 OA
ENDBRANCH   2   3
ENDBRANCH   1   2
BRANCH   1   6
ATOM      6  C   UNL     1       8.116  22.502  -9.764  1.00  0.00     0.000 C 
BRANCH   6   7
ATOM      7  C   UNL     1       6.811  23.169  -9.305  1.00  0.00    -0.003 C 
ATOM      8  C   UNL     1       7.090  24.298  -8.317  1.00  0.00     0.004 C 
ENDBRANCH   6   7
ENDBRANCH   1   6
TORSDOF 4
ENDMDL
MODEL 9
REMARK VINA RESULT:    -3.723      2.114      2.970
REMARK INTER + INTRA:          -4.837
REMARK INTER:                  -4.616
REMARK INTRA:                  -0.221
REMARK UNBOUND:                -0.243
REMARK SMILES CCCCCC(=O)[O-]
REMARK SMILES IDX 4 1 5 2 6 3 7 4 8 5 3 6 2 7 1 8
REMARK H PARENT
REMARK Flexibility Score: inf
ROOT
ATOM      1  C   UNL     1       9.411  23.082  -9.340  1.00  0.00     0.006 C 
ENDROOT
BRANCH   1   2
ATOM      2  C   UNL     1      10.490  22.091  -8.883  1.00  0.00     0.053 C 
BRANCH   2   3
ATOM      3  C   UNL     1      10.093  21.444  -7.594  1.00  0.00     0.041 C 
ATOM      4  O   UNL     1       9.617  22.137  -6.658  1.00  0.00    -0.550 OA
ATOM      5  O   UNL     1      10.296  20.082  -7.409  1.00  0.00    -0.550 OA
ENDBRANCH   2   3
ENDBRANCH   1   2
BRANCH   1   6
ATOM      6  C   UNL     1       8.113  22.382  -9.773  1.00  0.00     0.000 C 
BRANCH   6   7
ATOM      7  C   UNL     1       6.857  23.186  -9.406  1.00  0.00    -0.003 C 
ATOM      8  C   UNL     1       7.143  24.163  -8.270  1.00  0.00     0.004 C 
ENDBRANCH   6   7
ENDBRANCH   1   6
TORSDOF 4
ENDMDL
