MODEL 1
REMARK VINA RESULT:    -4.438      0.000      0.000
REMARK INTER + INTRA:          -5.707
REMARK INTER:                  -5.347
REMARK INTRA:                  -0.360
REMARK UNBOUND:                -0.360
REMARK SMILES Oc1cc(O)c2c(c1)O[C@H](c1ccc(O)c(O)c1)[C@@H](O)C2
REMARK SMILES IDX 21 1 19 2 10 3 9 4 7 5 8 6 2 7 3 8 4 9 6 10 20 11 11 13
REMARK SMILES IDX 18 14 12 15 16 16 13 17 14 18 17 19 15 21 5 23 1 25
REMARK H PARENT 20 12 17 20 15 22 5 24 1 26
REMARK Flexibility Score: inf
ROOT
ATOM      1  C   UNL     1      33.138  17.524  17.709  1.00  0.00     0.079 C 
ATOM      2  C   UNL     1      32.639  17.059  16.328  1.00  0.00     0.164 C 
ATOM      3  C   UNL     1      31.379  17.849  15.934  1.00  0.00     0.232 C 
ATOM      4  O   UNL     1      30.378  17.692  16.940  1.00  0.00    -0.482 OA
ATOM      5  C   UNL     1      30.686  17.666  18.304  1.00  0.00     0.131 A 
ATOM      6  C   UNL     1      29.646  17.701  19.236  1.00  0.00     0.093 A 
ATOM      7  C   UNL     1      29.923  17.691  20.604  1.00  0.00     0.122 A 
ATOM      8  C   UNL     1      31.252  17.656  21.044  1.00  0.00     0.092 A 
ATOM      9  C   UNL     1      32.307  17.621  20.124  1.00  0.00     0.126 A 
ATOM     10  C   UNL     1      32.028  17.586  18.737  1.00  0.00     0.039 A 
ENDROOT
BRANCH   2  11
ATOM     11  O   UNL     1      33.643  17.261  15.367  1.00  0.00    -0.389 OA
ATOM     12  H   UNL     1      33.566  18.205  15.067  1.00  0.00     0.211 HD
ENDBRANCH   2  11
BRANCH   3  13
ATOM     13  C   UNL     1      30.836  17.385  14.603  1.00  0.00    -0.001 A 
ATOM     14  C   UNL     1      30.601  18.305  13.567  1.00  0.00     0.057 A 
ATOM     15  C   UNL     1      30.516  16.033  14.403  1.00  0.00     0.012 A 
ATOM     16  C   UNL     1      30.071  17.878  12.340  1.00  0.00     0.157 A 
ATOM     17  C   UNL     1      29.989  15.605  13.181  1.00  0.00     0.050 A 
ATOM     18  C   UNL     1      29.766  16.521  12.147  1.00  0.00     0.157 A 
BRANCH  16  19
ATOM     19  O   UNL     1      29.847  18.798  11.317  1.00  0.00    -0.504 OA
ATOM     20  H   UNL     1      30.609  19.184  10.773  1.00  0.00     0.293 HD
ENDBRANCH  16  19
BRANCH  18  21
ATOM     21  O   UNL     1      29.240  16.065  10.939  1.00  0.00    -0.504 OA
ATOM     22  H   UNL     1      28.258  16.159  10.709  1.00  0.00     0.293 HD
ENDBRANCH  18  21
ENDBRANCH   3  13
BRANCH   9  23
ATOM     23  O   UNL     1      33.612  17.632  20.621  1.00  0.00    -0.507 OA
ATOM     24  H   UNL     1      34.363  18.161  20.200  1.00  0.00     0.293 HD
ENDBRANCH   9  23
BRANCH   7  25
ATOM     25  O   UNL     1      28.874  17.725  21.519  1.00  0.00    -0.508 OA
ATOM     26  H   UNL     1      27.911  17.600  21.228  1.00  0.00     0.293 HD
ENDBRANCH   7  25
TORSDOF 6
ENDMDL
MODEL 2
REMARK VINA RESULT:    -1.764      1.692      7.257
REMARK INTER + INTRA:          -2.486
REMARK INTER:                  -2.185
REMARK INTRA:                  -0.301
REMARK UNBOUND:                -0.360
REMARK SMILES Oc1cc(O)c2c(c1)O[C@H](c1ccc(O)c(O)c1)[C@@H](O)C2
REMARK SMILES IDX 21 1 19 2 10 3 9 4 7 5 8 6 2 7 3 8 4 9 6 10 20 11 11 13
REMARK SMILES IDX 18 14 12 15 16 16 13 17 14 18 17 19 15 21 5 23 1 25
REMARK H PARENT 20 12 17 20 15 22 5 24 1 26
REMARK Flexibility Score: inf
ROOT
ATOM      1  C   UNL     1      31.145  14.710  13.103  1.00  0.00     0.079 C 
ATOM      2  C   UNL     1      31.752  15.292  14.393  1.00  0.00     0.164 C 
ATOM      3  C   UNL     1      30.734  16.222  15.076  1.00  0.00     0.232 C 
ATOM      4  O   UNL     1      30.334  17.249  14.168  1.00  0.00    -0.482 OA
ATOM      5  C   UNL     1      30.126  17.004  12.807  1.00  0.00     0.131 A 
ATOM      6  C   UNL     1      29.555  18.004  12.016  1.00  0.00     0.093 A 
ATOM      7  C   UNL     1      29.321  17.783  10.658  1.00  0.00     0.122 A 
ATOM      8  C   UNL     1      29.653  16.548  10.087  1.00  0.00     0.092 A 
ATOM      9  C   UNL     1      30.226  15.534  10.865  1.00  0.00     0.126 A 
ATOM     10  C   UNL     1      30.504  15.770  12.232  1.00  0.00     0.039 A 
ENDROOT
BRANCH   2  11
ATOM     11  O   UNL     1      32.101  14.249  15.267  1.00  0.00    -0.389 OA
ATOM     12  H   UNL     1      32.920  13.828  14.897  1.00  0.00     0.211 HD
ENDBRANCH   2  11
BRANCH   3  13
ATOM     13  C   UNL     1      31.315  16.847  16.322  1.00  0.00    -0.001 A 
ATOM     14  C   UNL     1      30.553  16.932  17.501  1.00  0.00     0.057 A 
ATOM     15  C   UNL     1      32.608  17.392  16.303  1.00  0.00     0.012 A 
ATOM     16  C   UNL     1      31.083  17.537  18.650  1.00  0.00     0.157 A 
ATOM     17  C   UNL     1      33.139  17.995  17.447  1.00  0.00     0.050 A 
ATOM     18  C   UNL     1      32.383  18.069  18.622  1.00  0.00     0.157 A 
BRANCH  16  19
ATOM     19  O   UNL     1      30.322  17.612  19.816  1.00  0.00    -0.504 OA
ATOM     20  H   UNL     1      29.668  18.368  19.976  1.00  0.00     0.293 HD
ENDBRANCH  16  19
BRANCH  18  21
ATOM     21  O   UNL     1      32.939  18.674  19.749  1.00  0.00    -0.504 OA
ATOM     22  H   UNL     1      33.418  19.565  19.700  1.00  0.00     0.293 HD
ENDBRANCH  18  21
ENDBRANCH   3  13
BRANCH   9  23
ATOM     23  O   UNL     1      30.494  14.309  10.251  1.00  0.00    -0.507 OA
ATOM     24  H   UNL     1      31.423  14.010   9.987  1.00  0.00     0.293 HD
ENDBRANCH   9  23
BRANCH   7  25
ATOM     25  O   UNL     1      28.753  18.792   9.885  1.00  0.00    -0.508 OA
ATOM     26  H   UNL     1      28.755  19.759  10.188  1.00  0.00     0.293 HD
ENDBRANCH   7  25
TORSDOF 6
ENDMDL
