MODEL 1
REMARK VINA RESULT:    -4.437      0.000      0.000
REMARK INTER + INTRA:         -16.164
REMARK INTER:                 -11.181
REMARK INTRA:                  -4.983
REMARK UNBOUND:                -4.983
REMARK SMILES CCCCCCCCCCCCCCCCCCCCCCCCCCCC(=O)[O-]
REMARK SMILES IDX 15 1 16 2 17 3 18 4 19 5 20 6 21 7 22 8 23 9 24 10 25 11
REMARK SMILES IDX 26 12 27 13 28 14 29 15 30 16 14 17 13 18 12 19 11 20 10 21
REMARK SMILES IDX 9 22 8 23 7 24 6 25 5 26 4 27 3 28 2 29 1 30
REMARK H PARENT
REMARK Flexibility Score: inf
ROOT
ATOM      1  C   UNL     1      53.503  30.412  37.270  1.00  0.00     0.000 C 
ENDROOT
BRANCH   1   2
ATOM      2  C   UNL     1      53.982  29.253  36.377  1.00  0.00     0.000 C 
BRANCH   2   3
ATOM      3  C   UNL     1      53.167  29.134  35.081  1.00  0.00     0.000 C 
BRANCH   3   4
ATOM      4  C   UNL     1      53.888  28.309  34.004  1.00  0.00     0.000 C 
BRANCH   4   5
ATOM      5  C   UNL     1      55.377  28.155  34.343  1.00  0.00     0.000 C 
BRANCH   5   6
ATOM      6  C   UNL     1      55.885  26.711  34.173  1.00  0.00     0.000 C 
BRANCH   6   7
ATOM      7  C   UNL     1      54.850  25.719  33.610  1.00  0.00     0.000 C 
BRANCH   7   8
ATOM      8  C   UNL     1      54.538  24.565  34.575  1.00  0.00     0.000 C 
BRANCH   8   9
ATOM      9  C   UNL     1      54.774  24.984  36.034  1.00  0.00     0.000 C 
BRANCH   9  10
ATOM     10  C   UNL     1      53.498  25.557  36.687  1.00  0.00     0.000 C 
BRANCH  10  11
ATOM     11  C   UNL     1      52.195  25.005  36.082  1.00  0.00     0.000 C 
BRANCH  11  12
ATOM     12  C   UNL     1      51.200  26.112  35.697  1.00  0.00     0.006 C 
BRANCH  12  13
ATOM     13  C   UNL     1      50.914  26.136  34.190  1.00  0.00     0.053 C 
BRANCH  13  14
ATOM     14  C   UNL     1      49.444  26.153  33.904  1.00  0.00     0.041 C 
ATOM     15  O   UNL     1      49.029  26.347  32.730  1.00  0.00    -0.550 OA
ATOM     16  O   UNL     1      48.532  25.983  34.938  1.00  0.00    -0.550 OA
ENDBRANCH  13  14
ENDBRANCH  12  13
ENDBRANCH  11  12
ENDBRANCH  10  11
ENDBRANCH   9  10
ENDBRANCH   8   9
ENDBRANCH   7   8
ENDBRANCH   6   7
ENDBRANCH   5   6
ENDBRANCH   4   5
ENDBRANCH   3   4
ENDBRANCH   2   3
ENDBRANCH   1   2
BRANCH   1  17
ATOM     17  C   UNL     1      54.511  31.581  37.300  1.00  0.00     0.000 C 
BRANCH  17  18
ATOM     18  C   UNL     1      55.780  31.282  38.117  1.00  0.00     0.000 C 
BRANCH  18  19
ATOM     19  C   UNL     1      56.961  32.189  37.733  1.00  0.00     0.000 C 
BRANCH  19  20
ATOM     20  C   UNL     1      57.894  31.543  36.698  1.00  0.00     0.000 C 
BRANCH  20  21
ATOM     21  C   UNL     1      57.659  30.029  36.543  1.00  0.00     0.000 C 
BRANCH  21  22
ATOM     22  C   UNL     1      58.792  29.189  37.154  1.00  0.00    -0.000 C 
BRANCH  22  23
ATOM     23  C   UNL     1      58.489  28.742  38.594  1.00  0.00    -0.000 C 
BRANCH  23  24
ATOM     24  C   UNL     1      59.066  29.704  39.648  1.00  0.00    -0.000 C 
BRANCH  24  25
ATOM     25  C   UNL     1      58.825  29.216  41.087  1.00  0.00    -0.000 C 
BRANCH  25  26
ATOM     26  C   UNL     1      57.523  29.768  41.696  1.00  0.00    -0.000 C 
BRANCH  26  27
ATOM     27  C   UNL     1      56.348  28.774  41.730  1.00  0.00    -0.000 C 
BRANCH  27  28
ATOM     28  C   UNL     1      55.282  29.068  40.664  1.00  0.00    -0.000 C 
BRANCH  28  29
ATOM     29  C   UNL     1      55.084  27.863  39.738  1.00  0.00    -0.003 C 
ATOM     30  C   UNL     1      55.863  26.649  40.238  1.00  0.00     0.004 C 
ENDBRANCH  28  29
ENDBRANCH  27  28
ENDBRANCH  26  27
ENDBRANCH  25  26
ENDBRANCH  24  25
ENDBRANCH  23  24
ENDBRANCH  22  23
ENDBRANCH  21  22
ENDBRANCH  20  21
ENDBRANCH  19  20
ENDBRANCH  18  19
ENDBRANCH  17  18
ENDBRANCH   1  17
TORSDOF 26
ENDMDL
MODEL 2
REMARK VINA RESULT:    -4.427      3.225      8.179
REMARK INTER + INTRA:         -16.139
REMARK INTER:                 -11.759
REMARK INTRA:                  -4.380
REMARK UNBOUND:                -4.983
REMARK SMILES CCCCCCCCCCCCCCCCCCCCCCCCCCCC(=O)[O-]
REMARK SMILES IDX 15 1 16 2 17 3 18 4 19 5 20 6 21 7 22 8 23 9 24 10 25 11
REMARK SMILES IDX 26 12 27 13 28 14 29 15 30 16 14 17 13 18 12 19 11 20 10 21
REMARK SMILES IDX 9 22 8 23 7 24 6 25 5 26 4 27 3 28 2 29 1 30
REMARK H PARENT
REMARK Flexibility Score: inf
ROOT
ATOM      1  C   UNL     1      53.209  30.205  36.630  1.00  0.00     0.000 C 
ENDROOT
BRANCH   1   2
ATOM      2  C   UNL     1      53.546  30.383  38.121  1.00  0.00     0.000 C 
BRANCH   2   3
ATOM      3  C   UNL     1      54.628  29.403  38.600  1.00  0.00     0.000 C 
BRANCH   3   4
ATOM      4  C   UNL     1      54.669  29.272  40.130  1.00  0.00     0.000 C 
BRANCH   4   5
ATOM      5  C   UNL     1      55.990  29.819  40.688  1.00  0.00     0.000 C 
BRANCH   5   6
ATOM      6  C   UNL     1      56.062  31.358  40.659  1.00  0.00     0.000 C 
BRANCH   6   7
ATOM      7  C   UNL     1      57.199  31.940  39.797  1.00  0.00     0.000 C 
BRANCH   7   8
ATOM      8  C   UNL     1      56.695  32.913  38.720  1.00  0.00     0.000 C 
BRANCH   8   9
ATOM      9  C   UNL     1      56.720  32.261  37.329  1.00  0.00     0.000 C 
BRANCH   9  10
ATOM     10  C   UNL     1      57.930  31.320  37.150  1.00  0.00     0.000 C 
BRANCH  10  11
ATOM     11  C   UNL     1      57.552  29.924  36.625  1.00  0.00     0.000 C 
BRANCH  11  12
ATOM     12  C   UNL     1      58.678  28.893  36.805  1.00  0.00     0.006 C 
BRANCH  12  13
ATOM     13  C   UNL     1      58.184  27.606  37.476  1.00  0.00     0.053 C 
BRANCH  13  14
ATOM     14  C   UNL     1      58.591  27.540  38.916  1.00  0.00     0.041 C 
ATOM     15  O   UNL     1      58.440  26.473  39.569  1.00  0.00    -0.550 OA
ATOM     16  O   UNL     1      59.111  28.664  39.545  1.00  0.00    -0.550 OA
ENDBRANCH  13  14
ENDBRANCH  12  13
ENDBRANCH  11  12
ENDBRANCH  10  11
ENDBRANCH   9  10
ENDBRANCH   8   9
ENDBRANCH   7   8
ENDBRANCH   6   7
ENDBRANCH   5   6
ENDBRANCH   4   5
ENDBRANCH   3   4
ENDBRANCH   2   3
ENDBRANCH   1   2
BRANCH   1  17
ATOM     17  C   UNL     1      53.958  29.011  36.001  1.00  0.00     0.000 C 
BRANCH  17  18
ATOM     18  C   UNL     1      53.526  28.701  34.557  1.00  0.00     0.000 C 
BRANCH  18  19
ATOM     19  C   UNL     1      54.368  27.590  33.910  1.00  0.00     0.000 C 
BRANCH  19  20
ATOM     20  C   UNL     1      54.851  26.543  34.925  1.00  0.00     0.000 C 
BRANCH  20  21
ATOM     21  C   UNL     1      53.860  25.378  35.098  1.00  0.00     0.000 C 
BRANCH  21  22
ATOM     22  C   UNL     1      53.047  25.481  36.397  1.00  0.00    -0.000 C 
BRANCH  22  23
ATOM     23  C   UNL     1      52.041  24.329  36.561  1.00  0.00    -0.000 C 
BRANCH  23  24
ATOM     24  C   UNL     1      50.585  24.775  36.340  1.00  0.00    -0.000 C 
BRANCH  24  25
ATOM     25  C   UNL     1      50.487  26.159  35.673  1.00  0.00    -0.000 C 
BRANCH  25  26
ATOM     26  C   UNL     1      49.283  26.281  34.721  1.00  0.00    -0.000 C 
BRANCH  26  27
ATOM     27  C   UNL     1      49.604  26.050  33.233  1.00  0.00    -0.000 C 
BRANCH  27  28
ATOM     28  C   UNL     1      51.084  25.727  32.981  1.00  0.00    -0.000 C 
BRANCH  28  29
ATOM     29  C   UNL     1      51.235  24.412  32.207  1.00  0.00    -0.003 C 
ATOM     30  C   UNL     1      51.440  23.234  33.156  1.00  0.00     0.004 C 
ENDBRANCH  28  29
ENDBRANCH  27  28
ENDBRANCH  26  27
ENDBRANCH  25  26
ENDBRANCH  24  25
ENDBRANCH  23  24
ENDBRANCH  22  23
ENDBRANCH  21  22
ENDBRANCH  20  21
ENDBRANCH  19  20
ENDBRANCH  18  19
ENDBRANCH  17  18
ENDBRANCH   1  17
TORSDOF 26
ENDMDL
MODEL 3
REMARK VINA RESULT:    -4.353      3.017      7.301
REMARK INTER + INTRA:         -15.951
REMARK INTER:                 -10.962
REMARK INTRA:                  -4.989
REMARK UNBOUND:                -4.983
REMARK SMILES CCCCCCCCCCCCCCCCCCCCCCCCCCCC(=O)[O-]
REMARK SMILES IDX 15 1 16 2 17 3 18 4 19 5 20 6 21 7 22 8 23 9 24 10 25 11
REMARK SMILES IDX 26 12 27 13 28 14 29 15 30 16 14 17 13 18 12 19 11 20 10 21
REMARK SMILES IDX 9 22 8 23 7 24 6 25 5 26 4 27 3 28 2 29 1 30
REMARK H PARENT
REMARK Flexibility Score: inf
ROOT
ATOM      1  C   UNL     1      53.282  30.207  37.221  1.00  0.00     0.000 C 
ENDROOT
BRANCH   1   2
ATOM      2  C   UNL     1      54.550  31.065  37.374  1.00  0.00     0.000 C 
BRANCH   2   3
ATOM      3  C   UNL     1      55.063  31.103  38.822  1.00  0.00     0.000 C 
BRANCH   3   4
ATOM      4  C   UNL     1      56.562  31.430  38.907  1.00  0.00     0.000 C 
BRANCH   4   5
ATOM      5  C   UNL     1      57.103  31.868  37.539  1.00  0.00     0.000 C 
BRANCH   5   6
ATOM      6  C   UNL     1      58.167  30.905  36.979  1.00  0.00     0.000 C 
BRANCH   6   7
ATOM      7  C   UNL     1      58.429  29.654  37.838  1.00  0.00     0.000 C 
BRANCH   7   8
ATOM      8  C   UNL     1      58.945  28.461  37.017  1.00  0.00     0.000 C 
BRANCH   8   9
ATOM      9  C   UNL     1      57.870  27.372  36.886  1.00  0.00     0.000 C 
BRANCH   9  10
ATOM     10  C   UNL     1      56.534  27.794  37.534  1.00  0.00     0.000 C 
BRANCH  10  11
ATOM     11  C   UNL     1      56.059  26.839  38.643  1.00  0.00     0.000 C 
BRANCH  11  12
ATOM     12  C   UNL     1      55.281  27.558  39.757  1.00  0.00     0.006 C 
BRANCH  12  13
ATOM     13  C   UNL     1      56.211  28.188  40.801  1.00  0.00     0.053 C 
BRANCH  13  14
ATOM     14  C   UNL     1      55.442  28.808  41.927  1.00  0.00     0.041 C 
ATOM     15  O   UNL     1      55.548  30.041  42.163  1.00  0.00    -0.550 OA
ATOM     16  O   UNL     1      54.630  28.020  42.734  1.00  0.00    -0.550 OA
ENDBRANCH  13  14
ENDBRANCH  12  13
ENDBRANCH  11  12
ENDBRANCH  10  11
ENDBRANCH   9  10
ENDBRANCH   8   9
ENDBRANCH   7   8
ENDBRANCH   6   7
ENDBRANCH   5   6
ENDBRANCH   4   5
ENDBRANCH   3   4
ENDBRANCH   2   3
ENDBRANCH   1   2
BRANCH   1  17
ATOM     17  C   UNL     1      53.495  29.016  36.262  1.00  0.00     0.000 C 
BRANCH  17  18
ATOM     18  C   UNL     1      52.950  29.259  34.843  1.00  0.00     0.000 C 
BRANCH  18  19
ATOM     19  C   UNL     1      53.747  28.508  33.765  1.00  0.00     0.000 C 
BRANCH  19  20
ATOM     20  C   UNL     1      55.168  28.145  34.219  1.00  0.00     0.000 C 
BRANCH  20  21
ATOM     21  C   UNL     1      55.471  26.641  34.093  1.00  0.00     0.000 C 
BRANCH  21  22
ATOM     22  C   UNL     1      54.199  25.778  34.117  1.00  0.00    -0.000 C 
BRANCH  22  23
ATOM     23  C   UNL     1      53.796  25.355  35.540  1.00  0.00    -0.000 C 
BRANCH  23  24
ATOM     24  C   UNL     1      52.654  24.324  35.551  1.00  0.00    -0.000 C 
BRANCH  24  25
ATOM     25  C   UNL     1      52.348  23.767  34.150  1.00  0.00    -0.000 C 
BRANCH  25  26
ATOM     26  C   UNL     1      50.916  24.082  33.680  1.00  0.00    -0.000 C 
BRANCH  26  27
ATOM     27  C   UNL     1      50.775  25.355  32.827  1.00  0.00    -0.000 C 
BRANCH  27  28
ATOM     28  C   UNL     1      50.598  26.626  33.670  1.00  0.00    -0.000 C 
BRANCH  28  29
ATOM     29  C   UNL     1      49.348  26.529  34.553  1.00  0.00    -0.003 C 
ATOM     30  C   UNL     1      49.715  26.576  36.034  1.00  0.00     0.004 C 
ENDBRANCH  28  29
ENDBRANCH  27  28
ENDBRANCH  26  27
ENDBRANCH  25  26
ENDBRANCH  24  25
ENDBRANCH  23  24
ENDBRANCH  22  23
ENDBRANCH  21  22
ENDBRANCH  20  21
ENDBRANCH  19  20
ENDBRANCH  18  19
ENDBRANCH  17  18
ENDBRANCH   1  17
TORSDOF 26
ENDMDL
MODEL 4
REMARK VINA RESULT:    -4.351      1.477      3.254
REMARK INTER + INTRA:         -15.948
REMARK INTER:                 -10.445
REMARK INTRA:                  -5.503
REMARK UNBOUND:                -4.983
REMARK SMILES CCCCCCCCCCCCCCCCCCCCCCCCCCCC(=O)[O-]
REMARK SMILES IDX 15 1 16 2 17 3 18 4 19 5 20 6 21 7 22 8 23 9 24 10 25 11
REMARK SMILES IDX 26 12 27 13 28 14 29 15 30 16 14 17 13 18 12 19 11 20 10 21
REMARK SMILES IDX 9 22 8 23 7 24 6 25 5 26 4 27 3 28 2 29 1 30
REMARK H PARENT
REMARK Flexibility Score: inf
ROOT
ATOM      1  C   UNL     1      53.382  27.794  35.291  1.00  0.00     0.000 C 
ENDROOT
BRANCH   1   2
ATOM      2  C   UNL     1      54.114  27.770  33.937  1.00  0.00     0.000 C 
BRANCH   2   3
ATOM      3  C   UNL     1      55.598  28.147  34.065  1.00  0.00     0.000 C 
BRANCH   3   4
ATOM      4  C   UNL     1      56.533  27.044  33.547  1.00  0.00     0.000 C 
BRANCH   4   5
ATOM      5  C   UNL     1      55.778  25.714  33.401  1.00  0.00     0.000 C 
BRANCH   5   6
ATOM      6  C   UNL     1      56.535  24.524  34.021  1.00  0.00     0.000 C 
BRANCH   6   7
ATOM      7  C   UNL     1      55.708  23.663  34.995  1.00  0.00     0.000 C 
BRANCH   7   8
ATOM      8  C   UNL     1      54.432  23.094  34.355  1.00  0.00     0.000 C 
BRANCH   8   9
ATOM      9  C   UNL     1      53.174  23.663  35.028  1.00  0.00     0.000 C 
BRANCH   9  10
ATOM     10  C   UNL     1      51.993  23.785  34.041  1.00  0.00     0.000 C 
BRANCH  10  11
ATOM     11  C   UNL     1      51.987  25.103  33.248  1.00  0.00     0.000 C 
BRANCH  11  12
ATOM     12  C   UNL     1      50.571  25.566  32.868  1.00  0.00     0.006 C 
BRANCH  12  13
ATOM     13  C   UNL     1      50.101  26.752  33.719  1.00  0.00     0.053 C 
BRANCH  13  14
ATOM     14  C   UNL     1      49.356  26.300  34.938  1.00  0.00     0.041 C 
ATOM     15  O   UNL     1      49.695  26.715  36.078  1.00  0.00    -0.550 OA
ATOM     16  O   UNL     1      48.305  25.399  34.817  1.00  0.00    -0.550 OA
ENDBRANCH  13  14
ENDBRANCH  12  13
ENDBRANCH  11  12
ENDBRANCH  10  11
ENDBRANCH   9  10
ENDBRANCH   8   9
ENDBRANCH   7   8
ENDBRANCH   6   7
ENDBRANCH   5   6
ENDBRANCH   4   5
ENDBRANCH   3   4
ENDBRANCH   2   3
ENDBRANCH   1   2
BRANCH   1  17
ATOM     17  C   UNL     1      54.361  27.799  36.484  1.00  0.00     0.000 C 
BRANCH  17  18
ATOM     18  C   UNL     1      54.592  26.407  37.100  1.00  0.00     0.000 C 
BRANCH  18  19
ATOM     19  C   UNL     1      56.036  26.205  37.586  1.00  0.00     0.000 C 
BRANCH  19  20
ATOM     20  C   UNL     1      56.786  27.530  37.790  1.00  0.00     0.000 C 
BRANCH  20  21
ATOM     21  C   UNL     1      58.054  27.639  36.925  1.00  0.00     0.000 C 
BRANCH  21  22
ATOM     22  C   UNL     1      58.682  29.041  36.969  1.00  0.00    -0.000 C 
BRANCH  22  23
ATOM     23  C   UNL     1      57.744  30.128  36.416  1.00  0.00    -0.000 C 
BRANCH  23  24
ATOM     24  C   UNL     1      58.031  31.518  37.011  1.00  0.00    -0.000 C 
BRANCH  24  25
ATOM     25  C   UNL     1      56.814  32.110  37.742  1.00  0.00    -0.000 C 
BRANCH  25  26
ATOM     26  C   UNL     1      55.623  31.136  37.808  1.00  0.00    -0.000 C 
BRANCH  26  27
ATOM     27  C   UNL     1      55.328  30.561  39.205  1.00  0.00    -0.000 C 
BRANCH  27  28
ATOM     28  C   UNL     1      56.336  31.021  40.268  1.00  0.00    -0.000 C 
BRANCH  28  29
ATOM     29  C   UNL     1      57.263  29.872  40.681  1.00  0.00    -0.003 C 
ATOM     30  C   UNL     1      58.727  30.234  40.448  1.00  0.00     0.004 C 
ENDBRANCH  28  29
ENDBRANCH  27  28
ENDBRANCH  26  27
ENDBRANCH  25  26
ENDBRANCH  24  25
ENDBRANCH  23  24
ENDBRANCH  22  23
ENDBRANCH  21  22
ENDBRANCH  20  21
ENDBRANCH  19  20
ENDBRANCH  18  19
ENDBRANCH  17  18
ENDBRANCH   1  17
TORSDOF 26
ENDMDL
MODEL 5
REMARK VINA RESULT:    -4.318      1.210      2.104
REMARK INTER + INTRA:         -15.863
REMARK INTER:                 -10.843
REMARK INTRA:                  -5.020
REMARK UNBOUND:                -4.983
REMARK SMILES CCCCCCCCCCCCCCCCCCCCCCCCCCCC(=O)[O-]
REMARK SMILES IDX 15 1 16 2 17 3 18 4 19 5 20 6 21 7 22 8 23 9 24 10 25 11
REMARK SMILES IDX 26 12 27 13 28 14 29 15 30 16 14 17 13 18 12 19 11 20 10 21
REMARK SMILES IDX 9 22 8 23 7 24 6 25 5 26 4 27 3 28 2 29 1 30
REMARK H PARENT
REMARK Flexibility Score: inf
ROOT
ATOM      1  C   UNL     1      53.285  30.702  36.549  1.00  0.00     0.000 C 
ENDROOT
BRANCH   1   2
ATOM      2  C   UNL     1      52.803  29.480  35.748  1.00  0.00     0.000 C 
BRANCH   2   3
ATOM      3  C   UNL     1      53.933  28.476  35.469  1.00  0.00     0.000 C 
BRANCH   3   4
ATOM      4  C   UNL     1      54.302  28.403  33.980  1.00  0.00     0.000 C 
BRANCH   4   5
ATOM      5  C   UNL     1      55.717  27.835  33.797  1.00  0.00     0.000 C 
BRANCH   5   6
ATOM      6  C   UNL     1      55.722  26.323  33.501  1.00  0.00     0.000 C 
BRANCH   6   7
ATOM      7  C   UNL     1      55.857  25.418  34.740  1.00  0.00     0.000 C 
BRANCH   7   8
ATOM      8  C   UNL     1      54.530  24.760  35.149  1.00  0.00     0.000 C 
BRANCH   8   9
ATOM      9  C   UNL     1      53.534  24.747  33.980  1.00  0.00     0.000 C 
BRANCH   9  10
ATOM     10  C   UNL     1      52.186  25.397  34.357  1.00  0.00     0.000 C 
BRANCH  10  11
ATOM     11  C   UNL     1      51.884  25.359  35.865  1.00  0.00     0.000 C 
BRANCH  11  12
ATOM     12  C   UNL     1      50.401  25.096  36.170  1.00  0.00     0.006 C 
BRANCH  12  13
ATOM     13  C   UNL     1      49.759  24.144  35.153  1.00  0.00     0.053 C 
BRANCH  13  14
ATOM     14  C   UNL     1      48.673  24.817  34.372  1.00  0.00     0.041 C 
ATOM     15  O   UNL     1      48.525  26.067  34.439  1.00  0.00    -0.550 OA
ATOM     16  O   UNL     1      47.805  24.063  33.592  1.00  0.00    -0.550 OA
ENDBRANCH  13  14
ENDBRANCH  12  13
ENDBRANCH  11  12
ENDBRANCH  10  11
ENDBRANCH   9  10
ENDBRANCH   8   9
ENDBRANCH   7   8
ENDBRANCH   6   7
ENDBRANCH   5   6
ENDBRANCH   4   5
ENDBRANCH   3   4
ENDBRANCH   2   3
ENDBRANCH   1   2
BRANCH   1  17
ATOM     17  C   UNL     1      53.612  30.346  38.016  1.00  0.00     0.000 C 
BRANCH  17  18
ATOM     18  C   UNL     1      54.898  31.008  38.541  1.00  0.00     0.000 C 
BRANCH  18  19
ATOM     19  C   UNL     1      55.984  31.136  37.461  1.00  0.00     0.000 C 
BRANCH  19  20
ATOM     20  C   UNL     1      57.396  30.867  38.003  1.00  0.00     0.000 C 
BRANCH  20  21
ATOM     21  C   UNL     1      58.361  30.346  36.923  1.00  0.00     0.000 C 
BRANCH  21  22
ATOM     22  C   UNL     1      58.650  28.843  37.063  1.00  0.00    -0.000 C 
BRANCH  22  23
ATOM     23  C   UNL     1      57.391  27.978  36.881  1.00  0.00    -0.000 C 
BRANCH  23  24
ATOM     24  C   UNL     1      57.058  27.144  38.130  1.00  0.00    -0.000 C 
BRANCH  24  25
ATOM     25  C   UNL     1      55.562  27.187  38.488  1.00  0.00    -0.000 C 
BRANCH  25  26
ATOM     26  C   UNL     1      55.300  26.970  39.990  1.00  0.00    -0.000 C 
BRANCH  26  27
ATOM     27  C   UNL     1      55.049  28.255  40.799  1.00  0.00    -0.000 C 
BRANCH  27  28
ATOM     28  C   UNL     1      56.136  28.526  41.849  1.00  0.00    -0.000 C 
BRANCH  28  29
ATOM     29  C   UNL     1      57.139  29.571  41.345  1.00  0.00    -0.003 C 
ATOM     30  C   UNL     1      58.485  28.931  41.019  1.00  0.00     0.004 C 
ENDBRANCH  28  29
ENDBRANCH  27  28
ENDBRANCH  26  27
ENDBRANCH  25  26
ENDBRANCH  24  25
ENDBRANCH  23  24
ENDBRANCH  22  23
ENDBRANCH  21  22
ENDBRANCH  20  21
ENDBRANCH  19  20
ENDBRANCH  18  19
ENDBRANCH  17  18
ENDBRANCH   1  17
TORSDOF 26
ENDMDL
MODEL 6
REMARK VINA RESULT:    -4.296      1.097      3.024
REMARK INTER + INTRA:         -15.808
REMARK INTER:                 -10.577
REMARK INTRA:                  -5.231
REMARK UNBOUND:                -4.983
REMARK SMILES CCCCCCCCCCCCCCCCCCCCCCCCCCCC(=O)[O-]
REMARK SMILES IDX 15 1 16 2 17 3 18 4 19 5 20 6 21 7 22 8 23 9 24 10 25 11
REMARK SMILES IDX 26 12 27 13 28 14 29 15 30 16 14 17 13 18 12 19 11 20 10 21
REMARK SMILES IDX 9 22 8 23 7 24 6 25 5 26 4 27 3 28 2 29 1 30
REMARK H PARENT
REMARK Flexibility Score: inf
ROOT
ATOM      1  C   UNL     1      55.946  30.033  37.369  1.00  0.00     0.000 C 
ENDROOT
BRANCH   1   2
ATOM      2  C   UNL     1      54.887  31.126  37.598  1.00  0.00     0.000 C 
BRANCH   2   3
ATOM      3  C   UNL     1      53.493  30.706  37.104  1.00  0.00     0.000 C 
BRANCH   3   4
ATOM      4  C   UNL     1      53.499  29.329  36.425  1.00  0.00     0.000 C 
BRANCH   4   5
ATOM      5  C   UNL     1      53.097  29.449  34.948  1.00  0.00     0.000 C 
BRANCH   5   6
ATOM      6  C   UNL     1      53.858  28.466  34.038  1.00  0.00     0.000 C 
BRANCH   6   7
ATOM      7  C   UNL     1      55.258  28.064  34.540  1.00  0.00     0.000 C 
BRANCH   7   8
ATOM      8  C   UNL     1      55.532  26.558  34.409  1.00  0.00     0.000 C 
BRANCH   8   9
ATOM      9  C   UNL     1      55.601  25.885  35.787  1.00  0.00     0.000 C 
BRANCH   9  10
ATOM     10  C   UNL     1      54.224  25.845  36.484  1.00  0.00     0.000 C 
BRANCH  10  11
ATOM     11  C   UNL     1      53.302  24.730  35.963  1.00  0.00     0.000 C 
BRANCH  11  12
ATOM     12  C   UNL     1      51.814  25.016  36.222  1.00  0.00     0.006 C 
BRANCH  12  13
ATOM     13  C   UNL     1      51.322  26.260  35.471  1.00  0.00     0.053 C 
BRANCH  13  14
ATOM     14  C   UNL     1      50.385  25.902  34.358  1.00  0.00     0.041 C 
ATOM     15  O   UNL     1      49.324  26.559  34.188  1.00  0.00    -0.550 OA
ATOM     16  O   UNL     1      50.669  24.825  33.528  1.00  0.00    -0.550 OA
ENDBRANCH  13  14
ENDBRANCH  12  13
ENDBRANCH  11  12
ENDBRANCH  10  11
ENDBRANCH   9  10
ENDBRANCH   8   9
ENDBRANCH   7   8
ENDBRANCH   6   7
ENDBRANCH   5   6
ENDBRANCH   4   5
ENDBRANCH   3   4
ENDBRANCH   2   3
ENDBRANCH   1   2
BRANCH   1  17
ATOM     17  C   UNL     1      57.325  30.623  37.005  1.00  0.00     0.000 C 
BRANCH  17  18
ATOM     18  C   UNL     1      58.510  29.765  37.480  1.00  0.00     0.000 C 
BRANCH  18  19
ATOM     19  C   UNL     1      58.685  28.482  36.651  1.00  0.00     0.000 C 
BRANCH  19  20
ATOM     20  C   UNL     1      58.682  27.212  37.515  1.00  0.00     0.000 C 
BRANCH  20  21
ATOM     21  C   UNL     1      58.143  27.456  38.936  1.00  0.00     0.000 C 
BRANCH  21  22
ATOM     22  C   UNL     1      56.760  26.825  39.160  1.00  0.00    -0.000 C 
BRANCH  22  23
ATOM     23  C   UNL     1      56.126  27.246  40.498  1.00  0.00    -0.000 C 
BRANCH  23  24
ATOM     24  C   UNL     1      55.060  28.342  40.331  1.00  0.00    -0.000 C 
BRANCH  24  25
ATOM     25  C   UNL     1      54.948  29.250  41.568  1.00  0.00    -0.000 C 
BRANCH  25  26
ATOM     26  C   UNL     1      55.402  30.695  41.294  1.00  0.00    -0.000 C 
BRANCH  26  27
ATOM     27  C   UNL     1      56.843  30.836  40.768  1.00  0.00    -0.000 C 
BRANCH  27  28
ATOM     28  C   UNL     1      57.896  30.776  41.883  1.00  0.00    -0.000 C 
BRANCH  28  29
ATOM     29  C   UNL     1      58.952  29.705  41.584  1.00  0.00    -0.003 C 
ATOM     30  C   UNL     1      60.133  30.295  40.818  1.00  0.00     0.004 C 
ENDBRANCH  28  29
ENDBRANCH  27  28
ENDBRANCH  26  27
ENDBRANCH  25  26
ENDBRANCH  24  25
ENDBRANCH  23  24
ENDBRANCH  22  23
ENDBRANCH  21  22
ENDBRANCH  20  21
ENDBRANCH  19  20
ENDBRANCH  18  19
ENDBRANCH  17  18
ENDBRANCH   1  17
TORSDOF 26
ENDMDL
MODEL 7
REMARK VINA RESULT:    -4.269      1.737      3.343
REMARK INTER + INTRA:         -15.739
REMARK INTER:                 -10.924
REMARK INTRA:                  -4.816
REMARK UNBOUND:                -4.983
REMARK SMILES CCCCCCCCCCCCCCCCCCCCCCCCCCCC(=O)[O-]
REMARK SMILES IDX 15 1 16 2 17 3 18 4 19 5 20 6 21 7 22 8 23 9 24 10 25 11
REMARK SMILES IDX 26 12 27 13 28 14 29 15 30 16 14 17 13 18 12 19 11 20 10 21
REMARK SMILES IDX 9 22 8 23 7 24 6 25 5 26 4 27 3 28 2 29 1 30
REMARK H PARENT
REMARK Flexibility Score: inf
ROOT
ATOM      1  C   UNL     1      52.743  29.627  35.125  1.00  0.00     0.000 C 
ENDROOT
BRANCH   1   2
ATOM      2  C   UNL     1      52.206  28.219  34.811  1.00  0.00     0.000 C 
BRANCH   2   3
ATOM      3  C   UNL     1      53.228  27.355  34.056  1.00  0.00     0.000 C 
BRANCH   3   4
ATOM      4  C   UNL     1      52.849  25.866  34.048  1.00  0.00     0.000 C 
BRANCH   4   5
ATOM      5  C   UNL     1      54.102  24.984  34.143  1.00  0.00     0.000 C 
BRANCH   5   6
ATOM      6  C   UNL     1      54.231  24.270  35.501  1.00  0.00     0.000 C 
BRANCH   6   7
ATOM      7  C   UNL     1      53.131  24.613  36.524  1.00  0.00     0.000 C 
BRANCH   7   8
ATOM      8  C   UNL     1      52.373  23.375  37.026  1.00  0.00     0.000 C 
BRANCH   8   9
ATOM      9  C   UNL     1      52.216  22.331  35.911  1.00  0.00     0.000 C 
BRANCH   9  10
ATOM     10  C   UNL     1      50.761  22.237  35.403  1.00  0.00     0.000 C 
BRANCH  10  11
ATOM     11  C   UNL     1      50.582  22.719  33.953  1.00  0.00     0.000 C 
BRANCH  11  12
ATOM     12  C   UNL     1      49.710  23.981  33.847  1.00  0.00     0.006 C 
BRANCH  12  13
ATOM     13  C   UNL     1      49.326  24.538  35.223  1.00  0.00     0.053 C 
BRANCH  13  14
ATOM     14  C   UNL     1      49.297  26.036  35.227  1.00  0.00     0.041 C 
ATOM     15  O   UNL     1      49.407  26.670  36.310  1.00  0.00    -0.550 OA
ATOM     16  O   UNL     1      49.119  26.732  34.037  1.00  0.00    -0.550 OA
ENDBRANCH  13  14
ENDBRANCH  12  13
ENDBRANCH  11  12
ENDBRANCH  10  11
ENDBRANCH   9  10
ENDBRANCH   8   9
ENDBRANCH   7   8
ENDBRANCH   6   7
ENDBRANCH   5   6
ENDBRANCH   4   5
ENDBRANCH   3   4
ENDBRANCH   2   3
ENDBRANCH   1   2
BRANCH   1  17
ATOM     17  C   UNL     1      52.959  29.845  36.637  1.00  0.00     0.000 C 
BRANCH  17  18
ATOM     18  C   UNL     1      54.426  30.106  37.022  1.00  0.00     0.000 C 
BRANCH  18  19
ATOM     19  C   UNL     1      55.379  29.019  36.499  1.00  0.00     0.000 C 
BRANCH  19  20
ATOM     20  C   UNL     1      55.189  27.670  37.208  1.00  0.00     0.000 C 
BRANCH  20  21
ATOM     21  C   UNL     1      56.416  26.749  37.078  1.00  0.00     0.000 C 
BRANCH  21  22
ATOM     22  C   UNL     1      57.313  27.123  35.888  1.00  0.00    -0.000 C 
BRANCH  22  23
ATOM     23  C   UNL     1      58.771  27.387  36.303  1.00  0.00    -0.000 C 
BRANCH  23  24
ATOM     24  C   UNL     1      58.943  28.723  37.047  1.00  0.00    -0.000 C 
BRANCH  24  25
ATOM     25  C   UNL     1      59.195  28.532  38.553  1.00  0.00    -0.000 C 
BRANCH  25  26
ATOM     26  C   UNL     1      58.095  29.161  39.428  1.00  0.00    -0.000 C 
BRANCH  26  27
ATOM     27  C   UNL     1      58.188  30.689  39.592  1.00  0.00    -0.000 C 
BRANCH  27  28
ATOM     28  C   UNL     1      56.844  31.399  39.372  1.00  0.00    -0.000 C 
BRANCH  28  29
ATOM     29  C   UNL     1      56.972  32.503  38.317  1.00  0.00    -0.003 C 
ATOM     30  C   UNL     1      57.676  31.990  37.064  1.00  0.00     0.004 C 
ENDBRANCH  28  29
ENDBRANCH  27  28
ENDBRANCH  26  27
ENDBRANCH  25  26
ENDBRANCH  24  25
ENDBRANCH  23  24
ENDBRANCH  22  23
ENDBRANCH  21  22
ENDBRANCH  20  21
ENDBRANCH  19  20
ENDBRANCH  18  19
ENDBRANCH  17  18
ENDBRANCH   1  17
TORSDOF 26
ENDMDL
MODEL 8
REMARK VINA RESULT:    -4.265      3.452      5.531
REMARK INTER + INTRA:         -15.729
REMARK INTER:                 -10.656
REMARK INTRA:                  -5.073
REMARK UNBOUND:                -4.983
REMARK SMILES CCCCCCCCCCCCCCCCCCCCCCCCCCCC(=O)[O-]
REMARK SMILES IDX 15 1 16 2 17 3 18 4 19 5 20 6 21 7 22 8 23 9 24 10 25 11
REMARK SMILES IDX 26 12 27 13 28 14 29 15 30 16 14 17 13 18 12 19 11 20 10 21
REMARK SMILES IDX 9 22 8 23 7 24 6 25 5 26 4 27 3 28 2 29 1 30
REMARK H PARENT
REMARK Flexibility Score: inf
ROOT
ATOM      1  C   UNL     1      52.236  27.853  35.033  1.00  0.00     0.000 C 
ENDROOT
BRANCH   1   2
ATOM      2  C   UNL     1      51.376  26.837  34.260  1.00  0.00     0.000 C 
BRANCH   2   3
ATOM      3  C   UNL     1      49.981  26.657  34.879  1.00  0.00     0.000 C 
BRANCH   3   4
ATOM      4  C   UNL     1      49.950  25.556  35.950  1.00  0.00     0.000 C 
BRANCH   4   5
ATOM      5  C   UNL     1      50.886  24.400  35.571  1.00  0.00     0.000 C 
BRANCH   5   6
ATOM      6  C   UNL     1      51.932  24.093  36.659  1.00  0.00     0.000 C 
BRANCH   6   7
ATOM      7  C   UNL     1      53.392  24.376  36.256  1.00  0.00     0.000 C 
BRANCH   7   8
ATOM      8  C   UNL     1      53.667  24.103  34.769  1.00  0.00     0.000 C 
BRANCH   8   9
ATOM      9  C   UNL     1      55.157  24.273  34.440  1.00  0.00     0.000 C 
BRANCH   9  10
ATOM     10  C   UNL     1      55.377  25.032  33.114  1.00  0.00     0.000 C 
BRANCH  10  11
ATOM     11  C   UNL     1      56.477  26.105  33.193  1.00  0.00     0.000 C 
BRANCH  11  12
ATOM     12  C   UNL     1      57.844  25.594  32.711  1.00  0.00     0.006 C 
BRANCH  12  13
ATOM     13  C   UNL     1      58.868  25.512  33.850  1.00  0.00     0.053 C 
BRANCH  13  14
ATOM     14  C   UNL     1      60.182  26.118  33.461  1.00  0.00     0.041 C 
ATOM     15  O   UNL     1      60.955  26.575  34.344  1.00  0.00    -0.550 OA
ATOM     16  O   UNL     1      60.539  26.203  32.121  1.00  0.00    -0.550 OA
ENDBRANCH  13  14
ENDBRANCH  12  13
ENDBRANCH  11  12
ENDBRANCH  10  11
ENDBRANCH   9  10
ENDBRANCH   8   9
ENDBRANCH   7   8
ENDBRANCH   6   7
ENDBRANCH   5   6
ENDBRANCH   4   5
ENDBRANCH   3   4
ENDBRANCH   2   3
ENDBRANCH   1   2
BRANCH   1  17
ATOM     17  C   UNL     1      53.632  28.038  34.399  1.00  0.00     0.000 C 
BRANCH  17  18
ATOM     18  C   UNL     1      54.698  28.543  35.387  1.00  0.00     0.000 C 
BRANCH  18  19
ATOM     19  C   UNL     1      54.896  27.596  36.582  1.00  0.00     0.000 C 
BRANCH  19  20
ATOM     20  C   UNL     1      56.285  26.941  36.598  1.00  0.00     0.000 C 
BRANCH  20  21
ATOM     21  C   UNL     1      56.891  26.860  38.011  1.00  0.00     0.000 C 
BRANCH  21  22
ATOM     22  C   UNL     1      58.389  27.200  38.032  1.00  0.00    -0.000 C 
BRANCH  22  23
ATOM     23  C   UNL     1      58.785  28.202  36.933  1.00  0.00    -0.000 C 
BRANCH  23  24
ATOM     24  C   UNL     1      58.647  29.665  37.386  1.00  0.00    -0.000 C 
BRANCH  24  25
ATOM     25  C   UNL     1      57.618  30.448  36.550  1.00  0.00    -0.000 C 
BRANCH  25  26
ATOM     26  C   UNL     1      56.914  31.557  37.353  1.00  0.00    -0.000 C 
BRANCH  26  27
ATOM     27  C   UNL     1      56.433  31.141  38.755  1.00  0.00    -0.000 C 
BRANCH  27  28
ATOM     28  C   UNL     1      54.999  30.591  38.758  1.00  0.00    -0.000 C 
BRANCH  28  29
ATOM     29  C   UNL     1      54.849  29.456  39.778  1.00  0.00    -0.003 C 
ATOM     30  C   UNL     1      56.134  29.258  40.576  1.00  0.00     0.004 C 
ENDBRANCH  28  29
ENDBRANCH  27  28
ENDBRANCH  26  27
ENDBRANCH  25  26
ENDBRANCH  24  25
ENDBRANCH  23  24
ENDBRANCH  22  23
ENDBRANCH  21  22
ENDBRANCH  20  21
ENDBRANCH  19  20
ENDBRANCH  18  19
ENDBRANCH  17  18
ENDBRANCH   1  17
TORSDOF 26
ENDMDL
MODEL 9
REMARK VINA RESULT:    -4.238      3.335      7.511
REMARK INTER + INTRA:         -15.662
REMARK INTER:                 -10.515
REMARK INTRA:                  -5.147
REMARK UNBOUND:                -4.983
REMARK SMILES CCCCCCCCCCCCCCCCCCCCCCCCCCCC(=O)[O-]
REMARK SMILES IDX 15 1 16 2 17 3 18 4 19 5 20 6 21 7 22 8 23 9 24 10 25 11
REMARK SMILES IDX 26 12 27 13 28 14 29 15 30 16 14 17 13 18 12 19 11 20 10 21
REMARK SMILES IDX 9 22 8 23 7 24 6 25 5 26 4 27 3 28 2 29 1 30
REMARK H PARENT
REMARK Flexibility Score: inf
ROOT
ATOM      1  C   UNL     1      53.988  30.859  37.171  1.00  0.00     0.000 C 
ENDROOT
BRANCH   1   2
ATOM      2  C   UNL     1      55.045  29.930  37.796  1.00  0.00     0.000 C 
BRANCH   2   3
ATOM      3  C   UNL     1      56.425  30.085  37.138  1.00  0.00     0.000 C 
BRANCH   3   4
ATOM      4  C   UNL     1      57.493  30.587  38.121  1.00  0.00     0.000 C 
BRANCH   4   5
ATOM      5  C   UNL     1      58.678  29.613  38.184  1.00  0.00     0.000 C 
BRANCH   5   6
ATOM      6  C   UNL     1      58.775  28.874  39.532  1.00  0.00     0.000 C 
BRANCH   6   7
ATOM      7  C   UNL     1      58.617  27.344  39.449  1.00  0.00     0.000 C 
BRANCH   7   8
ATOM      8  C   UNL     1      57.447  26.911  38.551  1.00  0.00     0.000 C 
BRANCH   8   9
ATOM      9  C   UNL     1      56.391  26.135  39.353  1.00  0.00     0.000 C 
BRANCH   9  10
ATOM     10  C   UNL     1      55.218  27.037  39.793  1.00  0.00     0.000 C 
BRANCH  10  11
ATOM     11  C   UNL     1      55.341  27.544  41.241  1.00  0.00     0.000 C 
BRANCH  11  12
ATOM     12  C   UNL     1      55.169  29.067  41.357  1.00  0.00     0.006 C 
BRANCH  12  13
ATOM     13  C   UNL     1      56.313  29.722  42.142  1.00  0.00     0.053 C 
BRANCH  13  14
ATOM     14  C   UNL     1      56.446  31.178  41.818  1.00  0.00     0.041 C 
ATOM     15  O   UNL     1      57.568  31.659  41.507  1.00  0.00    -0.550 OA
ATOM     16  O   UNL     1      55.336  32.011  41.888  1.00  0.00    -0.550 OA
ENDBRANCH  13  14
ENDBRANCH  12  13
ENDBRANCH  11  12
ENDBRANCH  10  11
ENDBRANCH   9  10
ENDBRANCH   8   9
ENDBRANCH   7   8
ENDBRANCH   6   7
ENDBRANCH   5   6
ENDBRANCH   4   5
ENDBRANCH   3   4
ENDBRANCH   2   3
ENDBRANCH   1   2
BRANCH   1  17
ATOM     17  C   UNL     1      52.763  30.080  36.646  1.00  0.00     0.000 C 
BRANCH  17  18
ATOM     18  C   UNL     1      52.744  29.914  35.117  1.00  0.00     0.000 C 
BRANCH  18  19
ATOM     19  C   UNL     1      52.916  28.452  34.675  1.00  0.00     0.000 C 
BRANCH  19  20
ATOM     20  C   UNL     1      54.344  28.138  34.204  1.00  0.00     0.000 C 
BRANCH  20  21
ATOM     21  C   UNL     1      55.058  27.113  35.105  1.00  0.00     0.000 C 
BRANCH  21  22
ATOM     22  C   UNL     1      54.198  26.678  36.302  1.00  0.00    -0.000 C 
BRANCH  22  23
ATOM     23  C   UNL     1      54.027  25.151  36.386  1.00  0.00    -0.000 C 
BRANCH  23  24
ATOM     24  C   UNL     1      53.918  24.489  35.002  1.00  0.00    -0.000 C 
BRANCH  24  25
ATOM     25  C   UNL     1      52.460  24.344  34.530  1.00  0.00    -0.000 C 
BRANCH  25  26
ATOM     26  C   UNL     1      52.143  25.205  33.293  1.00  0.00    -0.000 C 
BRANCH  26  27
ATOM     27  C   UNL     1      50.659  25.573  33.118  1.00  0.00    -0.000 C 
BRANCH  27  28
ATOM     28  C   UNL     1      49.746  24.887  34.145  1.00  0.00    -0.000 C 
BRANCH  28  29
ATOM     29  C   UNL     1      48.986  25.921  34.983  1.00  0.00    -0.003 C 
ATOM     30  C   UNL     1      49.921  26.636  35.956  1.00  0.00     0.004 C 
ENDBRANCH  28  29
ENDBRANCH  27  28
ENDBRANCH  26  27
ENDBRANCH  25  26
ENDBRANCH  24  25
ENDBRANCH  23  24
ENDBRANCH  22  23
ENDBRANCH  21  22
ENDBRANCH  20  21
ENDBRANCH  19  20
ENDBRANCH  18  19
ENDBRANCH  17  18
ENDBRANCH   1  17
TORSDOF 26
ENDMDL
