MODEL 1
REMARK VINA RESULT:    -4.723      0.000      0.000
REMARK INTER + INTRA:          -6.208
REMARK INTER:                  -5.828
REMARK INTRA:                  -0.380
REMARK UNBOUND:                -0.380
REMARK SMILES COc1cc(-c2oc3cc(O)cc(O)c3c(=O)c2O)ccc1O
REMARK SMILES IDX 6 1 18 2 16 3 17 4 15 5 13 6 12 7 10 8 9 9 8 10 7 11 5 12
REMARK SMILES IDX 3 13 22 14 4 15 21 16 20 17 2 18 1 19 23 20 19 22 14 24
REMARK SMILES IDX 11 26
REMARK H PARENT 23 21 19 23 14 25 11 27
REMARK Flexibility Score: inf
ROOT
ATOM      1  C   UNL     1      -4.484  -7.790   8.737  1.00  0.00     0.180 A 
ATOM      2  C   UNL     1      -3.977  -8.889   8.024  1.00  0.00     0.208 A 
ATOM      3  C   UNL     1      -2.586  -9.038   7.901  1.00  0.00     0.238 A 
ATOM      4  O   UNL     1      -2.139  -9.995   7.216  1.00  0.00    -0.285 OA
ATOM      5  C   UNL     1      -1.720  -8.096   8.507  1.00  0.00     0.111 A 
ATOM      6  C   UNL     1      -0.295  -8.171   8.481  1.00  0.00     0.134 A 
ATOM      7  C   UNL     1       0.462  -7.114   9.001  1.00  0.00     0.093 A 
ATOM      8  C   UNL     1      -0.153  -6.017   9.604  1.00  0.00     0.123 A 
ATOM      9  C   UNL     1      -1.545  -5.962   9.689  1.00  0.00     0.094 A 
ATOM     10  C   UNL     1      -2.327  -6.983   9.146  1.00  0.00     0.146 A 
ATOM     11  O   UNL     1      -3.648  -6.887   9.237  1.00  0.00    -0.452 OA
ENDROOT
BRANCH   1  12
ATOM     12  C   UNL     1      -5.937  -7.579   8.929  1.00  0.00     0.025 A 
ATOM     13  C   UNL     1      -8.059  -6.555   8.266  1.00  0.00     0.161 A 
ATOM     14  C   UNL     1      -8.708  -7.254   9.299  1.00  0.00     0.157 A 
ATOM     15  C   UNL     1      -6.672  -6.729   8.083  1.00  0.00     0.062 A 
ATOM     16  C   UNL     1      -7.981  -8.116  10.125  1.00  0.00     0.051 A 
ATOM     17  C   UNL     1      -6.608  -8.285   9.939  1.00  0.00     0.016 A 
BRANCH  13  18
ATOM     18  O   UNL     1      -8.816  -5.705   7.444  1.00  0.00    -0.493 OA
ATOM     19  C   UNL     1      -8.769  -4.283   7.490  1.00  0.00     0.278 C 
ENDBRANCH  13  18
BRANCH  14  20
ATOM     20  O   UNL     1     -10.078  -7.109   9.518  1.00  0.00    -0.504 OA
ATOM     21  H   UNL     1     -10.533  -6.204   9.512  1.00  0.00     0.293 HD
ENDBRANCH  14  20
ENDBRANCH   1  12
BRANCH   2  22
ATOM     22  O   UNL     1      -4.849  -9.795   7.415  1.00  0.00    -0.502 OA
ATOM     23  H   UNL     1      -4.844 -10.785   7.631  1.00  0.00     0.293 HD
ENDBRANCH   2  22
BRANCH   6  24
ATOM     24  O   UNL     1       0.420  -9.265   7.985  1.00  0.00    -0.507 OA
ATOM     25  H   UNL     1       0.413 -10.188   8.391  1.00  0.00     0.293 HD
ENDBRANCH   6  24
BRANCH   8  26
ATOM     26  O   UNL     1       0.632  -4.990  10.125  1.00  0.00    -0.508 OA
ATOM     27  H   UNL     1       0.340  -4.460  10.938  1.00  0.00     0.293 HD
ENDBRANCH   8  26
TORSDOF 6
ENDMDL
MODEL 2
REMARK VINA RESULT:    -4.388      5.332      7.852
REMARK INTER + INTRA:          -5.795
REMARK INTER:                  -5.451
REMARK INTRA:                  -0.344
REMARK UNBOUND:                -0.380
REMARK SMILES COc1cc(-c2oc3cc(O)cc(O)c3c(=O)c2O)ccc1O
REMARK SMILES IDX 6 1 18 2 16 3 17 4 15 5 13 6 12 7 10 8 9 9 8 10 7 11 5 12
REMARK SMILES IDX 3 13 22 14 4 15 21 16 20 17 2 18 1 19 23 20 19 22 14 24
REMARK SMILES IDX 11 26
REMARK H PARENT 23 21 19 23 14 25 11 27
REMARK Flexibility Score: inf
ROOT
ATOM      1  C   UNL     1      -8.667  -4.475   7.728  1.00  0.00     0.180 A 
ATOM      2  C   UNL     1      -7.916  -3.974   8.805  1.00  0.00     0.208 A 
ATOM      3  C   UNL     1      -7.739  -2.586   8.924  1.00  0.00     0.238 A 
ATOM      4  O   UNL     1      -7.020  -2.146   9.859  1.00  0.00    -0.285 OA
ATOM      5  C   UNL     1      -8.327  -1.716   7.974  1.00  0.00     0.111 A 
ATOM      6  C   UNL     1      -8.247  -0.293   8.019  1.00  0.00     0.134 A 
ATOM      7  C   UNL     1      -8.756   0.462   6.955  1.00  0.00     0.093 A 
ATOM      8  C   UNL     1      -9.400  -0.151   5.881  1.00  0.00     0.123 A 
ATOM      9  C   UNL     1      -9.538  -1.539   5.856  1.00  0.00     0.094 A 
ATOM     10  C   UNL     1      -9.008  -2.321   6.885  1.00  0.00     0.146 A 
ATOM     11  O   UNL     1      -9.151  -3.639   6.817  1.00  0.00    -0.452 OA
ENDROOT
BRANCH   1  12
ATOM     12  C   UNL     1      -8.917  -5.924   7.551  1.00  0.00     0.025 A 
ATOM     13  C   UNL     1      -8.399  -8.074   6.503  1.00  0.00     0.161 A 
ATOM     14  C   UNL     1      -9.391  -8.686   7.290  1.00  0.00     0.157 A 
ATOM     15  C   UNL     1      -8.163  -6.692   6.645  1.00  0.00     0.062 A 
ATOM     16  C   UNL     1     -10.124  -7.927   8.207  1.00  0.00     0.051 A 
ATOM     17  C   UNL     1      -9.885  -6.558   8.343  1.00  0.00     0.016 A 
BRANCH  13  18
ATOM     18  O   UNL     1      -7.671  -8.863   5.599  1.00  0.00    -0.493 OA
ATOM     19  C   UNL     1      -6.831  -8.348   4.570  1.00  0.00     0.278 C 
ENDBRANCH  13  18
BRANCH  14  20
ATOM     20  O   UNL     1      -9.661 -10.050   7.179  1.00  0.00    -0.504 OA
ATOM     21  H   UNL     1     -10.053 -10.586   7.943  1.00  0.00     0.293 HD
ENDBRANCH  14  20
ENDBRANCH   1  12
BRANCH   2  22
ATOM     22  O   UNL     1      -7.325  -4.850   9.719  1.00  0.00    -0.502 OA
ATOM     23  H   UNL     1      -7.006  -4.551  10.633  1.00  0.00     0.293 HD
ENDBRANCH   2  22
BRANCH   6  24
ATOM     24  O   UNL     1      -7.705   0.425   9.089  1.00  0.00    -0.507 OA
ATOM     25  H   UNL     1      -6.771   0.806   9.112  1.00  0.00     0.293 HD
ENDBRANCH   6  24
BRANCH   8  26
ATOM     26  O   UNL     1      -9.909   0.633   4.846  1.00  0.00    -0.508 OA
ATOM     27  H   UNL     1     -10.353   0.217   4.037  1.00  0.00     0.293 HD
ENDBRANCH   8  26
TORSDOF 6
ENDMDL
MODEL 3
REMARK VINA RESULT:    -4.310      2.881      7.404
REMARK INTER + INTRA:          -5.697
REMARK INTER:                  -5.331
REMARK INTRA:                  -0.367
REMARK UNBOUND:                -0.380
REMARK SMILES COc1cc(-c2oc3cc(O)cc(O)c3c(=O)c2O)ccc1O
REMARK SMILES IDX 6 1 18 2 16 3 17 4 15 5 13 6 12 7 10 8 9 9 8 10 7 11 5 12
REMARK SMILES IDX 3 13 22 14 4 15 21 16 20 17 2 18 1 19 23 20 19 22 14 24
REMARK SMILES IDX 11 26
REMARK H PARENT 23 21 19 23 14 25 11 27
REMARK Flexibility Score: inf
ROOT
ATOM      1  C   UNL     1      -3.785  -8.958   7.127  1.00  0.00     0.180 A 
ATOM      2  C   UNL     1      -4.898  -8.680   7.939  1.00  0.00     0.208 A 
ATOM      3  C   UNL     1      -6.184  -8.750   7.379  1.00  0.00     0.238 A 
ATOM      4  O   UNL     1      -7.173  -8.448   8.096  1.00  0.00    -0.285 OA
ATOM      5  C   UNL     1      -6.342  -9.113   6.019  1.00  0.00     0.111 A 
ATOM      6  C   UNL     1      -7.598  -9.255   5.358  1.00  0.00     0.134 A 
ATOM      7  C   UNL     1      -7.631  -9.489   3.978  1.00  0.00     0.093 A 
ATOM      8  C   UNL     1      -6.454  -9.653   3.248  1.00  0.00     0.123 A 
ATOM      9  C   UNL     1      -5.220  -9.577   3.895  1.00  0.00     0.094 A 
ATOM     10  C   UNL     1      -5.155  -9.306   5.264  1.00  0.00     0.146 A 
ATOM     11  O   UNL     1      -3.961  -9.231   5.839  1.00  0.00    -0.452 OA
ENDROOT
BRANCH   1  12
ATOM     12  C   UNL     1      -2.401  -8.928   7.653  1.00  0.00     0.025 A 
ATOM     13  C   UNL     1      -0.393  -7.703   8.329  1.00  0.00     0.161 A 
ATOM     14  C   UNL     1       0.207  -8.917   8.709  1.00  0.00     0.157 A 
ATOM     15  C   UNL     1      -1.703  -7.717   7.807  1.00  0.00     0.062 A 
ATOM     16  C   UNL     1      -0.496 -10.117   8.577  1.00  0.00     0.051 A 
ATOM     17  C   UNL     1      -1.793 -10.125   8.060  1.00  0.00     0.016 A 
BRANCH  13  18
ATOM     18  O   UNL     1       0.332  -6.511   8.484  1.00  0.00    -0.493 OA
ATOM     19  C   UNL     1       0.208  -5.628   9.594  1.00  0.00     0.278 C 
ENDBRANCH  13  18
BRANCH  14  20
ATOM     20  O   UNL     1       1.502  -8.950   9.226  1.00  0.00    -0.504 OA
ATOM     21  H   UNL     1       2.296  -9.250   8.674  1.00  0.00     0.293 HD
ENDBRANCH  14  20
ENDBRANCH   1  12
BRANCH   2  22
ATOM     22  O   UNL     1      -4.719  -8.302   9.272  1.00  0.00    -0.502 OA
ATOM     23  H   UNL     1      -4.981  -8.900  10.047  1.00  0.00     0.293 HD
ENDBRANCH   2  22
BRANCH   6  24
ATOM     24  O   UNL     1      -8.833  -9.200   6.011  1.00  0.00    -0.507 OA
ATOM     25  H   UNL     1      -9.166  -9.888   6.669  1.00  0.00     0.293 HD
ENDBRANCH   6  24
BRANCH   8  26
ATOM     26  O   UNL     1      -6.524  -9.901   1.878  1.00  0.00    -0.508 OA
ATOM     27  H   UNL     1      -6.763  -9.170   1.219  1.00  0.00     0.293 HD
ENDBRANCH   8  26
TORSDOF 6
ENDMDL
MODEL 4
REMARK VINA RESULT:    -4.302     17.716     20.947
REMARK INTER + INTRA:          -5.687
REMARK INTER:                  -5.303
REMARK INTRA:                  -0.384
REMARK UNBOUND:                -0.380
REMARK SMILES COc1cc(-c2oc3cc(O)cc(O)c3c(=O)c2O)ccc1O
REMARK SMILES IDX 6 1 18 2 16 3 17 4 15 5 13 6 12 7 10 8 9 9 8 10 7 11 5 12
REMARK SMILES IDX 3 13 22 14 4 15 21 16 20 17 2 18 1 19 23 20 19 22 14 24
REMARK SMILES IDX 11 26
REMARK H PARENT 23 21 19 23 14 25 11 27
REMARK Flexibility Score: inf
ROOT
ATOM      1  C   UNL     1      -8.845   4.076  -7.896  1.00  0.00     0.180 A 
ATOM      2  C   UNL     1      -8.352   3.335  -8.983  1.00  0.00     0.208 A 
ATOM      3  C   UNL     1      -8.329   1.934  -8.897  1.00  0.00     0.238 A 
ATOM      4  O   UNL     1      -7.837   1.277  -9.851  1.00  0.00    -0.285 OA
ATOM      5  C   UNL     1      -8.813   1.291  -7.731  1.00  0.00     0.111 A 
ATOM      6  C   UNL     1      -8.874  -0.123  -7.552  1.00  0.00     0.134 A 
ATOM      7  C   UNL     1      -9.249  -0.646  -6.308  1.00  0.00     0.093 A 
ATOM      8  C   UNL     1      -9.629   0.192  -5.260  1.00  0.00     0.123 A 
ATOM      9  C   UNL     1      -9.630   1.576  -5.444  1.00  0.00     0.094 A 
ATOM     10  C   UNL     1      -9.226   2.127  -6.661  1.00  0.00     0.146 A 
ATOM     11  O   UNL     1      -9.231   3.449  -6.791  1.00  0.00    -0.452 OA
ENDROOT
BRANCH   1  12
ATOM     12  C   UNL     1      -8.924   5.555  -7.923  1.00  0.00     0.025 A 
ATOM     13  C   UNL     1      -7.959   7.759  -7.477  1.00  0.00     0.161 A 
ATOM     14  C   UNL     1      -9.094   8.362  -8.049  1.00  0.00     0.157 A 
ATOM     15  C   UNL     1      -7.878   6.353  -7.425  1.00  0.00     0.062 A 
ATOM     16  C   UNL     1     -10.122   7.567  -8.565  1.00  0.00     0.051 A 
ATOM     17  C   UNL     1     -10.037   6.176  -8.510  1.00  0.00     0.016 A 
BRANCH  13  18
ATOM     18  O   UNL     1      -6.936   8.582  -6.978  1.00  0.00    -0.493 OA
ATOM     19  C   UNL     1      -6.859   9.051  -5.636  1.00  0.00     0.278 C 
ENDBRANCH  13  18
BRANCH  14  20
ATOM     20  O   UNL     1      -9.217   9.749  -8.118  1.00  0.00    -0.504 OA
ATOM     21  H   UNL     1      -8.523  10.373  -7.725  1.00  0.00     0.293 HD
ENDBRANCH  14  20
ENDBRANCH   1  12
BRANCH   2  22
ATOM     22  O   UNL     1      -7.859   3.989 -10.115  1.00  0.00    -0.502 OA
ATOM     23  H   UNL     1      -8.216   4.885 -10.425  1.00  0.00     0.293 HD
ENDBRANCH   2  22
BRANCH   6  24
ATOM     24  O   UNL     1      -8.605  -1.051  -8.562  1.00  0.00    -0.507 OA
ATOM     25  H   UNL     1      -8.628  -0.847  -9.550  1.00  0.00     0.293 HD
ENDBRANCH   6  24
BRANCH   8  26
ATOM     26  O   UNL     1     -10.011  -0.363  -4.040  1.00  0.00    -0.508 OA
ATOM     27  H   UNL     1     -10.063   0.196  -3.197  1.00  0.00     0.293 HD
ENDBRANCH   8  26
TORSDOF 6
ENDMDL
MODEL 5
REMARK VINA RESULT:    -4.298      1.887      3.036
REMARK INTER + INTRA:          -5.684
REMARK INTER:                  -5.304
REMARK INTRA:                  -0.380
REMARK UNBOUND:                -0.380
REMARK SMILES COc1cc(-c2oc3cc(O)cc(O)c3c(=O)c2O)ccc1O
REMARK SMILES IDX 6 1 18 2 16 3 17 4 15 5 13 6 12 7 10 8 9 9 8 10 7 11 5 12
REMARK SMILES IDX 3 13 22 14 4 15 21 16 20 17 2 18 1 19 23 20 19 22 14 24
REMARK SMILES IDX 11 26
REMARK H PARENT 23 21 19 23 14 25 11 27
REMARK Flexibility Score: inf
ROOT
ATOM      1  C   UNL     1      -5.002  -7.872   8.533  1.00  0.00     0.180 A 
ATOM      2  C   UNL     1      -4.828  -6.641   9.188  1.00  0.00     0.208 A 
ATOM      3  C   UNL     1      -3.526  -6.206   9.481  1.00  0.00     0.238 A 
ATOM      4  O   UNL     1      -3.377  -5.129  10.116  1.00  0.00    -0.285 OA
ATOM      5  C   UNL     1      -2.415  -6.997   9.102  1.00  0.00     0.111 A 
ATOM      6  C   UNL     1      -1.051  -6.634   9.312  1.00  0.00     0.134 A 
ATOM      7  C   UNL     1      -0.038  -7.554   9.015  1.00  0.00     0.093 A 
ATOM      8  C   UNL     1      -0.334  -8.795   8.453  1.00  0.00     0.123 A 
ATOM      9  C   UNL     1      -1.661  -9.137   8.187  1.00  0.00     0.094 A 
ATOM     10  C   UNL     1      -2.696  -8.256   8.508  1.00  0.00     0.146 A 
ATOM     11  O   UNL     1      -3.945  -8.624   8.249  1.00  0.00    -0.452 OA
ENDROOT
BRANCH   1  12
ATOM     12  C   UNL     1      -6.343  -8.386   8.169  1.00  0.00     0.025 A 
ATOM     13  C   UNL     1      -8.289  -8.430   6.685  1.00  0.00     0.161 A 
ATOM     14  C   UNL     1      -8.864  -9.434   7.485  1.00  0.00     0.157 A 
ATOM     15  C   UNL     1      -7.023  -7.916   7.030  1.00  0.00     0.062 A 
ATOM     16  C   UNL     1      -8.177  -9.917   8.603  1.00  0.00     0.051 A 
ATOM     17  C   UNL     1      -6.924  -9.404   8.940  1.00  0.00     0.016 A 
BRANCH  13  18
ATOM     18  O   UNL     1      -8.996  -7.972   5.562  1.00  0.00    -0.493 OA
ATOM     19  C   UNL     1      -9.706  -6.739   5.501  1.00  0.00     0.278 C 
ENDBRANCH  13  18
BRANCH  14  20
ATOM     20  O   UNL     1     -10.116  -9.968   7.183  1.00  0.00    -0.504 OA
ATOM     21  H   UNL     1     -10.279 -10.527   6.354  1.00  0.00     0.293 HD
ENDBRANCH  14  20
ENDBRANCH   1  12
BRANCH   2  22
ATOM     22  O   UNL     1      -5.938  -5.886   9.574  1.00  0.00    -0.502 OA
ATOM     23  H   UNL     1      -6.816  -6.310   9.849  1.00  0.00     0.293 HD
ENDBRANCH   2  22
BRANCH   6  24
ATOM     24  O   UNL     1      -0.640  -5.384   9.782  1.00  0.00    -0.507 OA
ATOM     25  H   UNL     1      -0.149  -4.696   9.231  1.00  0.00     0.293 HD
ENDBRANCH   6  24
BRANCH   8  26
ATOM     26  O   UNL     1       0.701  -9.680   8.155  1.00  0.00    -0.508 OA
ATOM     27  H   UNL     1       0.720 -10.619   8.534  1.00  0.00     0.293 HD
ENDBRANCH   8  26
TORSDOF 6
ENDMDL
MODEL 6
REMARK VINA RESULT:    -4.199     14.061     18.405
REMARK INTER + INTRA:          -5.561
REMARK INTER:                  -5.294
REMARK INTRA:                  -0.267
REMARK UNBOUND:                -0.380
REMARK SMILES COc1cc(-c2oc3cc(O)cc(O)c3c(=O)c2O)ccc1O
REMARK SMILES IDX 6 1 18 2 16 3 17 4 15 5 13 6 12 7 10 8 9 9 8 10 7 11 5 12
REMARK SMILES IDX 3 13 22 14 4 15 21 16 20 17 2 18 1 19 23 20 19 22 14 24
REMARK SMILES IDX 11 26
REMARK H PARENT 23 21 19 23 14 25 11 27
REMARK Flexibility Score: inf
ROOT
ATOM      1  C   UNL     1       4.477   7.554   8.885  1.00  0.00     0.180 A 
ATOM      2  C   UNL     1       3.801   8.645   8.314  1.00  0.00     0.208 A 
ATOM      3  C   UNL     1       2.402   8.599   8.207  1.00  0.00     0.238 A 
ATOM      4  O   UNL     1       1.806   9.555   7.646  1.00  0.00    -0.285 OA
ATOM      5  C   UNL     1       1.695   7.469   8.687  1.00  0.00     0.111 A 
ATOM      6  C   UNL     1       0.274   7.333   8.666  1.00  0.00     0.134 A 
ATOM      7  C   UNL     1      -0.308   6.117   9.047  1.00  0.00     0.093 A 
ATOM      8  C   UNL     1       0.472   5.059   9.509  1.00  0.00     0.123 A 
ATOM      9  C   UNL     1       1.858   5.202   9.591  1.00  0.00     0.094 A 
ATOM     10  C   UNL     1       2.471   6.389   9.183  1.00  0.00     0.146 A 
ATOM     11  O   UNL     1       3.793   6.481   9.266  1.00  0.00    -0.452 OA
ENDROOT
BRANCH   1  12
ATOM     12  C   UNL     1       5.948   7.541   9.054  1.00  0.00     0.025 A 
ATOM     13  C   UNL     1       8.166   6.703   8.446  1.00  0.00     0.161 A 
ATOM     14  C   UNL     1       8.744   7.592   9.370  1.00  0.00     0.157 A 
ATOM     15  C   UNL     1       6.765   6.689   8.289  1.00  0.00     0.062 A 
ATOM     16  C   UNL     1       7.933   8.454  10.114  1.00  0.00     0.051 A 
ATOM     17  C   UNL     1       6.547   8.436   9.953  1.00  0.00     0.016 A 
BRANCH  13  18
ATOM     18  O   UNL     1       9.006   5.857   7.705  1.00  0.00    -0.493 OA
ATOM     19  C   UNL     1       9.084   4.445   7.874  1.00  0.00     0.278 C 
ENDBRANCH  13  18
BRANCH  14  20
ATOM     20  O   UNL     1      10.125   7.637   9.561  1.00  0.00    -0.504 OA
ATOM     21  H   UNL     1      10.660   8.487   9.432  1.00  0.00     0.293 HD
ENDBRANCH  14  20
ENDBRANCH   1  12
BRANCH   2  22
ATOM     22  O   UNL     1       4.519   9.740   7.827  1.00  0.00    -0.502 OA
ATOM     23  H   UNL     1       5.529   9.739   7.751  1.00  0.00     0.293 HD
ENDBRANCH   2  22
BRANCH   6  24
ATOM     24  O   UNL     1      -0.603   8.360   8.309  1.00  0.00    -0.507 OA
ATOM     25  H   UNL     1      -1.027   8.464   7.399  1.00  0.00     0.293 HD
ENDBRANCH   6  24
BRANCH   8  26
ATOM     26  O   UNL     1      -0.143   3.868   9.895  1.00  0.00    -0.508 OA
ATOM     27  H   UNL     1      -0.744   3.822  10.709  1.00  0.00     0.293 HD
ENDBRANCH   8  26
TORSDOF 6
ENDMDL
MODEL 7
REMARK VINA RESULT:    -4.189     15.528     17.888
REMARK INTER + INTRA:          -5.548
REMARK INTER:                  -5.351
REMARK INTRA:                  -0.197
REMARK UNBOUND:                -0.380
REMARK SMILES COc1cc(-c2oc3cc(O)cc(O)c3c(=O)c2O)ccc1O
REMARK SMILES IDX 6 1 18 2 16 3 17 4 15 5 13 6 12 7 10 8 9 9 8 10 7 11 5 12
REMARK SMILES IDX 3 13 22 14 4 15 21 16 20 17 2 18 1 19 23 20 19 22 14 24
REMARK SMILES IDX 11 26
REMARK H PARENT 23 21 19 23 14 25 11 27
REMARK Flexibility Score: inf
ROOT
ATOM      1  C   UNL     1       7.754   4.335   8.920  1.00  0.00     0.180 A 
ATOM      2  C   UNL     1       8.584   5.430   8.625  1.00  0.00     0.208 A 
ATOM      3  C   UNL     1       8.045   6.725   8.678  1.00  0.00     0.238 A 
ATOM      4  O   UNL     1       8.778   7.698   8.360  1.00  0.00    -0.285 OA
ATOM      5  C   UNL     1       6.689   6.911   9.040  1.00  0.00     0.111 A 
ATOM      6  C   UNL     1       6.049   8.180   9.165  1.00  0.00     0.134 A 
ATOM      7  C   UNL     1       4.670   8.239   9.400  1.00  0.00     0.093 A 
ATOM      8  C   UNL     1       3.921   7.077   9.582  1.00  0.00     0.123 A 
ATOM      9  C   UNL     1       4.548   5.831   9.522  1.00  0.00     0.094 A 
ATOM     10  C   UNL     1       5.914   5.740   9.251  1.00  0.00     0.146 A 
ATOM     11  O   UNL     1       6.470   4.536   9.192  1.00  0.00    -0.452 OA
ENDROOT
BRANCH   1  12
ATOM     12  C   UNL     1       8.257   2.942   8.909  1.00  0.00     0.025 A 
ATOM     13  C   UNL     1       9.240   1.029   7.741  1.00  0.00     0.161 A 
ATOM     14  C   UNL     1       9.255   0.311   8.950  1.00  0.00     0.157 A 
ATOM     15  C   UNL     1       8.745   2.349   7.730  1.00  0.00     0.062 A 
ATOM     16  C   UNL     1       8.791   0.909  10.125  1.00  0.00     0.051 A 
ATOM     17  C   UNL     1       8.303   2.216  10.109  1.00  0.00     0.016 A 
BRANCH  13  18
ATOM     18  O   UNL     1       9.723   0.407   6.578  1.00  0.00    -0.493 OA
ATOM     19  C   UNL     1       9.318   0.743   5.255  1.00  0.00     0.278 C 
ENDBRANCH  13  18
BRANCH  14  20
ATOM     20  O   UNL     1       9.732  -0.999   9.005  1.00  0.00    -0.504 OA
ATOM     21  H   UNL     1       9.248  -1.769   8.559  1.00  0.00     0.293 HD
ENDBRANCH  14  20
ENDBRANCH   1  12
BRANCH   2  22
ATOM     22  O   UNL     1       9.914   5.224   8.248  1.00  0.00    -0.502 OA
ATOM     23  H   UNL     1      10.306   4.299   8.119  1.00  0.00     0.293 HD
ENDBRANCH   2  22
BRANCH   6  24
ATOM     24  O   UNL     1       6.722   9.404   9.092  1.00  0.00    -0.507 OA
ATOM     25  H   UNL     1       6.539  10.120   8.405  1.00  0.00     0.293 HD
ENDBRANCH   6  24
BRANCH   8  26
ATOM     26  O   UNL     1       2.553   7.173   9.831  1.00  0.00    -0.508 OA
ATOM     27  H   UNL     1       2.189   7.759  10.573  1.00  0.00     0.293 HD
ENDBRANCH   8  26
TORSDOF 6
ENDMDL
MODEL 8
REMARK VINA RESULT:    -4.170      3.616      6.678
REMARK INTER + INTRA:          -5.525
REMARK INTER:                  -5.384
REMARK INTRA:                  -0.141
REMARK UNBOUND:                -0.380
REMARK SMILES COc1cc(-c2oc3cc(O)cc(O)c3c(=O)c2O)ccc1O
REMARK SMILES IDX 6 1 18 2 16 3 17 4 15 5 13 6 12 7 10 8 9 9 8 10 7 11 5 12
REMARK SMILES IDX 3 13 22 14 4 15 21 16 20 17 2 18 1 19 23 20 19 22 14 24
REMARK SMILES IDX 11 26
REMARK H PARENT 23 21 19 23 14 25 11 27
REMARK Flexibility Score: inf
ROOT
ATOM      1  C   UNL     1      -7.364  -3.933   9.006  1.00  0.00     0.180 A 
ATOM      2  C   UNL     1      -6.113  -4.324   9.511  1.00  0.00     0.208 A 
ATOM      3  C   UNL     1      -5.778  -5.688   9.520  1.00  0.00     0.238 A 
ATOM      4  O   UNL     1      -4.679  -6.037  10.023  1.00  0.00    -0.285 OA
ATOM      5  C   UNL     1      -6.692  -6.641   9.009  1.00  0.00     0.111 A 
ATOM      6  C   UNL     1      -6.441  -8.044   8.931  1.00  0.00     0.134 A 
ATOM      7  C   UNL     1      -7.468  -8.907   8.529  1.00  0.00     0.093 A 
ATOM      8  C   UNL     1      -8.712  -8.415   8.139  1.00  0.00     0.123 A 
ATOM      9  C   UNL     1      -8.949  -7.039   8.154  1.00  0.00     0.094 A 
ATOM     10  C   UNL     1      -7.957  -6.156   8.585  1.00  0.00     0.146 A 
ATOM     11  O   UNL     1      -8.226  -4.856   8.595  1.00  0.00    -0.452 OA
ENDROOT
BRANCH   1  12
ATOM     12  C   UNL     1      -7.778  -2.512   8.942  1.00  0.00     0.025 A 
ATOM     13  C   UNL     1      -8.560  -0.565   7.683  1.00  0.00     0.161 A 
ATOM     14  C   UNL     1      -8.610   0.175   8.878  1.00  0.00     0.157 A 
ATOM     15  C   UNL     1      -8.149  -1.912   7.725  1.00  0.00     0.062 A 
ATOM     16  C   UNL     1      -8.263  -0.428  10.090  1.00  0.00     0.051 A 
ATOM     17  C   UNL     1      -7.857  -1.763  10.125  1.00  0.00     0.016 A 
BRANCH  13  18
ATOM     18  O   UNL     1      -8.926   0.064   6.482  1.00  0.00    -0.493 OA
ATOM     19  C   UNL     1      -9.613  -0.576   5.411  1.00  0.00     0.278 C 
ENDBRANCH  13  18
BRANCH  14  20
ATOM     20  O   UNL     1      -9.007   1.512   8.882  1.00  0.00    -0.504 OA
ATOM     21  H   UNL     1      -9.925   1.804   8.569  1.00  0.00     0.293 HD
ENDBRANCH  14  20
ENDBRANCH   1  12
BRANCH   2  22
ATOM     22  O   UNL     1      -5.235  -3.370  10.031  1.00  0.00    -0.502 OA
ATOM     23  H   UNL     1      -5.103  -3.236  11.027  1.00  0.00     0.293 HD
ENDBRANCH   2  22
BRANCH   6  24
ATOM     24  O   UNL     1      -5.205  -8.632   9.210  1.00  0.00    -0.507 OA
ATOM     25  H   UNL     1      -5.079  -9.581   9.529  1.00  0.00     0.293 HD
ENDBRANCH   6  24
BRANCH   8  26
ATOM     26  O   UNL     1      -9.706  -9.302   7.729  1.00  0.00    -0.508 OA
ATOM     27  H   UNL     1     -10.523  -8.985   7.221  1.00  0.00     0.293 HD
ENDBRANCH   8  26
TORSDOF 6
ENDMDL
