MODEL 1
REMARK VINA RESULT:    -3.038      0.000      0.000
REMARK INTER + INTRA:          -3.682
REMARK INTER:                  -3.660
REMARK INTRA:                  -0.023
REMARK UNBOUND:                -0.023
REMARK SMILES CCCCCO
REMARK SMILES IDX 4 1 3 2 2 3 1 4 5 5 6 6
REMARK H PARENT 6 7
REMARK Flexibility Score: inf
ROOT
ATOM      1  C   UNL     1      35.953  -4.544  24.073  1.00  0.00     0.028 C 
ENDROOT
BRANCH   1   2
ATOM      2  C   UNL     1      35.065  -5.743  24.435  1.00  0.00     0.002 C 
BRANCH   2   3
ATOM      3  C   UNL     1      35.713  -6.662  25.481  1.00  0.00    -0.003 C 
ATOM      4  C   UNL     1      35.487  -8.145  25.188  1.00  0.00     0.004 C 
ENDBRANCH   2   3
ENDBRANCH   1   2
BRANCH   1   5
ATOM      5  C   UNL     1      35.152  -3.467  23.342  1.00  0.00     0.156 C 
BRANCH   5   6
ATOM      6  O   UNL     1      33.783  -3.704  23.517  1.00  0.00    -0.396 OA
ATOM      7  H   UNL     1      33.494  -3.110  24.257  1.00  0.00     0.210 HD
ENDBRANCH   5   6
ENDBRANCH   1   5
TORSDOF 4
ENDMDL
MODEL 2
REMARK VINA RESULT:    -2.638     15.916     17.001
REMARK INTER + INTRA:          -3.200
REMARK INTER:                  -3.151
REMARK INTRA:                  -0.049
REMARK UNBOUND:                -0.023
REMARK SMILES CCCCCO
REMARK SMILES IDX 4 1 3 2 2 3 1 4 5 5 6 6
REMARK H PARENT 6 7
REMARK Flexibility Score: inf
ROOT
ATOM      1  C   UNL     1      31.005 -21.411  22.054  1.00  0.00     0.028 C 
ENDROOT
BRANCH   1   2
ATOM      2  C   UNL     1      30.423 -19.990  22.038  1.00  0.00     0.002 C 
BRANCH   2   3
ATOM      3  C   UNL     1      29.105 -19.902  21.254  1.00  0.00    -0.003 C 
ATOM      4  C   UNL     1      28.845 -18.506  20.689  1.00  0.00     0.004 C 
ENDBRANCH   2   3
ENDBRANCH   1   2
BRANCH   1   5
ATOM      5  C   UNL     1      29.897 -22.460  21.978  1.00  0.00     0.156 C 
BRANCH   5   6
ATOM      6  O   UNL     1      29.769 -23.094  23.220  1.00  0.00    -0.396 OA
ATOM      7  H   UNL     1      28.795 -23.196  23.378  1.00  0.00     0.210 HD
ENDBRANCH   5   6
ENDBRANCH   1   5
TORSDOF 4
ENDMDL
MODEL 3
REMARK VINA RESULT:    -2.571      2.092      3.669
REMARK INTER + INTRA:          -3.120
REMARK INTER:                  -3.060
REMARK INTRA:                  -0.060
REMARK UNBOUND:                -0.023
REMARK SMILES CCCCCO
REMARK SMILES IDX 4 1 3 2 2 3 1 4 5 5 6 6
REMARK H PARENT 6 7
REMARK Flexibility Score: inf
ROOT
ATOM      1  C   UNL     1      36.649  -6.558  25.169  1.00  0.00     0.028 C 
ENDROOT
BRANCH   1   2
ATOM      2  C   UNL     1      36.768  -5.191  24.481  1.00  0.00     0.002 C 
BRANCH   2   3
ATOM      3  C   UNL     1      35.430  -4.701  23.906  1.00  0.00    -0.003 C 
ATOM      4  C   UNL     1      35.429  -3.202  23.605  1.00  0.00     0.004 C 
ENDBRANCH   2   3
ENDBRANCH   1   2
BRANCH   1   5
ATOM      5  C   UNL     1      35.185  -6.940  25.384  1.00  0.00     0.156 C 
BRANCH   5   6
ATOM      6  O   UNL     1      34.907  -8.131  24.702  1.00  0.00    -0.396 OA
ATOM      7  H   UNL     1      34.117  -8.528  25.151  1.00  0.00     0.210 HD
ENDBRANCH   5   6
ENDBRANCH   1   5
TORSDOF 4
ENDMDL
MODEL 4
REMARK VINA RESULT:    -2.529     14.552     15.410
REMARK INTER + INTRA:          -3.070
REMARK INTER:                  -3.011
REMARK INTRA:                  -0.059
REMARK UNBOUND:                -0.023
REMARK SMILES CCCCCO
REMARK SMILES IDX 4 1 3 2 2 3 1 4 5 5 6 6
REMARK H PARENT 6 7
REMARK Flexibility Score: inf
ROOT
ATOM      1  C   UNL     1      36.508 -10.833  38.271  1.00  0.00     0.028 C 
ENDROOT
BRANCH   1   2
ATOM      2  C   UNL     1      35.294 -11.292  37.450  1.00  0.00     0.002 C 
BRANCH   2   3
ATOM      3  C   UNL     1      34.286 -10.159  37.203  1.00  0.00    -0.003 C 
ATOM      4  C   UNL     1      32.837 -10.645  37.209  1.00  0.00     0.004 C 
ENDBRANCH   2   3
ENDBRANCH   1   2
BRANCH   1   5
ATOM      5  C   UNL     1      36.553 -11.538  39.626  1.00  0.00     0.156 C 
BRANCH   5   6
ATOM      6  O   UNL     1      35.401 -12.317  39.785  1.00  0.00    -0.396 OA
ATOM      7  H   UNL     1      35.599 -13.192  39.361  1.00  0.00     0.210 HD
ENDBRANCH   5   6
ENDBRANCH   1   5
TORSDOF 4
ENDMDL
MODEL 5
REMARK VINA RESULT:    -2.522     16.964     18.230
REMARK INTER + INTRA:          -3.061
REMARK INTER:                  -3.024
REMARK INTRA:                  -0.037
REMARK UNBOUND:                -0.023
REMARK SMILES CCCCCO
REMARK SMILES IDX 4 1 3 2 2 3 1 4 5 5 6 6
REMARK H PARENT 6 7
REMARK Flexibility Score: inf
ROOT
ATOM      1  C   UNL     1      30.017 -21.465  20.782  1.00  0.00     0.028 C 
ENDROOT
BRANCH   1   2
ATOM      2  C   UNL     1      29.570 -22.875  20.369  1.00  0.00     0.002 C 
BRANCH   2   3
ATOM      3  C   UNL     1      28.043 -22.999  20.252  1.00  0.00    -0.003 C 
ATOM      4  C   UNL     1      27.329 -22.814  21.590  1.00  0.00     0.004 C 
ENDBRANCH   2   3
ENDBRANCH   1   2
BRANCH   1   5
ATOM      5  C   UNL     1      31.087 -21.525  21.871  1.00  0.00     0.156 C 
BRANCH   5   6
ATOM      6  O   UNL     1      32.350 -21.641  21.277  1.00  0.00    -0.396 OA
ATOM      7  H   UNL     1      32.837 -20.806  21.501  1.00  0.00     0.210 HD
ENDBRANCH   5   6
ENDBRANCH   1   5
TORSDOF 4
ENDMDL
MODEL 6
REMARK VINA RESULT:    -2.450      2.189      3.056
REMARK INTER + INTRA:          -2.974
REMARK INTER:                  -2.943
REMARK INTRA:                  -0.031
REMARK UNBOUND:                -0.023
REMARK SMILES CCCCCO
REMARK SMILES IDX 4 1 3 2 2 3 1 4 5 5 6 6
REMARK H PARENT 6 7
REMARK Flexibility Score: inf
ROOT
ATOM      1  C   UNL     1      34.952  -7.196  25.608  1.00  0.00     0.028 C 
ENDROOT
BRANCH   1   2
ATOM      2  C   UNL     1      34.137  -8.002  24.586  1.00  0.00     0.002 C 
BRANCH   2   3
ATOM      3  C   UNL     1      33.011  -8.817  25.240  1.00  0.00    -0.003 C 
ATOM      4  C   UNL     1      31.666  -8.092  25.221  1.00  0.00     0.004 C 
ENDBRANCH   2   3
ENDBRANCH   1   2
BRANCH   1   5
ATOM      5  C   UNL     1      35.633  -5.999  24.947  1.00  0.00     0.156 C 
BRANCH   5   6
ATOM      6  O   UNL     1      34.701  -5.302  24.168  1.00  0.00    -0.396 OA
ATOM      7  H   UNL     1      34.908  -5.528  23.224  1.00  0.00     0.210 HD
ENDBRANCH   5   6
ENDBRANCH   1   5
TORSDOF 4
ENDMDL
MODEL 7
REMARK VINA RESULT:    -2.449     17.027     17.901
REMARK INTER + INTRA:          -2.973
REMARK INTER:                  -2.888
REMARK INTRA:                  -0.085
REMARK UNBOUND:                -0.023
REMARK SMILES CCCCCO
REMARK SMILES IDX 4 1 3 2 2 3 1 4 5 5 6 6
REMARK H PARENT 6 7
REMARK Flexibility Score: inf
ROOT
ATOM      1  C   UNL     1      29.914 -20.931  22.878  1.00  0.00     0.028 C 
ENDROOT
BRANCH   1   2
ATOM      2  C   UNL     1      30.808 -21.537  21.787  1.00  0.00     0.002 C 
BRANCH   2   3
ATOM      3  C   UNL     1      30.086 -21.670  20.438  1.00  0.00    -0.003 C 
ATOM      4  C   UNL     1      29.890 -23.125  20.012  1.00  0.00     0.004 C 
ENDBRANCH   2   3
ENDBRANCH   1   2
BRANCH   1   5
ATOM      5  C   UNL     1      28.793 -21.894  23.267  1.00  0.00     0.156 C 
BRANCH   5   6
ATOM      6  O   UNL     1      29.345 -23.125  23.644  1.00  0.00    -0.396 OA
ATOM      7  H   UNL     1      28.956 -23.801  23.032  1.00  0.00     0.210 HD
ENDBRANCH   5   6
ENDBRANCH   1   5
TORSDOF 4
ENDMDL
MODEL 8
REMARK VINA RESULT:    -2.382     16.239     17.269
REMARK INTER + INTRA:          -2.892
REMARK INTER:                  -2.838
REMARK INTRA:                  -0.054
REMARK UNBOUND:                -0.023
REMARK SMILES CCCCCO
REMARK SMILES IDX 4 1 3 2 2 3 1 4 5 5 6 6
REMARK H PARENT 6 7
REMARK Flexibility Score: inf
ROOT
ATOM      1  C   UNL     1      30.340 -20.395  22.118  1.00  0.00     0.028 C 
ENDROOT
BRANCH   1   2
ATOM      2  C   UNL     1      29.490 -20.849  23.313  1.00  0.00     0.002 C 
BRANCH   2   3
ATOM      3  C   UNL     1      29.065 -22.322  23.209  1.00  0.00    -0.003 C 
ATOM      4  C   UNL     1      27.969 -22.694  24.206  1.00  0.00     0.004 C 
ENDBRANCH   2   3
ENDBRANCH   1   2
BRANCH   1   5
ATOM      5  C   UNL     1      30.862 -21.593  21.328  1.00  0.00     0.156 C 
BRANCH   5   6
ATOM      6  O   UNL     1      32.262 -21.607  21.372  1.00  0.00    -0.396 OA
ATOM      7  H   UNL     1      32.539 -22.499  21.038  1.00  0.00     0.210 HD
ENDBRANCH   5   6
ENDBRANCH   1   5
TORSDOF 4
ENDMDL
MODEL 9
REMARK VINA RESULT:    -2.372     17.262     18.074
REMARK INTER + INTRA:          -2.880
REMARK INTER:                  -2.828
REMARK INTRA:                  -0.053
REMARK UNBOUND:                -0.023
REMARK SMILES CCCCCO
REMARK SMILES IDX 4 1 3 2 2 3 1 4 5 5 6 6
REMARK H PARENT 6 7
REMARK Flexibility Score: inf
ROOT
ATOM      1  C   UNL     1      27.632 -22.639  24.237  1.00  0.00     0.028 C 
ENDROOT
BRANCH   1   2
ATOM      2  C   UNL     1      27.719 -22.104  25.673  1.00  0.00     0.002 C 
BRANCH   2   3
ATOM      3  C   UNL     1      28.766 -20.990  25.825  1.00  0.00    -0.003 C 
ATOM      4  C   UNL     1      29.307 -20.877  27.250  1.00  0.00     0.004 C 
ENDBRANCH   2   3
ENDBRANCH   1   2
BRANCH   1   5
ATOM      5  C   UNL     1      28.790 -22.120  23.386  1.00  0.00     0.156 C 
BRANCH   5   6
ATOM      6  O   UNL     1      29.756 -23.125  23.249  1.00  0.00    -0.396 OA
ATOM      7  H   UNL     1      30.569 -22.789  23.706  1.00  0.00     0.210 HD
ENDBRANCH   5   6
ENDBRANCH   1   5
TORSDOF 4
ENDMDL
