MODEL 1
REMARK VINA RESULT:    -7.207      0.000      0.000
REMARK INTER + INTRA:          -8.776
REMARK INTER:                  -8.471
REMARK INTRA:                  -0.305
REMARK UNBOUND:                -0.305
REMARK SMILES O=c1cc(-c2ccc(O)c(O)c2)oc2cc(O)cc(O)c12
REMARK SMILES IDX 4 1 3 2 2 3 1 4 21 5 19 6 18 7 16 8 15 9 14 10 13 11 5 12
REMARK SMILES IDX 6 13 7 14 8 15 12 16 10 17 9 18 11 20 20 22 17 24
REMARK H PARENT 9 19 11 21 20 23 17 25
REMARK Flexibility Score: inf
ROOT
ATOM      1  C   UNL     1       4.225   0.681 -23.176  1.00  0.00     0.138 A 
ATOM      2  C   UNL     1       5.160  -0.363 -23.215  1.00  0.00     0.100 A 
ATOM      3  C   UNL     1       4.723  -1.673 -23.413  1.00  0.00     0.197 A 
ATOM      4  O   UNL     1       5.578  -2.596 -23.380  1.00  0.00    -0.289 OA
ATOM      5  C   UNL     1       3.346  -1.934 -23.607  1.00  0.00     0.107 A 
ATOM      6  C   UNL     1       2.790  -3.224 -23.859  1.00  0.00     0.134 A 
ATOM      7  C   UNL     1       1.399  -3.377 -23.918  1.00  0.00     0.093 A 
ATOM      8  C   UNL     1       0.548  -2.280 -23.795  1.00  0.00     0.123 A 
ATOM      9  C   UNL     1       1.082  -1.006 -23.602  1.00  0.00     0.094 A 
ATOM     10  C   UNL     1       2.464  -0.825 -23.504  1.00  0.00     0.146 A 
ATOM     11  O   UNL     1       2.932   0.402 -23.306  1.00  0.00    -0.456 OA
ENDROOT
BRANCH   1  12
ATOM     12  C   UNL     1       4.636   2.093 -22.969  1.00  0.00     0.021 A 
ATOM     13  C   UNL     1       5.889   2.524 -23.436  1.00  0.00     0.016 A 
ATOM     14  C   UNL     1       6.302   3.845 -23.247  1.00  0.00     0.051 A 
ATOM     15  C   UNL     1       5.474   4.756 -22.580  1.00  0.00     0.157 A 
ATOM     16  C   UNL     1       3.813   3.011 -22.288  1.00  0.00     0.062 A 
ATOM     17  C   UNL     1       4.225   4.334 -22.095  1.00  0.00     0.158 A 
BRANCH  15  18
ATOM     18  O   UNL     1       5.888   6.075 -22.394  1.00  0.00    -0.504 OA
ATOM     19  H   UNL     1       6.200   6.647 -23.170  1.00  0.00     0.293 HD
ENDBRANCH  15  18
BRANCH  17  20
ATOM     20  O   UNL     1       3.382   5.215 -21.416  1.00  0.00    -0.504 OA
ATOM     21  H   UNL     1       2.406   5.004 -21.250  1.00  0.00     0.293 HD
ENDBRANCH  17  20
ENDBRANCH   1  12
BRANCH   6  22
ATOM     22  O   UNL     1       3.554  -4.374 -24.081  1.00  0.00    -0.507 OA
ATOM     23  H   UNL     1       4.480  -4.531 -23.712  1.00  0.00     0.293 HD
ENDBRANCH   6  22
BRANCH   8  24
ATOM     24  O   UNL     1      -0.830  -2.468 -23.874  1.00  0.00    -0.508 OA
ATOM     25  H   UNL     1      -1.262  -2.891 -24.689  1.00  0.00     0.293 HD
ENDBRANCH   8  24
TORSDOF 5
ENDMDL
MODEL 2
REMARK VINA RESULT:    -7.186      2.247      6.950
REMARK INTER + INTRA:          -8.751
REMARK INTER:                  -8.461
REMARK INTRA:                  -0.290
REMARK UNBOUND:                -0.305
REMARK SMILES O=c1cc(-c2ccc(O)c(O)c2)oc2cc(O)cc(O)c12
REMARK SMILES IDX 4 1 3 2 2 3 1 4 21 5 19 6 18 7 16 8 15 9 14 10 13 11 5 12
REMARK SMILES IDX 6 13 7 14 8 15 12 16 10 17 9 18 11 20 20 22 17 24
REMARK H PARENT 9 19 11 21 20 23 17 25
REMARK Flexibility Score: inf
ROOT
ATOM      1  C   UNL     1       3.130  -0.462 -23.626  1.00  0.00     0.138 A 
ATOM      2  C   UNL     1       4.177  -0.198 -22.731  1.00  0.00     0.100 A 
ATOM      3  C   UNL     1       4.925   0.972 -22.870  1.00  0.00     0.197 A 
ATOM      4  O   UNL     1       5.897   1.151 -22.091  1.00  0.00    -0.289 OA
ATOM      5  C   UNL     1       4.601   1.898 -23.890  1.00  0.00     0.107 A 
ATOM      6  C   UNL     1       5.267   3.142 -24.099  1.00  0.00     0.134 A 
ATOM      7  C   UNL     1       4.936   3.923 -25.214  1.00  0.00     0.093 A 
ATOM      8  C   UNL     1       3.923   3.536 -26.089  1.00  0.00     0.123 A 
ATOM      9  C   UNL     1       3.228   2.347 -25.864  1.00  0.00     0.094 A 
ATOM     10  C   UNL     1       3.558   1.529 -24.781  1.00  0.00     0.146 A 
ATOM     11  O   UNL     1       2.882   0.398 -24.609  1.00  0.00    -0.456 OA
ENDROOT
BRANCH   1  12
ATOM     12  C   UNL     1       2.303  -1.690 -23.524  1.00  0.00     0.021 A 
ATOM     13  C   UNL     1       1.004  -1.695 -24.061  1.00  0.00     0.016 A 
ATOM     14  C   UNL     1       0.202  -2.835 -23.972  1.00  0.00     0.051 A 
ATOM     15  C   UNL     1       0.680  -3.988 -23.336  1.00  0.00     0.157 A 
ATOM     16  C   UNL     1       2.773  -2.848 -22.875  1.00  0.00     0.062 A 
ATOM     17  C   UNL     1       1.971  -3.991 -22.782  1.00  0.00     0.158 A 
BRANCH  15  18
ATOM     18  O   UNL     1      -0.122  -5.125 -23.249  1.00  0.00    -0.504 OA
ATOM     19  H   UNL     1      -1.109  -5.062 -23.032  1.00  0.00     0.293 HD
ENDBRANCH  15  18
BRANCH  17  20
ATOM     20  O   UNL     1       2.472  -5.119 -22.132  1.00  0.00    -0.504 OA
ATOM     21  H   UNL     1       3.371  -5.520 -22.366  1.00  0.00     0.293 HD
ENDBRANCH  17  20
ENDBRANCH   1  12
BRANCH   6  22
ATOM     22  O   UNL     1       6.236   3.664 -23.237  1.00  0.00    -0.507 OA
ATOM     23  H   UNL     1       6.063   4.361 -22.529  1.00  0.00     0.293 HD
ENDBRANCH   6  22
BRANCH   8  24
ATOM     24  O   UNL     1       3.609   4.346 -27.179  1.00  0.00    -0.508 OA
ATOM     25  H   UNL     1       3.452   3.956 -28.101  1.00  0.00     0.293 HD
ENDBRANCH   8  24
TORSDOF 5
ENDMDL
MODEL 3
REMARK VINA RESULT:    -7.166      2.105      7.147
REMARK INTER + INTRA:          -8.728
REMARK INTER:                  -8.453
REMARK INTRA:                  -0.275
REMARK UNBOUND:                -0.305
REMARK SMILES O=c1cc(-c2ccc(O)c(O)c2)oc2cc(O)cc(O)c12
REMARK SMILES IDX 4 1 3 2 2 3 1 4 21 5 19 6 18 7 16 8 15 9 14 10 13 11 5 12
REMARK SMILES IDX 6 13 7 14 8 15 12 16 10 17 9 18 11 20 20 22 17 24
REMARK H PARENT 9 19 11 21 20 23 17 25
REMARK Flexibility Score: inf
ROOT
ATOM      1  C   UNL     1       4.165   1.186 -23.379  1.00  0.00     0.138 A 
ATOM      2  C   UNL     1       4.265   2.009 -22.249  1.00  0.00     0.100 A 
ATOM      3  C   UNL     1       4.431   3.385 -22.410  1.00  0.00     0.197 A 
ATOM      4  O   UNL     1       4.582   4.090 -21.378  1.00  0.00    -0.289 OA
ATOM      5  C   UNL     1       4.464   3.943 -23.710  1.00  0.00     0.107 A 
ATOM      6  C   UNL     1       4.587   5.335 -23.995  1.00  0.00     0.134 A 
ATOM      7  C   UNL     1       4.726   5.759 -25.322  1.00  0.00     0.093 A 
ATOM      8  C   UNL     1       4.685   4.849 -26.377  1.00  0.00     0.123 A 
ATOM      9  C   UNL     1       4.511   3.489 -26.114  1.00  0.00     0.094 A 
ATOM     10  C   UNL     1       4.404   3.032 -24.799  1.00  0.00     0.146 A 
ATOM     11  O   UNL     1       4.254   1.728 -24.589  1.00  0.00    -0.456 OA
ENDROOT
BRANCH   1  12
ATOM     12  C   UNL     1       3.986  -0.284 -23.265  1.00  0.00     0.021 A 
ATOM     13  C   UNL     1       2.828  -0.794 -22.654  1.00  0.00     0.016 A 
ATOM     14  C   UNL     1       2.640  -2.172 -22.527  1.00  0.00     0.051 A 
ATOM     15  C   UNL     1       3.609  -3.065 -23.001  1.00  0.00     0.157 A 
ATOM     16  C   UNL     1       4.963  -1.187 -23.728  1.00  0.00     0.062 A 
ATOM     17  C   UNL     1       4.778  -2.568 -23.600  1.00  0.00     0.158 A 
BRANCH  15  18
ATOM     18  O   UNL     1       3.418  -4.440 -22.875  1.00  0.00    -0.504 OA
ATOM     19  H   UNL     1       3.988  -5.104 -23.385  1.00  0.00     0.293 HD
ENDBRANCH  15  18
BRANCH  17  20
ATOM     20  O   UNL     1       5.768  -3.431 -24.072  1.00  0.00    -0.504 OA
ATOM     21  H   UNL     1       6.728  -3.370 -23.757  1.00  0.00     0.293 HD
ENDBRANCH  17  20
ENDBRANCH   1  12
BRANCH   6  22
ATOM     22  O   UNL     1       4.555   6.337 -23.020  1.00  0.00    -0.507 OA
ATOM     23  H   UNL     1       3.788   6.500 -22.385  1.00  0.00     0.293 HD
ENDBRANCH   6  22
BRANCH   8  24
ATOM     24  O   UNL     1       4.811   5.308 -27.686  1.00  0.00    -0.508 OA
ATOM     25  H   UNL     1       5.168   6.235 -27.891  1.00  0.00     0.293 HD
ENDBRANCH   8  24
TORSDOF 5
ENDMDL
MODEL 4
REMARK VINA RESULT:    -7.120      1.130      1.500
REMARK INTER + INTRA:          -8.673
REMARK INTER:                  -8.410
REMARK INTRA:                  -0.264
REMARK UNBOUND:                -0.305
REMARK SMILES O=c1cc(-c2ccc(O)c(O)c2)oc2cc(O)cc(O)c12
REMARK SMILES IDX 4 1 3 2 2 3 1 4 21 5 19 6 18 7 16 8 15 9 14 10 13 11 5 12
REMARK SMILES IDX 6 13 7 14 8 15 12 16 10 17 9 18 11 20 20 22 17 24
REMARK H PARENT 9 19 11 21 20 23 17 25
REMARK Flexibility Score: inf
ROOT
ATOM      1  C   UNL     1       3.926   0.378 -23.536  1.00  0.00     0.138 A 
ATOM      2  C   UNL     1       4.859  -0.667 -23.519  1.00  0.00     0.100 A 
ATOM      3  C   UNL     1       4.416  -1.989 -23.581  1.00  0.00     0.197 A 
ATOM      4  O   UNL     1       5.273  -2.907 -23.500  1.00  0.00    -0.289 OA
ATOM      5  C   UNL     1       3.032  -2.263 -23.694  1.00  0.00     0.107 A 
ATOM      6  C   UNL     1       2.468  -3.569 -23.806  1.00  0.00     0.134 A 
ATOM      7  C   UNL     1       1.076  -3.723 -23.795  1.00  0.00     0.093 A 
ATOM      8  C   UNL     1       0.230  -2.617 -23.736  1.00  0.00     0.123 A 
ATOM      9  C   UNL     1       0.770  -1.332 -23.681  1.00  0.00     0.094 A 
ATOM     10  C   UNL     1       2.154  -1.147 -23.656  1.00  0.00     0.146 A 
ATOM     11  O   UNL     1       2.629   0.092 -23.588  1.00  0.00    -0.456 OA
ENDROOT
BRANCH   1  12
ATOM     12  C   UNL     1       4.343   1.802 -23.474  1.00  0.00     0.021 A 
ATOM     13  C   UNL     1       4.478   2.428 -22.223  1.00  0.00     0.016 A 
ATOM     14  C   UNL     1       4.861   3.768 -22.137  1.00  0.00     0.051 A 
ATOM     15  C   UNL     1       5.107   4.510 -23.299  1.00  0.00     0.157 A 
ATOM     16  C   UNL     1       4.580   2.556 -24.639  1.00  0.00     0.062 A 
ATOM     17  C   UNL     1       4.962   3.900 -24.555  1.00  0.00     0.158 A 
BRANCH  15  18
ATOM     18  O   UNL     1       5.491   5.847 -23.210  1.00  0.00    -0.504 OA
ATOM     19  H   UNL     1       5.592   6.426 -24.035  1.00  0.00     0.293 HD
ENDBRANCH  15  18
BRANCH  17  20
ATOM     20  O   UNL     1       5.188   4.615 -25.732  1.00  0.00    -0.504 OA
ATOM     21  H   UNL     1       4.935   5.590 -25.827  1.00  0.00     0.293 HD
ENDBRANCH  17  20
ENDBRANCH   1  12
BRANCH   6  22
ATOM     22  O   UNL     1       3.224  -4.735 -23.955  1.00  0.00    -0.507 OA
ATOM     23  H   UNL     1       2.849  -5.672 -23.938  1.00  0.00     0.293 HD
ENDBRANCH   6  22
BRANCH   8  24
ATOM     24  O   UNL     1      -1.151  -2.808 -23.743  1.00  0.00    -0.508 OA
ATOM     25  H   UNL     1      -1.752  -2.354 -23.064  1.00  0.00     0.293 HD
ENDBRANCH   8  24
TORSDOF 5
ENDMDL
MODEL 5
REMARK VINA RESULT:    -7.047      1.935      2.713
REMARK INTER + INTRA:          -8.587
REMARK INTER:                  -8.319
REMARK INTRA:                  -0.268
REMARK UNBOUND:                -0.305
REMARK SMILES O=c1cc(-c2ccc(O)c(O)c2)oc2cc(O)cc(O)c12
REMARK SMILES IDX 4 1 3 2 2 3 1 4 21 5 19 6 18 7 16 8 15 9 14 10 13 11 5 12
REMARK SMILES IDX 6 13 7 14 8 15 12 16 10 17 9 18 11 20 20 22 17 24
REMARK H PARENT 9 19 11 21 20 23 17 25
REMARK Flexibility Score: inf
ROOT
ATOM      1  C   UNL     1       4.661   1.966 -23.215  1.00  0.00     0.138 A 
ATOM      2  C   UNL     1       4.124   1.186 -22.181  1.00  0.00     0.100 A 
ATOM      3  C   UNL     1       3.816  -0.154 -22.417  1.00  0.00     0.197 A 
ATOM      4  O   UNL     1       3.277  -0.812 -21.489  1.00  0.00    -0.289 OA
ATOM      5  C   UNL     1       4.077  -0.724 -23.686  1.00  0.00     0.107 A 
ATOM      6  C   UNL     1       3.843  -2.089 -24.028  1.00  0.00     0.134 A 
ATOM      7  C   UNL     1       4.030  -2.512 -25.350  1.00  0.00     0.093 A 
ATOM      8  C   UNL     1       4.502  -1.636 -26.326  1.00  0.00     0.123 A 
ATOM      9  C   UNL     1       4.787  -0.311 -25.991  1.00  0.00     0.094 A 
ATOM     10  C   UNL     1       4.577   0.149 -24.689  1.00  0.00     0.146 A 
ATOM     11  O   UNL     1       4.846   1.421 -24.413  1.00  0.00    -0.456 OA
ENDROOT
BRANCH   1  12
ATOM     12  C   UNL     1       5.008   3.397 -23.019  1.00  0.00     0.021 A 
ATOM     13  C   UNL     1       6.327   3.825 -23.247  1.00  0.00     0.016 A 
ATOM     14  C   UNL     1       6.681   5.164 -23.062  1.00  0.00     0.051 A 
ATOM     15  C   UNL     1       5.726   6.096 -22.637  1.00  0.00     0.157 A 
ATOM     16  C   UNL     1       4.055   4.336 -22.579  1.00  0.00     0.062 A 
ATOM     17  C   UNL     1       4.408   5.677 -22.391  1.00  0.00     0.158 A 
BRANCH  15  18
ATOM     18  O   UNL     1       6.082   7.431 -22.455  1.00  0.00    -0.504 OA
ATOM     19  H   UNL     1       7.038   7.746 -22.572  1.00  0.00     0.293 HD
ENDBRANCH  15  18
BRANCH  17  20
ATOM     20  O   UNL     1       3.437   6.579 -21.956  1.00  0.00    -0.504 OA
ATOM     21  H   UNL     1       2.888   7.132 -22.602  1.00  0.00     0.293 HD
ENDBRANCH  17  20
ENDBRANCH   1  12
BRANCH   6  22
ATOM     22  O   UNL     1       3.450  -3.068 -23.110  1.00  0.00    -0.507 OA
ATOM     23  H   UNL     1       3.245  -2.898 -22.137  1.00  0.00     0.293 HD
ENDBRANCH   6  22
BRANCH   8  24
ATOM     24  O   UNL     1       4.692  -2.095 -27.628  1.00  0.00    -0.508 OA
ATOM     25  H   UNL     1       5.579  -2.485 -27.928  1.00  0.00     0.293 HD
ENDBRANCH   8  24
TORSDOF 5
ENDMDL
MODEL 6
REMARK VINA RESULT:    -7.022      2.274      6.978
REMARK INTER + INTRA:          -8.558
REMARK INTER:                  -8.255
REMARK INTRA:                  -0.304
REMARK UNBOUND:                -0.305
REMARK SMILES O=c1cc(-c2ccc(O)c(O)c2)oc2cc(O)cc(O)c12
REMARK SMILES IDX 4 1 3 2 2 3 1 4 21 5 19 6 18 7 16 8 15 9 14 10 13 11 5 12
REMARK SMILES IDX 6 13 7 14 8 15 12 16 10 17 9 18 11 20 20 22 17 24
REMARK H PARENT 9 19 11 21 20 23 17 25
REMARK Flexibility Score: inf
ROOT
ATOM      1  C   UNL     1       3.443   0.111 -24.114  1.00  0.00     0.138 A 
ATOM      2  C   UNL     1       3.130   0.504 -25.423  1.00  0.00     0.100 A 
ATOM      3  C   UNL     1       3.457   1.790 -25.854  1.00  0.00     0.197 A 
ATOM      4  O   UNL     1       3.107   2.136 -27.012  1.00  0.00    -0.289 OA
ATOM      5  C   UNL     1       4.131   2.676 -24.979  1.00  0.00     0.107 A 
ATOM      6  C   UNL     1       4.551   3.995 -25.323  1.00  0.00     0.134 A 
ATOM      7  C   UNL     1       5.105   4.822 -24.338  1.00  0.00     0.093 A 
ATOM      8  C   UNL     1       5.311   4.358 -23.040  1.00  0.00     0.123 A 
ATOM      9  C   UNL     1       4.953   3.051 -22.706  1.00  0.00     0.094 A 
ATOM     10  C   UNL     1       4.366   2.213 -23.657  1.00  0.00     0.146 A 
ATOM     11  O   UNL     1       4.026   0.980 -23.295  1.00  0.00    -0.456 OA
ENDROOT
BRANCH   1  12
ATOM     12  C   UNL     1       3.118  -1.245 -23.604  1.00  0.00     0.021 A 
ATOM     13  C   UNL     1       3.144  -2.339 -24.486  1.00  0.00     0.016 A 
ATOM     14  C   UNL     1       2.835  -3.624 -24.033  1.00  0.00     0.051 A 
ATOM     15  C   UNL     1       2.486  -3.837 -22.694  1.00  0.00     0.157 A 
ATOM     16  C   UNL     1       2.755  -1.464 -22.261  1.00  0.00     0.062 A 
ATOM     17  C   UNL     1       2.443  -2.750 -21.806  1.00  0.00     0.158 A 
BRANCH  15  18
ATOM     18  O   UNL     1       2.180  -5.121 -22.245  1.00  0.00    -0.504 OA
ATOM     19  H   UNL     1       1.742  -5.277 -21.344  1.00  0.00     0.293 HD
ENDBRANCH  15  18
BRANCH  17  20
ATOM     20  O   UNL     1       2.088  -2.928 -20.468  1.00  0.00    -0.504 OA
ATOM     21  H   UNL     1       2.668  -2.593 -19.709  1.00  0.00     0.293 HD
ENDBRANCH  17  20
ENDBRANCH   1  12
BRANCH   6  22
ATOM     22  O   UNL     1       4.470   4.530 -26.612  1.00  0.00    -0.507 OA
ATOM     23  H   UNL     1       3.934   4.132 -27.369  1.00  0.00     0.293 HD
ENDBRANCH   6  22
BRANCH   8  24
ATOM     24  O   UNL     1       5.879   5.203 -22.089  1.00  0.00    -0.508 OA
ATOM     25  H   UNL     1       5.599   5.171 -21.116  1.00  0.00     0.293 HD
ENDBRANCH   8  24
TORSDOF 5
ENDMDL
MODEL 7
REMARK VINA RESULT:    -6.955      2.620      7.292
REMARK INTER + INTRA:          -8.479
REMARK INTER:                  -8.162
REMARK INTRA:                  -0.318
REMARK UNBOUND:                -0.305
REMARK SMILES O=c1cc(-c2ccc(O)c(O)c2)oc2cc(O)cc(O)c12
REMARK SMILES IDX 4 1 3 2 2 3 1 4 21 5 19 6 18 7 16 8 15 9 14 10 13 11 5 12
REMARK SMILES IDX 6 13 7 14 8 15 12 16 10 17 9 18 11 20 20 22 17 24
REMARK H PARENT 9 19 11 21 20 23 17 25
REMARK Flexibility Score: inf
ROOT
ATOM      1  C   UNL     1       4.570   1.822 -23.977  1.00  0.00     0.138 A 
ATOM      2  C   UNL     1       4.527   2.373 -22.689  1.00  0.00     0.100 A 
ATOM      3  C   UNL     1       4.368   3.751 -22.533  1.00  0.00     0.197 A 
ATOM      4  O   UNL     1       4.396   4.224 -21.367  1.00  0.00    -0.289 OA
ATOM      5  C   UNL     1       4.220   4.576 -23.673  1.00  0.00     0.107 A 
ATOM      6  C   UNL     1       4.010   5.987 -23.634  1.00  0.00     0.134 A 
ATOM      7  C   UNL     1       3.994   6.716 -24.830  1.00  0.00     0.093 A 
ATOM      8  C   UNL     1       4.118   6.078 -26.064  1.00  0.00     0.123 A 
ATOM      9  C   UNL     1       4.270   4.692 -26.116  1.00  0.00     0.094 A 
ATOM     10  C   UNL     1       4.324   3.941 -24.940  1.00  0.00     0.146 A 
ATOM     11  O   UNL     1       4.484   2.625 -25.032  1.00  0.00    -0.456 OA
ENDROOT
BRANCH   1  12
ATOM     12  C   UNL     1       4.736   0.363 -24.200  1.00  0.00     0.021 A 
ATOM     13  C   UNL     1       4.989  -0.479 -23.104  1.00  0.00     0.016 A 
ATOM     14  C   UNL     1       5.157  -1.853 -23.288  1.00  0.00     0.051 A 
ATOM     15  C   UNL     1       5.084  -2.410 -24.570  1.00  0.00     0.157 A 
ATOM     16  C   UNL     1       4.676  -0.200 -25.489  1.00  0.00     0.062 A 
ATOM     17  C   UNL     1       4.846  -1.577 -25.676  1.00  0.00     0.158 A 
BRANCH  15  18
ATOM     18  O   UNL     1       5.250  -3.782 -24.751  1.00  0.00    -0.504 OA
ATOM     19  H   UNL     1       5.732  -4.352 -24.065  1.00  0.00     0.293 HD
ENDBRANCH  15  18
BRANCH  17  20
ATOM     20  O   UNL     1       4.780  -2.098 -26.969  1.00  0.00    -0.504 OA
ATOM     21  H   UNL     1       5.229  -1.646 -27.755  1.00  0.00     0.293 HD
ENDBRANCH  17  20
ENDBRANCH   1  12
BRANCH   6  22
ATOM     22  O   UNL     1       3.791   6.711 -22.459  1.00  0.00    -0.507 OA
ATOM     23  H   UNL     1       3.270   7.574 -22.402  1.00  0.00     0.293 HD
ENDBRANCH   6  22
BRANCH   8  24
ATOM     24  O   UNL     1       4.082   6.834 -27.234  1.00  0.00    -0.508 OA
ATOM     25  H   UNL     1       4.765   7.560 -27.417  1.00  0.00     0.293 HD
ENDBRANCH   8  24
TORSDOF 5
ENDMDL
MODEL 8
REMARK VINA RESULT:    -6.817      2.118      7.278
REMARK INTER + INTRA:          -8.317
REMARK INTER:                  -8.049
REMARK INTRA:                  -0.268
REMARK UNBOUND:                -0.305
REMARK SMILES O=c1cc(-c2ccc(O)c(O)c2)oc2cc(O)cc(O)c12
REMARK SMILES IDX 4 1 3 2 2 3 1 4 21 5 19 6 18 7 16 8 15 9 14 10 13 11 5 12
REMARK SMILES IDX 6 13 7 14 8 15 12 16 10 17 9 18 11 20 20 22 17 24
REMARK H PARENT 9 19 11 21 20 23 17 25
REMARK Flexibility Score: inf
ROOT
ATOM      1  C   UNL     1       3.764   0.920 -24.309  1.00  0.00     0.138 A 
ATOM      2  C   UNL     1       3.141   1.422 -25.460  1.00  0.00     0.100 A 
ATOM      3  C   UNL     1       3.259   2.776 -25.774  1.00  0.00     0.197 A 
ATOM      4  O   UNL     1       2.637   3.210 -26.778  1.00  0.00    -0.289 OA
ATOM      5  C   UNL     1       4.031   3.626 -24.946  1.00  0.00     0.107 A 
ATOM      6  C   UNL     1       4.256   5.014 -25.190  1.00  0.00     0.134 A 
ATOM      7  C   UNL     1       4.941   5.780 -24.238  1.00  0.00     0.093 A 
ATOM      8  C   UNL     1       5.462   5.197 -23.084  1.00  0.00     0.123 A 
ATOM      9  C   UNL     1       5.296   3.829 -22.862  1.00  0.00     0.094 A 
ATOM     10  C   UNL     1       4.587   3.045 -23.775  1.00  0.00     0.146 A 
ATOM     11  O   UNL     1       4.438   1.750 -23.519  1.00  0.00    -0.456 OA
ENDROOT
BRANCH   1  12
ATOM     12  C   UNL     1       3.672  -0.513 -23.929  1.00  0.00     0.021 A 
ATOM     13  C   UNL     1       2.497  -0.994 -23.327  1.00  0.00     0.016 A 
ATOM     14  C   UNL     1       2.388  -2.335 -22.954  1.00  0.00     0.051 A 
ATOM     15  C   UNL     1       3.454  -3.218 -23.166  1.00  0.00     0.157 A 
ATOM     16  C   UNL     1       4.746  -1.402 -24.129  1.00  0.00     0.062 A 
ATOM     17  C   UNL     1       4.639  -2.746 -23.753  1.00  0.00     0.158 A 
BRANCH  15  18
ATOM     18  O   UNL     1       3.342  -4.557 -22.794  1.00  0.00    -0.504 OA
ATOM     19  H   UNL     1       4.127  -5.066 -22.406  1.00  0.00     0.293 HD
ENDBRANCH  15  18
BRANCH  17  20
ATOM     20  O   UNL     1       5.724  -3.597 -23.968  1.00  0.00    -0.504 OA
ATOM     21  H   UNL     1       6.681  -3.287 -23.855  1.00  0.00     0.293 HD
ENDBRANCH  17  20
ENDBRANCH   1  12
BRANCH   6  22
ATOM     22  O   UNL     1       3.851   5.678 -26.351  1.00  0.00    -0.507 OA
ATOM     23  H   UNL     1       4.469   6.161 -26.985  1.00  0.00     0.293 HD
ENDBRANCH   6  22
BRANCH   8  24
ATOM     24  O   UNL     1       6.152   5.987 -22.167  1.00  0.00    -0.508 OA
ATOM     25  H   UNL     1       7.069   5.723 -21.825  1.00  0.00     0.293 HD
ENDBRANCH   8  24
TORSDOF 5
ENDMDL
MODEL 9
REMARK VINA RESULT:    -6.774      1.770      2.209
REMARK INTER + INTRA:          -8.267
REMARK INTER:                  -8.000
REMARK INTRA:                  -0.267
REMARK UNBOUND:                -0.305
REMARK SMILES O=c1cc(-c2ccc(O)c(O)c2)oc2cc(O)cc(O)c12
REMARK SMILES IDX 4 1 3 2 2 3 1 4 21 5 19 6 18 7 16 8 15 9 14 10 13 11 5 12
REMARK SMILES IDX 6 13 7 14 8 15 12 16 10 17 9 18 11 20 20 22 17 24
REMARK H PARENT 9 19 11 21 20 23 17 25
REMARK Flexibility Score: inf
ROOT
ATOM      1  C   UNL     1       3.972   1.845 -23.656  1.00  0.00     0.138 A 
ATOM      2  C   UNL     1       3.691   1.488 -24.982  1.00  0.00     0.100 A 
ATOM      3  C   UNL     1       3.116   0.245 -25.255  1.00  0.00     0.197 A 
ATOM      4  O   UNL     1       2.933  -0.073 -26.459  1.00  0.00    -0.289 OA
ATOM      5  C   UNL     1       2.794  -0.630 -24.191  1.00  0.00     0.107 A 
ATOM      6  C   UNL     1       2.168  -1.903 -24.347  1.00  0.00     0.134 A 
ATOM      7  C   UNL     1       2.004  -2.732 -23.230  1.00  0.00     0.093 A 
ATOM      8  C   UNL     1       2.385  -2.311 -21.957  1.00  0.00     0.123 A 
ATOM      9  C   UNL     1       2.948  -1.046 -21.785  1.00  0.00     0.094 A 
ATOM     10  C   UNL     1       3.157  -0.209 -22.883  1.00  0.00     0.146 A 
ATOM     11  O   UNL     1       3.710   0.982 -22.680  1.00  0.00    -0.456 OA
ENDROOT
BRANCH   1  12
ATOM     12  C   UNL     1       4.581   3.154 -23.309  1.00  0.00     0.021 A 
ATOM     13  C   UNL     1       5.966   3.334 -23.466  1.00  0.00     0.016 A 
ATOM     14  C   UNL     1       6.565   4.553 -23.140  1.00  0.00     0.051 A 
ATOM     15  C   UNL     1       5.793   5.611 -22.643  1.00  0.00     0.157 A 
ATOM     16  C   UNL     1       3.812   4.216 -22.798  1.00  0.00     0.062 A 
ATOM     17  C   UNL     1       4.410   5.438 -22.468  1.00  0.00     0.158 A 
BRANCH  15  18
ATOM     18  O   UNL     1       6.393   6.827 -22.320  1.00  0.00    -0.504 OA
ATOM     19  H   UNL     1       6.793   6.993 -21.404  1.00  0.00     0.293 HD
ENDBRANCH  15  18
BRANCH  17  20
ATOM     20  O   UNL     1       3.615   6.468 -21.965  1.00  0.00    -0.504 OA
ATOM     21  H   UNL     1       2.650   6.320 -21.695  1.00  0.00     0.293 HD
ENDBRANCH  17  20
ENDBRANCH   1  12
BRANCH   6  22
ATOM     22  O   UNL     1       1.673  -2.386 -25.561  1.00  0.00    -0.507 OA
ATOM     23  H   UNL     1       2.223  -2.860 -26.261  1.00  0.00     0.293 HD
ENDBRANCH   6  22
BRANCH   8  24
ATOM     24  O   UNL     1       2.191  -3.157 -20.867  1.00  0.00    -0.508 OA
ATOM     25  H   UNL     1       1.265  -3.353 -20.506  1.00  0.00     0.293 HD
ENDBRANCH   8  24
TORSDOF 5
ENDMDL
