MODEL 1
REMARK VINA RESULT:    -7.521      0.000      0.000
REMARK INTER + INTRA:          -9.342
REMARK INTER:                  -9.059
REMARK INTRA:                  -0.283
REMARK UNBOUND:                -0.283
REMARK SMILES O=c1c(O)c(-c2ccc(O)c(O)c2)oc2cc(O)cc(O)c12
REMARK SMILES IDX 5 1 3 2 2 3 1 4 22 5 20 6 19 7 17 8 16 9 15 10 14 11 6 12
REMARK SMILES IDX 7 13 8 14 9 15 13 16 11 17 10 18 12 20 4 22 21 24 18 26
REMARK H PARENT 10 19 12 21 4 23 21 25 18 27
REMARK Flexibility Score: inf
ROOT
ATOM      1  C   UNL     1     114.012 -48.871  30.210  1.00  0.00     0.180 A 
ATOM      2  C   UNL     1     114.166 -49.883  29.247  1.00  0.00     0.208 A 
ATOM      3  C   UNL     1     115.416 -50.053  28.633  1.00  0.00     0.238 A 
ATOM      4  O   UNL     1     115.534 -50.925  27.732  1.00  0.00    -0.285 OA
ATOM      5  C   UNL     1     116.501 -49.221  29.000  1.00  0.00     0.111 A 
ATOM      6  C   UNL     1     117.822 -49.330  28.471  1.00  0.00     0.134 A 
ATOM      7  C   UNL     1     118.784 -48.370  28.809  1.00  0.00     0.093 A 
ATOM      8  C   UNL     1     118.489 -47.342  29.709  1.00  0.00     0.123 A 
ATOM      9  C   UNL     1     117.220 -47.261  30.276  1.00  0.00     0.094 A 
ATOM     10  C   UNL     1     116.229 -48.184  29.930  1.00  0.00     0.146 A 
ATOM     11  O   UNL     1     115.029 -48.064  30.485  1.00  0.00    -0.452 OA
ENDROOT
BRANCH   1  12
ATOM     12  C   UNL     1     112.731 -48.647  30.920  1.00  0.00     0.025 A 
ATOM     13  C   UNL     1     112.558 -49.163  32.213  1.00  0.00     0.016 A 
ATOM     14  C   UNL     1     111.350 -48.982  32.893  1.00  0.00     0.051 A 
ATOM     15  C   UNL     1     110.295 -48.295  32.286  1.00  0.00     0.157 A 
ATOM     16  C   UNL     1     111.660 -47.974  30.303  1.00  0.00     0.062 A 
ATOM     17  C   UNL     1     110.447 -47.793  30.983  1.00  0.00     0.158 A 
BRANCH  15  18
ATOM     18  O   UNL     1     109.102 -48.128  32.990  1.00  0.00    -0.504 OA
ATOM     19  H   UNL     1     108.213 -48.004  32.520  1.00  0.00     0.293 HD
ENDBRANCH  15  18
BRANCH  17  20
ATOM     20  O   UNL     1     109.392 -47.121  30.366  1.00  0.00    -0.504 OA
ATOM     21  H   UNL     1     108.469 -47.534  30.294  1.00  0.00     0.293 HD
ENDBRANCH  17  20
ENDBRANCH   1  12
BRANCH   2  22
ATOM     22  O   UNL     1     113.076 -50.679  28.883  1.00  0.00    -0.502 OA
ATOM     23  H   UNL     1     113.027 -51.667  29.102  1.00  0.00     0.293 HD
ENDBRANCH   2  22
BRANCH   6  24
ATOM     24  O   UNL     1     118.245 -50.371  27.638  1.00  0.00    -0.507 OA
ATOM     25  H   UNL     1     117.769 -51.253  27.534  1.00  0.00     0.293 HD
ENDBRANCH   6  24
BRANCH   8  26
ATOM     26  O   UNL     1     119.456 -46.400  30.052  1.00  0.00    -0.508 OA
ATOM     27  H   UNL     1     120.252 -46.215  29.453  1.00  0.00     0.293 HD
ENDBRANCH   8  26
TORSDOF 6
ENDMDL
MODEL 2
REMARK VINA RESULT:    -7.505      0.571      1.442
REMARK INTER + INTRA:          -9.323
REMARK INTER:                  -9.006
REMARK INTRA:                  -0.317
REMARK UNBOUND:                -0.283
REMARK SMILES O=c1c(O)c(-c2ccc(O)c(O)c2)oc2cc(O)cc(O)c12
REMARK SMILES IDX 5 1 3 2 2 3 1 4 22 5 20 6 19 7 17 8 16 9 15 10 14 11 6 12
REMARK SMILES IDX 7 13 8 14 9 15 13 16 11 17 10 18 12 20 4 22 21 24 18 26
REMARK H PARENT 10 19 12 21 4 23 21 25 18 27
REMARK Flexibility Score: inf
ROOT
ATOM      1  C   UNL     1     114.027 -48.939  30.157  1.00  0.00     0.180 A 
ATOM      2  C   UNL     1     114.204 -49.954  29.202  1.00  0.00     0.208 A 
ATOM      3  C   UNL     1     115.464 -50.116  28.606  1.00  0.00     0.238 A 
ATOM      4  O   UNL     1     115.603 -50.991  27.711  1.00  0.00    -0.285 OA
ATOM      5  C   UNL     1     116.536 -49.272  28.983  1.00  0.00     0.111 A 
ATOM      6  C   UNL     1     117.865 -49.371  28.473  1.00  0.00     0.134 A 
ATOM      7  C   UNL     1     118.814 -48.400  28.820  1.00  0.00     0.093 A 
ATOM      8  C   UNL     1     118.497 -47.371  29.710  1.00  0.00     0.123 A 
ATOM      9  C   UNL     1     117.219 -47.299  30.259  1.00  0.00     0.094 A 
ATOM     10  C   UNL     1     116.242 -48.232  29.904  1.00  0.00     0.146 A 
ATOM     11  O   UNL     1     115.033 -48.121  30.442  1.00  0.00    -0.452 OA
ENDROOT
BRANCH   1  12
ATOM     12  C   UNL     1     112.734 -48.723  30.848  1.00  0.00     0.025 A 
ATOM     13  C   UNL     1     111.763 -47.901  30.255  1.00  0.00     0.016 A 
ATOM     14  C   UNL     1     110.545 -47.667  30.899  1.00  0.00     0.051 A 
ATOM     15  C   UNL     1     110.285 -48.237  32.148  1.00  0.00     0.157 A 
ATOM     16  C   UNL     1     112.480 -49.278  32.115  1.00  0.00     0.062 A 
ATOM     17  C   UNL     1     111.258 -49.043  32.763  1.00  0.00     0.158 A 
BRANCH  15  18
ATOM     18  O   UNL     1     109.060 -47.987  32.766  1.00  0.00    -0.504 OA
ATOM     19  H   UNL     1     108.832 -48.360  33.680  1.00  0.00     0.293 HD
ENDBRANCH  15  18
BRANCH  17  20
ATOM     20  O   UNL     1     111.011 -49.602  34.016  1.00  0.00    -0.504 OA
ATOM     21  H   UNL     1     111.147 -49.072  34.870  1.00  0.00     0.293 HD
ENDBRANCH  17  20
ENDBRANCH   1  12
BRANCH   2  22
ATOM     22  O   UNL     1     113.126 -50.762  28.827  1.00  0.00    -0.502 OA
ATOM     23  H   UNL     1     112.974 -51.682  29.222  1.00  0.00     0.293 HD
ENDBRANCH   2  22
BRANCH   6  24
ATOM     24  O   UNL     1     118.310 -50.412  27.652  1.00  0.00    -0.507 OA
ATOM     25  H   UNL     1     117.882 -51.323  27.597  1.00  0.00     0.293 HD
ENDBRANCH   6  24
BRANCH   8  26
ATOM     26  O   UNL     1     119.450 -46.418  30.062  1.00  0.00    -0.508 OA
ATOM     27  H   UNL     1     119.770 -45.719  29.402  1.00  0.00     0.293 HD
ENDBRANCH   8  26
TORSDOF 6
ENDMDL
MODEL 3
REMARK VINA RESULT:    -7.394      1.747      7.008
REMARK INTER + INTRA:          -9.190
REMARK INTER:                  -8.906
REMARK INTRA:                  -0.284
REMARK UNBOUND:                -0.283
REMARK SMILES O=c1c(O)c(-c2ccc(O)c(O)c2)oc2cc(O)cc(O)c12
REMARK SMILES IDX 5 1 3 2 2 3 1 4 22 5 20 6 19 7 17 8 16 9 15 10 14 11 6 12
REMARK SMILES IDX 7 13 8 14 9 15 13 16 11 17 10 18 12 20 4 22 21 24 18 26
REMARK H PARENT 10 19 12 21 4 23 21 25 18 27
REMARK Flexibility Score: inf
ROOT
ATOM      1  C   UNL     1     115.535 -48.981  30.416  1.00  0.00     0.180 A 
ATOM      2  C   UNL     1     115.615 -49.699  31.621  1.00  0.00     0.208 A 
ATOM      3  C   UNL     1     114.446 -49.903  32.371  1.00  0.00     0.238 A 
ATOM      4  O   UNL     1     114.533 -50.499  33.477  1.00  0.00    -0.285 OA
ATOM      5  C   UNL     1     113.209 -49.401  31.899  1.00  0.00     0.111 A 
ATOM      6  C   UNL     1     111.956 -49.582  32.557  1.00  0.00     0.134 A 
ATOM      7  C   UNL     1     110.817 -48.930  32.068  1.00  0.00     0.093 A 
ATOM      8  C   UNL     1     110.875 -48.156  30.906  1.00  0.00     0.123 A 
ATOM      9  C   UNL     1     112.081 -48.020  30.224  1.00  0.00     0.094 A 
ATOM     10  C   UNL     1     113.241 -48.630  30.708  1.00  0.00     0.146 A 
ATOM     11  O   UNL     1     114.373 -48.466  30.033  1.00  0.00    -0.452 OA
ENDROOT
BRANCH   1  12
ATOM     12  C   UNL     1     116.719 -48.747  29.558  1.00  0.00     0.025 A 
ATOM     13  C   UNL     1     117.209 -49.790  28.756  1.00  0.00     0.016 A 
ATOM     14  C   UNL     1     118.337 -49.597  27.955  1.00  0.00     0.051 A 
ATOM     15  C   UNL     1     119.001 -48.367  27.954  1.00  0.00     0.157 A 
ATOM     16  C   UNL     1     117.402 -47.516  29.571  1.00  0.00     0.062 A 
ATOM     17  C   UNL     1     118.535 -47.322  28.769  1.00  0.00     0.158 A 
BRANCH  15  18
ATOM     18  O   UNL     1     120.124 -48.204  27.142  1.00  0.00    -0.504 OA
ATOM     19  H   UNL     1     120.363 -47.311  26.727  1.00  0.00     0.293 HD
ENDBRANCH  15  18
BRANCH  17  20
ATOM     20  O   UNL     1     119.203 -46.098  28.784  1.00  0.00    -0.504 OA
ATOM     21  H   UNL     1     119.429 -45.627  29.652  1.00  0.00     0.293 HD
ENDBRANCH  17  20
ENDBRANCH   1  12
BRANCH   2  22
ATOM     22  O   UNL     1     116.850 -50.167  32.081  1.00  0.00    -0.502 OA
ATOM     23  H   UNL     1     117.142 -51.130  31.968  1.00  0.00     0.293 HD
ENDBRANCH   2  22
BRANCH   6  24
ATOM     24  O   UNL     1     111.772 -50.410  33.670  1.00  0.00    -0.507 OA
ATOM     25  H   UNL     1     111.286 -51.293  33.655  1.00  0.00     0.293 HD
ENDBRANCH   6  24
BRANCH   8  26
ATOM     26  O   UNL     1     109.734 -47.523  30.417  1.00  0.00    -0.508 OA
ATOM     27  H   UNL     1     109.728 -47.062  29.516  1.00  0.00     0.293 HD
ENDBRANCH   8  26
TORSDOF 6
ENDMDL
MODEL 4
REMARK VINA RESULT:    -7.385      2.089      6.784
REMARK INTER + INTRA:          -9.178
REMARK INTER:                  -8.844
REMARK INTRA:                  -0.334
REMARK UNBOUND:                -0.283
REMARK SMILES O=c1c(O)c(-c2ccc(O)c(O)c2)oc2cc(O)cc(O)c12
REMARK SMILES IDX 5 1 3 2 2 3 1 4 22 5 20 6 19 7 17 8 16 9 15 10 14 11 6 12
REMARK SMILES IDX 7 13 8 14 9 15 13 16 11 17 10 18 12 20 4 22 21 24 18 26
REMARK H PARENT 10 19 12 21 4 23 21 25 18 27
REMARK Flexibility Score: inf
ROOT
ATOM      1  C   UNL     1     115.273 -49.178  30.403  1.00  0.00     0.180 A 
ATOM      2  C   UNL     1     114.009 -49.105  29.793  1.00  0.00     0.208 A 
ATOM      3  C   UNL     1     112.864 -49.351  30.568  1.00  0.00     0.238 A 
ATOM      4  O   UNL     1     111.738 -49.338  30.005  1.00  0.00    -0.285 OA
ATOM      5  C   UNL     1     112.996 -49.650  31.945  1.00  0.00     0.111 A 
ATOM      6  C   UNL     1     111.903 -49.878  32.834  1.00  0.00     0.134 A 
ATOM      7  C   UNL     1     112.155 -50.295  34.147  1.00  0.00     0.093 A 
ATOM      8  C   UNL     1     113.463 -50.429  34.621  1.00  0.00     0.123 A 
ATOM      9  C   UNL     1     114.536 -50.153  33.779  1.00  0.00     0.094 A 
ATOM     10  C   UNL     1     114.316 -49.769  32.454  1.00  0.00     0.146 A 
ATOM     11  O   UNL     1     115.368 -49.525  31.681  1.00  0.00    -0.452 OA
ENDROOT
BRANCH   1  12
ATOM     12  C   UNL     1     116.524 -48.907  29.658  1.00  0.00     0.025 A 
ATOM     13  C   UNL     1     117.223 -49.973  29.070  1.00  0.00     0.016 A 
ATOM     14  C   UNL     1     118.416 -49.743  28.380  1.00  0.00     0.051 A 
ATOM     15  C   UNL     1     118.936 -48.449  28.280  1.00  0.00     0.157 A 
ATOM     16  C   UNL     1     117.060 -47.609  29.574  1.00  0.00     0.062 A 
ATOM     17  C   UNL     1     118.258 -47.377  28.884  1.00  0.00     0.158 A 
BRANCH  15  18
ATOM     18  O   UNL     1     120.128 -48.249  27.584  1.00  0.00    -0.504 OA
ATOM     19  H   UNL     1     120.595 -47.351  27.562  1.00  0.00     0.293 HD
ENDBRANCH  15  18
BRANCH  17  20
ATOM     20  O   UNL     1     118.780 -46.086  28.801  1.00  0.00    -0.504 OA
ATOM     21  H   UNL     1     118.393 -45.322  29.342  1.00  0.00     0.293 HD
ENDBRANCH  17  20
ENDBRANCH   1  12
BRANCH   2  22
ATOM     22  O   UNL     1     113.902 -48.830  28.427  1.00  0.00    -0.502 OA
ATOM     23  H   UNL     1     113.805 -49.560  27.731  1.00  0.00     0.293 HD
ENDBRANCH   2  22
BRANCH   6  24
ATOM     24  O   UNL     1     110.562 -49.682  32.488  1.00  0.00    -0.507 OA
ATOM     25  H   UNL     1     109.899 -50.422  32.318  1.00  0.00     0.293 HD
ENDBRANCH   6  24
BRANCH   8  26
ATOM     26  O   UNL     1     113.704 -50.830  35.934  1.00  0.00    -0.508 OA
ATOM     27  H   UNL     1     114.384 -50.356  36.516  1.00  0.00     0.293 HD
ENDBRANCH   8  26
TORSDOF 6
ENDMDL
MODEL 5
REMARK VINA RESULT:    -7.079      1.604      7.077
REMARK INTER + INTRA:          -8.810
REMARK INTER:                  -8.490
REMARK INTRA:                  -0.320
REMARK UNBOUND:                -0.283
REMARK SMILES O=c1c(O)c(-c2ccc(O)c(O)c2)oc2cc(O)cc(O)c12
REMARK SMILES IDX 5 1 3 2 2 3 1 4 22 5 20 6 19 7 17 8 16 9 15 10 14 11 6 12
REMARK SMILES IDX 7 13 8 14 9 15 13 16 11 17 10 18 12 20 4 22 21 24 18 26
REMARK H PARENT 10 19 12 21 4 23 21 25 18 27
REMARK Flexibility Score: inf
ROOT
ATOM      1  C   UNL     1     115.168 -49.022  30.814  1.00  0.00     0.180 A 
ATOM      2  C   UNL     1     115.122 -49.645  32.073  1.00  0.00     0.208 A 
ATOM      3  C   UNL     1     113.895 -49.718  32.752  1.00  0.00     0.238 A 
ATOM      4  O   UNL     1     113.871 -50.228  33.903  1.00  0.00    -0.285 OA
ATOM      5  C   UNL     1     112.728 -49.181  32.158  1.00  0.00     0.111 A 
ATOM      6  C   UNL     1     111.425 -49.234  32.738  1.00  0.00     0.134 A 
ATOM      7  C   UNL     1     110.366 -48.556  32.122  1.00  0.00     0.093 A 
ATOM      8  C   UNL     1     110.550 -47.882  30.912  1.00  0.00     0.123 A 
ATOM      9  C   UNL     1     111.804 -47.874  30.308  1.00  0.00     0.094 A 
ATOM     10  C   UNL     1     112.888 -48.511  30.917  1.00  0.00     0.146 A 
ATOM     11  O   UNL     1     114.069 -48.471  30.312  1.00  0.00    -0.452 OA
ENDROOT
BRANCH   1  12
ATOM     12  C   UNL     1     116.418 -48.929  30.026  1.00  0.00     0.025 A 
ATOM     13  C   UNL     1     117.148 -47.730  30.026  1.00  0.00     0.016 A 
ATOM     14  C   UNL     1     118.319 -47.614  29.272  1.00  0.00     0.051 A 
ATOM     15  C   UNL     1     118.771 -48.686  28.499  1.00  0.00     0.157 A 
ATOM     16  C   UNL     1     116.864 -50.001  29.230  1.00  0.00     0.062 A 
ATOM     17  C   UNL     1     118.038 -49.885  28.472  1.00  0.00     0.158 A 
BRANCH  15  18
ATOM     18  O   UNL     1     119.945 -48.542  27.759  1.00  0.00    -0.504 OA
ATOM     19  H   UNL     1     119.938 -48.452  26.750  1.00  0.00     0.293 HD
ENDBRANCH  15  18
BRANCH  17  20
ATOM     20  O   UNL     1     118.475 -50.954  27.690  1.00  0.00    -0.504 OA
ATOM     21  H   UNL     1     118.258 -51.011  26.702  1.00  0.00     0.293 HD
ENDBRANCH  17  20
ENDBRANCH   1  12
BRANCH   2  22
ATOM     22  O   UNL     1     116.291 -50.149  32.651  1.00  0.00    -0.502 OA
ATOM     23  H   UNL     1     116.281 -50.906  33.324  1.00  0.00     0.293 HD
ENDBRANCH   2  22
BRANCH   6  24
ATOM     24  O   UNL     1     111.115 -49.957  33.895  1.00  0.00    -0.507 OA
ATOM     25  H   UNL     1     111.536 -50.836  34.153  1.00  0.00     0.293 HD
ENDBRANCH   6  24
BRANCH   8  26
ATOM     26  O   UNL     1     109.487 -47.222  30.298  1.00  0.00    -0.508 OA
ATOM     27  H   UNL     1     109.164 -46.319  30.624  1.00  0.00     0.293 HD
ENDBRANCH   8  26
TORSDOF 6
ENDMDL
MODEL 6
REMARK VINA RESULT:    -6.965      1.822      1.882
REMARK INTER + INTRA:          -8.673
REMARK INTER:                  -8.351
REMARK INTRA:                  -0.322
REMARK UNBOUND:                -0.283
REMARK SMILES O=c1c(O)c(-c2ccc(O)c(O)c2)oc2cc(O)cc(O)c12
REMARK SMILES IDX 5 1 3 2 2 3 1 4 22 5 20 6 19 7 17 8 16 9 15 10 14 11 6 12
REMARK SMILES IDX 7 13 8 14 9 15 13 16 11 17 10 18 12 20 4 22 21 24 18 26
REMARK H PARENT 10 19 12 21 4 23 21 25 18 27
REMARK Flexibility Score: inf
ROOT
ATOM      1  C   UNL     1     115.165 -47.921  30.718  1.00  0.00     0.180 A 
ATOM      2  C   UNL     1     114.966 -49.104  29.987  1.00  0.00     0.208 A 
ATOM      3  C   UNL     1     115.979 -49.550  29.123  1.00  0.00     0.238 A 
ATOM      4  O   UNL     1     115.772 -50.580  28.430  1.00  0.00    -0.285 OA
ATOM      5  C   UNL     1     117.184 -48.816  29.013  1.00  0.00     0.111 A 
ATOM      6  C   UNL     1     118.293 -49.196  28.199  1.00  0.00     0.134 A 
ATOM      7  C   UNL     1     119.383 -48.327  28.066  1.00  0.00     0.093 A 
ATOM      8  C   UNL     1     119.432 -47.121  28.771  1.00  0.00     0.123 A 
ATOM      9  C   UNL     1     118.381 -46.768  29.614  1.00  0.00     0.094 A 
ATOM     10  C   UNL     1     117.264 -47.598  29.739  1.00  0.00     0.146 A 
ATOM     11  O   UNL     1     116.279 -47.220  30.544  1.00  0.00    -0.452 OA
ENDROOT
BRANCH   1  12
ATOM     12  C   UNL     1     114.154 -47.401  31.667  1.00  0.00     0.025 A 
ATOM     13  C   UNL     1     114.193 -47.809  33.010  1.00  0.00     0.016 A 
ATOM     14  C   UNL     1     113.236 -47.348  33.918  1.00  0.00     0.051 A 
ATOM     15  C   UNL     1     112.220 -46.485  33.497  1.00  0.00     0.157 A 
ATOM     16  C   UNL     1     113.119 -46.549  31.241  1.00  0.00     0.062 A 
ATOM     17  C   UNL     1     112.157 -46.087  32.151  1.00  0.00     0.158 A 
BRANCH  15  18
ATOM     18  O   UNL     1     111.280 -46.039  34.426  1.00  0.00    -0.504 OA
ATOM     19  H   UNL     1     110.899 -46.648  35.140  1.00  0.00     0.293 HD
ENDBRANCH  15  18
BRANCH  17  20
ATOM     20  O   UNL     1     111.137 -45.239  31.721  1.00  0.00    -0.504 OA
ATOM     21  H   UNL     1     110.604 -44.676  32.374  1.00  0.00     0.293 HD
ENDBRANCH  17  20
ENDBRANCH   1  12
BRANCH   2  22
ATOM     22  O   UNL     1     113.759 -49.802  30.093  1.00  0.00    -0.502 OA
ATOM     23  H   UNL     1     112.874 -49.336  30.257  1.00  0.00     0.293 HD
ENDBRANCH   2  22
BRANCH   6  24
ATOM     24  O   UNL     1     118.385 -50.419  27.528  1.00  0.00    -0.507 OA
ATOM     25  H   UNL     1     118.496 -51.315  27.978  1.00  0.00     0.293 HD
ENDBRANCH   6  24
BRANCH   8  26
ATOM     26  O   UNL     1     120.527 -46.269  28.645  1.00  0.00    -0.508 OA
ATOM     27  H   UNL     1     121.433 -46.509  29.029  1.00  0.00     0.293 HD
ENDBRANCH   8  26
TORSDOF 6
ENDMDL
MODEL 7
REMARK VINA RESULT:    -6.825      1.372      3.206
REMARK INTER + INTRA:          -8.504
REMARK INTER:                  -8.544
REMARK INTRA:                   0.040
REMARK UNBOUND:                -0.283
REMARK SMILES O=c1c(O)c(-c2ccc(O)c(O)c2)oc2cc(O)cc(O)c12
REMARK SMILES IDX 5 1 3 2 2 3 1 4 22 5 20 6 19 7 17 8 16 9 15 10 14 11 6 12
REMARK SMILES IDX 7 13 8 14 9 15 13 16 11 17 10 18 12 20 4 22 21 24 18 26
REMARK H PARENT 10 19 12 21 4 23 21 25 18 27
REMARK Flexibility Score: inf
ROOT
ATOM      1  C   UNL     1     114.086 -48.136  30.613  1.00  0.00     0.180 A 
ATOM      2  C   UNL     1     115.143 -47.306  31.023  1.00  0.00     0.208 A 
ATOM      3  C   UNL     1     116.418 -47.501  30.467  1.00  0.00     0.238 A 
ATOM      4  O   UNL     1     117.372 -46.791  30.878  1.00  0.00    -0.285 OA
ATOM      5  C   UNL     1     116.616 -48.512  29.497  1.00  0.00     0.111 A 
ATOM      6  C   UNL     1     117.854 -48.773  28.839  1.00  0.00     0.134 A 
ATOM      7  C   UNL     1     117.968 -49.883  27.992  1.00  0.00     0.093 A 
ATOM      8  C   UNL     1     116.867 -50.703  27.731  1.00  0.00     0.123 A 
ATOM      9  C   UNL     1     115.638 -50.424  28.322  1.00  0.00     0.094 A 
ATOM     10  C   UNL     1     115.504 -49.344  29.199  1.00  0.00     0.146 A 
ATOM     11  O   UNL     1     114.318 -49.118  29.751  1.00  0.00    -0.452 OA
ENDROOT
BRANCH   1  12
ATOM     12  C   UNL     1     112.710 -47.975  31.135  1.00  0.00     0.025 A 
ATOM     13  C   UNL     1     111.637 -47.873  30.236  1.00  0.00     0.016 A 
ATOM     14  C   UNL     1     110.333 -47.699  30.706  1.00  0.00     0.051 A 
ATOM     15  C   UNL     1     110.082 -47.611  32.078  1.00  0.00     0.157 A 
ATOM     16  C   UNL     1     112.458 -47.865  32.515  1.00  0.00     0.062 A 
ATOM     17  C   UNL     1     111.149 -47.689  32.988  1.00  0.00     0.158 A 
BRANCH  15  18
ATOM     18  O   UNL     1     108.769 -47.440  32.518  1.00  0.00    -0.504 OA
ATOM     19  H   UNL     1     108.493 -47.627  33.475  1.00  0.00     0.293 HD
ENDBRANCH  15  18
BRANCH  17  20
ATOM     20  O   UNL     1     110.908 -47.586  34.358  1.00  0.00    -0.504 OA
ATOM     21  H   UNL     1     110.182 -46.982  34.725  1.00  0.00     0.293 HD
ENDBRANCH  17  20
ENDBRANCH   1  12
BRANCH   2  22
ATOM     22  O   UNL     1     114.931 -46.327  31.999  1.00  0.00    -0.502 OA
ATOM     23  H   UNL     1     115.496 -46.264  32.837  1.00  0.00     0.293 HD
ENDBRANCH   2  22
BRANCH   6  24
ATOM     24  O   UNL     1     118.987 -47.962  28.958  1.00  0.00    -0.507 OA
ATOM     25  H   UNL     1     119.571 -47.908  29.778  1.00  0.00     0.293 HD
ENDBRANCH   6  24
BRANCH   8  26
ATOM     26  O   UNL     1     116.984 -51.797  26.875  1.00  0.00    -0.508 OA
ATOM     27  H   UNL     1     116.560 -51.799  25.955  1.00  0.00     0.293 HD
ENDBRANCH   8  26
TORSDOF 6
ENDMDL
MODEL 8
REMARK VINA RESULT:    -6.812      2.927      4.616
REMARK INTER + INTRA:          -8.488
REMARK INTER:                  -8.251
REMARK INTRA:                  -0.237
REMARK UNBOUND:                -0.283
REMARK SMILES O=c1c(O)c(-c2ccc(O)c(O)c2)oc2cc(O)cc(O)c12
REMARK SMILES IDX 5 1 3 2 2 3 1 4 22 5 20 6 19 7 17 8 16 9 15 10 14 11 6 12
REMARK SMILES IDX 7 13 8 14 9 15 13 16 11 17 10 18 12 20 4 22 21 24 18 26
REMARK H PARENT 10 19 12 21 4 23 21 25 18 27
REMARK Flexibility Score: inf
ROOT
ATOM      1  C   UNL     1     115.233 -47.446  30.886  1.00  0.00     0.180 A 
ATOM      2  C   UNL     1     114.021 -47.454  30.176  1.00  0.00     0.208 A 
ATOM      3  C   UNL     1     113.885 -48.310  29.072  1.00  0.00     0.238 A 
ATOM      4  O   UNL     1     112.817 -48.273  28.406  1.00  0.00    -0.285 OA
ATOM      5  C   UNL     1     114.955 -49.158  28.701  1.00  0.00     0.111 A 
ATOM      6  C   UNL     1     114.914 -50.094  27.625  1.00  0.00     0.134 A 
ATOM      7  C   UNL     1     116.076 -50.788  27.266  1.00  0.00     0.093 A 
ATOM      8  C   UNL     1     117.261 -50.629  27.989  1.00  0.00     0.123 A 
ATOM      9  C   UNL     1     117.296 -49.762  29.078  1.00  0.00     0.094 A 
ATOM     10  C   UNL     1     116.162 -49.029  29.437  1.00  0.00     0.146 A 
ATOM     11  O   UNL     1     116.242 -48.205  30.476  1.00  0.00    -0.452 OA
ENDROOT
BRANCH   1  12
ATOM     12  C   UNL     1     115.443 -46.590  32.077  1.00  0.00     0.025 A 
ATOM     13  C   UNL     1     116.375 -45.541  32.018  1.00  0.00     0.016 A 
ATOM     14  C   UNL     1     116.604 -44.734  33.136  1.00  0.00     0.051 A 
ATOM     15  C   UNL     1     115.919 -44.971  34.330  1.00  0.00     0.157 A 
ATOM     16  C   UNL     1     114.770 -46.839  33.287  1.00  0.00     0.062 A 
ATOM     17  C   UNL     1     115.001 -46.031  34.409  1.00  0.00     0.158 A 
BRANCH  15  18
ATOM     18  O   UNL     1     116.167 -44.148  35.429  1.00  0.00    -0.504 OA
ATOM     19  H   UNL     1     116.482 -43.191  35.325  1.00  0.00     0.293 HD
ENDBRANCH  15  18
BRANCH  17  20
ATOM     20  O   UNL     1     114.325 -46.282  35.603  1.00  0.00    -0.504 OA
ATOM     21  H   UNL     1     113.537 -46.918  35.644  1.00  0.00     0.293 HD
ENDBRANCH  17  20
ENDBRANCH   1  12
BRANCH   2  22
ATOM     22  O   UNL     1     112.984 -46.592  30.545  1.00  0.00    -0.502 OA
ATOM     23  H   UNL     1     112.617 -46.555  31.488  1.00  0.00     0.293 HD
ENDBRANCH   2  22
BRANCH   6  24
ATOM     24  O   UNL     1     113.757 -50.397  26.898  1.00  0.00    -0.507 OA
ATOM     25  H   UNL     1     112.833 -50.473  27.295  1.00  0.00     0.293 HD
ENDBRANCH   6  24
BRANCH   8  26
ATOM     26  O   UNL     1     118.409 -51.335  27.636  1.00  0.00    -0.508 OA
ATOM     27  H   UNL     1     118.465 -51.856  26.769  1.00  0.00     0.293 HD
ENDBRANCH   8  26
TORSDOF 6
ENDMDL
MODEL 9
REMARK VINA RESULT:    -6.699      2.787      4.915
REMARK INTER + INTRA:          -8.352
REMARK INTER:                  -8.076
REMARK INTRA:                  -0.276
REMARK UNBOUND:                -0.283
REMARK SMILES O=c1c(O)c(-c2ccc(O)c(O)c2)oc2cc(O)cc(O)c12
REMARK SMILES IDX 5 1 3 2 2 3 1 4 22 5 20 6 19 7 17 8 16 9 15 10 14 11 6 12
REMARK SMILES IDX 7 13 8 14 9 15 13 16 11 17 10 18 12 20 4 22 21 24 18 26
REMARK H PARENT 10 19 12 21 4 23 21 25 18 27
REMARK Flexibility Score: inf
ROOT
ATOM      1  C   UNL     1     111.055 -46.966  31.642  1.00  0.00     0.180 A 
ATOM      2  C   UNL     1     111.513 -47.546  32.837  1.00  0.00     0.208 A 
ATOM      3  C   UNL     1     112.575 -48.463  32.785  1.00  0.00     0.238 A 
ATOM      4  O   UNL     1     112.945 -49.021  33.851  1.00  0.00    -0.285 OA
ATOM      5  C   UNL     1     113.176 -48.777  31.542  1.00  0.00     0.111 A 
ATOM      6  C   UNL     1     114.283 -49.661  31.377  1.00  0.00     0.134 A 
ATOM      7  C   UNL     1     114.712 -49.999  30.087  1.00  0.00     0.093 A 
ATOM      8  C   UNL     1     114.114 -49.431  28.958  1.00  0.00     0.123 A 
ATOM      9  C   UNL     1     113.071 -48.521  29.111  1.00  0.00     0.094 A 
ATOM     10  C   UNL     1     112.598 -48.193  30.384  1.00  0.00     0.146 A 
ATOM     11  O   UNL     1     111.595 -47.329  30.485  1.00  0.00    -0.452 OA
ENDROOT
BRANCH   1  12
ATOM     12  C   UNL     1     109.957 -45.972  31.619  1.00  0.00     0.025 A 
ATOM     13  C   UNL     1     110.208 -44.656  32.036  1.00  0.00     0.016 A 
ATOM     14  C   UNL     1     109.182 -43.707  32.042  1.00  0.00     0.051 A 
ATOM     15  C   UNL     1     107.889 -44.062  31.647  1.00  0.00     0.157 A 
ATOM     16  C   UNL     1     108.650 -46.333  31.242  1.00  0.00     0.062 A 
ATOM     17  C   UNL     1     107.619 -45.382  31.249  1.00  0.00     0.158 A 
BRANCH  15  18
ATOM     18  O   UNL     1     106.885 -43.094  31.661  1.00  0.00    -0.504 OA
ATOM     19  H   UNL     1     107.010 -42.195  32.112  1.00  0.00     0.293 HD
ENDBRANCH  15  18
BRANCH  17  20
ATOM     20  O   UNL     1     106.328 -45.747  30.868  1.00  0.00    -0.504 OA
ATOM     21  H   UNL     1     105.929 -46.640  31.133  1.00  0.00     0.293 HD
ENDBRANCH  17  20
ENDBRANCH   1  12
BRANCH   2  22
ATOM     22  O   UNL     1     110.892 -47.240  34.051  1.00  0.00    -0.502 OA
ATOM     23  H   UNL     1     110.883 -46.304  34.436  1.00  0.00     0.293 HD
ENDBRANCH   2  22
BRANCH   6  24
ATOM     24  O   UNL     1     115.009 -50.210  32.439  1.00  0.00    -0.507 OA
ATOM     25  H   UNL     1     114.909 -49.937  33.404  1.00  0.00     0.293 HD
ENDBRANCH   6  24
BRANCH   8  26
ATOM     26  O   UNL     1     114.557 -49.760  27.679  1.00  0.00    -0.508 OA
ATOM     27  H   UNL     1     114.370 -49.163  26.883  1.00  0.00     0.293 HD
ENDBRANCH   8  26
TORSDOF 6
ENDMDL
