MODEL 1
REMARK VINA RESULT:    -7.193      0.000      0.000
REMARK INTER + INTRA:          -9.715
REMARK INTER:                  -9.085
REMARK INTRA:                  -0.630
REMARK UNBOUND:                -0.630
REMARK SMILES O=C(C=Cc1ccc(O)cc1)c1ccc(O)cc1O
REMARK SMILES IDX 4 1 3 2 5 3 6 4 7 5 8 6 11 7 10 8 9 9 2 11 1 12 12 13 18 14
REMARK SMILES IDX 13 15 17 16 14 17 15 18 19 19 16 21
REMARK H PARENT 9 10 19 20 16 22
REMARK Flexibility Score: inf
ROOT
ATOM      1  C   UNL     1      12.218  45.504   6.093  1.00  0.00     0.012 C 
ATOM      2  C   UNL     1      13.458  46.005   6.001  1.00  0.00     0.053 C 
ENDROOT
BRANCH   1   3
ATOM      3  C   UNL     1      11.043  46.293   6.537  1.00  0.00    -0.025 A 
ATOM      4  C   UNL     1      10.231  45.901   7.622  1.00  0.00     0.012 A 
ATOM      5  C   UNL     1       9.127  46.674   7.995  1.00  0.00     0.047 A 
ATOM      6  C   UNL     1       8.809  47.839   7.287  1.00  0.00     0.115 A 
ATOM      7  C   UNL     1      10.705  47.456   5.825  1.00  0.00     0.012 A 
ATOM      8  C   UNL     1       9.599  48.226   6.201  1.00  0.00     0.047 A 
BRANCH   6   9
ATOM      9  O   UNL     1       7.712  48.616   7.651  1.00  0.00    -0.508 OA
ATOM     10  H   UNL     1       7.369  48.633   8.605  1.00  0.00     0.293 HD
ENDBRANCH   6   9
ENDBRANCH   1   3
BRANCH   2  11
ATOM     11  C   UNL     1      14.603  45.191   5.541  1.00  0.00     0.189 C 
ATOM     12  O   UNL     1      14.824  45.045   4.307  1.00  0.00    -0.289 OA
BRANCH  11  13
ATOM     13  C   UNL     1      15.483  44.516   6.521  1.00  0.00     0.064 A 
ATOM     14  C   UNL     1      15.457  43.112   6.709  1.00  0.00     0.130 A 
ATOM     15  C   UNL     1      16.343  45.295   7.317  1.00  0.00     0.020 A 
ATOM     16  C   UNL     1      16.256  42.529   7.700  1.00  0.00     0.093 A 
ATOM     17  C   UNL     1      17.146  44.699   8.292  1.00  0.00     0.047 A 
ATOM     18  C   UNL     1      17.101  43.317   8.490  1.00  0.00     0.119 A 
BRANCH  14  19
ATOM     19  O   UNL     1      14.677  42.268   5.917  1.00  0.00    -0.507 OA
ATOM     20  H   UNL     1      13.676  42.173   6.026  1.00  0.00     0.293 HD
ENDBRANCH  14  19
BRANCH  18  21
ATOM     21  O   UNL     1      17.901  42.738   9.473  1.00  0.00    -0.508 OA
ATOM     22  H   UNL     1      17.944  43.117  10.412  1.00  0.00     0.293 HD
ENDBRANCH  18  21
ENDBRANCH  11  13
ENDBRANCH   2  11
TORSDOF 6
ENDMDL
MODEL 2
REMARK VINA RESULT:    -7.179      0.103      1.114
REMARK INTER + INTRA:          -9.699
REMARK INTER:                  -9.079
REMARK INTRA:                  -0.620
REMARK UNBOUND:                -0.630
REMARK SMILES O=C(C=Cc1ccc(O)cc1)c1ccc(O)cc1O
REMARK SMILES IDX 4 1 3 2 5 3 6 4 7 5 8 6 11 7 10 8 9 9 2 11 1 12 12 13 18 14
REMARK SMILES IDX 13 15 17 16 14 17 15 18 19 19 16 21
REMARK H PARENT 9 10 19 20 16 22
REMARK Flexibility Score: inf
ROOT
ATOM      1  C   UNL     1      12.269  45.518   6.012  1.00  0.00     0.012 C 
ATOM      2  C   UNL     1      13.509  46.022   5.952  1.00  0.00     0.053 C 
ENDROOT
BRANCH   1   3
ATOM      3  C   UNL     1      11.083  46.300   6.441  1.00  0.00    -0.025 A 
ATOM      4  C   UNL     1      10.671  47.477   5.783  1.00  0.00     0.012 A 
ATOM      5  C   UNL     1       9.553  48.186   6.233  1.00  0.00     0.047 A 
ATOM      6  C   UNL     1       8.838  47.739   7.352  1.00  0.00     0.115 A 
ATOM      7  C   UNL     1      10.367  45.870   7.571  1.00  0.00     0.012 A 
ATOM      8  C   UNL     1       9.249  46.582   8.019  1.00  0.00     0.047 A 
BRANCH   6   9
ATOM      9  O   UNL     1       7.723  48.437   7.807  1.00  0.00    -0.508 OA
ATOM     10  H   UNL     1       6.811  48.312   7.384  1.00  0.00     0.293 HD
ENDBRANCH   6   9
ENDBRANCH   1   3
BRANCH   2  11
ATOM     11  C   UNL     1      14.666  45.216   5.505  1.00  0.00     0.189 C 
ATOM     12  O   UNL     1      14.902  45.070   4.274  1.00  0.00    -0.289 OA
BRANCH  11  13
ATOM     13  C   UNL     1      15.539  44.548   6.496  1.00  0.00     0.064 A 
ATOM     14  C   UNL     1      15.504  43.147   6.701  1.00  0.00     0.130 A 
ATOM     15  C   UNL     1      16.402  45.332   7.284  1.00  0.00     0.020 A 
ATOM     16  C   UNL     1      16.298  42.572   7.702  1.00  0.00     0.093 A 
ATOM     17  C   UNL     1      17.199  44.744   8.269  1.00  0.00     0.047 A 
ATOM     18  C   UNL     1      17.145  43.365   8.484  1.00  0.00     0.119 A 
BRANCH  14  19
ATOM     19  O   UNL     1      14.721  42.297   5.918  1.00  0.00    -0.507 OA
ATOM     20  H   UNL     1      15.025  41.379   5.621  1.00  0.00     0.293 HD
ENDBRANCH  14  19
BRANCH  18  21
ATOM     21  O   UNL     1      17.940  42.794   9.476  1.00  0.00    -0.508 OA
ATOM     22  H   UNL     1      17.856  41.815   9.723  1.00  0.00     0.293 HD
ENDBRANCH  18  21
ENDBRANCH  11  13
ENDBRANCH   2  11
TORSDOF 6
ENDMDL
MODEL 3
REMARK VINA RESULT:    -6.880      1.692      2.698
REMARK INTER + INTRA:          -9.320
REMARK INTER:                  -8.638
REMARK INTRA:                  -0.682
REMARK UNBOUND:                -0.630
REMARK SMILES O=C(C=Cc1ccc(O)cc1)c1ccc(O)cc1O
REMARK SMILES IDX 4 1 3 2 5 3 6 4 7 5 8 6 11 7 10 8 9 9 2 11 1 12 12 13 18 14
REMARK SMILES IDX 13 15 17 16 14 17 15 18 19 19 16 21
REMARK H PARENT 9 10 19 20 16 22
REMARK Flexibility Score: inf
ROOT
ATOM      1  C   UNL     1      11.493  45.225   7.472  1.00  0.00     0.012 C 
ATOM      2  C   UNL     1      12.806  45.428   7.648  1.00  0.00     0.053 C 
ENDROOT
BRANCH   1   3
ATOM      3  C   UNL     1      10.509  46.320   7.282  1.00  0.00    -0.025 A 
ATOM      4  C   UNL     1       9.351  46.445   8.077  1.00  0.00     0.012 A 
ATOM      5  C   UNL     1       8.448  47.489   7.851  1.00  0.00     0.047 A 
ATOM      6  C   UNL     1       8.679  48.413   6.824  1.00  0.00     0.115 A 
ATOM      7  C   UNL     1      10.723  47.244   6.246  1.00  0.00     0.012 A 
ATOM      8  C   UNL     1       9.817  48.286   6.023  1.00  0.00     0.047 A 
BRANCH   6   9
ATOM      9  O   UNL     1       7.786  49.455   6.592  1.00  0.00    -0.508 OA
ATOM     10  H   UNL     1       8.109  50.391   6.374  1.00  0.00     0.293 HD
ENDBRANCH   6   9
ENDBRANCH   1   3
BRANCH   2  11
ATOM     11  C   UNL     1      13.760  44.311   7.821  1.00  0.00     0.189 C 
ATOM     12  O   UNL     1      13.762  43.637   8.887  1.00  0.00    -0.289 OA
BRANCH  11  13
ATOM     13  C   UNL     1      14.739  43.992   6.758  1.00  0.00     0.064 A 
ATOM     14  C   UNL     1      16.088  43.676   7.053  1.00  0.00     0.130 A 
ATOM     15  C   UNL     1      14.329  44.044   5.413  1.00  0.00     0.020 A 
ATOM     16  C   UNL     1      16.994  43.454   6.008  1.00  0.00     0.093 A 
ATOM     17  C   UNL     1      15.239  43.806   4.381  1.00  0.00     0.047 A 
ATOM     18  C   UNL     1      16.573  43.517   4.674  1.00  0.00     0.119 A 
BRANCH  14  19
ATOM     19  O   UNL     1      16.555  43.545   8.362  1.00  0.00    -0.507 OA
ATOM     20  H   UNL     1      16.586  42.662   8.855  1.00  0.00     0.293 HD
ENDBRANCH  14  19
BRANCH  18  21
ATOM     21  O   UNL     1      17.471  43.290   3.633  1.00  0.00    -0.508 OA
ATOM     22  H   UNL     1      17.777  44.041   3.025  1.00  0.00     0.293 HD
ENDBRANCH  18  21
ENDBRANCH  11  13
ENDBRANCH   2  11
TORSDOF 6
ENDMDL
MODEL 4
REMARK VINA RESULT:    -6.855      1.012      1.662
REMARK INTER + INTRA:          -9.289
REMARK INTER:                  -8.781
REMARK INTRA:                  -0.508
REMARK UNBOUND:                -0.630
REMARK SMILES O=C(C=Cc1ccc(O)cc1)c1ccc(O)cc1O
REMARK SMILES IDX 4 1 3 2 5 3 6 4 7 5 8 6 11 7 10 8 9 9 2 11 1 12 12 13 18 14
REMARK SMILES IDX 13 15 17 16 14 17 15 18 19 19 16 21
REMARK H PARENT 9 10 19 20 16 22
REMARK Flexibility Score: inf
ROOT
ATOM      1  C   UNL     1      12.213  45.741   6.339  1.00  0.00     0.012 C 
ATOM      2  C   UNL     1      12.498  44.433   6.418  1.00  0.00     0.053 C 
ENDROOT
BRANCH   1   3
ATOM      3  C   UNL     1      10.947  46.338   6.833  1.00  0.00    -0.025 A 
ATOM      4  C   UNL     1      10.239  45.813   7.934  1.00  0.00     0.012 A 
ATOM      5  C   UNL     1       9.044  46.405   8.354  1.00  0.00     0.047 A 
ATOM      6  C   UNL     1       8.533  47.519   7.677  1.00  0.00     0.115 A 
ATOM      7  C   UNL     1      10.416  47.446   6.152  1.00  0.00     0.012 A 
ATOM      8  C   UNL     1       9.220  48.035   6.576  1.00  0.00     0.047 A 
BRANCH   6   9
ATOM      9  O   UNL     1       7.343  48.116   8.088  1.00  0.00    -0.508 OA
ATOM     10  H   UNL     1       7.311  49.087   8.376  1.00  0.00     0.293 HD
ENDBRANCH   6   9
ENDBRANCH   1   3
BRANCH   2  11
ATOM     11  C   UNL     1      13.777  43.875   5.927  1.00  0.00     0.189 C 
ATOM     12  O   UNL     1      13.901  43.542   4.717  1.00  0.00    -0.289 OA
BRANCH  11  13
ATOM     13  C   UNL     1      14.911  43.675   6.856  1.00  0.00     0.064 A 
ATOM     14  C   UNL     1      15.837  44.707   7.142  1.00  0.00     0.130 A 
ATOM     15  C   UNL     1      15.098  42.409   7.443  1.00  0.00     0.020 A 
ATOM     16  C   UNL     1      16.936  44.445   7.970  1.00  0.00     0.093 A 
ATOM     17  C   UNL     1      16.189  42.165   8.280  1.00  0.00     0.047 A 
ATOM     18  C   UNL     1      17.113  43.179   8.541  1.00  0.00     0.119 A 
BRANCH  14  19
ATOM     19  O   UNL     1      15.685  46.004   6.648  1.00  0.00    -0.507 OA
ATOM     20  H   UNL     1      14.929  46.617   6.923  1.00  0.00     0.293 HD
ENDBRANCH  14  19
BRANCH  18  21
ATOM     21  O   UNL     1      18.201  42.919   9.371  1.00  0.00    -0.508 OA
ATOM     22  H   UNL     1      18.633  43.651   9.923  1.00  0.00     0.293 HD
ENDBRANCH  18  21
ENDBRANCH  11  13
ENDBRANCH   2  11
TORSDOF 6
ENDMDL
MODEL 5
REMARK VINA RESULT:    -6.833      2.297      3.338
REMARK INTER + INTRA:          -9.261
REMARK INTER:                  -8.748
REMARK INTRA:                  -0.513
REMARK UNBOUND:                -0.630
REMARK SMILES O=C(C=Cc1ccc(O)cc1)c1ccc(O)cc1O
REMARK SMILES IDX 4 1 3 2 5 3 6 4 7 5 8 6 11 7 10 8 9 9 2 11 1 12 12 13 18 14
REMARK SMILES IDX 13 15 17 16 14 17 15 18 19 19 16 21
REMARK H PARENT 9 10 19 20 16 22
REMARK Flexibility Score: inf
ROOT
ATOM      1  C   UNL     1      14.411  45.911   6.219  1.00  0.00     0.012 C 
ATOM      2  C   UNL     1      14.400  45.038   7.235  1.00  0.00     0.053 C 
ENDROOT
BRANCH   1   3
ATOM      3  C   UNL     1      13.185  46.410   5.550  1.00  0.00    -0.025 A 
ATOM      4  C   UNL     1      12.103  46.965   6.264  1.00  0.00     0.012 A 
ATOM      5  C   UNL     1      10.962  47.411   5.588  1.00  0.00     0.047 A 
ATOM      6  C   UNL     1      10.880  47.300   4.195  1.00  0.00     0.115 A 
ATOM      7  C   UNL     1      13.083  46.290   4.153  1.00  0.00     0.012 A 
ATOM      8  C   UNL     1      11.941  46.738   3.481  1.00  0.00     0.047 A 
BRANCH   6   9
ATOM      9  O   UNL     1       9.749  47.742   3.513  1.00  0.00    -0.508 OA
ATOM     10  H   UNL     1       8.828  47.373   3.720  1.00  0.00     0.293 HD
ENDBRANCH   6   9
ENDBRANCH   1   3
BRANCH   2  11
ATOM     11  C   UNL     1      15.644  44.573   7.887  1.00  0.00     0.189 C 
ATOM     12  O   UNL     1      16.617  45.362   8.035  1.00  0.00    -0.289 OA
BRANCH  11  13
ATOM     13  C   UNL     1      15.769  43.171   8.346  1.00  0.00     0.064 A 
ATOM     14  C   UNL     1      17.022  42.602   8.683  1.00  0.00     0.130 A 
ATOM     15  C   UNL     1      14.615  42.368   8.410  1.00  0.00     0.020 A 
ATOM     16  C   UNL     1      17.096  41.250   9.040  1.00  0.00     0.093 A 
ATOM     17  C   UNL     1      14.702  41.024   8.782  1.00  0.00     0.047 A 
ATOM     18  C   UNL     1      15.941  40.461   9.093  1.00  0.00     0.119 A 
BRANCH  14  19
ATOM     19  O   UNL     1      18.200  43.351   8.703  1.00  0.00    -0.507 OA
ATOM     20  H   UNL     1      18.893  43.276   9.436  1.00  0.00     0.293 HD
ENDBRANCH  14  19
BRANCH  18  21
ATOM     21  O   UNL     1      16.013  39.118   9.454  1.00  0.00    -0.508 OA
ATOM     22  H   UNL     1      15.421  38.420   9.018  1.00  0.00     0.293 HD
ENDBRANCH  18  21
ENDBRANCH  11  13
ENDBRANCH   2  11
TORSDOF 6
ENDMDL
MODEL 6
REMARK VINA RESULT:    -6.768      1.757      7.506
REMARK INTER + INTRA:          -9.179
REMARK INTER:                  -8.532
REMARK INTRA:                  -0.648
REMARK UNBOUND:                -0.630
REMARK SMILES O=C(C=Cc1ccc(O)cc1)c1ccc(O)cc1O
REMARK SMILES IDX 4 1 3 2 5 3 6 4 7 5 8 6 11 7 10 8 9 9 2 11 1 12 12 13 18 14
REMARK SMILES IDX 13 15 17 16 14 17 15 18 19 19 16 21
REMARK H PARENT 9 10 19 20 16 22
REMARK Flexibility Score: inf
ROOT
ATOM      1  C   UNL     1      13.479  45.114   6.583  1.00  0.00     0.012 C 
ATOM      2  C   UNL     1      12.939  46.339   6.657  1.00  0.00     0.053 C 
ENDROOT
BRANCH   1   3
ATOM      3  C   UNL     1      14.736  44.726   7.270  1.00  0.00    -0.025 A 
ATOM      4  C   UNL     1      15.970  45.357   7.008  1.00  0.00     0.012 A 
ATOM      5  C   UNL     1      17.129  44.947   7.673  1.00  0.00     0.047 A 
ATOM      6  C   UNL     1      17.078  43.898   8.600  1.00  0.00     0.115 A 
ATOM      7  C   UNL     1      14.699  43.665   8.190  1.00  0.00     0.012 A 
ATOM      8  C   UNL     1      15.861  43.258   8.854  1.00  0.00     0.047 A 
BRANCH   6   9
ATOM      9  O   UNL     1      18.227  43.483   9.268  1.00  0.00    -0.508 OA
ATOM     10  H   UNL     1      18.999  43.050   8.775  1.00  0.00     0.293 HD
ENDBRANCH   6   9
ENDBRANCH   1   3
BRANCH   2  11
ATOM     11  C   UNL     1      11.676  46.685   5.969  1.00  0.00     0.189 C 
ATOM     12  O   UNL     1      11.658  46.844   4.717  1.00  0.00    -0.289 OA
BRANCH  11  13
ATOM     13  C   UNL     1      10.431  46.879   6.744  1.00  0.00     0.064 A 
ATOM     14  C   UNL     1       9.508  47.908   6.434  1.00  0.00     0.130 A 
ATOM     15  C   UNL     1      10.174  46.041   7.845  1.00  0.00     0.020 A 
ATOM     16  C   UNL     1       8.380  48.095   7.244  1.00  0.00     0.093 A 
ATOM     17  C   UNL     1       9.038  46.230   8.635  1.00  0.00     0.047 A 
ATOM     18  C   UNL     1       8.142  47.259   8.341  1.00  0.00     0.119 A 
BRANCH  14  19
ATOM     19  O   UNL     1       9.661  48.738   5.323  1.00  0.00    -0.507 OA
ATOM     20  H   UNL     1      10.535  48.842   4.825  1.00  0.00     0.293 HD
ENDBRANCH  14  19
BRANCH  18  21
ATOM     21  O   UNL     1       7.017  47.440   9.143  1.00  0.00    -0.508 OA
ATOM     22  H   UNL     1       6.081  47.390   8.760  1.00  0.00     0.293 HD
ENDBRANCH  18  21
ENDBRANCH  11  13
ENDBRANCH   2  11
TORSDOF 6
ENDMDL
MODEL 7
REMARK VINA RESULT:    -6.717      2.845      4.092
REMARK INTER + INTRA:          -9.115
REMARK INTER:                  -8.522
REMARK INTRA:                  -0.592
REMARK UNBOUND:                -0.630
REMARK SMILES O=C(C=Cc1ccc(O)cc1)c1ccc(O)cc1O
REMARK SMILES IDX 4 1 3 2 5 3 6 4 7 5 8 6 11 7 10 8 9 9 2 11 1 12 12 13 18 14
REMARK SMILES IDX 13 15 17 16 14 17 15 18 19 19 16 21
REMARK H PARENT 9 10 19 20 16 22
REMARK Flexibility Score: inf
ROOT
ATOM      1  C   UNL     1      11.682  45.397   7.923  1.00  0.00     0.012 C 
ATOM      2  C   UNL     1      11.685  45.447   6.583  1.00  0.00     0.053 C 
ENDROOT
BRANCH   1   3
ATOM      3  C   UNL     1      10.583  44.799   8.721  1.00  0.00    -0.025 A 
ATOM      4  C   UNL     1       9.258  44.713   8.244  1.00  0.00     0.012 A 
ATOM      5  C   UNL     1       8.255  44.152   9.039  1.00  0.00     0.047 A 
ATOM      6  C   UNL     1       8.554  43.679  10.323  1.00  0.00     0.115 A 
ATOM      7  C   UNL     1      10.867  44.336  10.016  1.00  0.00     0.012 A 
ATOM      8  C   UNL     1       9.861  43.774  10.808  1.00  0.00     0.047 A 
BRANCH   6   9
ATOM      9  O   UNL     1       7.561  43.117  11.122  1.00  0.00    -0.508 OA
ATOM     10  H   UNL     1       7.594  42.143  11.401  1.00  0.00     0.293 HD
ENDBRANCH   6   9
ENDBRANCH   1   3
BRANCH   2  11
ATOM     11  C   UNL     1      12.805  46.038   5.820  1.00  0.00     0.189 C 
ATOM     12  O   UNL     1      12.841  47.281   5.606  1.00  0.00    -0.289 OA
BRANCH  11  13
ATOM     13  C   UNL     1      13.878  45.176   5.276  1.00  0.00     0.064 A 
ATOM     14  C   UNL     1      15.196  45.203   5.793  1.00  0.00     0.130 A 
ATOM     15  C   UNL     1      13.590  44.333   4.187  1.00  0.00     0.020 A 
ATOM     16  C   UNL     1      16.193  44.422   5.195  1.00  0.00     0.093 A 
ATOM     17  C   UNL     1      14.590  43.547   3.609  1.00  0.00     0.047 A 
ATOM     18  C   UNL     1      15.893  43.593   4.108  1.00  0.00     0.119 A 
BRANCH  14  19
ATOM     19  O   UNL     1      15.544  45.966   6.909  1.00  0.00    -0.507 OA
ATOM     20  H   UNL     1      14.955  46.055   7.726  1.00  0.00     0.293 HD
ENDBRANCH  14  19
BRANCH  18  21
ATOM     21  O   UNL     1      16.882  42.810   3.516  1.00  0.00    -0.508 OA
ATOM     22  H   UNL     1      17.152  41.915   3.907  1.00  0.00     0.293 HD
ENDBRANCH  18  21
ENDBRANCH  11  13
ENDBRANCH   2  11
TORSDOF 6
ENDMDL
MODEL 8
REMARK VINA RESULT:    -6.714      1.648      2.240
REMARK INTER + INTRA:          -9.110
REMARK INTER:                  -8.441
REMARK INTRA:                  -0.669
REMARK UNBOUND:                -0.630
REMARK SMILES O=C(C=Cc1ccc(O)cc1)c1ccc(O)cc1O
REMARK SMILES IDX 4 1 3 2 5 3 6 4 7 5 8 6 11 7 10 8 9 9 2 11 1 12 12 13 18 14
REMARK SMILES IDX 13 15 17 16 14 17 15 18 19 19 16 21
REMARK H PARENT 9 10 19 20 16 22
REMARK Flexibility Score: inf
ROOT
ATOM      1  C   UNL     1      11.620  46.223   6.515  1.00  0.00     0.012 C 
ATOM      2  C   UNL     1      12.118  45.129   5.922  1.00  0.00     0.053 C 
ENDROOT
BRANCH   1   3
ATOM      3  C   UNL     1      10.453  46.203   7.432  1.00  0.00    -0.025 A 
ATOM      4  C   UNL     1       9.401  47.137   7.342  1.00  0.00     0.012 A 
ATOM      5  C   UNL     1       8.328  47.083   8.238  1.00  0.00     0.047 A 
ATOM      6  C   UNL     1       8.295  46.107   9.241  1.00  0.00     0.115 A 
ATOM      7  C   UNL     1      10.416  45.238   8.453  1.00  0.00     0.012 A 
ATOM      8  C   UNL     1       9.342  45.188   9.346  1.00  0.00     0.047 A 
BRANCH   6   9
ATOM      9  O   UNL     1       7.231  46.045  10.137  1.00  0.00    -0.508 OA
ATOM     10  H   UNL     1       6.804  46.885  10.511  1.00  0.00     0.293 HD
ENDBRANCH   6   9
ENDBRANCH   1   3
BRANCH   2  11
ATOM     11  C   UNL     1      13.291  45.186   5.024  1.00  0.00     0.189 C 
ATOM     12  O   UNL     1      13.158  45.560   3.826  1.00  0.00    -0.289 OA
BRANCH  11  13
ATOM     13  C   UNL     1      14.627  44.776   5.512  1.00  0.00     0.064 A 
ATOM     14  C   UNL     1      15.355  43.721   4.908  1.00  0.00     0.130 A 
ATOM     15  C   UNL     1      15.174  45.428   6.633  1.00  0.00     0.020 A 
ATOM     16  C   UNL     1      16.582  43.323   5.454  1.00  0.00     0.093 A 
ATOM     17  C   UNL     1      16.406  45.030   7.158  1.00  0.00     0.047 A 
ATOM     18  C   UNL     1      17.110  43.976   6.574  1.00  0.00     0.119 A 
BRANCH  14  19
ATOM     19  O   UNL     1      14.907  43.070   3.758  1.00  0.00    -0.507 OA
ATOM     20  H   UNL     1      14.224  43.465   3.126  1.00  0.00     0.293 HD
ENDBRANCH  14  19
BRANCH  18  21
ATOM     21  O   UNL     1      18.334  43.585   7.114  1.00  0.00    -0.508 OA
ATOM     22  H   UNL     1      18.746  44.075   7.899  1.00  0.00     0.293 HD
ENDBRANCH  18  21
ENDBRANCH  11  13
ENDBRANCH   2  11
TORSDOF 6
ENDMDL
MODEL 9
REMARK VINA RESULT:    -6.702      5.201      8.325
REMARK INTER + INTRA:          -9.096
REMARK INTER:                  -8.552
REMARK INTRA:                  -0.544
REMARK UNBOUND:                -0.630
REMARK SMILES O=C(C=Cc1ccc(O)cc1)c1ccc(O)cc1O
REMARK SMILES IDX 4 1 3 2 5 3 6 4 7 5 8 6 11 7 10 8 9 9 2 11 1 12 12 13 18 14
REMARK SMILES IDX 13 15 17 16 14 17 15 18 19 19 16 21
REMARK H PARENT 9 10 19 20 16 22
REMARK Flexibility Score: inf
ROOT
ATOM      1  C   UNL     1      14.896  39.253  10.542  1.00  0.00     0.012 C 
ATOM      2  C   UNL     1      14.519  40.046   9.529  1.00  0.00     0.053 C 
ENDROOT
BRANCH   1   3
ATOM      3  C   UNL     1      14.001  38.261  11.187  1.00  0.00    -0.025 A 
ATOM      4  C   UNL     1      14.429  37.423  12.238  1.00  0.00     0.012 A 
ATOM      5  C   UNL     1      13.550  36.495  12.805  1.00  0.00     0.047 A 
ATOM      6  C   UNL     1      12.239  36.381  12.327  1.00  0.00     0.115 A 
ATOM      7  C   UNL     1      12.688  38.126  10.705  1.00  0.00     0.012 A 
ATOM      8  C   UNL     1      11.812  37.196  11.276  1.00  0.00     0.047 A 
BRANCH   6   9
ATOM      9  O   UNL     1      11.356  35.460  12.886  1.00  0.00    -0.508 OA
ATOM     10  H   UNL     1      10.512  35.757  13.361  1.00  0.00     0.293 HD
ENDBRANCH   6   9
ENDBRANCH   1   3
BRANCH   2  11
ATOM     11  C   UNL     1      15.443  41.014   8.901  1.00  0.00     0.189 C 
ATOM     12  O   UNL     1      16.689  40.818   8.935  1.00  0.00    -0.289 OA
BRANCH  11  13
ATOM     13  C   UNL     1      14.919  42.238   8.254  1.00  0.00     0.064 A 
ATOM     14  C   UNL     1      15.025  43.512   8.863  1.00  0.00     0.130 A 
ATOM     15  C   UNL     1      14.260  42.126   7.015  1.00  0.00     0.020 A 
ATOM     16  C   UNL     1      14.447  44.628   8.244  1.00  0.00     0.093 A 
ATOM     17  C   UNL     1      13.701  43.249   6.401  1.00  0.00     0.047 A 
ATOM     18  C   UNL     1      13.788  44.500   7.015  1.00  0.00     0.119 A 
BRANCH  14  19
ATOM     19  O   UNL     1      15.716  43.712  10.059  1.00  0.00    -0.507 OA
ATOM     20  H   UNL     1      16.602  44.197  10.113  1.00  0.00     0.293 HD
ENDBRANCH  14  19
BRANCH  18  21
ATOM     21  O   UNL     1      13.219  45.610   6.395  1.00  0.00    -0.508 OA
ATOM     22  H   UNL     1      12.365  45.534   5.854  1.00  0.00     0.293 HD
ENDBRANCH  18  21
ENDBRANCH  11  13
ENDBRANCH   2  11
TORSDOF 6
ENDMDL
