MODEL 1
REMARK VINA RESULT:    -3.572      0.000      0.000
REMARK INTER + INTRA:          -9.491
REMARK INTER:                  -6.914
REMARK INTRA:                  -2.577
REMARK UNBOUND:                -2.577
REMARK SMILES CCCCCCCCCCCCCCCCCC(=O)[O-]
REMARK SMILES IDX 10 1 11 2 12 3 13 4 14 5 15 6 16 7 17 8 18 9 19 10 20 11
REMARK SMILES IDX 9 12 8 13 7 14 6 15 5 16 4 17 3 18 2 19 1 20
REMARK H PARENT
REMARK Flexibility Score: inf
ROOT
ATOM      1  C   UNL     1      -0.588  25.752  -0.793  1.00  0.00     0.000 C 
ENDROOT
BRANCH   1   2
ATOM      2  C   UNL     1      -1.937  26.404  -1.126  1.00  0.00     0.000 C 
BRANCH   2   3
ATOM      3  C   UNL     1      -2.615  26.942   0.143  1.00  0.00     0.000 C 
BRANCH   3   4
ATOM      4  C   UNL     1      -2.098  26.263   1.421  1.00  0.00     0.000 C 
BRANCH   4   5
ATOM      5  C   UNL     1      -2.965  26.588   2.650  1.00  0.00     0.000 C 
BRANCH   5   6
ATOM      6  C   UNL     1      -4.185  25.660   2.784  1.00  0.00     0.000 C 
BRANCH   6   7
ATOM      7  C   UNL     1      -5.390  26.271   3.522  1.00  0.00     0.006 C 
BRANCH   7   8
ATOM      8  C   UNL     1      -6.585  26.541   2.598  1.00  0.00     0.053 C 
BRANCH   8   9
ATOM      9  C   UNL     1      -7.817  25.879   3.132  1.00  0.00     0.041 C 
ATOM     10  O   UNL     1      -8.033  25.845   4.373  1.00  0.00    -0.550 OA
ATOM     11  O   UNL     1      -8.762  25.362   2.254  1.00  0.00    -0.550 OA
ENDBRANCH   8   9
ENDBRANCH   7   8
ENDBRANCH   6   7
ENDBRANCH   5   6
ENDBRANCH   4   5
ENDBRANCH   3   4
ENDBRANCH   2   3
ENDBRANCH   1   2
BRANCH   1  12
ATOM     12  C   UNL     1      -0.296  24.578  -1.737  1.00  0.00     0.000 C 
BRANCH  12  13
ATOM     13  C   UNL     1       0.059  23.311  -0.943  1.00  0.00    -0.000 C 
BRANCH  13  14
ATOM     14  C   UNL     1      -1.024  22.934   0.081  1.00  0.00    -0.000 C 
BRANCH  14  15
ATOM     15  C   UNL     1      -1.695  21.586  -0.242  1.00  0.00    -0.000 C 
BRANCH  15  16
ATOM     16  C   UNL     1      -3.228  21.655  -0.160  1.00  0.00    -0.000 C 
BRANCH  16  17
ATOM     17  C   UNL     1      -3.741  23.059   0.211  1.00  0.00    -0.000 C 
BRANCH  17  18
ATOM     18  C   UNL     1      -4.573  23.693  -0.923  1.00  0.00    -0.000 C 
BRANCH  18  19
ATOM     19  C   UNL     1      -5.557  24.773  -0.440  1.00  0.00    -0.003 C 
ATOM     20  C   UNL     1      -5.903  25.795  -1.520  1.00  0.00     0.004 C 
ENDBRANCH  18  19
ENDBRANCH  17  18
ENDBRANCH  16  17
ENDBRANCH  15  16
ENDBRANCH  14  15
ENDBRANCH  13  14
ENDBRANCH  12  13
ENDBRANCH   1  12
TORSDOF 16
ENDMDL
MODEL 2
REMARK VINA RESULT:    -3.554      1.308      4.014
REMARK INTER + INTRA:          -9.457
REMARK INTER:                  -6.917
REMARK INTRA:                  -2.539
REMARK UNBOUND:                -2.577
REMARK SMILES CCCCCCCCCCCCCCCCCC(=O)[O-]
REMARK SMILES IDX 10 1 11 2 12 3 13 4 14 5 15 6 16 7 17 8 18 9 19 10 20 11
REMARK SMILES IDX 9 12 8 13 7 14 6 15 5 16 4 17 3 18 2 19 1 20
REMARK H PARENT
REMARK Flexibility Score: inf
ROOT
ATOM      1  C   UNL     1      -1.223  21.695  -1.395  1.00  0.00     0.000 C 
ENDROOT
BRANCH   1   2
ATOM      2  C   UNL     1      -1.867  21.655  -0.003  1.00  0.00     0.000 C 
BRANCH   2   3
ATOM      3  C   UNL     1      -3.397  21.748  -0.101  1.00  0.00     0.000 C 
BRANCH   3   4
ATOM      4  C   UNL     1      -3.860  22.897  -1.012  1.00  0.00     0.000 C 
BRANCH   4   5
ATOM      5  C   UNL     1      -4.808  23.871  -0.291  1.00  0.00     0.000 C 
BRANCH   5   6
ATOM      6  C   UNL     1      -4.926  23.587   1.217  1.00  0.00     0.000 C 
BRANCH   6   7
ATOM      7  C   UNL     1      -4.864  24.832   2.121  1.00  0.00     0.006 C 
BRANCH   7   8
ATOM      8  C   UNL     1      -5.760  25.976   1.628  1.00  0.00     0.053 C 
BRANCH   8   9
ATOM      9  C   UNL     1      -6.799  26.304   2.654  1.00  0.00     0.041 C 
ATOM     10  O   UNL     1      -7.515  27.334   2.526  1.00  0.00    -0.550 OA
ATOM     11  O   UNL     1      -7.026  25.435   3.714  1.00  0.00    -0.550 OA
ENDBRANCH   8   9
ENDBRANCH   7   8
ENDBRANCH   6   7
ENDBRANCH   5   6
ENDBRANCH   4   5
ENDBRANCH   3   4
ENDBRANCH   2   3
ENDBRANCH   1   2
BRANCH   1  12
ATOM     12  C   UNL     1      -0.138  22.777  -1.470  1.00  0.00     0.000 C 
BRANCH  12  13
ATOM     13  C   UNL     1      -0.097  23.604  -0.176  1.00  0.00    -0.000 C 
BRANCH  13  14
ATOM     14  C   UNL     1      -0.456  25.081  -0.408  1.00  0.00    -0.000 C 
BRANCH  14  15
ATOM     15  C   UNL     1      -1.565  25.572   0.541  1.00  0.00    -0.000 C 
BRANCH  15  16
ATOM     16  C   UNL     1      -2.474  26.626  -0.110  1.00  0.00    -0.000 C 
BRANCH  16  17
ATOM     17  C   UNL     1      -1.928  28.058   0.041  1.00  0.00    -0.000 C 
BRANCH  17  18
ATOM     18  C   UNL     1      -1.390  28.330   1.461  1.00  0.00    -0.000 C 
BRANCH  18  19
ATOM     19  C   UNL     1      -2.460  28.841   2.441  1.00  0.00    -0.003 C 
ATOM     20  C   UNL     1      -2.964  27.762   3.396  1.00  0.00     0.004 C 
ENDBRANCH  18  19
ENDBRANCH  17  18
ENDBRANCH  16  17
ENDBRANCH  15  16
ENDBRANCH  14  15
ENDBRANCH  13  14
ENDBRANCH  12  13
ENDBRANCH   1  12
TORSDOF 16
ENDMDL
MODEL 3
REMARK VINA RESULT:    -3.533      2.725      4.365
REMARK INTER + INTRA:          -9.414
REMARK INTER:                  -6.662
REMARK INTRA:                  -2.752
REMARK UNBOUND:                -2.577
REMARK SMILES CCCCCCCCCCCCCCCCCC(=O)[O-]
REMARK SMILES IDX 10 1 11 2 12 3 13 4 14 5 15 6 16 7 17 8 18 9 19 10 20 11
REMARK SMILES IDX 9 12 8 13 7 14 6 15 5 16 4 17 3 18 2 19 1 20
REMARK H PARENT
REMARK Flexibility Score: inf
ROOT
ATOM      1  C   UNL     1      -4.275  23.001  -0.462  1.00  0.00     0.000 C 
ENDROOT
BRANCH   1   2
ATOM      2  C   UNL     1      -4.058  23.618   0.925  1.00  0.00     0.000 C 
BRANCH   2   3
ATOM      3  C   UNL     1      -5.370  23.652   1.724  1.00  0.00     0.000 C 
BRANCH   3   4
ATOM      4  C   UNL     1      -6.007  25.051   1.751  1.00  0.00     0.000 C 
BRANCH   4   5
ATOM      5  C   UNL     1      -5.414  25.945   2.854  1.00  0.00     0.000 C 
BRANCH   5   6
ATOM      6  C   UNL     1      -4.483  27.040   2.302  1.00  0.00     0.000 C 
BRANCH   6   7
ATOM      7  C   UNL     1      -3.026  26.963   2.792  1.00  0.00     0.006 C 
BRANCH   7   8
ATOM      8  C   UNL     1      -2.162  28.126   2.288  1.00  0.00     0.053 C 
BRANCH   8   9
ATOM      9  C   UNL     1      -1.677  28.953   3.438  1.00  0.00     0.041 C 
ATOM     10  O   UNL     1      -2.496  29.417   4.276  1.00  0.00    -0.550 OA
ATOM     11  O   UNL     1      -0.315  29.152   3.623  1.00  0.00    -0.550 OA
ENDBRANCH   8   9
ENDBRANCH   7   8
ENDBRANCH   6   7
ENDBRANCH   5   6
ENDBRANCH   4   5
ENDBRANCH   3   4
ENDBRANCH   2   3
ENDBRANCH   1   2
BRANCH   1  12
ATOM     12  C   UNL     1      -3.516  21.675  -0.600  1.00  0.00     0.000 C 
BRANCH  12  13
ATOM     13  C   UNL     1      -2.053  21.831  -0.156  1.00  0.00    -0.000 C 
BRANCH  13  14
ATOM     14  C   UNL     1      -1.092  22.013  -1.342  1.00  0.00    -0.000 C 
BRANCH  14  15
ATOM     15  C   UNL     1      -0.334  23.352  -1.283  1.00  0.00    -0.000 C 
BRANCH  15  16
ATOM     16  C   UNL     1      -0.402  24.008   0.105  1.00  0.00    -0.000 C 
BRANCH  16  17
ATOM     17  C   UNL     1      -1.012  25.421   0.066  1.00  0.00    -0.000 C 
BRANCH  17  18
ATOM     18  C   UNL     1      -1.817  25.673  -1.226  1.00  0.00    -0.000 C 
BRANCH  18  19
ATOM     19  C   UNL     1      -2.829  26.826  -1.109  1.00  0.00    -0.003 C 
ATOM     20  C   UNL     1      -4.236  26.439  -1.559  1.00  0.00     0.004 C 
ENDBRANCH  18  19
ENDBRANCH  17  18
ENDBRANCH  16  17
ENDBRANCH  15  16
ENDBRANCH  14  15
ENDBRANCH  13  14
ENDBRANCH  12  13
ENDBRANCH   1  12
TORSDOF 16
ENDMDL
MODEL 4
REMARK VINA RESULT:    -3.502      4.515      6.655
REMARK INTER + INTRA:          -9.355
REMARK INTER:                  -6.724
REMARK INTRA:                  -2.632
REMARK UNBOUND:                -2.577
REMARK SMILES CCCCCCCCCCCCCCCCCC(=O)[O-]
REMARK SMILES IDX 10 1 11 2 12 3 13 4 14 5 15 6 16 7 17 8 18 9 19 10 20 11
REMARK SMILES IDX 9 12 8 13 7 14 6 15 5 16 4 17 3 18 2 19 1 20
REMARK H PARENT
REMARK Flexibility Score: inf
ROOT
ATOM      1  C   UNL     1      -4.879  28.647  -0.415  1.00  0.00     0.000 C 
ENDROOT
BRANCH   1   2
ATOM      2  C   UNL     1      -4.900  29.633   0.760  1.00  0.00     0.000 C 
BRANCH   2   3
ATOM      3  C   UNL     1      -4.130  30.917   0.415  1.00  0.00     0.000 C 
BRANCH   3   4
ATOM      4  C   UNL     1      -3.230  30.750  -0.820  1.00  0.00     0.000 C 
BRANCH   4   5
ATOM      5  C   UNL     1      -3.531  31.791  -1.912  1.00  0.00     0.000 C 
BRANCH   5   6
ATOM      6  C   UNL     1      -4.612  32.803  -1.492  1.00  0.00     0.000 C 
BRANCH   6   7
ATOM      7  C   UNL     1      -5.879  32.804  -2.367  1.00  0.00     0.006 C 
BRANCH   7   8
ATOM      8  C   UNL     1      -7.167  32.996  -1.557  1.00  0.00     0.053 C 
BRANCH   8   9
ATOM      9  C   UNL     1      -7.552  31.719  -0.877  1.00  0.00     0.041 C 
ATOM     10  O   UNL     1      -7.457  30.621  -1.488  1.00  0.00    -0.550 OA
ATOM     11  O   UNL     1      -7.948  31.736   0.455  1.00  0.00    -0.550 OA
ENDBRANCH   8   9
ENDBRANCH   7   8
ENDBRANCH   6   7
ENDBRANCH   5   6
ENDBRANCH   4   5
ENDBRANCH   3   4
ENDBRANCH   2   3
ENDBRANCH   1   2
BRANCH   1  12
ATOM     12  C   UNL     1      -4.517  27.233   0.058  1.00  0.00     0.000 C 
BRANCH  12  13
ATOM     13  C   UNL     1      -5.176  26.921   1.411  1.00  0.00    -0.000 C 
BRANCH  13  14
ATOM     14  C   UNL     1      -4.418  25.842   2.201  1.00  0.00    -0.000 C 
BRANCH  14  15
ATOM     15  C   UNL     1      -3.027  26.317   2.660  1.00  0.00    -0.000 C 
BRANCH  15  16
ATOM     16  C   UNL     1      -3.079  27.662   3.401  1.00  0.00    -0.000 C 
BRANCH  16  17
ATOM     17  C   UNL     1      -1.885  28.574   3.064  1.00  0.00    -0.000 C 
BRANCH  17  18
ATOM     18  C   UNL     1      -1.386  28.371   1.618  1.00  0.00    -0.000 C 
BRANCH  18  19
ATOM     19  C   UNL     1      -0.324  29.394   1.180  1.00  0.00    -0.003 C 
ATOM     20  C   UNL     1       0.390  30.059   2.355  1.00  0.00     0.004 C 
ENDBRANCH  18  19
ENDBRANCH  17  18
ENDBRANCH  16  17
ENDBRANCH  15  16
ENDBRANCH  14  15
ENDBRANCH  13  14
ENDBRANCH  12  13
ENDBRANCH   1  12
TORSDOF 16
ENDMDL
MODEL 5
REMARK VINA RESULT:    -3.491      3.580      5.689
REMARK INTER + INTRA:          -9.333
REMARK INTER:                  -6.680
REMARK INTRA:                  -2.653
REMARK UNBOUND:                -2.577
REMARK SMILES CCCCCCCCCCCCCCCCCC(=O)[O-]
REMARK SMILES IDX 10 1 11 2 12 3 13 4 14 5 15 6 16 7 17 8 18 9 19 10 20 11
REMARK SMILES IDX 9 12 8 13 7 14 6 15 5 16 4 17 3 18 2 19 1 20
REMARK H PARENT
REMARK Flexibility Score: inf
ROOT
ATOM      1  C   UNL     1      -4.706  24.034  -0.630  1.00  0.00     0.000 C 
ENDROOT
BRANCH   1   2
ATOM      2  C   UNL     1      -3.547  25.030  -0.498  1.00  0.00     0.000 C 
BRANCH   2   3
ATOM      3  C   UNL     1      -3.749  26.235  -1.430  1.00  0.00     0.000 C 
BRANCH   3   4
ATOM      4  C   UNL     1      -3.773  27.570  -0.668  1.00  0.00     0.000 C 
BRANCH   4   5
ATOM      5  C   UNL     1      -5.203  28.025  -0.327  1.00  0.00     0.000 C 
BRANCH   5   6
ATOM      6  C   UNL     1      -5.243  29.085   0.789  1.00  0.00     0.000 C 
BRANCH   6   7
ATOM      7  C   UNL     1      -5.322  30.543   0.299  1.00  0.00     0.006 C 
BRANCH   7   8
ATOM      8  C   UNL     1      -6.109  30.694  -1.009  1.00  0.00     0.053 C 
BRANCH   8   9
ATOM      9  C   UNL     1      -7.209  31.696  -0.843  1.00  0.00     0.041 C 
ATOM     10  O   UNL     1      -7.293  32.682  -1.624  1.00  0.00    -0.550 OA
ATOM     11  O   UNL     1      -8.182  31.503   0.129  1.00  0.00    -0.550 OA
ENDBRANCH   8   9
ENDBRANCH   7   8
ENDBRANCH   6   7
ENDBRANCH   5   6
ENDBRANCH   4   5
ENDBRANCH   3   4
ENDBRANCH   2   3
ENDBRANCH   1   2
BRANCH   1  12
ATOM     12  C   UNL     1      -5.876  24.426   0.281  1.00  0.00     0.000 C 
BRANCH  12  13
ATOM     13  C   UNL     1      -5.568  24.087   1.748  1.00  0.00    -0.000 C 
BRANCH  13  14
ATOM     14  C   UNL     1      -6.115  25.141   2.724  1.00  0.00    -0.000 C 
BRANCH  14  15
ATOM     15  C   UNL     1      -5.096  26.258   3.014  1.00  0.00    -0.000 C 
BRANCH  15  16
ATOM     16  C   UNL     1      -3.650  25.741   3.055  1.00  0.00    -0.000 C 
BRANCH  16  17
ATOM     17  C   UNL     1      -2.619  26.824   2.690  1.00  0.00    -0.000 C 
BRANCH  17  18
ATOM     18  C   UNL     1      -2.840  28.130   3.482  1.00  0.00    -0.000 C 
BRANCH  18  19
ATOM     19  C   UNL     1      -1.719  29.166   3.292  1.00  0.00    -0.003 C 
ATOM     20  C   UNL     1      -1.861  29.975   2.005  1.00  0.00     0.004 C 
ENDBRANCH  18  19
ENDBRANCH  17  18
ENDBRANCH  16  17
ENDBRANCH  15  16
ENDBRANCH  14  15
ENDBRANCH  13  14
ENDBRANCH  12  13
ENDBRANCH   1  12
TORSDOF 16
ENDMDL
MODEL 6
REMARK VINA RESULT:    -3.482      2.883      5.252
REMARK INTER + INTRA:          -9.316
REMARK INTER:                  -7.364
REMARK INTRA:                  -1.952
REMARK UNBOUND:                -2.577
REMARK SMILES CCCCCCCCCCCCCCCCCC(=O)[O-]
REMARK SMILES IDX 10 1 11 2 12 3 13 4 14 5 15 6 16 7 17 8 18 9 19 10 20 11
REMARK SMILES IDX 9 12 8 13 7 14 6 15 5 16 4 17 3 18 2 19 1 20
REMARK H PARENT
REMARK Flexibility Score: inf
ROOT
ATOM      1  C   UNL     1      -2.218  24.033  -0.511  1.00  0.00     0.000 C 
ENDROOT
BRANCH   1   2
ATOM      2  C   UNL     1      -2.542  25.364  -1.200  1.00  0.00     0.000 C 
BRANCH   2   3
ATOM      3  C   UNL     1      -1.888  26.541  -0.461  1.00  0.00     0.000 C 
BRANCH   3   4
ATOM      4  C   UNL     1      -2.607  27.874  -0.722  1.00  0.00     0.000 C 
BRANCH   4   5
ATOM      5  C   UNL     1      -4.131  27.765  -0.539  1.00  0.00     0.000 C 
BRANCH   5   6
ATOM      6  C   UNL     1      -4.552  27.687   0.939  1.00  0.00     0.000 C 
BRANCH   6   7
ATOM      7  C   UNL     1      -3.783  28.628   1.885  1.00  0.00     0.006 C 
BRANCH   7   8
ATOM      8  C   UNL     1      -3.029  27.880   2.992  1.00  0.00     0.053 C 
BRANCH   8   9
ATOM      9  C   UNL     1      -2.109  28.811   3.718  1.00  0.00     0.041 C 
ATOM     10  O   UNL     1      -0.903  28.914   3.368  1.00  0.00    -0.550 OA
ATOM     11  O   UNL     1      -2.602  29.616   4.737  1.00  0.00    -0.550 OA
ENDBRANCH   8   9
ENDBRANCH   7   8
ENDBRANCH   6   7
ENDBRANCH   5   6
ENDBRANCH   4   5
ENDBRANCH   3   4
ENDBRANCH   2   3
ENDBRANCH   1   2
BRANCH   1  12
ATOM     12  C   UNL     1      -3.497  23.330  -0.038  1.00  0.00     0.000 C 
BRANCH  12  13
ATOM     13  C   UNL     1      -4.172  24.120   1.094  1.00  0.00    -0.000 C 
BRANCH  13  14
ATOM     14  C   UNL     1      -5.701  24.168   0.950  1.00  0.00    -0.000 C 
BRANCH  14  15
ATOM     15  C   UNL     1      -6.415  24.304   2.308  1.00  0.00    -0.000 C 
BRANCH  15  16
ATOM     16  C   UNL     1      -7.561  25.326   2.273  1.00  0.00    -0.000 C 
BRANCH  16  17
ATOM     17  C   UNL     1      -7.917  25.871   3.668  1.00  0.00    -0.000 C 
BRANCH  17  18
ATOM     18  C   UNL     1      -6.683  26.428   4.408  1.00  0.00    -0.000 C 
BRANCH  18  19
ATOM     19  C   UNL     1      -6.753  26.267   5.937  1.00  0.00    -0.003 C 
ATOM     20  C   UNL     1      -7.982  25.491   6.403  1.00  0.00     0.004 C 
ENDBRANCH  18  19
ENDBRANCH  17  18
ENDBRANCH  16  17
ENDBRANCH  15  16
ENDBRANCH  14  15
ENDBRANCH  13  14
ENDBRANCH  12  13
ENDBRANCH   1  12
TORSDOF 16
ENDMDL
MODEL 7
REMARK VINA RESULT:    -3.467      1.797      3.942
REMARK INTER + INTRA:          -9.287
REMARK INTER:                  -6.792
REMARK INTRA:                  -2.495
REMARK UNBOUND:                -2.577
REMARK SMILES CCCCCCCCCCCCCCCCCC(=O)[O-]
REMARK SMILES IDX 10 1 11 2 12 3 13 4 14 5 15 6 16 7 17 8 18 9 19 10 20 11
REMARK SMILES IDX 9 12 8 13 7 14 6 15 5 16 4 17 3 18 2 19 1 20
REMARK H PARENT
REMARK Flexibility Score: inf
ROOT
ATOM      1  C   UNL     1      -3.788  28.280   1.333  1.00  0.00     0.000 C 
ENDROOT
BRANCH   1   2
ATOM      2  C   UNL     1      -2.448  27.572   1.566  1.00  0.00     0.000 C 
BRANCH   2   3
ATOM      3  C   UNL     1      -2.653  26.223   2.272  1.00  0.00     0.000 C 
BRANCH   3   4
ATOM      4  C   UNL     1      -4.027  26.118   2.954  1.00  0.00     0.000 C 
BRANCH   4   5
ATOM      5  C   UNL     1      -4.840  24.912   2.454  1.00  0.00     0.000 C 
BRANCH   5   6
ATOM      6  C   UNL     1      -6.357  25.094   2.640  1.00  0.00     0.000 C 
BRANCH   6   7
ATOM      7  C   UNL     1      -6.766  26.273   3.542  1.00  0.00     0.006 C 
BRANCH   7   8
ATOM      8  C   UNL     1      -7.610  25.841   4.748  1.00  0.00     0.053 C 
BRANCH   8   9
ATOM      9  C   UNL     1      -6.923  26.207   6.025  1.00  0.00     0.041 C 
ATOM     10  O   UNL     1      -7.342  25.755   7.125  1.00  0.00    -0.550 OA
ATOM     11  O   UNL     1      -5.776  26.991   5.996  1.00  0.00    -0.550 OA
ENDBRANCH   8   9
ENDBRANCH   7   8
ENDBRANCH   6   7
ENDBRANCH   5   6
ENDBRANCH   4   5
ENDBRANCH   3   4
ENDBRANCH   2   3
ENDBRANCH   1   2
BRANCH   1  12
ATOM     12  C   UNL     1      -4.147  28.306  -0.158  1.00  0.00     0.000 C 
BRANCH  12  13
ATOM     13  C   UNL     1      -5.323  27.364  -0.456  1.00  0.00    -0.000 C 
BRANCH  13  14
ATOM     14  C   UNL     1      -4.990  26.330  -1.545  1.00  0.00    -0.000 C 
BRANCH  14  15
ATOM     15  C   UNL     1      -3.988  25.267  -1.058  1.00  0.00    -0.000 C 
BRANCH  15  16
ATOM     16  C   UNL     1      -4.563  23.843  -1.118  1.00  0.00    -0.000 C 
BRANCH  16  17
ATOM     17  C   UNL     1      -3.752  22.838  -0.280  1.00  0.00    -0.000 C 
BRANCH  17  18
ATOM     18  C   UNL     1      -2.329  23.349   0.027  1.00  0.00    -0.000 C 
BRANCH  18  19
ATOM     19  C   UNL     1      -1.215  22.497  -0.604  1.00  0.00    -0.003 C 
ATOM     20  C   UNL     1       0.103  23.252  -0.760  1.00  0.00     0.004 C 
ENDBRANCH  18  19
ENDBRANCH  17  18
ENDBRANCH  16  17
ENDBRANCH  15  16
ENDBRANCH  14  15
ENDBRANCH  13  14
ENDBRANCH  12  13
ENDBRANCH   1  12
TORSDOF 16
ENDMDL
MODEL 8
REMARK VINA RESULT:    -3.444      1.673      3.501
REMARK INTER + INTRA:          -9.243
REMARK INTER:                  -6.226
REMARK INTRA:                  -3.017
REMARK UNBOUND:                -2.577
REMARK SMILES CCCCCCCCCCCCCCCCCC(=O)[O-]
REMARK SMILES IDX 10 1 11 2 12 3 13 4 14 5 15 6 16 7 17 8 18 9 19 10 20 11
REMARK SMILES IDX 9 12 8 13 7 14 6 15 5 16 4 17 3 18 2 19 1 20
REMARK H PARENT
REMARK Flexibility Score: inf
ROOT
ATOM      1  C   UNL     1      -1.959  26.994  -0.654  1.00  0.00     0.000 C 
ENDROOT
BRANCH   1   2
ATOM      2  C   UNL     1      -1.377  27.232   0.745  1.00  0.00     0.000 C 
BRANCH   2   3
ATOM      3  C   UNL     1      -2.455  27.065   1.826  1.00  0.00     0.000 C 
BRANCH   3   4
ATOM      4  C   UNL     1      -2.678  25.594   2.213  1.00  0.00     0.000 C 
BRANCH   4   5
ATOM      5  C   UNL     1      -4.162  25.269   2.455  1.00  0.00     0.000 C 
BRANCH   5   6
ATOM      6  C   UNL     1      -5.089  26.467   2.184  1.00  0.00     0.000 C 
BRANCH   6   7
ATOM      7  C   UNL     1      -6.591  26.131   2.145  1.00  0.00     0.006 C 
BRANCH   7   8
ATOM      8  C   UNL     1      -6.869  24.658   1.819  1.00  0.00     0.053 C 
BRANCH   8   9
ATOM      9  C   UNL     1      -7.572  24.538   0.503  1.00  0.00     0.041 C 
ATOM     10  O   UNL     1      -7.196  25.226  -0.483  1.00  0.00    -0.550 OA
ATOM     11  O   UNL     1      -8.597  23.614   0.347  1.00  0.00    -0.550 OA
ENDBRANCH   8   9
ENDBRANCH   7   8
ENDBRANCH   6   7
ENDBRANCH   5   6
ENDBRANCH   4   5
ENDBRANCH   3   4
ENDBRANCH   2   3
ENDBRANCH   1   2
BRANCH   1  12
ATOM     12  C   UNL     1      -3.353  27.622  -0.785  1.00  0.00     0.000 C 
BRANCH  12  13
ATOM     13  C   UNL     1      -4.306  26.689  -1.549  1.00  0.00    -0.000 C 
BRANCH  13  14
ATOM     14  C   UNL     1      -3.616  25.400  -2.023  1.00  0.00    -0.000 C 
BRANCH  14  15
ATOM     15  C   UNL     1      -3.881  24.211  -1.080  1.00  0.00    -0.000 C 
BRANCH  15  16
ATOM     16  C   UNL     1      -2.891  23.056  -1.296  1.00  0.00    -0.000 C 
BRANCH  16  17
ATOM     17  C   UNL     1      -2.142  22.665  -0.009  1.00  0.00    -0.000 C 
BRANCH  17  18
ATOM     18  C   UNL     1      -0.725  23.274   0.049  1.00  0.00    -0.000 C 
BRANCH  18  19
ATOM     19  C   UNL     1      -0.169  23.680  -1.328  1.00  0.00    -0.003 C 
ATOM     20  C   UNL     1       0.881  24.785  -1.248  1.00  0.00     0.004 C 
ENDBRANCH  18  19
ENDBRANCH  17  18
ENDBRANCH  16  17
ENDBRANCH  15  16
ENDBRANCH  14  15
ENDBRANCH  13  14
ENDBRANCH  12  13
ENDBRANCH   1  12
TORSDOF 16
ENDMDL
MODEL 9
REMARK VINA RESULT:    -3.437      3.659      5.800
REMARK INTER + INTRA:          -9.230
REMARK INTER:                  -6.786
REMARK INTRA:                  -2.444
REMARK UNBOUND:                -2.577
REMARK SMILES CCCCCCCCCCCCCCCCCC(=O)[O-]
REMARK SMILES IDX 10 1 11 2 12 3 13 4 14 5 15 6 16 7 17 8 18 9 19 10 20 11
REMARK SMILES IDX 9 12 8 13 7 14 6 15 5 16 4 17 3 18 2 19 1 20
REMARK H PARENT
REMARK Flexibility Score: inf
ROOT
ATOM      1  C   UNL     1      -3.277  27.371  -0.651  1.00  0.00     0.000 C 
ENDROOT
BRANCH   1   2
ATOM      2  C   UNL     1      -3.205  25.865  -0.370  1.00  0.00     0.000 C 
BRANCH   2   3
ATOM      3  C   UNL     1      -2.219  25.563   0.768  1.00  0.00     0.000 C 
BRANCH   3   4
ATOM      4  C   UNL     1      -2.458  26.444   2.004  1.00  0.00     0.000 C 
BRANCH   4   5
ATOM      5  C   UNL     1      -3.479  25.828   2.976  1.00  0.00     0.000 C 
BRANCH   5   6
ATOM      6  C   UNL     1      -4.824  26.577   2.987  1.00  0.00     0.000 C 
BRANCH   6   7
ATOM      7  C   UNL     1      -6.071  25.676   2.918  1.00  0.00     0.006 C 
BRANCH   7   8
ATOM      8  C   UNL     1      -5.964  24.585   1.845  1.00  0.00     0.053 C 
BRANCH   8   9
ATOM      9  C   UNL     1      -7.053  24.742   0.830  1.00  0.00     0.041 C 
ATOM     10  O   UNL     1      -7.114  25.782   0.120  1.00  0.00    -0.550 OA
ATOM     11  O   UNL     1      -7.959  23.710   0.619  1.00  0.00    -0.550 OA
ENDBRANCH   8   9
ENDBRANCH   7   8
ENDBRANCH   6   7
ENDBRANCH   5   6
ENDBRANCH   4   5
ENDBRANCH   3   4
ENDBRANCH   2   3
ENDBRANCH   1   2
BRANCH   1  12
ATOM     12  C   UNL     1      -4.690  27.785  -1.081  1.00  0.00     0.000 C 
BRANCH  12  13
ATOM     13  C   UNL     1      -5.278  28.823  -0.111  1.00  0.00    -0.000 C 
BRANCH  13  14
ATOM     14  C   UNL     1      -4.197  29.527   0.724  1.00  0.00    -0.000 C 
BRANCH  14  15
ATOM     15  C   UNL     1      -4.189  31.052   0.509  1.00  0.00    -0.000 C 
BRANCH  15  16
ATOM     16  C   UNL     1      -3.626  31.452  -0.864  1.00  0.00    -0.000 C 
BRANCH  16  17
ATOM     17  C   UNL     1      -4.308  32.702  -1.447  1.00  0.00    -0.000 C 
BRANCH  17  18
ATOM     18  C   UNL     1      -5.531  32.346  -2.319  1.00  0.00    -0.000 C 
BRANCH  18  19
ATOM     19  C   UNL     1      -6.871  32.821  -1.729  1.00  0.00    -0.003 C 
ATOM     20  C   UNL     1      -7.591  31.739  -0.929  1.00  0.00     0.004 C 
ENDBRANCH  18  19
ENDBRANCH  17  18
ENDBRANCH  16  17
ENDBRANCH  15  16
ENDBRANCH  14  15
ENDBRANCH  13  14
ENDBRANCH  12  13
ENDBRANCH   1  12
TORSDOF 16
ENDMDL
