MODEL 1
REMARK VINA RESULT:    -2.169      0.000      0.000
REMARK INTER + INTRA:          -2.169
REMARK INTER:                  -2.169
REMARK INTRA:                   0.000
REMARK UNBOUND:                 0.000
REMARK SMILES CC(=O)[O-]
REMARK SMILES IDX 1 1 2 2 3 3 4 4
REMARK H PARENT
REMARK Flexibility Score: inf
ROOT
ATOM      1  C   UNL     1      34.380  31.746  48.326  1.00  0.00     0.063 C 
ATOM      2  C   UNL     1      34.045  30.836  47.193  1.00  0.00     0.038 C 
ATOM      3  O   UNL     1      33.723  29.639  47.417  1.00  0.00    -0.550 OA
ATOM      4  O   UNL     1      34.035  31.319  45.891  1.00  0.00    -0.550 OA
ENDROOT
TORSDOF 0
ENDMDL
MODEL 2
REMARK VINA RESULT:    -2.169      1.296      1.711
REMARK INTER + INTRA:          -2.169
REMARK INTER:                  -2.169
REMARK INTRA:                   0.000
REMARK UNBOUND:                 0.000
REMARK SMILES CC(=O)[O-]
REMARK SMILES IDX 1 1 2 2 3 3 4 4
REMARK H PARENT
REMARK Flexibility Score: inf
ROOT
ATOM      1  C   UNL     1      33.406  29.372  47.269  1.00  0.00     0.063 C 
ATOM      2  C   UNL     1      33.921  30.760  47.091  1.00  0.00     0.038 C 
ATOM      3  O   UNL     1      34.331  31.415  48.085  1.00  0.00    -0.550 OA
ATOM      4  O   UNL     1      34.001  31.315  45.820  1.00  0.00    -0.550 OA
ENDROOT
TORSDOF 0
ENDMDL
MODEL 3
REMARK VINA RESULT:    -2.165      1.344      2.152
REMARK INTER + INTRA:          -2.165
REMARK INTER:                  -2.165
REMARK INTRA:                   0.000
REMARK UNBOUND:                 0.000
REMARK SMILES CC(=O)[O-]
REMARK SMILES IDX 1 1 2 2 3 3 4 4
REMARK H PARENT
REMARK Flexibility Score: inf
ROOT
ATOM      1  C   UNL     1      33.432  29.350  47.341  1.00  0.00     0.063 C 
ATOM      2  C   UNL     1      33.975  30.736  47.245  1.00  0.00     0.038 C 
ATOM      3  O   UNL     1      34.121  31.281  46.119  1.00  0.00    -0.550 OA
ATOM      4  O   UNL     1      34.270  31.449  48.399  1.00  0.00    -0.550 OA
ENDROOT
TORSDOF 0
ENDMDL
MODEL 4
REMARK VINA RESULT:    -2.131      1.544      2.021
REMARK INTER + INTRA:          -2.131
REMARK INTER:                  -2.131
REMARK INTRA:                   0.000
REMARK UNBOUND:                 0.000
REMARK SMILES CC(=O)[O-]
REMARK SMILES IDX 1 1 2 2 3 3 4 4
REMARK H PARENT
REMARK Flexibility Score: inf
ROOT
ATOM      1  C   UNL     1      33.979  31.225  46.034  1.00  0.00     0.063 C 
ATOM      2  C   UNL     1      33.860  30.526  47.347  1.00  0.00     0.038 C 
ATOM      3  O   UNL     1      33.977  31.173  48.420  1.00  0.00    -0.550 OA
ATOM      4  O   UNL     1      33.566  29.169  47.388  1.00  0.00    -0.550 OA
ENDROOT
TORSDOF 0
ENDMDL
MODEL 5
REMARK VINA RESULT:    -2.114     15.678     15.896
REMARK INTER + INTRA:          -2.114
REMARK INTER:                  -2.114
REMARK INTRA:                   0.000
REMARK UNBOUND:                 0.000
REMARK SMILES CC(=O)[O-]
REMARK SMILES IDX 1 1 2 2 3 3 4 4
REMARK H PARENT
REMARK Flexibility Score: inf
ROOT
ATOM      1  C   UNL     1      18.931  30.938  43.875  1.00  0.00     0.063 C 
ATOM      2  C   UNL     1      18.488  29.741  44.646  1.00  0.00     0.038 C 
ATOM      3  O   UNL     1      18.595  29.722  45.900  1.00  0.00    -0.550 OA
ATOM      4  O   UNL     1      17.908  28.665  43.987  1.00  0.00    -0.550 OA
ENDROOT
TORSDOF 0
ENDMDL
MODEL 6
REMARK VINA RESULT:    -2.022     10.401     10.813
REMARK INTER + INTRA:          -2.022
REMARK INTER:                  -2.022
REMARK INTRA:                   0.000
REMARK UNBOUND:                 0.000
REMARK SMILES CC(=O)[O-]
REMARK SMILES IDX 1 1 2 2 3 3 4 4
REMARK H PARENT
REMARK Flexibility Score: inf
ROOT
ATOM      1  C   UNL     1      30.389  39.840  44.215  1.00  0.00     0.063 C 
ATOM      2  C   UNL     1      28.975  39.986  44.667  1.00  0.00     0.038 C 
ATOM      3  O   UNL     1      28.383  39.019  45.214  1.00  0.00    -0.550 OA
ATOM      4  O   UNL     1      28.326  41.207  44.536  1.00  0.00    -0.550 OA
ENDROOT
TORSDOF 0
ENDMDL
MODEL 7
REMARK VINA RESULT:    -2.020      9.709     10.191
REMARK INTER + INTRA:          -2.020
REMARK INTER:                  -2.020
REMARK INTRA:                   0.000
REMARK UNBOUND:                 0.000
REMARK SMILES CC(=O)[O-]
REMARK SMILES IDX 1 1 2 2 3 3 4 4
REMARK H PARENT
REMARK Flexibility Score: inf
ROOT
ATOM      1  C   UNL     1      30.387  39.853  44.235  1.00  0.00     0.063 C 
ATOM      2  C   UNL     1      29.102  39.269  44.718  1.00  0.00     0.038 C 
ATOM      3  O   UNL     1      28.050  39.961  44.708  1.00  0.00    -0.550 OA
ATOM      4  O   UNL     1      29.052  37.943  45.129  1.00  0.00    -0.550 OA
ENDROOT
TORSDOF 0
ENDMDL
MODEL 8
REMARK VINA RESULT:    -1.998     13.796     14.222
REMARK INTER + INTRA:          -1.998
REMARK INTER:                  -1.998
REMARK INTRA:                   0.000
REMARK UNBOUND:                 0.000
REMARK SMILES CC(=O)[O-]
REMARK SMILES IDX 1 1 2 2 3 3 4 4
REMARK H PARENT
REMARK Flexibility Score: inf
ROOT
ATOM      1  C   UNL     1      25.995  43.753  46.750  1.00  0.00     0.063 C 
ATOM      2  C   UNL     1      26.823  42.972  45.786  1.00  0.00     0.038 C 
ATOM      3  O   UNL     1      26.840  41.714  45.841  1.00  0.00    -0.550 OA
ATOM      4  O   UNL     1      27.536  43.628  44.790  1.00  0.00    -0.550 OA
ENDROOT
TORSDOF 0
ENDMDL
MODEL 9
REMARK VINA RESULT:    -1.984     20.107     20.495
REMARK INTER + INTRA:          -1.984
REMARK INTER:                  -1.984
REMARK INTRA:                   0.000
REMARK UNBOUND:                 0.000
REMARK SMILES CC(=O)[O-]
REMARK SMILES IDX 1 1 2 2 3 3 4 4
REMARK H PARENT
REMARK Flexibility Score: inf
ROOT
ATOM      1  C   UNL     1      29.483  41.896  64.125  1.00  0.00     0.063 C 
ATOM      2  C   UNL     1      30.181  42.899  63.271  1.00  0.00     0.038 C 
ATOM      3  O   UNL     1      29.899  44.122  63.374  1.00  0.00    -0.550 OA
ATOM      4  O   UNL     1      31.183  42.494  62.399  1.00  0.00    -0.550 OA
ENDROOT
TORSDOF 0
ENDMDL
