MODEL 1
REMARK VINA RESULT:    -3.785      0.000      0.000
REMARK INTER + INTRA:          -4.649
REMARK INTER:                  -4.559
REMARK INTRA:                  -0.090
REMARK UNBOUND:                -0.090
REMARK SMILES CC[C@H](C)[C@H]([NH3+])C(=O)[O-]
REMARK SMILES IDX 3 1 4 2 5 3 6 4 7 8 8 9 9 10 2 11 1 12
REMARK H PARENT 6 5 6 6 6 7
REMARK Flexibility Score: inf
ROOT
ATOM      1  C   UNL     1      19.294  31.113  43.930  1.00  0.00     0.050 C 
ATOM      2  C   UNL     1      18.850  32.538  43.547  1.00  0.00     0.014 C 
ENDROOT
BRANCH   1   3
ATOM      3  C   UNL     1      19.600  30.251  42.664  1.00  0.00     0.230 C 
BRANCH   3   4
ATOM      4  N   UNL     1      18.472  29.378  42.310  1.00  0.00    -0.350 N 
ATOM      5  H   UNL     1      17.570  29.801  42.626  1.00  0.00     0.345 HD
ATOM      6  H   UNL     1      18.585  28.432  42.743  1.00  0.00     0.345 HD
ATOM      7  H   UNL     1      18.413  29.269  41.270  1.00  0.00     0.345 HD
ENDBRANCH   3   4
BRANCH   3   8
ATOM      8  C   UNL     1      20.832  29.407  42.883  1.00  0.00     0.099 C 
ATOM      9  O   UNL     1      21.927  29.734  42.352  1.00  0.00    -0.544 OA
ATOM     10  O   UNL     1      20.770  28.268  43.677  1.00  0.00    -0.544 OA
ENDBRANCH   3   8
ENDBRANCH   1   3
BRANCH   1  11
ATOM     11  C   UNL     1      18.273  30.463  44.901  1.00  0.00     0.006 C 
ATOM     12  C   UNL     1      16.990  31.272  45.111  1.00  0.00     0.004 C 
ENDBRANCH   1  11
TORSDOF 4
ENDMDL
MODEL 2
REMARK VINA RESULT:    -3.645      1.701      2.395
REMARK INTER + INTRA:          -4.480
REMARK INTER:                  -4.442
REMARK INTRA:                  -0.038
REMARK UNBOUND:                -0.090
REMARK SMILES CC[C@H](C)[C@H]([NH3+])C(=O)[O-]
REMARK SMILES IDX 3 1 4 2 5 3 6 4 7 8 8 9 9 10 2 11 1 12
REMARK H PARENT 6 5 6 6 6 7
REMARK Flexibility Score: inf
ROOT
ATOM      1  C   UNL     1      18.014  30.096  44.079  1.00  0.00     0.050 C 
ATOM      2  C   UNL     1      17.158  31.223  44.689  1.00  0.00     0.014 C 
ENDROOT
BRANCH   1   3
ATOM      3  C   UNL     1      19.525  30.275  44.427  1.00  0.00     0.230 C 
BRANCH   3   4
ATOM      4  N   UNL     1      19.928  31.689  44.409  1.00  0.00    -0.350 N 
ATOM      5  H   UNL     1      20.017  32.055  45.383  1.00  0.00     0.345 HD
ATOM      6  H   UNL     1      19.233  32.265  43.880  1.00  0.00     0.345 HD
ATOM      7  H   UNL     1      20.867  31.790  43.956  1.00  0.00     0.345 HD
ENDBRANCH   3   4
BRANCH   3   8
ATOM      8  C   UNL     1      20.387  29.500  43.459  1.00  0.00     0.099 C 
ATOM      9  O   UNL     1      20.597  28.272  43.642  1.00  0.00    -0.544 OA
ATOM     10  O   UNL     1      20.947  30.135  42.357  1.00  0.00    -0.544 OA
ENDBRANCH   3   8
ENDBRANCH   1   3
BRANCH   1  11
ATOM     11  C   UNL     1      17.731  29.955  42.560  1.00  0.00     0.006 C 
ATOM     12  C   UNL     1      17.325  31.257  41.864  1.00  0.00     0.004 C 
ENDBRANCH   1  11
TORSDOF 4
ENDMDL
MODEL 3
REMARK VINA RESULT:    -3.642      1.295      1.487
REMARK INTER + INTRA:          -4.476
REMARK INTER:                  -4.349
REMARK INTRA:                  -0.128
REMARK UNBOUND:                -0.090
REMARK SMILES CC[C@H](C)[C@H]([NH3+])C(=O)[O-]
REMARK SMILES IDX 3 1 4 2 5 3 6 4 7 8 8 9 9 10 2 11 1 12
REMARK H PARENT 6 5 6 6 6 7
REMARK Flexibility Score: inf
ROOT
ATOM      1  C   UNL     1      18.457  31.834  42.763  1.00  0.00     0.050 C 
ATOM      2  C   UNL     1      16.973  31.958  42.365  1.00  0.00     0.014 C 
ENDROOT
BRANCH   1   3
ATOM      3  C   UNL     1      19.186  30.742  41.916  1.00  0.00     0.230 C 
BRANCH   3   4
ATOM      4  N   UNL     1      18.607  29.408  42.128  1.00  0.00    -0.350 N 
ATOM      5  H   UNL     1      18.466  28.921  41.214  1.00  0.00     0.345 HD
ATOM      6  H   UNL     1      17.693  29.476  42.632  1.00  0.00     0.345 HD
ATOM      7  H   UNL     1      19.262  28.817  42.693  1.00  0.00     0.345 HD
ENDBRANCH   3   4
BRANCH   3   8
ATOM      8  C   UNL     1      20.656  30.706  42.252  1.00  0.00     0.099 C 
ATOM      9  O   UNL     1      21.380  31.715  42.040  1.00  0.00    -0.544 OA
ATOM     10  O   UNL     1      21.221  29.562  42.804  1.00  0.00    -0.544 OA
ENDBRANCH   3   8
ENDBRANCH   1   3
BRANCH   1  11
ATOM     11  C   UNL     1      18.598  31.638  44.295  1.00  0.00     0.006 C 
ATOM     12  C   UNL     1      17.304  31.237  45.009  1.00  0.00     0.004 C 
ENDBRANCH   1  11
TORSDOF 4
ENDMDL
MODEL 4
REMARK VINA RESULT:    -3.612      2.169      2.415
REMARK INTER + INTRA:          -4.441
REMARK INTER:                  -4.416
REMARK INTRA:                  -0.025
REMARK UNBOUND:                -0.090
REMARK SMILES CC[C@H](C)[C@H]([NH3+])C(=O)[O-]
REMARK SMILES IDX 3 1 4 2 5 3 6 4 7 8 8 9 9 10 2 11 1 12
REMARK H PARENT 6 5 6 6 6 7
REMARK Flexibility Score: inf
ROOT
ATOM      1  C   UNL     1      19.736  31.108  43.661  1.00  0.00     0.050 C 
ATOM      2  C   UNL     1      20.504  31.929  42.608  1.00  0.00     0.014 C 
ENDROOT
BRANCH   1   3
ATOM      3  C   UNL     1      19.184  29.778  43.057  1.00  0.00     0.230 C 
BRANCH   3   4
ATOM      4  N   UNL     1      20.215  28.732  42.999  1.00  0.00    -0.350 N 
ATOM      5  H   UNL     1      19.873  27.913  42.449  1.00  0.00     0.345 HD
ATOM      6  H   UNL     1      20.481  28.421  43.962  1.00  0.00     0.345 HD
ATOM      7  H   UNL     1      21.068  29.095  42.513  1.00  0.00     0.345 HD
ENDBRANCH   3   4
BRANCH   3   8
ATOM      8  C   UNL     1      18.636  30.014  41.670  1.00  0.00     0.099 C 
ATOM      9  O   UNL     1      17.565  30.659  41.512  1.00  0.00    -0.544 OA
ATOM     10  O   UNL     1      19.313  29.528  40.558  1.00  0.00    -0.544 OA
ENDBRANCH   3   8
ENDBRANCH   1   3
BRANCH   1  11
ATOM     11  C   UNL     1      18.655  31.980  44.353  1.00  0.00     0.006 C 
ATOM     12  C   UNL     1      17.535  31.186  45.033  1.00  0.00     0.004 C 
ENDBRANCH   1  11
TORSDOF 4
ENDMDL
MODEL 5
REMARK VINA RESULT:    -3.541      2.373      2.796
REMARK INTER + INTRA:          -4.355
REMARK INTER:                  -4.248
REMARK INTRA:                  -0.107
REMARK UNBOUND:                -0.090
REMARK SMILES CC[C@H](C)[C@H]([NH3+])C(=O)[O-]
REMARK SMILES IDX 3 1 4 2 5 3 6 4 7 8 8 9 9 10 2 11 1 12
REMARK H PARENT 6 5 6 6 6 7
REMARK Flexibility Score: inf
ROOT
ATOM      1  C   UNL     1      19.193  30.346  43.597  1.00  0.00     0.050 C 
ATOM      2  C   UNL     1      20.124  29.411  44.393  1.00  0.00     0.014 C 
ENDROOT
BRANCH   1   3
ATOM      3  C   UNL     1      19.880  30.859  42.292  1.00  0.00     0.230 C 
BRANCH   3   4
ATOM      4  N   UNL     1      20.160  32.301  42.351  1.00  0.00    -0.350 N 
ATOM      5  H   UNL     1      20.102  32.723  41.396  1.00  0.00     0.345 HD
ATOM      6  H   UNL     1      21.110  32.477  42.754  1.00  0.00     0.345 HD
ATOM      7  H   UNL     1      19.445  32.782  42.944  1.00  0.00     0.345 HD
ENDBRANCH   3   4
BRANCH   3   8
ATOM      8  C   UNL     1      19.015  30.569  41.090  1.00  0.00     0.099 C 
ATOM      9  O   UNL     1      17.925  31.179  40.930  1.00  0.00    -0.544 OA
ATOM     10  O   UNL     1      19.420  29.632  40.146  1.00  0.00    -0.544 OA
ENDBRANCH   3   8
ENDBRANCH   1   3
BRANCH   1  11
ATOM     11  C   UNL     1      18.647  31.478  44.507  1.00  0.00     0.006 C 
ATOM     12  C   UNL     1      17.172  31.331  44.891  1.00  0.00     0.004 C 
ENDBRANCH   1  11
TORSDOF 4
ENDMDL
MODEL 6
REMARK VINA RESULT:    -3.535      1.710      1.752
REMARK INTER + INTRA:          -4.348
REMARK INTER:                  -4.388
REMARK INTRA:                   0.041
REMARK UNBOUND:                -0.090
REMARK SMILES CC[C@H](C)[C@H]([NH3+])C(=O)[O-]
REMARK SMILES IDX 3 1 4 2 5 3 6 4 7 8 8 9 9 10 2 11 1 12
REMARK H PARENT 6 5 6 6 6 7
REMARK Flexibility Score: inf
ROOT
ATOM      1  C   UNL     1      19.038  32.041  43.539  1.00  0.00     0.050 C 
ATOM      2  C   UNL     1      17.893  32.269  42.533  1.00  0.00     0.014 C 
ENDROOT
BRANCH   1   3
ATOM      3  C   UNL     1      20.326  31.517  42.828  1.00  0.00     0.230 C 
BRANCH   3   4
ATOM      4  N   UNL     1      20.597  32.245  41.579  1.00  0.00    -0.350 N 
ATOM      5  H   UNL     1      19.939  33.050  41.476  1.00  0.00     0.345 HD
ATOM      6  H   UNL     1      20.505  31.609  40.753  1.00  0.00     0.345 HD
ATOM      7  H   UNL     1      21.567  32.640  41.597  1.00  0.00     0.345 HD
ENDBRANCH   3   4
BRANCH   3   8
ATOM      8  C   UNL     1      20.202  30.043  42.528  1.00  0.00     0.099 C 
ATOM      9  O   UNL     1      19.459  29.647  41.591  1.00  0.00    -0.544 OA
ATOM     10  O   UNL     1      20.914  29.114  43.277  1.00  0.00    -0.544 OA
ENDBRANCH   3   8
ENDBRANCH   1   3
BRANCH   1  11
ATOM     11  C   UNL     1      18.563  31.150  44.716  1.00  0.00     0.006 C 
ATOM     12  C   UNL     1      17.063  31.233  45.013  1.00  0.00     0.004 C 
ENDBRANCH   1  11
TORSDOF 4
ENDMDL
MODEL 7
REMARK VINA RESULT:    -3.515      2.831      3.524
REMARK INTER + INTRA:          -4.324
REMARK INTER:                  -4.321
REMARK INTRA:                  -0.004
REMARK UNBOUND:                -0.090
REMARK SMILES CC[C@H](C)[C@H]([NH3+])C(=O)[O-]
REMARK SMILES IDX 3 1 4 2 5 3 6 4 7 8 8 9 9 10 2 11 1 12
REMARK H PARENT 6 5 6 6 6 7
REMARK Flexibility Score: inf
ROOT
ATOM      1  C   UNL     1      19.433  31.198  44.075  1.00  0.00     0.050 C 
ATOM      2  C   UNL     1      18.179  31.559  44.895  1.00  0.00     0.014 C 
ENDROOT
BRANCH   1   3
ATOM      3  C   UNL     1      19.203  31.431  42.548  1.00  0.00     0.230 C 
BRANCH   3   4
ATOM      4  N   UNL     1      19.592  32.788  42.136  1.00  0.00    -0.350 N 
ATOM      5  H   UNL     1      20.618  32.832  41.947  1.00  0.00     0.345 HD
ATOM      6  H   UNL     1      19.342  33.485  42.876  1.00  0.00     0.345 HD
ATOM      7  H   UNL     1      19.103  33.048  41.247  1.00  0.00     0.345 HD
ENDBRANCH   3   4
BRANCH   3   8
ATOM      8  C   UNL     1      17.755  31.198  42.189  1.00  0.00     0.099 C 
ATOM      9  O   UNL     1      17.282  30.031  42.191  1.00  0.00    -0.544 OA
ATOM     10  O   UNL     1      16.934  32.270  41.860  1.00  0.00    -0.544 OA
ENDBRANCH   3   8
ENDBRANCH   1   3
BRANCH   1  11
ATOM     11  C   UNL     1      19.922  29.768  44.425  1.00  0.00     0.006 C 
ATOM     12  C   UNL     1      20.660  29.051  43.289  1.00  0.00     0.004 C 
ENDBRANCH   1  11
TORSDOF 4
ENDMDL
MODEL 8
REMARK VINA RESULT:    -3.450      2.795      3.755
REMARK INTER + INTRA:          -4.245
REMARK INTER:                  -4.207
REMARK INTRA:                  -0.038
REMARK UNBOUND:                -0.090
REMARK SMILES CC[C@H](C)[C@H]([NH3+])C(=O)[O-]
REMARK SMILES IDX 3 1 4 2 5 3 6 4 7 8 8 9 9 10 2 11 1 12
REMARK H PARENT 6 5 6 6 6 7
REMARK Flexibility Score: inf
ROOT
ATOM      1  C   UNL     1      19.704  31.232  43.991  1.00  0.00     0.050 C 
ATOM      2  C   UNL     1      19.940  29.750  44.340  1.00  0.00     0.014 C 
ENDROOT
BRANCH   1   3
ATOM      3  C   UNL     1      18.189  31.603  44.076  1.00  0.00     0.230 C 
BRANCH   3   4
ATOM      4  N   UNL     1      17.496  30.842  45.125  1.00  0.00    -0.350 N 
ATOM      5  H   UNL     1      17.360  29.850  44.827  1.00  0.00     0.345 HD
ATOM      6  H   UNL     1      16.567  31.272  45.342  1.00  0.00     0.345 HD
ATOM      7  H   UNL     1      18.074  30.824  45.998  1.00  0.00     0.345 HD
ENDBRANCH   3   4
BRANCH   3   8
ATOM      8  C   UNL     1      17.509  31.357  42.751  1.00  0.00     0.099 C 
ATOM      9  O   UNL     1      17.102  32.327  42.057  1.00  0.00    -0.544 OA
ATOM     10  O   UNL     1      17.334  30.060  42.283  1.00  0.00    -0.544 OA
ENDBRANCH   3   8
ENDBRANCH   1   3
BRANCH   1  11
ATOM     11  C   UNL     1      20.363  31.587  42.633  1.00  0.00     0.006 C 
ATOM     12  C   UNL     1      21.117  30.430  41.969  1.00  0.00     0.004 C 
ENDBRANCH   1  11
TORSDOF 4
ENDMDL
MODEL 9
REMARK VINA RESULT:    -3.367     21.668     22.606
REMARK INTER + INTRA:          -4.146
REMARK INTER:                  -4.019
REMARK INTRA:                  -0.127
REMARK UNBOUND:                -0.090
REMARK SMILES CC[C@H](C)[C@H]([NH3+])C(=O)[O-]
REMARK SMILES IDX 3 1 4 2 5 3 6 4 7 8 8 9 9 10 2 11 1 12
REMARK H PARENT 6 5 6 6 6 7
REMARK Flexibility Score: inf
ROOT
ATOM      1  C   UNL     1      16.700  44.113  27.033  1.00  0.00     0.050 C 
ATOM      2  C   UNL     1      15.290  43.910  27.621  1.00  0.00     0.014 C 
ENDROOT
BRANCH   1   3
ATOM      3  C   UNL     1      17.382  45.393  27.612  1.00  0.00     0.230 C 
BRANCH   3   4
ATOM      4  N   UNL     1      16.567  46.596  27.390  1.00  0.00    -0.350 N 
ATOM      5  H   UNL     1      15.820  46.671  28.117  1.00  0.00     0.345 HD
ATOM      6  H   UNL     1      16.129  46.576  26.440  1.00  0.00     0.345 HD
ATOM      7  H   UNL     1      17.162  47.454  27.471  1.00  0.00     0.345 HD
ENDBRANCH   3   4
BRANCH   3   8
ATOM      8  C   UNL     1      18.744  45.593  26.995  1.00  0.00     0.099 C 
ATOM      9  O   UNL     1      18.992  46.635  26.331  1.00  0.00    -0.544 OA
ATOM     10  O   UNL     1      19.736  44.634  27.160  1.00  0.00    -0.544 OA
ENDBRANCH   3   8
ENDBRANCH   1   3
BRANCH   1  11
ATOM     11  C   UNL     1      16.657  44.071  25.483  1.00  0.00     0.006 C 
ATOM     12  C   UNL     1      15.273  44.322  24.876  1.00  0.00     0.004 C 
ENDBRANCH   1  11
TORSDOF 4
ENDMDL
