MODEL 1
REMARK VINA RESULT:    19.539      0.000      0.000
REMARK INTER + INTRA:          32.768
REMARK INTER:                  30.962
REMARK INTRA:                   1.806
REMARK UNBOUND:                 1.806
REMARK SMILES C[C@H]1O[C@H](O[C@H]2[C@H](Oc3cc(O)c4c(c3)O[C@H](c3ccc(O)cc3)CC4=O)O[C@@H](CO)[C@@H](O)[C@@H]2O)[C@@H](O)[C@H](O)[C@H]1O
REMARK SMILES IDX 6 1 34 2 32 3 29 4 28 5 7 6 5 7 4 8 1 9 2 10 40 11 3 12
REMARK SMILES IDX 38 13 36 14 41 15 39 17 37 19 35 21 8 23 9 24 10 25 15 26
REMARK SMILES IDX 11 27 14 28 13 29 16 30 26 31 17 32 27 33 25 34 12 35 18 37
REMARK SMILES IDX 19 38 24 39 20 40 23 41 21 42 22 43 33 45 30 47 31 48
REMARK H PARENT 41 16 39 18 37 20 35 22 12 36 22 44 33 46 31 49
REMARK Flexibility Score: inf
ROOT
ATOM      1  C   UNL     1      -5.951 -13.198  51.602  1.00  0.00     0.221 C 
ATOM      2  C   UNL     1      -7.391 -13.090  52.183  1.00  0.00     0.181 C 
ATOM      3  C   UNL     1      -7.362 -13.170  53.715  1.00  0.00     0.177 C 
ATOM      4  C   UNL     1      -6.642 -14.475  54.189  1.00  0.00     0.179 C 
ATOM      5  O   UNL     1      -5.877 -15.125  53.175  1.00  0.00    -0.332 OA
ATOM      6  C   UNL     1      -5.098 -14.247  52.384  1.00  0.00     0.339 C 
ENDROOT
BRANCH   1   7
ATOM      7  O   UNL     1      -5.345 -11.919  51.714  1.00  0.00    -0.337 OA
BRANCH   7   8
ATOM      8  C   UNL     1      -5.212 -11.233  50.476  1.00  0.00     0.282 C 
ATOM      9  C   UNL     1      -3.039 -10.176  48.742  1.00  0.00     0.041 C 
ATOM     10  C   UNL     1      -4.093 -11.252  48.414  1.00  0.00     0.150 C 
ATOM     11  C   UNL     1      -5.333 -10.761  47.604  1.00  0.00     0.174 C 
ATOM     12  O   UNL     1      -4.453 -12.014  49.560  1.00  0.00    -0.344 OA
ATOM     13  C   UNL     1      -6.686 -10.880  48.359  1.00  0.00     0.179 C 
ATOM     14  C   UNL     1      -6.589 -10.796  49.912  1.00  0.00     0.202 C 
BRANCH  11  15
ATOM     15  O   UNL     1      -5.159  -9.453  47.124  1.00  0.00    -0.388 OA
ATOM     16  H   UNL     1      -4.705  -9.520  46.235  1.00  0.00     0.211 HD
ENDBRANCH  11  15
BRANCH  13  17
ATOM     17  O   UNL     1      -7.297 -12.093  47.986  1.00  0.00    -0.387 OA
ATOM     18  H   UNL     1      -6.592 -12.788  48.005  1.00  0.00     0.211 HD
ENDBRANCH  13  17
BRANCH  14  19
ATOM     19  O   UNL     1      -6.949  -9.528  50.386  1.00  0.00    -0.385 OA
ATOM     20  H   UNL     1      -7.225  -8.983  49.612  1.00  0.00     0.211 HD
ENDBRANCH  14  19
ENDBRANCH   7   8
ENDBRANCH   1   7
BRANCH   2  21
ATOM     21  O   UNL     1      -8.271 -14.042  51.642  1.00  0.00    -0.387 OA
ATOM     22  H   UNL     1      -7.991 -14.273  50.724  1.00  0.00     0.211 HD
ENDBRANCH   2  21
BRANCH   6  23
ATOM     23  O   UNL     1      -4.329 -15.031  51.465  1.00  0.00    -0.462 OA
BRANCH  23  24
ATOM     24  C   UNL     1      -4.418 -14.908  50.066  1.00  0.00     0.130 A 
ATOM     25  C   UNL     1      -5.644 -14.709  49.407  1.00  0.00     0.093 A 
ATOM     26  C   UNL     1      -3.233 -14.941  49.307  1.00  0.00     0.094 A 
ATOM     27  C   UNL     1      -5.674 -14.356  48.053  1.00  0.00     0.133 A 
ATOM     28  C   UNL     1      -3.268 -14.769  47.927  1.00  0.00     0.138 A 
ATOM     29  C   UNL     1      -4.497 -14.497  47.276  1.00  0.00     0.102 A 
ATOM     30  O   UNL     1      -2.069 -14.886  47.208  1.00  0.00    -0.484 OA
ATOM     31  C   UNL     1      -4.493 -14.568  45.786  1.00  0.00     0.174 C 
ATOM     32  C   UNL     1      -1.975 -14.697  45.790  1.00  0.00     0.211 C 
ATOM     33  O   UNL     1      -5.517 -14.306  45.093  1.00  0.00    -0.294 OA
ATOM     34  C   UNL     1      -3.280 -15.124  45.093  1.00  0.00     0.131 C 
BRANCH  27  35
ATOM     35  O   UNL     1      -6.891 -13.882  47.541  1.00  0.00    -0.507 OA
ATOM     36  H   UNL     1      -7.651 -14.482  47.273  1.00  0.00     0.293 HD
ENDBRANCH  27  35
BRANCH  32  37
ATOM     37  C   UNL     1      -1.518 -13.273  45.498  1.00  0.00    -0.007 A 
ATOM     38  C   UNL     1      -2.515 -12.331  45.177  1.00  0.00     0.011 A 
ATOM     39  C   UNL     1      -0.185 -12.834  45.623  1.00  0.00     0.011 A 
ATOM     40  C   UNL     1      -2.190 -10.982  45.007  1.00  0.00     0.046 A 
ATOM     41  C   UNL     1       0.129 -11.477  45.464  1.00  0.00     0.046 A 
ATOM     42  C   UNL     1      -0.869 -10.548  45.168  1.00  0.00     0.115 A 
BRANCH  42  43
ATOM     43  O   UNL     1      -0.572  -9.199  45.022  1.00  0.00    -0.508 OA
ATOM     44  H   UNL     1      -1.283  -8.518  44.771  1.00  0.00     0.293 HD
ENDBRANCH  42  43
ENDBRANCH  32  37
ENDBRANCH  23  24
ENDBRANCH   6  23
BRANCH   3  45
ATOM     45  O   UNL     1      -6.796 -11.983  54.239  1.00  0.00    -0.387 OA
ATOM     46  H   UNL     1      -5.805 -12.055  54.199  1.00  0.00     0.211 HD
ENDBRANCH   3  45
BRANCH   4  47
ATOM     47  C   UNL     1      -5.852 -14.339  55.518  1.00  0.00     0.191 C 
BRANCH  47  48
ATOM     48  O   UNL     1      -6.453 -15.109  56.520  1.00  0.00    -0.394 OA
ATOM     49  H   UNL     1      -6.899 -14.468  57.142  1.00  0.00     0.210 HD
ENDBRANCH  47  48
ENDBRANCH   4  47
TORSDOF 14
ENDMDL
