MODEL 1
REMARK VINA RESULT:    -4.018      0.000      0.000
REMARK INTER + INTRA:          -5.293
REMARK INTER:                  -5.662
REMARK INTRA:                   0.369
REMARK UNBOUND:                 0.369
REMARK SMILES CC1=CCC(=C(C)C)C(=O)CC(C)=CCC1
REMARK SMILES IDX 12 1 14 2 13 3 15 4 16 5 2 6 1 7 3 8 11 10 9 11 10 12 5 13
REMARK SMILES IDX 6 14 7 15 8 16 4 17
REMARK H PARENT
REMARK Flexibility Score: 60.00
ROOT
ATOM      1  C   UNL     1      21.313 206.943  13.825  1.00  0.00    -0.070 C 
ATOM      2  C   UNL     1      21.493 208.071  14.547  1.00  0.00    -0.027 C 
ATOM      3  C   UNL     1      22.513 206.064  13.578  1.00  0.00     0.039 C 
ENDROOT
BRANCH   2   4
ATOM      4  C   UNL     1      20.440 209.123  14.817  1.00  0.00     0.032 C 
BRANCH   4   5
ATOM      5  C   UNL     1      19.570 208.865  16.066  1.00  0.00     0.034 C 
BRANCH   5   6
ATOM      6  C   UNL     1      20.231 207.940  17.072  1.00  0.00    -0.077 C 
ATOM      7  C   UNL     1      21.254 208.536  18.005  1.00  0.00     0.039 C 
ATOM      8  C   UNL     1      20.012 206.604  17.141  1.00  0.00    -0.023 CG0
ATOM      9  G   UNL     1      19.024 205.796  16.324  1.00  0.00     0.000 G0
ENDBRANCH   5   6
ENDBRANCH   4   5
ENDBRANCH   2   4
BRANCH   1  10
ATOM     10  C   UNL     1      19.994 206.571  13.177  1.00  0.00     0.111 C 
BRANCH  10  11
ATOM     11  C   UNL     1      19.385 205.352  13.817  1.00  0.00     0.163 C 
ATOM     12  O   UNL     1      18.563 204.676  13.143  1.00  0.00    -0.294 OA
BRANCH  11  13
ATOM     13  C   UNL     1      19.673 204.959  15.229  1.00  0.00    -0.002 C 
ATOM     14  C   UNL     1      20.421 203.850  15.508  1.00  0.00    -0.069 C 
ATOM     15  C   UNL     1      21.113 203.075  14.408  1.00  0.00     0.039 C 
ATOM     16  C   UNL     1      20.598 203.338  16.920  1.00  0.00     0.039 C 
BRANCH  13  17
ATOM     17  C   UNL     1      19.022 205.786  16.327  1.00  0.00     0.066 CG0
ATOM     18  G   UNL     1      20.033 206.587  17.121  1.00  0.00     0.000 G0
ENDBRANCH  13  17
ENDBRANCH  11  13
ENDBRANCH  10  11
ENDBRANCH   1  10
TORSDOF 0
ENDMDL
MODEL 2
REMARK VINA RESULT:    -3.950      1.940      4.575
REMARK INTER + INTRA:          -5.198
REMARK INTER:                  -5.744
REMARK INTRA:                   0.547
REMARK UNBOUND:                 0.369
REMARK SMILES CC1=CCC(=C(C)C)C(=O)CC(C)=CCC1
REMARK SMILES IDX 12 1 14 2 13 3 15 4 16 5 2 6 1 7 3 8 11 10 9 11 10 12 5 13
REMARK SMILES IDX 6 14 7 15 8 16 4 17
REMARK H PARENT
REMARK Flexibility Score: 60.00
ROOT
ATOM      1  C   UNL     1      20.156 207.072  16.492  1.00  0.00    -0.070 C 
ATOM      2  C   UNL     1      19.311 206.104  16.911  1.00  0.00    -0.027 C 
ATOM      3  C   UNL     1      19.671 208.499  16.535  1.00  0.00     0.039 C 
ENDROOT
BRANCH   2   4
ATOM      4  C   UNL     1      19.575 204.615  16.854  1.00  0.00     0.032 C 
BRANCH   4   5
ATOM      5  C   UNL     1      18.569 203.810  16.005  1.00  0.00     0.034 C 
BRANCH   5   6
ATOM      6  C   UNL     1      19.137 203.365  14.669  1.00  0.00    -0.077 C 
ATOM      7  C   UNL     1      19.515 201.913  14.517  1.00  0.00     0.039 C 
ATOM      8  C   UNL     1      19.389 204.199  13.630  1.00  0.00    -0.023 CG0
ATOM      9  G   UNL     1      19.077 205.679  13.548  1.00  0.00     0.000 G0
ENDBRANCH   5   6
ENDBRANCH   4   5
ENDBRANCH   2   4
BRANCH   1  10
ATOM     10  C   UNL     1      21.520 206.784  15.897  1.00  0.00     0.111 C 
BRANCH  10  11
ATOM     11  C   UNL     1      21.410 206.165  14.529  1.00  0.00     0.163 C 
ATOM     12  O   UNL     1      22.292 205.335  14.181  1.00  0.00    -0.294 OA
BRANCH  11  13
ATOM     13  C   UNL     1      20.339 206.546  13.560  1.00  0.00    -0.002 C 
ATOM     14  C   UNL     1      20.455 207.675  12.799  1.00  0.00    -0.069 C 
ATOM     15  C   UNL     1      21.730 208.489  12.791  1.00  0.00     0.039 C 
ATOM     16  C   UNL     1      19.322 208.172  11.927  1.00  0.00     0.039 C 
BRANCH  13  17
ATOM     17  C   UNL     1      19.088 205.683  13.532  1.00  0.00     0.066 CG0
ATOM     18  G   UNL     1      19.405 204.205  13.640  1.00  0.00     0.000 G0
ENDBRANCH  13  17
ENDBRANCH  11  13
ENDBRANCH  10  11
ENDBRANCH   1  10
TORSDOF 0
ENDMDL
MODEL 3
REMARK VINA RESULT:    -3.871      2.058      4.365
REMARK INTER + INTRA:          -5.087
REMARK INTER:                  -5.601
REMARK INTRA:                   0.514
REMARK UNBOUND:                 0.369
REMARK SMILES CC1=CCC(=C(C)C)C(=O)CC(C)=CCC1
REMARK SMILES IDX 12 1 14 2 13 3 15 4 16 5 2 6 1 7 3 8 11 10 9 11 10 12 5 13
REMARK SMILES IDX 6 14 7 15 8 16 4 17
REMARK H PARENT
REMARK Flexibility Score: 60.00
ROOT
ATOM      1  C   UNL     1      22.033 205.948  15.575  1.00  0.00    -0.070 C 
ATOM      2  C   UNL     1      21.957 204.628  15.854  1.00  0.00    -0.027 C 
ATOM      3  C   UNL     1      22.279 206.899  16.719  1.00  0.00     0.039 C 
ENDROOT
BRANCH   2   4
ATOM      4  C   UNL     1      21.622 203.533  14.865  1.00  0.00     0.032 C 
BRANCH   4   5
ATOM      5  C   UNL     1      20.249 202.862  15.080  1.00  0.00     0.034 C 
BRANCH   5   6
ATOM      6  C   UNL     1      19.167 203.839  15.505  1.00  0.00    -0.077 C 
ATOM      7  C   UNL     1      18.653 203.744  16.918  1.00  0.00     0.039 C 
ATOM      8  C   UNL     1      18.587 204.744  14.678  1.00  0.00    -0.023 CG0
ATOM      9  G   UNL     1      18.950 205.030  13.235  1.00  0.00     0.000 G0
ENDBRANCH   5   6
ENDBRANCH   4   5
ENDBRANCH   2   4
BRANCH   1  10
ATOM     10  C   UNL     1      21.790 206.520  14.192  1.00  0.00     0.111 C 
BRANCH  10  11
ATOM     11  C   UNL     1      20.375 207.009  14.035  1.00  0.00     0.163 C 
ATOM     12  O   UNL     1      19.960 207.892  14.833  1.00  0.00    -0.294 OA
BRANCH  11  13
ATOM     13  C   UNL     1      19.439 206.443  13.018  1.00  0.00    -0.002 C 
ATOM     14  C   UNL     1      18.993 207.207  11.976  1.00  0.00    -0.069 C 
ATOM     15  C   UNL     1      19.548 208.592  11.726  1.00  0.00     0.039 C 
ATOM     16  C   UNL     1      17.927 206.716  11.022  1.00  0.00     0.039 C 
BRANCH  13  17
ATOM     17  C   UNL     1      18.937 205.026  13.247  1.00  0.00     0.066 CG0
ATOM     18  G   UNL     1      18.583 204.768  14.698  1.00  0.00     0.000 G0
ENDBRANCH  13  17
ENDBRANCH  11  13
ENDBRANCH  10  11
ENDBRANCH   1  10
TORSDOF 0
ENDMDL
MODEL 4
REMARK VINA RESULT:    -3.776      2.054      3.543
REMARK INTER + INTRA:          -4.952
REMARK INTER:                  -5.727
REMARK INTRA:                   0.776
REMARK UNBOUND:                 0.369
REMARK SMILES CC1=CCC(=C(C)C)C(=O)CC(C)=CCC1
REMARK SMILES IDX 12 1 14 2 13 3 15 4 16 5 2 6 1 7 3 8 11 10 9 11 10 12 5 13
REMARK SMILES IDX 6 14 7 15 8 16 4 17
REMARK H PARENT
REMARK Flexibility Score: 60.00
ROOT
ATOM      1  C   UNL     1      21.969 207.971  16.518  1.00  0.00    -0.070 C 
ATOM      2  C   UNL     1      22.459 208.438  15.348  1.00  0.00    -0.027 C 
ATOM      3  C   UNL     1      21.775 208.953  17.645  1.00  0.00     0.039 C 
ENDROOT
BRANCH   2   4
ATOM      4  C   UNL     1      22.813 207.599  14.140  1.00  0.00     0.032 C 
BRANCH   4   5
ATOM      5  C   UNL     1      22.139 208.040  12.824  1.00  0.00     0.034 C 
BRANCH   5   6
ATOM      6  C   UNL     1      20.625 207.943  12.866  1.00  0.00    -0.077 C 
ATOM      7  C   UNL     1      19.833 209.124  12.366  1.00  0.00     0.039 C 
ATOM      8  C   UNL     1      19.940 206.894  13.387  1.00  0.00    -0.023 CG0
ATOM      9  G   UNL     1      20.519 205.601  13.926  1.00  0.00     0.000 G0
ENDBRANCH   5   6
ENDBRANCH   4   5
ENDBRANCH   2   4
BRANCH   1  10
ATOM     10  C   UNL     1      21.697 206.502  16.777  1.00  0.00     0.111 C 
BRANCH  10  11
ATOM     11  C   UNL     1      20.281 206.130  16.426  1.00  0.00     0.163 C 
ATOM     12  O   UNL     1      19.354 206.562  17.162  1.00  0.00    -0.294 OA
BRANCH  11  13
ATOM     13  C   UNL     1      19.949 205.226  15.285  1.00  0.00    -0.002 C 
ATOM     14  C   UNL     1      19.235 204.078  15.487  1.00  0.00    -0.069 C 
ATOM     15  C   UNL     1      18.622 203.764  16.834  1.00  0.00     0.039 C 
ATOM     16  C   UNL     1      19.018 203.066  14.384  1.00  0.00     0.039 C 
BRANCH  13  17
ATOM     17  C   UNL     1      20.519 205.588  13.922  1.00  0.00     0.066 CG0
ATOM     18  G   UNL     1      19.954 206.889  13.389  1.00  0.00     0.000 G0
ENDBRANCH  13  17
ENDBRANCH  11  13
ENDBRANCH  10  11
ENDBRANCH   1  10
TORSDOF 0
ENDMDL
MODEL 5
REMARK VINA RESULT:    -3.627      1.643      4.323
REMARK INTER + INTRA:          -4.742
REMARK INTER:                  -5.503
REMARK INTRA:                   0.761
REMARK UNBOUND:                 0.369
REMARK SMILES CC1=CCC(=C(C)C)C(=O)CC(C)=CCC1
REMARK SMILES IDX 12 1 14 2 13 3 15 4 16 5 2 6 1 7 3 8 11 10 9 11 10 12 5 13
REMARK SMILES IDX 6 14 7 15 8 16 4 17
REMARK H PARENT
REMARK Flexibility Score: 60.00
ROOT
ATOM      1  C   UNL     1      20.065 207.612  16.622  1.00  0.00    -0.070 C 
ATOM      2  C   UNL     1      19.711 206.409  17.126  1.00  0.00    -0.027 C 
ATOM      3  C   UNL     1      20.871 208.535  17.500  1.00  0.00     0.039 C 
ENDROOT
BRANCH   2   4
ATOM      4  C   UNL     1      18.826 205.390  16.441  1.00  0.00     0.032 C 
BRANCH   4   5
ATOM      5  C   UNL     1      19.454 203.990  16.279  1.00  0.00     0.034 C 
BRANCH   5   6
ATOM      6  C   UNL     1      19.897 203.696  14.857  1.00  0.00    -0.077 C 
ATOM      7  C   UNL     1      19.168 202.611  14.105  1.00  0.00     0.039 C 
ATOM      8  C   UNL     1      20.949 204.295  14.244  1.00  0.00    -0.023 CG0
ATOM      9  G   UNL     1      21.810 205.415  14.792  1.00  0.00     0.000 G0
ENDBRANCH   5   6
ENDBRANCH   4   5
ENDBRANCH   2   4
BRANCH   1  10
ATOM     10  C   UNL     1      19.614 208.109  15.263  1.00  0.00     0.111 C 
BRANCH  10  11
ATOM     11  C   UNL     1      20.152 207.249  14.151  1.00  0.00     0.163 C 
ATOM     12  O   UNL     1      19.361 206.902  13.233  1.00  0.00    -0.294 OA
BRANCH  11  13
ATOM     13  C   UNL     1      21.559 206.749  14.132  1.00  0.00    -0.002 C 
ATOM     14  C   UNL     1      22.538 207.439  13.475  1.00  0.00    -0.069 C 
ATOM     15  C   UNL     1      22.271 208.804  12.881  1.00  0.00     0.039 C 
ATOM     16  C   UNL     1      23.934 206.881  13.304  1.00  0.00     0.039 C 
BRANCH  13  17
ATOM     17  C   UNL     1      21.827 205.404  14.789  1.00  0.00     0.066 CG0
ATOM     18  G   UNL     1      20.947 204.304  14.230  1.00  0.00     0.000 G0
ENDBRANCH  13  17
ENDBRANCH  11  13
ENDBRANCH  10  11
ENDBRANCH   1  10
TORSDOF 0
ENDMDL
MODEL 6
REMARK VINA RESULT:    -3.588      1.906      2.499
REMARK INTER + INTRA:          -4.688
REMARK INTER:                  -5.341
REMARK INTRA:                   0.653
REMARK UNBOUND:                 0.369
REMARK SMILES CC1=CCC(=C(C)C)C(=O)CC(C)=CCC1
REMARK SMILES IDX 12 1 14 2 13 3 15 4 16 5 2 6 1 7 3 8 11 10 9 11 10 12 5 13
REMARK SMILES IDX 6 14 7 15 8 16 4 17
REMARK H PARENT
REMARK Flexibility Score: 60.00
ROOT
ATOM      1  C   UNL     1      20.149 207.805  13.076  1.00  0.00    -0.070 C 
ATOM      2  C   UNL     1      21.448 208.176  13.037  1.00  0.00    -0.027 C 
ATOM      3  C   UNL     1      19.103 208.884  12.961  1.00  0.00     0.039 C 
ENDROOT
BRANCH   2   4
ATOM      4  C   UNL     1      22.635 207.258  13.232  1.00  0.00     0.032 C 
BRANCH   4   5
ATOM      5  C   UNL     1      23.448 207.514  14.518  1.00  0.00     0.034 C 
BRANCH   5   6
ATOM      6  C   UNL     1      22.577 207.727  15.743  1.00  0.00    -0.077 C 
ATOM      7  C   UNL     1      22.513 209.116  16.325  1.00  0.00     0.039 C 
ATOM      8  C   UNL     1      21.910 206.737  16.388  1.00  0.00    -0.023 CG0
ATOM      9  G   UNL     1      21.815 205.281  15.979  1.00  0.00     0.000 G0
ENDBRANCH   5   6
ENDBRANCH   4   5
ENDBRANCH   2   4
BRANCH   1  10
ATOM     10  C   UNL     1      19.699 206.379  13.323  1.00  0.00     0.111 C 
BRANCH  10  11
ATOM     11  C   UNL     1      19.647 206.060  14.794  1.00  0.00     0.163 C 
ATOM     12  O   UNL     1      18.956 206.806  15.539  1.00  0.00    -0.294 OA
BRANCH  11  13
ATOM     13  C   UNL     1      20.429 204.942  15.400  1.00  0.00    -0.002 C 
ATOM     14  C   UNL     1      19.892 203.689  15.506  1.00  0.00    -0.069 C 
ATOM     15  C   UNL     1      18.559 203.353  14.875  1.00  0.00     0.039 C 
ATOM     16  C   UNL     1      20.594 202.578  16.254  1.00  0.00     0.039 C 
BRANCH  13  17
ATOM     17  C   UNL     1      21.796 205.280  15.974  1.00  0.00     0.066 CG0
ATOM     18  G   UNL     1      21.906 206.736  16.380  1.00  0.00     0.000 G0
ENDBRANCH  13  17
ENDBRANCH  11  13
ENDBRANCH  10  11
ENDBRANCH   1  10
TORSDOF 0
ENDMDL
MODEL 7
REMARK VINA RESULT:    -3.314      2.183      2.850
REMARK INTER + INTRA:          -4.302
REMARK INTER:                  -4.871
REMARK INTRA:                   0.570
REMARK UNBOUND:                 0.369
REMARK SMILES CC1=CCC(=C(C)C)C(=O)CC(C)=CCC1
REMARK SMILES IDX 12 1 14 2 13 3 15 4 16 5 2 6 1 7 3 8 11 10 9 11 10 12 5 13
REMARK SMILES IDX 6 14 7 15 8 16 4 17
REMARK H PARENT
REMARK Flexibility Score: 60.00
ROOT
ATOM      1  C   UNL     1      19.213 207.385  12.213  1.00  0.00    -0.070 C 
ATOM      2  C   UNL     1      20.099 208.335  11.842  1.00  0.00    -0.027 C 
ATOM      3  C   UNL     1      18.255 206.867  11.169  1.00  0.00     0.039 C 
ENDROOT
BRANCH   2   4
ATOM      4  C   UNL     1      21.070 209.044  12.761  1.00  0.00     0.032 C 
BRANCH   4   5
ATOM      5  C   UNL     1      22.401 208.301  12.996  1.00  0.00     0.034 C 
BRANCH   5   6
ATOM      6  C   UNL     1      22.599 207.872  14.439  1.00  0.00    -0.077 C 
ATOM      7  C   UNL     1      23.078 208.911  15.420  1.00  0.00     0.039 C 
ATOM      8  C   UNL     1      22.439 206.602  14.888  1.00  0.00    -0.023 CG0
ATOM      9  G   UNL     1      21.951 205.406  14.095  1.00  0.00     0.000 G0
ENDBRANCH   5   6
ENDBRANCH   4   5
ENDBRANCH   2   4
BRANCH   1  10
ATOM     10  C   UNL     1      19.075 206.887  13.638  1.00  0.00     0.111 C 
BRANCH  10  11
ATOM     11  C   UNL     1      19.400 205.421  13.748  1.00  0.00     0.163 C 
ATOM     12  O   UNL     1      18.617 204.597  13.204  1.00  0.00    -0.294 OA
BRANCH  11  13
ATOM     13  C   UNL     1      20.572 204.915  14.523  1.00  0.00    -0.002 C 
ATOM     14  C   UNL     1      20.393 204.126  15.625  1.00  0.00    -0.069 C 
ATOM     15  C   UNL     1      19.024 203.608  16.004  1.00  0.00     0.039 C 
ATOM     16  C   UNL     1      21.546 203.729  16.520  1.00  0.00     0.039 C 
BRANCH  13  17
ATOM     17  C   UNL     1      21.949 205.393  14.092  1.00  0.00     0.066 CG0
ATOM     18  G   UNL     1      22.420 206.592  14.891  1.00  0.00     0.000 G0
ENDBRANCH  13  17
ENDBRANCH  11  13
ENDBRANCH  10  11
ENDBRANCH   1  10
TORSDOF 0
ENDMDL
MODEL 8
REMARK VINA RESULT:    -3.296      2.069      3.710
REMARK INTER + INTRA:          -4.277
REMARK INTER:                  -5.044
REMARK INTRA:                   0.767
REMARK UNBOUND:                 0.369
REMARK SMILES CC1=CCC(=C(C)C)C(=O)CC(C)=CCC1
REMARK SMILES IDX 12 1 14 2 13 3 15 4 16 5 2 6 1 7 3 8 11 10 9 11 10 12 5 13
REMARK SMILES IDX 6 14 7 15 8 16 4 17
REMARK H PARENT
REMARK Flexibility Score: 60.00
ROOT
ATOM      1  C   UNL     1      21.578 205.590  15.271  1.00  0.00    -0.070 C 
ATOM      2  C   UNL     1      22.363 206.442  15.967  1.00  0.00    -0.027 C 
ATOM      3  C   UNL     1      21.036 204.381  15.992  1.00  0.00     0.039 C 
ENDROOT
BRANCH   2   4
ATOM      4  C   UNL     1      23.076 207.650  15.399  1.00  0.00     0.032 C 
BRANCH   4   5
ATOM      5  C   UNL     1      22.503 209.011  15.846  1.00  0.00     0.034 C 
BRANCH   5   6
ATOM      6  C   UNL     1      21.003 208.981  16.076  1.00  0.00    -0.077 C 
ATOM      7  C   UNL     1      20.511 209.013  17.500  1.00  0.00     0.039 C 
ATOM      8  C   UNL     1      20.081 208.858  15.088  1.00  0.00    -0.023 CG0
ATOM      9  G   UNL     1      20.338 208.827  13.595  1.00  0.00     0.000 G0
ENDBRANCH   5   6
ENDBRANCH   4   5
ENDBRANCH   2   4
BRANCH   1  10
ATOM     10  C   UNL     1      21.298 205.740  13.789  1.00  0.00     0.111 C 
BRANCH  10  11
ATOM     11  C   UNL     1      19.915 206.279  13.538  1.00  0.00     0.163 C 
ATOM     12  O   UNL     1      18.931 205.544  13.823  1.00  0.00    -0.294 OA
BRANCH  11  13
ATOM     13  C   UNL     1      19.676 207.613  12.912  1.00  0.00    -0.002 C 
ATOM     14  C   UNL     1      18.970 207.723  11.747  1.00  0.00    -0.069 C 
ATOM     15  C   UNL     1      18.274 206.526  11.137  1.00  0.00     0.039 C 
ATOM     16  C   UNL     1      18.845 209.036  11.007  1.00  0.00     0.039 C 
BRANCH  13  17
ATOM     17  C   UNL     1      20.328 208.818  13.572  1.00  0.00     0.066 CG0
ATOM     18  G   UNL     1      20.087 208.857  15.067  1.00  0.00     0.000 G0
ENDBRANCH  13  17
ENDBRANCH  11  13
ENDBRANCH  10  11
ENDBRANCH   1  10
TORSDOF 0
ENDMDL
MODEL 9
REMARK VINA RESULT:    -3.154      1.901      3.032
REMARK INTER + INTRA:          -4.075
REMARK INTER:                  -4.392
REMARK INTRA:                   0.317
REMARK UNBOUND:                 0.369
REMARK SMILES CC1=CCC(=C(C)C)C(=O)CC(C)=CCC1
REMARK SMILES IDX 12 1 14 2 13 3 15 4 16 5 2 6 1 7 3 8 11 10 9 11 10 12 5 13
REMARK SMILES IDX 6 14 7 15 8 16 4 17
REMARK H PARENT
REMARK Flexibility Score: 60.00
ROOT
ATOM      1  C   UNL     1      19.127 206.010  14.036  1.00  0.00    -0.070 C 
ATOM      2  C   UNL     1      19.751 207.132  13.615  1.00  0.00    -0.027 C 
ATOM      3  C   UNL     1      18.646 205.035  12.991  1.00  0.00     0.039 C 
ENDROOT
BRANCH   2   4
ATOM      4  C   UNL     1      20.216 208.268  14.499  1.00  0.00     0.032 C 
BRANCH   4   5
ATOM      5  C   UNL     1      21.601 208.062  15.147  1.00  0.00     0.034 C 
BRANCH   5   6
ATOM      6  C   UNL     1      22.483 207.096  14.375  1.00  0.00    -0.077 C 
ATOM      7  C   UNL     1      23.187 207.617  13.148  1.00  0.00     0.039 C 
ATOM      8  C   UNL     1      22.623 205.781  14.677  1.00  0.00    -0.023 CG0
ATOM      9  G   UNL     1      22.031 205.047  15.863  1.00  0.00     0.000 G0
ENDBRANCH   5   6
ENDBRANCH   4   5
ENDBRANCH   2   4
BRANCH   1  10
ATOM     10  C   UNL     1      18.807 205.733  15.492  1.00  0.00     0.111 C 
BRANCH  10  11
ATOM     11  C   UNL     1      19.523 204.508  15.994  1.00  0.00     0.163 C 
ATOM     12  O   UNL     1      18.964 203.818  16.888  1.00  0.00    -0.294 OA
BRANCH  11  13
ATOM     13  C   UNL     1      20.885 204.123  15.518  1.00  0.00    -0.002 C 
ATOM     14  C   UNL     1      21.088 202.943  14.858  1.00  0.00    -0.069 C 
ATOM     15  C   UNL     1      19.927 202.065  14.447  1.00  0.00     0.039 C 
ATOM     16  C   UNL     1      22.475 202.453  14.503  1.00  0.00     0.039 C 
BRANCH  13  17
ATOM     17  C   UNL     1      22.036 205.048  15.883  1.00  0.00     0.066 CG0
ATOM     18  G   UNL     1      22.604 205.765  14.675  1.00  0.00     0.000 G0
ENDBRANCH  13  17
ENDBRANCH  11  13
ENDBRANCH  10  11
ENDBRANCH   1  10
TORSDOF 0
ENDMDL
