MODEL 1
REMARK VINA RESULT:    -5.290      0.000      0.000
REMARK INTER + INTRA:          -6.733
REMARK INTER:                  -6.527
REMARK INTRA:                  -0.205
REMARK UNBOUND:                -0.205
REMARK SMILES C=CC[C@H](C)C(=O)CC
REMARK SMILES IDX 4 1 5 2 6 3 7 4 8 5 9 6 3 7 2 8 1 9
REMARK H PARENT
REMARK Flexibility Score: inf
ROOT
ATOM      1  C   UNL     1      82.629   3.846  26.836  1.00  0.00     0.057 C 
ATOM      2  C   UNL     1      83.496   4.461  25.733  1.00  0.00     0.016 C 
ENDROOT
BRANCH   1   3
ATOM      3  C   UNL     1      81.561   4.831  27.265  1.00  0.00     0.135 C 
ATOM      4  O   UNL     1      81.307   4.974  28.454  1.00  0.00    -0.299 OA
BRANCH   3   5
ATOM      5  C   UNL     1      80.788   5.630  26.250  1.00  0.00     0.072 C 
ATOM      6  C   UNL     1      80.281   6.934  26.860  1.00  0.00     0.012 C 
ENDBRANCH   3   5
ENDBRANCH   1   3
BRANCH   1   7
ATOM      7  C   UNL     1      83.500   3.413  28.033  1.00  0.00     0.038 C 
BRANCH   7   8
ATOM      8  C   UNL     1      84.948   3.780  27.844  1.00  0.00    -0.034 C 
ATOM      9  C   UNL     1      85.934   3.063  28.390  1.00  0.00     0.004 C 
ENDBRANCH   7   8
ENDBRANCH   1   7
TORSDOF 4
ENDMDL
MODEL 2
REMARK VINA RESULT:    -5.211      1.755      4.032
REMARK INTER + INTRA:          -6.635
REMARK INTER:                  -6.320
REMARK INTRA:                  -0.315
REMARK UNBOUND:                -0.205
REMARK SMILES C=CC[C@H](C)C(=O)CC
REMARK SMILES IDX 4 1 5 2 6 3 7 4 8 5 9 6 3 7 2 8 1 9
REMARK H PARENT
REMARK Flexibility Score: inf
ROOT
ATOM      1  C   UNL     1      82.508   5.646  27.621  1.00  0.00     0.057 C 
ATOM      2  C   UNL     1      83.946   5.263  27.257  1.00  0.00     0.016 C 
ENDROOT
BRANCH   1   3
ATOM      3  C   UNL     1      82.114   4.992  28.930  1.00  0.00     0.135 C 
ATOM      4  O   UNL     1      81.875   5.687  29.909  1.00  0.00    -0.299 OA
BRANCH   3   5
ATOM      5  C   UNL     1      82.027   3.494  29.056  1.00  0.00     0.072 C 
ATOM      6  C   UNL     1      81.195   3.101  30.273  1.00  0.00     0.012 C 
ENDBRANCH   3   5
ENDBRANCH   1   3
BRANCH   1   7
ATOM      7  C   UNL     1      81.539   5.253  26.489  1.00  0.00     0.038 C 
BRANCH   7   8
ATOM      8  C   UNL     1      80.208   5.948  26.613  1.00  0.00    -0.034 C 
ATOM      9  C   UNL     1      80.117   7.257  26.862  1.00  0.00     0.004 C 
ENDBRANCH   7   8
ENDBRANCH   1   7
TORSDOF 4
ENDMDL
MODEL 3
REMARK VINA RESULT:    -5.176      1.739      3.817
REMARK INTER + INTRA:          -6.592
REMARK INTER:                  -6.085
REMARK INTRA:                  -0.507
REMARK UNBOUND:                -0.205
REMARK SMILES C=CC[C@H](C)C(=O)CC
REMARK SMILES IDX 4 1 5 2 6 3 7 4 8 5 9 6 3 7 2 8 1 9
REMARK H PARENT
REMARK Flexibility Score: inf
ROOT
ATOM      1  C   UNL     1      82.551   5.075  27.177  1.00  0.00     0.057 C 
ATOM      2  C   UNL     1      84.045   5.063  26.833  1.00  0.00     0.016 C 
ENDROOT
BRANCH   1   3
ATOM      3  C   UNL     1      82.160   3.763  27.827  1.00  0.00     0.135 C 
ATOM      4  O   UNL     1      82.114   2.742  27.154  1.00  0.00    -0.299 OA
BRANCH   3   5
ATOM      5  C   UNL     1      81.806   3.694  29.288  1.00  0.00     0.072 C 
ATOM      6  C   UNL     1      81.823   5.085  29.915  1.00  0.00     0.012 C 
ENDBRANCH   3   5
ENDBRANCH   1   3
BRANCH   1   7
ATOM      7  C   UNL     1      81.707   5.346  25.917  1.00  0.00     0.038 C 
BRANCH   7   8
ATOM      8  C   UNL     1      80.369   5.954  26.249  1.00  0.00    -0.034 C 
ATOM      9  C   UNL     1      80.257   7.016  27.051  1.00  0.00     0.004 C 
ENDBRANCH   7   8
ENDBRANCH   1   7
TORSDOF 4
ENDMDL
MODEL 4
REMARK VINA RESULT:    -5.131      1.517      4.436
REMARK INTER + INTRA:          -6.537
REMARK INTER:                  -6.283
REMARK INTRA:                  -0.254
REMARK UNBOUND:                -0.205
REMARK SMILES C=CC[C@H](C)C(=O)CC
REMARK SMILES IDX 4 1 5 2 6 3 7 4 8 5 9 6 3 7 2 8 1 9
REMARK H PARENT
REMARK Flexibility Score: inf
ROOT
ATOM      1  C   UNL     1      82.089   4.296  28.185  1.00  0.00     0.057 C 
ATOM      2  C   UNL     1      81.751   3.471  29.432  1.00  0.00     0.016 C 
ENDROOT
BRANCH   1   3
ATOM      3  C   UNL     1      83.563   4.163  27.860  1.00  0.00     0.135 C 
ATOM      4  O   UNL     1      84.114   5.017  27.179  1.00  0.00    -0.299 OA
BRANCH   3   5
ATOM      5  C   UNL     1      84.363   2.984  28.347  1.00  0.00     0.072 C 
ATOM      6  C   UNL     1      85.859   3.272  28.257  1.00  0.00     0.012 C 
ENDBRANCH   3   5
ENDBRANCH   1   3
BRANCH   1   7
ATOM      7  C   UNL     1      81.695   5.773  28.389  1.00  0.00     0.038 C 
BRANCH   7   8
ATOM      8  C   UNL     1      80.802   6.279  27.287  1.00  0.00    -0.034 C 
ATOM      9  C   UNL     1      80.662   5.620  26.133  1.00  0.00     0.004 C 
ENDBRANCH   7   8
ENDBRANCH   1   7
TORSDOF 4
ENDMDL
MODEL 5
REMARK VINA RESULT:    -5.063      1.230      4.187
REMARK INTER + INTRA:          -6.452
REMARK INTER:                  -6.241
REMARK INTRA:                  -0.211
REMARK UNBOUND:                -0.205
REMARK SMILES C=CC[C@H](C)C(=O)CC
REMARK SMILES IDX 4 1 5 2 6 3 7 4 8 5 9 6 3 7 2 8 1 9
REMARK H PARENT
REMARK Flexibility Score: inf
ROOT
ATOM      1  C   UNL     1      82.988   4.800  26.343  1.00  0.00     0.057 C 
ATOM      2  C   UNL     1      83.763   4.514  25.052  1.00  0.00     0.016 C 
ENDROOT
BRANCH   1   3
ATOM      3  C   UNL     1      82.930   3.551  27.199  1.00  0.00     0.135 C 
ATOM      4  O   UNL     1      82.200   2.624  26.873  1.00  0.00    -0.299 OA
BRANCH   3   5
ATOM      5  C   UNL     1      83.743   3.435  28.461  1.00  0.00     0.072 C 
ATOM      6  C   UNL     1      85.213   3.191  28.135  1.00  0.00     0.012 C 
ENDBRANCH   3   5
ENDBRANCH   1   3
BRANCH   1   7
ATOM      7  C   UNL     1      81.574   5.322  26.022  1.00  0.00     0.038 C 
BRANCH   7   8
ATOM      8  C   UNL     1      80.988   6.113  27.162  1.00  0.00    -0.034 C 
ATOM      9  C   UNL     1      80.119   7.107  26.956  1.00  0.00     0.004 C 
ENDBRANCH   7   8
ENDBRANCH   1   7
TORSDOF 4
ENDMDL
MODEL 6
REMARK VINA RESULT:    -4.964      1.393      2.130
REMARK INTER + INTRA:          -6.330
REMARK INTER:                  -6.092
REMARK INTRA:                  -0.238
REMARK UNBOUND:                -0.205
REMARK SMILES C=CC[C@H](C)C(=O)CC
REMARK SMILES IDX 4 1 5 2 6 3 7 4 8 5 9 6 3 7 2 8 1 9
REMARK H PARENT
REMARK Flexibility Score: inf
ROOT
ATOM      1  C   UNL     1      82.717   4.279  27.009  1.00  0.00     0.057 C 
ATOM      2  C   UNL     1      82.525   4.813  25.586  1.00  0.00     0.016 C 
ENDROOT
BRANCH   1   3
ATOM      3  C   UNL     1      81.759   4.972  27.957  1.00  0.00     0.135 C 
ATOM      4  O   UNL     1      80.799   5.585  27.509  1.00  0.00    -0.299 OA
BRANCH   3   5
ATOM      5  C   UNL     1      81.977   4.937  29.446  1.00  0.00     0.072 C 
ATOM      6  C   UNL     1      81.614   3.569  30.013  1.00  0.00     0.012 C 
ENDBRANCH   3   5
ENDBRANCH   1   3
BRANCH   1   7
ATOM      7  C   UNL     1      84.179   4.461  27.464  1.00  0.00     0.038 C 
BRANCH   7   8
ATOM      8  C   UNL     1      84.744   3.208  28.079  1.00  0.00    -0.034 C 
ATOM      9  C   UNL     1      86.041   3.091  28.378  1.00  0.00     0.004 C 
ENDBRANCH   7   8
ENDBRANCH   1   7
TORSDOF 4
ENDMDL
MODEL 7
REMARK VINA RESULT:    -4.778      1.784      3.288
REMARK INTER + INTRA:          -6.101
REMARK INTER:                  -5.918
REMARK INTRA:                  -0.184
REMARK UNBOUND:                -0.205
REMARK SMILES C=CC[C@H](C)C(=O)CC
REMARK SMILES IDX 4 1 5 2 6 3 7 4 8 5 9 6 3 7 2 8 1 9
REMARK H PARENT
REMARK Flexibility Score: inf
ROOT
ATOM      1  C   UNL     1      81.653   5.299  27.316  1.00  0.00     0.057 C 
ATOM      2  C   UNL     1      80.632   6.438  27.215  1.00  0.00     0.016 C 
ENDROOT
BRANCH   1   3
ATOM      3  C   UNL     1      81.862   4.919  28.768  1.00  0.00     0.135 C 
ATOM      4  O   UNL     1      81.876   5.789  29.628  1.00  0.00    -0.299 OA
BRANCH   3   5
ATOM      5  C   UNL     1      82.073   3.484  29.173  1.00  0.00     0.072 C 
ATOM      6  C   UNL     1      81.148   3.106  30.325  1.00  0.00     0.012 C 
ENDBRANCH   3   5
ENDBRANCH   1   3
BRANCH   1   7
ATOM      7  C   UNL     1      82.983   5.702  26.649  1.00  0.00     0.038 C 
BRANCH   7   8
ATOM      8  C   UNL     1      83.685   4.525  26.024  1.00  0.00    -0.034 C 
ATOM      9  C   UNL     1      83.816   4.404  24.700  1.00  0.00     0.004 C 
ENDBRANCH   7   8
ENDBRANCH   1   7
TORSDOF 4
ENDMDL
MODEL 8
REMARK VINA RESULT:    -4.776      1.753      2.503
REMARK INTER + INTRA:          -6.098
REMARK INTER:                  -5.721
REMARK INTRA:                  -0.378
REMARK UNBOUND:                -0.205
REMARK SMILES C=CC[C@H](C)C(=O)CC
REMARK SMILES IDX 4 1 5 2 6 3 7 4 8 5 9 6 3 7 2 8 1 9
REMARK H PARENT
REMARK Flexibility Score: inf
ROOT
ATOM      1  C   UNL     1      82.957   3.690  27.119  1.00  0.00     0.057 C 
ATOM      2  C   UNL     1      84.350   3.761  27.754  1.00  0.00     0.016 C 
ENDROOT
BRANCH   1   3
ATOM      3  C   UNL     1      82.663   4.974  26.371  1.00  0.00     0.135 C 
ATOM      4  O   UNL     1      83.573   5.751  26.117  1.00  0.00    -0.299 OA
BRANCH   3   5
ATOM      5  C   UNL     1      81.261   5.324  25.948  1.00  0.00     0.072 C 
ATOM      6  C   UNL     1      80.782   6.588  26.656  1.00  0.00     0.012 C 
ENDBRANCH   3   5
ENDBRANCH   1   3
BRANCH   1   7
ATOM      7  C   UNL     1      81.886   3.412  28.192  1.00  0.00     0.038 C 
BRANCH   7   8
ATOM      8  C   UNL     1      82.232   4.041  29.517  1.00  0.00    -0.034 C 
ATOM      9  C   UNL     1      81.816   5.268  29.845  1.00  0.00     0.004 C 
ENDBRANCH   7   8
ENDBRANCH   1   7
TORSDOF 4
ENDMDL
MODEL 9
REMARK VINA RESULT:    -4.589      1.351      2.119
REMARK INTER + INTRA:          -5.868
REMARK INTER:                  -5.551
REMARK INTRA:                  -0.317
REMARK UNBOUND:                -0.205
REMARK SMILES C=CC[C@H](C)C(=O)CC
REMARK SMILES IDX 4 1 5 2 6 3 7 4 8 5 9 6 3 7 2 8 1 9
REMARK H PARENT
REMARK Flexibility Score: inf
ROOT
ATOM      1  C   UNL     1      82.769   4.323  27.973  1.00  0.00     0.057 C 
ATOM      2  C   UNL     1      82.193   3.014  27.423  1.00  0.00     0.016 C 
ENDROOT
BRANCH   1   3
ATOM      3  C   UNL     1      81.693   5.390  28.000  1.00  0.00     0.135 C 
ATOM      4  O   UNL     1      81.499   6.032  29.024  1.00  0.00    -0.299 OA
BRANCH   3   5
ATOM      5  C   UNL     1      80.839   5.664  26.791  1.00  0.00     0.072 C 
ATOM      6  C   UNL     1      80.153   7.022  26.909  1.00  0.00     0.012 C 
ENDBRANCH   3   5
ENDBRANCH   1   3
BRANCH   1   7
ATOM      7  C   UNL     1      83.981   4.777  27.136  1.00  0.00     0.038 C 
BRANCH   7   8
ATOM      8  C   UNL     1      84.025   4.106  25.789  1.00  0.00    -0.034 C 
ATOM      9  C   UNL     1      83.793   4.779  24.658  1.00  0.00     0.004 C 
ENDBRANCH   7   8
ENDBRANCH   1   7
TORSDOF 4
ENDMDL
