MODEL 1
REMARK VINA RESULT:    26.189      0.000      0.000
REMARK INTER + INTRA:          68.934
REMARK INTER:                  69.057
REMARK INTRA:                  -0.123
REMARK UNBOUND:                -0.123
REMARK SMILES CCCCCCCCCCCCCCCCCCCCCCCCCCCCCC(=O)[O-]
REMARK SMILES IDX 16 1 17 2 18 3 19 4 20 5 21 6 22 7 23 8 24 9 25 10 26 11
REMARK SMILES IDX 27 12 28 13 29 14 30 15 31 16 32 17 15 18 14 19 13 20 12 21
REMARK SMILES IDX 11 22 10 23 9 24 8 25 7 26 6 27 5 28 4 29 3 30 2 31 1 32
REMARK H PARENT
REMARK Flexibility Score: inf
ROOT
ATOM      1  C   UNL     1     -11.019  38.690 -13.609  1.00  0.00     0.000 C 
ENDROOT
BRANCH   1   2
ATOM      2  C   UNL     1     -12.509  38.381 -13.845  1.00  0.00     0.000 C 
BRANCH   2   3
ATOM      3  C   UNL     1     -12.911  36.904 -13.668  1.00  0.00     0.000 C 
BRANCH   3   4
ATOM      4  C   UNL     1     -12.891  36.445 -12.199  1.00  0.00     0.000 C 
BRANCH   4   5
ATOM      5  C   UNL     1     -13.160  34.939 -12.044  1.00  0.00     0.000 C 
BRANCH   5   6
ATOM      6  C   UNL     1     -14.547  34.650 -11.449  1.00  0.00     0.000 C 
BRANCH   6   7
ATOM      7  C   UNL     1     -14.697  33.170 -11.076  1.00  0.00     0.000 C 
BRANCH   7   8
ATOM      8  C   UNL     1     -14.578  32.978  -9.556  1.00  0.00     0.000 C 
BRANCH   8   9
ATOM      9  C   UNL     1     -14.130  31.552  -9.171  1.00  0.00     0.000 C 
BRANCH   9  10
ATOM     10  C   UNL     1     -12.641  31.453  -8.782  1.00  0.00     0.000 C 
BRANCH  10  11
ATOM     11  C   UNL     1     -12.177  30.048  -8.365  1.00  0.00     0.000 C 
BRANCH  11  12
ATOM     12  C   UNL     1     -11.729  29.986  -6.897  1.00  0.00     0.000 C 
BRANCH  12  13
ATOM     13  C   UNL     1     -10.624  28.941  -6.697  1.00  0.00     0.006 C 
BRANCH  13  14
ATOM     14  C   UNL     1      -9.421  29.237  -7.596  1.00  0.00     0.053 C 
BRANCH  14  15
ATOM     15  C   UNL     1      -8.823  30.568  -7.265  1.00  0.00     0.041 C 
ATOM     16  O   UNL     1      -9.158  31.169  -6.208  1.00  0.00    -0.550 OA
ATOM     17  O   UNL     1      -7.885  31.145  -8.118  1.00  0.00    -0.550 OA
ENDBRANCH  14  15
ENDBRANCH  13  14
ENDBRANCH  12  13
ENDBRANCH  11  12
ENDBRANCH  10  11
ENDBRANCH   9  10
ENDBRANCH   8   9
ENDBRANCH   7   8
ENDBRANCH   6   7
ENDBRANCH   5   6
ENDBRANCH   4   5
ENDBRANCH   3   4
ENDBRANCH   2   3
ENDBRANCH   1   2
BRANCH   1  18
ATOM     18  C   UNL     1     -10.787  39.737 -12.506  1.00  0.00     0.000 C 
BRANCH  18  19
ATOM     19  C   UNL     1     -11.882  40.818 -12.476  1.00  0.00     0.000 C 
BRANCH  19  20
ATOM     20  C   UNL     1     -11.913  41.682 -11.199  1.00  0.00     0.000 C 
BRANCH  20  21
ATOM     21  C   UNL     1     -10.874  41.294 -10.127  1.00  0.00     0.000 C 
BRANCH  21  22
ATOM     22  C   UNL     1     -11.340  41.471  -8.667  1.00  0.00     0.000 C 
BRANCH  22  23
ATOM     23  C   UNL     1     -10.239  41.901  -7.680  1.00  0.00     0.000 C 
BRANCH  23  24
ATOM     24  C   UNL     1     -10.673  43.064  -6.771  1.00  0.00    -0.000 C 
BRANCH  24  25
ATOM     25  C   UNL     1     -11.907  42.716  -5.921  1.00  0.00    -0.000 C 
BRANCH  25  26
ATOM     26  C   UNL     1     -12.392  41.277  -6.161  1.00  0.00    -0.000 C 
BRANCH  26  27
ATOM     27  C   UNL     1     -13.866  41.074  -5.752  1.00  0.00    -0.000 C 
BRANCH  27  28
ATOM     28  C   UNL     1     -14.057  40.702  -4.269  1.00  0.00    -0.000 C 
BRANCH  28  29
ATOM     29  C   UNL     1     -14.848  41.729  -3.435  1.00  0.00    -0.000 C 
BRANCH  29  30
ATOM     30  C   UNL     1     -16.245  42.082  -3.984  1.00  0.00    -0.000 C 
BRANCH  30  31
ATOM     31  C   UNL     1     -17.266  42.383  -2.877  1.00  0.00    -0.003 C 
ATOM     32  C   UNL     1     -18.616  42.785  -3.467  1.00  0.00     0.004 C 
ENDBRANCH  30  31
ENDBRANCH  29  30
ENDBRANCH  28  29
ENDBRANCH  27  28
ENDBRANCH  26  27
ENDBRANCH  25  26
ENDBRANCH  24  25
ENDBRANCH  23  24
ENDBRANCH  22  23
ENDBRANCH  21  22
ENDBRANCH  20  21
ENDBRANCH  19  20
ENDBRANCH  18  19
ENDBRANCH   1  18
TORSDOF 28
ENDMDL
MODEL 2
REMARK VINA RESULT:    27.051      2.142      4.777
REMARK INTER + INTRA:          71.208
REMARK INTER:                  72.557
REMARK INTRA:                  -1.349
REMARK UNBOUND:                -0.123
REMARK SMILES CCCCCCCCCCCCCCCCCCCCCCCCCCCCCC(=O)[O-]
REMARK SMILES IDX 16 1 17 2 18 3 19 4 20 5 21 6 22 7 23 8 24 9 25 10 26 11
REMARK SMILES IDX 27 12 28 13 29 14 30 15 31 16 32 17 15 18 14 19 13 20 12 21
REMARK SMILES IDX 11 22 10 23 9 24 8 25 7 26 6 27 5 28 4 29 3 30 2 31 1 32
REMARK H PARENT
REMARK Flexibility Score: inf
ROOT
ATOM      1  C   UNL     1     -13.380  34.517 -11.850  1.00  0.00     0.000 C 
ENDROOT
BRANCH   1   2
ATOM      2  C   UNL     1     -14.030  34.182 -10.495  1.00  0.00     0.000 C 
BRANCH   2   3
ATOM      3  C   UNL     1     -15.071  33.047 -10.527  1.00  0.00     0.000 C 
BRANCH   3   4
ATOM      4  C   UNL     1     -14.603  31.778  -9.794  1.00  0.00     0.000 C 
BRANCH   4   5
ATOM      5  C   UNL     1     -13.557  32.072  -8.706  1.00  0.00     0.000 C 
BRANCH   5   6
ATOM      6  C   UNL     1     -12.641  30.869  -8.434  1.00  0.00     0.000 C 
BRANCH   6   7
ATOM      7  C   UNL     1     -12.454  30.638  -6.930  1.00  0.00     0.000 C 
BRANCH   7   8
ATOM      8  C   UNL     1     -12.111  29.168  -6.644  1.00  0.00     0.000 C 
BRANCH   8   9
ATOM      9  C   UNL     1     -10.590  28.910  -6.601  1.00  0.00     0.000 C 
BRANCH   9  10
ATOM     10  C   UNL     1      -9.796  29.701  -7.659  1.00  0.00     0.000 C 
BRANCH  10  11
ATOM     11  C   UNL     1      -8.583  30.471  -7.112  1.00  0.00     0.000 C 
BRANCH  11  12
ATOM     12  C   UNL     1      -8.431  31.860  -7.747  1.00  0.00     0.000 C 
BRANCH  12  13
ATOM     13  C   UNL     1      -7.215  31.914  -8.681  1.00  0.00     0.006 C 
BRANCH  13  14
ATOM     14  C   UNL     1      -7.101  33.286  -9.353  1.00  0.00     0.053 C 
BRANCH  14  15
ATOM     15  C   UNL     1      -6.336  33.189 -10.635  1.00  0.00     0.041 C 
ATOM     16  O   UNL     1      -5.105  32.915 -10.620  1.00  0.00    -0.550 OA
ATOM     17  O   UNL     1      -6.983  33.392 -11.851  1.00  0.00    -0.550 OA
ENDBRANCH  14  15
ENDBRANCH  13  14
ENDBRANCH  12  13
ENDBRANCH  11  12
ENDBRANCH  10  11
ENDBRANCH   9  10
ENDBRANCH   8   9
ENDBRANCH   7   8
ENDBRANCH   6   7
ENDBRANCH   5   6
ENDBRANCH   4   5
ENDBRANCH   3   4
ENDBRANCH   2   3
ENDBRANCH   1   2
BRANCH   1  18
ATOM     18  C   UNL     1     -13.625  35.970 -12.295  1.00  0.00     0.000 C 
BRANCH  18  19
ATOM     19  C   UNL     1     -12.346  36.654 -12.811  1.00  0.00     0.000 C 
BRANCH  19  20
ATOM     20  C   UNL     1     -12.563  38.028 -13.477  1.00  0.00     0.000 C 
BRANCH  20  21
ATOM     21  C   UNL     1     -11.544  39.114 -13.075  1.00  0.00     0.000 C 
BRANCH  21  22
ATOM     22  C   UNL     1     -12.135  40.321 -12.317  1.00  0.00     0.000 C 
BRANCH  22  23
ATOM     23  C   UNL     1     -11.096  41.288 -11.721  1.00  0.00     0.000 C 
BRANCH  23  24
ATOM     24  C   UNL     1     -10.865  41.063 -10.217  1.00  0.00    -0.000 C 
BRANCH  24  25
ATOM     25  C   UNL     1      -9.530  40.360  -9.926  1.00  0.00    -0.000 C 
BRANCH  25  26
ATOM     26  C   UNL     1      -8.987  40.694  -8.527  1.00  0.00    -0.000 C 
BRANCH  26  27
ATOM     27  C   UNL     1      -9.474  42.065  -8.016  1.00  0.00    -0.000 C 
BRANCH  27  28
ATOM     28  C   UNL     1     -10.302  41.990  -6.718  1.00  0.00    -0.000 C 
BRANCH  28  29
ATOM     29  C   UNL     1     -11.819  42.199  -6.898  1.00  0.00    -0.000 C 
BRANCH  29  30
ATOM     30  C   UNL     1     -12.699  41.615  -5.775  1.00  0.00    -0.000 C 
BRANCH  30  31
ATOM     31  C   UNL     1     -14.176  41.489  -6.174  1.00  0.00    -0.003 C 
ATOM     32  C   UNL     1     -14.388  41.886  -7.633  1.00  0.00     0.004 C 
ENDBRANCH  30  31
ENDBRANCH  29  30
ENDBRANCH  28  29
ENDBRANCH  27  28
ENDBRANCH  26  27
ENDBRANCH  25  26
ENDBRANCH  24  25
ENDBRANCH  23  24
ENDBRANCH  22  23
ENDBRANCH  21  22
ENDBRANCH  20  21
ENDBRANCH  19  20
ENDBRANCH  18  19
ENDBRANCH   1  18
TORSDOF 28
ENDMDL
MODEL 3
REMARK VINA RESULT:    27.573      2.420      4.943
REMARK INTER + INTRA:          72.585
REMARK INTER:                  74.364
REMARK INTRA:                  -1.779
REMARK UNBOUND:                -0.123
REMARK SMILES CCCCCCCCCCCCCCCCCCCCCCCCCCCCCC(=O)[O-]
REMARK SMILES IDX 16 1 17 2 18 3 19 4 20 5 21 6 22 7 23 8 24 9 25 10 26 11
REMARK SMILES IDX 27 12 28 13 29 14 30 15 31 16 32 17 15 18 14 19 13 20 12 21
REMARK SMILES IDX 11 22 10 23 9 24 8 25 7 26 6 27 5 28 4 29 3 30 2 31 1 32
REMARK H PARENT
REMARK Flexibility Score: inf
ROOT
ATOM      1  C   UNL     1     -13.392  35.154 -12.224  1.00  0.00     0.000 C 
ENDROOT
BRANCH   1   2
ATOM      2  C   UNL     1     -14.341  34.730 -11.088  1.00  0.00     0.000 C 
BRANCH   2   3
ATOM      3  C   UNL     1     -14.779  33.254 -11.114  1.00  0.00     0.000 C 
BRANCH   3   4
ATOM      4  C   UNL     1     -14.918  32.640  -9.710  1.00  0.00     0.000 C 
BRANCH   4   5
ATOM      5  C   UNL     1     -14.035  31.397  -9.515  1.00  0.00     0.000 C 
BRANCH   5   6
ATOM      6  C   UNL     1     -12.939  31.616  -8.461  1.00  0.00     0.000 C 
BRANCH   6   7
ATOM      7  C   UNL     1     -12.065  30.367  -8.294  1.00  0.00     0.000 C 
BRANCH   7   8
ATOM      8  C   UNL     1     -12.011  29.933  -6.821  1.00  0.00     0.000 C 
BRANCH   8   9
ATOM      9  C   UNL     1     -10.813  29.009  -6.517  1.00  0.00     0.000 C 
BRANCH   9  10
ATOM     10  C   UNL     1      -9.618  29.209  -7.470  1.00  0.00     0.000 C 
BRANCH  10  11
ATOM     11  C   UNL     1      -8.499  30.108  -6.920  1.00  0.00     0.000 C 
BRANCH  11  12
ATOM     12  C   UNL     1      -8.564  31.538  -7.478  1.00  0.00     0.000 C 
BRANCH  12  13
ATOM     13  C   UNL     1      -7.798  31.652  -8.803  1.00  0.00     0.006 C 
BRANCH  13  14
ATOM     14  C   UNL     1      -7.329  33.090  -9.042  1.00  0.00     0.053 C 
BRANCH  14  15
ATOM     15  C   UNL     1      -6.454  33.171 -10.253  1.00  0.00     0.041 C 
ATOM     16  O   UNL     1      -6.967  33.292 -11.399  1.00  0.00    -0.550 OA
ATOM     17  O   UNL     1      -5.069  33.125 -10.119  1.00  0.00    -0.550 OA
ENDBRANCH  14  15
ENDBRANCH  13  14
ENDBRANCH  12  13
ENDBRANCH  11  12
ENDBRANCH  10  11
ENDBRANCH   9  10
ENDBRANCH   8   9
ENDBRANCH   7   8
ENDBRANCH   6   7
ENDBRANCH   5   6
ENDBRANCH   4   5
ENDBRANCH   3   4
ENDBRANCH   2   3
ENDBRANCH   1   2
BRANCH   1  18
ATOM     18  C   UNL     1     -12.810  36.566 -12.030  1.00  0.00     0.000 C 
BRANCH  18  19
ATOM     19  C   UNL     1     -12.437  37.241 -13.363  1.00  0.00     0.000 C 
BRANCH  19  20
ATOM     20  C   UNL     1     -11.046  37.906 -13.391  1.00  0.00     0.000 C 
BRANCH  20  21
ATOM     21  C   UNL     1     -11.064  39.447 -13.444  1.00  0.00     0.000 C 
BRANCH  21  22
ATOM     22  C   UNL     1     -10.739  40.154 -12.112  1.00  0.00     0.000 C 
BRANCH  22  23
ATOM     23  C   UNL     1     -11.390  41.538 -11.933  1.00  0.00     0.000 C 
BRANCH  23  24
ATOM     24  C   UNL     1     -12.535  41.531 -10.905  1.00  0.00    -0.000 C 
BRANCH  24  25
ATOM     25  C   UNL     1     -12.068  41.087  -9.510  1.00  0.00    -0.000 C 
BRANCH  25  26
ATOM     26  C   UNL     1     -12.436  42.107  -8.420  1.00  0.00    -0.000 C 
BRANCH  26  27
ATOM     27  C   UNL     1     -13.189  41.465  -7.238  1.00  0.00    -0.000 C 
BRANCH  27  28
ATOM     28  C   UNL     1     -12.344  41.333  -5.956  1.00  0.00    -0.000 C 
BRANCH  28  29
ATOM     29  C   UNL     1     -10.942  41.969  -6.030  1.00  0.00    -0.000 C 
BRANCH  29  30
ATOM     30  C   UNL     1      -9.779  40.973  -6.205  1.00  0.00    -0.000 C 
BRANCH  30  31
ATOM     31  C   UNL     1      -8.960  41.225  -7.479  1.00  0.00    -0.003 C 
ATOM     32  C   UNL     1      -9.236  42.617  -8.045  1.00  0.00     0.004 C 
ENDBRANCH  30  31
ENDBRANCH  29  30
ENDBRANCH  28  29
ENDBRANCH  27  28
ENDBRANCH  26  27
ENDBRANCH  25  26
ENDBRANCH  24  25
ENDBRANCH  23  24
ENDBRANCH  22  23
ENDBRANCH  21  22
ENDBRANCH  20  21
ENDBRANCH  19  20
ENDBRANCH  18  19
ENDBRANCH   1  18
TORSDOF 28
ENDMDL
MODEL 4
REMARK VINA RESULT:    27.749      3.440     10.790
REMARK INTER + INTRA:          73.048
REMARK INTER:                  74.486
REMARK INTRA:                  -1.438
REMARK UNBOUND:                -0.123
REMARK SMILES CCCCCCCCCCCCCCCCCCCCCCCCCCCCCC(=O)[O-]
REMARK SMILES IDX 16 1 17 2 18 3 19 4 20 5 21 6 22 7 23 8 24 9 25 10 26 11
REMARK SMILES IDX 27 12 28 13 29 14 30 15 31 16 32 17 15 18 14 19 13 20 12 21
REMARK SMILES IDX 11 22 10 23 9 24 8 25 7 26 6 27 5 28 4 29 3 30 2 31 1 32
REMARK H PARENT
REMARK Flexibility Score: inf
ROOT
ATOM      1  C   UNL     1     -13.516  36.114 -12.596  1.00  0.00     0.000 C 
ENDROOT
BRANCH   1   2
ATOM      2  C   UNL     1     -12.279  36.992 -12.863  1.00  0.00     0.000 C 
BRANCH   2   3
ATOM      3  C   UNL     1     -12.497  38.151 -13.854  1.00  0.00     0.000 C 
BRANCH   3   4
ATOM      4  C   UNL     1     -11.456  39.275 -13.707  1.00  0.00     0.000 C 
BRANCH   4   5
ATOM      5  C   UNL     1     -10.969  39.447 -12.259  1.00  0.00     0.000 C 
BRANCH   5   6
ATOM      6  C   UNL     1     -11.231  40.861 -11.717  1.00  0.00     0.000 C 
BRANCH   6   7
ATOM      7  C   UNL     1     -10.875  40.963 -10.228  1.00  0.00     0.000 C 
BRANCH   7   8
ATOM      8  C   UNL     1      -9.369  40.753 -10.013  1.00  0.00     0.000 C 
BRANCH   8   9
ATOM      9  C   UNL     1      -9.038  40.236  -8.597  1.00  0.00     0.000 C 
BRANCH   9  10
ATOM     10  C   UNL     1      -8.854  41.356  -7.554  1.00  0.00     0.000 C 
BRANCH  10  11
ATOM     11  C   UNL     1      -9.574  41.116  -6.217  1.00  0.00     0.000 C 
BRANCH  11  12
ATOM     12  C   UNL     1     -10.533  42.258  -5.850  1.00  0.00     0.000 C 
BRANCH  12  13
ATOM     13  C   UNL     1     -11.397  42.665  -7.051  1.00  0.00     0.006 C 
BRANCH  13  14
ATOM     14  C   UNL     1     -12.400  41.563  -7.403  1.00  0.00     0.053 C 
BRANCH  14  15
ATOM     15  C   UNL     1     -13.573  41.593  -6.473  1.00  0.00     0.041 C 
ATOM     16  O   UNL     1     -14.726  41.843  -6.916  1.00  0.00    -0.550 OA
ATOM     17  O   UNL     1     -13.396  41.333  -5.117  1.00  0.00    -0.550 OA
ENDBRANCH  14  15
ENDBRANCH  13  14
ENDBRANCH  12  13
ENDBRANCH  11  12
ENDBRANCH  10  11
ENDBRANCH   9  10
ENDBRANCH   8   9
ENDBRANCH   7   8
ENDBRANCH   6   7
ENDBRANCH   5   6
ENDBRANCH   4   5
ENDBRANCH   3   4
ENDBRANCH   2   3
ENDBRANCH   1   2
BRANCH   1  18
ATOM     18  C   UNL     1     -13.234  34.953 -11.625  1.00  0.00     0.000 C 
BRANCH  18  19
ATOM     19  C   UNL     1     -14.518  34.388 -10.991  1.00  0.00     0.000 C 
BRANCH  19  20
ATOM     20  C   UNL     1     -14.498  32.870 -10.718  1.00  0.00     0.000 C 
BRANCH  20  21
ATOM     21  C   UNL     1     -14.676  32.473  -9.239  1.00  0.00     0.000 C 
BRANCH  21  22
ATOM     22  C   UNL     1     -13.922  31.199  -8.805  1.00  0.00     0.000 C 
BRANCH  22  23
ATOM     23  C   UNL     1     -12.388  31.332  -8.767  1.00  0.00     0.000 C 
BRANCH  23  24
ATOM     24  C   UNL     1     -11.668  29.980  -8.904  1.00  0.00    -0.000 C 
BRANCH  24  25
ATOM     25  C   UNL     1     -11.360  29.338  -7.542  1.00  0.00    -0.000 C 
BRANCH  25  26
ATOM     26  C   UNL     1      -9.860  29.368  -7.209  1.00  0.00    -0.000 C 
BRANCH  26  27
ATOM     27  C   UNL     1      -9.346  30.792  -6.914  1.00  0.00    -0.000 C 
BRANCH  27  28
ATOM     28  C   UNL     1      -7.851  30.994  -7.227  1.00  0.00    -0.000 C 
BRANCH  28  29
ATOM     29  C   UNL     1      -7.545  31.516  -8.645  1.00  0.00    -0.000 C 
BRANCH  29  30
ATOM     30  C   UNL     1      -7.570  33.049  -8.799  1.00  0.00    -0.000 C 
BRANCH  30  31
ATOM     31  C   UNL     1      -6.512  33.570  -9.782  1.00  0.00    -0.003 C 
ATOM     32  C   UNL     1      -6.644  32.893 -11.144  1.00  0.00     0.004 C 
ENDBRANCH  30  31
ENDBRANCH  29  30
ENDBRANCH  28  29
ENDBRANCH  27  28
ENDBRANCH  26  27
ENDBRANCH  25  26
ENDBRANCH  24  25
ENDBRANCH  23  24
ENDBRANCH  22  23
ENDBRANCH  21  22
ENDBRANCH  20  21
ENDBRANCH  19  20
ENDBRANCH  18  19
ENDBRANCH   1  18
TORSDOF 28
ENDMDL
MODEL 5
REMARK VINA RESULT:    28.060      3.518     11.033
REMARK INTER + INTRA:          73.867
REMARK INTER:                  74.670
REMARK INTRA:                  -0.803
REMARK UNBOUND:                -0.123
REMARK SMILES CCCCCCCCCCCCCCCCCCCCCCCCCCCCCC(=O)[O-]
REMARK SMILES IDX 16 1 17 2 18 3 19 4 20 5 21 6 22 7 23 8 24 9 25 10 26 11
REMARK SMILES IDX 27 12 28 13 29 14 30 15 31 16 32 17 15 18 14 19 13 20 12 21
REMARK SMILES IDX 11 22 10 23 9 24 8 25 7 26 6 27 5 28 4 29 3 30 2 31 1 32
REMARK H PARENT
REMARK Flexibility Score: inf
ROOT
ATOM      1  C   UNL     1     -14.279  34.021 -10.455  1.00  0.00     0.000 C 
ENDROOT
BRANCH   1   2
ATOM      2  C   UNL     1     -13.854  34.542 -11.840  1.00  0.00     0.000 C 
BRANCH   2   3
ATOM      3  C   UNL     1     -13.084  35.876 -11.833  1.00  0.00     0.000 C 
BRANCH   3   4
ATOM      4  C   UNL     1     -12.690  36.354 -13.242  1.00  0.00     0.000 C 
BRANCH   4   5
ATOM      5  C   UNL     1     -12.936  37.857 -13.450  1.00  0.00     0.000 C 
BRANCH   5   6
ATOM      6  C   UNL     1     -11.631  38.641 -13.655  1.00  0.00     0.000 C 
BRANCH   6   7
ATOM      7  C   UNL     1     -11.670  39.991 -12.928  1.00  0.00     0.000 C 
BRANCH   7   8
ATOM      8  C   UNL     1     -10.735  39.980 -11.709  1.00  0.00     0.000 C 
BRANCH   8   9
ATOM      9  C   UNL     1     -10.645  41.356 -11.016  1.00  0.00     0.000 C 
BRANCH   9  10
ATOM     10  C   UNL     1     -11.006  41.322  -9.518  1.00  0.00     0.000 C 
BRANCH  10  11
ATOM     11  C   UNL     1     -10.257  42.347  -8.652  1.00  0.00     0.000 C 
BRANCH  11  12
ATOM     12  C   UNL     1     -10.026  41.850  -7.217  1.00  0.00     0.000 C 
BRANCH  12  13
ATOM     13  C   UNL     1     -11.182  40.957  -6.745  1.00  0.00     0.006 C 
BRANCH  13  14
ATOM     14  C   UNL     1     -12.151  41.740  -5.856  1.00  0.00     0.053 C 
BRANCH  14  15
ATOM     15  C   UNL     1     -13.538  41.704  -6.418  1.00  0.00     0.041 C 
ATOM     16  O   UNL     1     -14.535  41.726  -5.647  1.00  0.00    -0.550 OA
ATOM     17  O   UNL     1     -13.732  41.657  -7.796  1.00  0.00    -0.550 OA
ENDBRANCH  14  15
ENDBRANCH  13  14
ENDBRANCH  12  13
ENDBRANCH  11  12
ENDBRANCH  10  11
ENDBRANCH   9  10
ENDBRANCH   8   9
ENDBRANCH   7   8
ENDBRANCH   6   7
ENDBRANCH   5   6
ENDBRANCH   4   5
ENDBRANCH   3   4
ENDBRANCH   2   3
ENDBRANCH   1   2
BRANCH   1  18
ATOM     18  C   UNL     1     -15.129  32.740 -10.527  1.00  0.00     0.000 C 
BRANCH  18  19
ATOM     19  C   UNL     1     -14.714  31.694  -9.476  1.00  0.00     0.000 C 
BRANCH  19  20
ATOM     20  C   UNL     1     -13.311  31.900  -8.869  1.00  0.00     0.000 C 
BRANCH  20  21
ATOM     21  C   UNL     1     -12.656  30.624  -8.300  1.00  0.00     0.000 C 
BRANCH  21  22
ATOM     22  C   UNL     1     -12.386  30.647  -6.782  1.00  0.00     0.000 C 
BRANCH  22  23
ATOM     23  C   UNL     1     -11.631  29.420  -6.237  1.00  0.00     0.000 C 
BRANCH  23  24
ATOM     24  C   UNL     1     -10.915  28.621  -7.339  1.00  0.00    -0.000 C 
BRANCH  24  25
ATOM     25  C   UNL     1      -9.720  29.383  -7.934  1.00  0.00    -0.000 C 
BRANCH  25  26
ATOM     26  C   UNL     1      -9.310  30.589  -7.072  1.00  0.00    -0.000 C 
BRANCH  26  27
ATOM     27  C   UNL     1      -7.862  31.044  -7.342  1.00  0.00    -0.000 C 
BRANCH  27  28
ATOM     28  C   UNL     1      -7.727  32.547  -7.655  1.00  0.00    -0.000 C 
BRANCH  28  29
ATOM     29  C   UNL     1      -7.831  32.915  -9.148  1.00  0.00    -0.000 C 
BRANCH  29  30
ATOM     30  C   UNL     1      -6.487  32.993  -9.899  1.00  0.00    -0.000 C 
BRANCH  30  31
ATOM     31  C   UNL     1      -6.643  32.878 -11.422  1.00  0.00    -0.003 C 
ATOM     32  C   UNL     1      -6.258  34.184 -12.115  1.00  0.00     0.004 C 
ENDBRANCH  30  31
ENDBRANCH  29  30
ENDBRANCH  28  29
ENDBRANCH  27  28
ENDBRANCH  26  27
ENDBRANCH  25  26
ENDBRANCH  24  25
ENDBRANCH  23  24
ENDBRANCH  22  23
ENDBRANCH  21  22
ENDBRANCH  20  21
ENDBRANCH  19  20
ENDBRANCH  18  19
ENDBRANCH   1  18
TORSDOF 28
ENDMDL
MODEL 6
REMARK VINA RESULT:    28.352      4.789     11.442
REMARK INTER + INTRA:          74.639
REMARK INTER:                  75.971
REMARK INTRA:                  -1.332
REMARK UNBOUND:                -0.123
REMARK SMILES CCCCCCCCCCCCCCCCCCCCCCCCCCCCCC(=O)[O-]
REMARK SMILES IDX 16 1 17 2 18 3 19 4 20 5 21 6 22 7 23 8 24 9 25 10 26 11
REMARK SMILES IDX 27 12 28 13 29 14 30 15 31 16 32 17 15 18 14 19 13 20 12 21
REMARK SMILES IDX 11 22 10 23 9 24 8 25 7 26 6 27 5 28 4 29 3 30 2 31 1 32
REMARK H PARENT
REMARK Flexibility Score: inf
ROOT
ATOM      1  C   UNL     1     -11.831  40.420 -12.299  1.00  0.00     0.000 C 
ENDROOT
BRANCH   1   2
ATOM      2  C   UNL     1     -11.686  41.432 -11.147  1.00  0.00     0.000 C 
BRANCH   2   3
ATOM      3  C   UNL     1     -10.984  40.895  -9.885  1.00  0.00     0.000 C 
BRANCH   3   4
ATOM      4  C   UNL     1     -11.571  41.463  -8.580  1.00  0.00     0.000 C 
BRANCH   4   5
ATOM      5  C   UNL     1     -10.498  41.714  -7.507  1.00  0.00     0.000 C 
BRANCH   5   6
ATOM      6  C   UNL     1      -9.186  42.245  -8.103  1.00  0.00     0.000 C 
BRANCH   6   7
ATOM      7  C   UNL     1      -7.993  41.369  -7.697  1.00  0.00     0.000 C 
BRANCH   7   8
ATOM      8  C   UNL     1      -7.193  42.032  -6.566  1.00  0.00     0.000 C 
BRANCH   8   9
ATOM      9  C   UNL     1      -5.698  42.196  -6.913  1.00  0.00     0.000 C 
BRANCH   9  10
ATOM     10  C   UNL     1      -5.077  43.503  -6.381  1.00  0.00     0.000 C 
BRANCH  10  11
ATOM     11  C   UNL     1      -3.994  44.116  -7.284  1.00  0.00     0.000 C 
BRANCH  11  12
ATOM     12  C   UNL     1      -3.240  43.057  -8.102  1.00  0.00     0.000 C 
BRANCH  12  13
ATOM     13  C   UNL     1      -2.114  43.692  -8.929  1.00  0.00     0.006 C 
BRANCH  13  14
ATOM     14  C   UNL     1      -1.818  42.860 -10.180  1.00  0.00     0.053 C 
BRANCH  14  15
ATOM     15  C   UNL     1      -2.949  42.946 -11.157  1.00  0.00     0.041 C 
ATOM     16  O   UNL     1      -3.479  44.060 -11.416  1.00  0.00    -0.550 OA
ATOM     17  O   UNL     1      -3.412  41.797 -11.792  1.00  0.00    -0.550 OA
ENDBRANCH  14  15
ENDBRANCH  13  14
ENDBRANCH  12  13
ENDBRANCH  11  12
ENDBRANCH  10  11
ENDBRANCH   9  10
ENDBRANCH   8   9
ENDBRANCH   7   8
ENDBRANCH   6   7
ENDBRANCH   5   6
ENDBRANCH   4   5
ENDBRANCH   3   4
ENDBRANCH   2   3
ENDBRANCH   1   2
BRANCH   1  18
ATOM     18  C   UNL     1     -10.614  39.489 -12.441  1.00  0.00     0.000 C 
BRANCH  18  19
ATOM     19  C   UNL     1     -10.905  38.266 -13.329  1.00  0.00     0.000 C 
BRANCH  19  20
ATOM     20  C   UNL     1     -12.393  37.875 -13.436  1.00  0.00     0.000 C 
BRANCH  20  21
ATOM     21  C   UNL     1     -12.943  37.077 -12.236  1.00  0.00     0.000 C 
BRANCH  21  22
ATOM     22  C   UNL     1     -13.275  35.599 -12.527  1.00  0.00     0.000 C 
BRANCH  22  23
ATOM     23  C   UNL     1     -14.049  34.874 -11.412  1.00  0.00     0.000 C 
BRANCH  23  24
ATOM     24  C   UNL     1     -13.851  33.349 -11.442  1.00  0.00    -0.000 C 
BRANCH  24  25
ATOM     25  C   UNL     1     -14.792  32.615 -10.472  1.00  0.00    -0.000 C 
BRANCH  25  26
ATOM     26  C   UNL     1     -14.168  32.435  -9.079  1.00  0.00    -0.000 C 
BRANCH  26  27
ATOM     27  C   UNL     1     -13.049  31.374  -9.064  1.00  0.00    -0.000 C 
BRANCH  27  28
ATOM     28  C   UNL     1     -12.600  30.959  -7.650  1.00  0.00    -0.000 C 
BRANCH  28  29
ATOM     29  C   UNL     1     -12.045  29.525  -7.535  1.00  0.00    -0.000 C 
BRANCH  29  30
ATOM     30  C   UNL     1     -10.596  29.342  -8.030  1.00  0.00    -0.000 C 
BRANCH  30  31
ATOM     31  C   UNL     1      -9.722  30.582  -7.798  1.00  0.00    -0.003 C 
ATOM     32  C   UNL     1      -8.487  30.239  -6.969  1.00  0.00     0.004 C 
ENDBRANCH  30  31
ENDBRANCH  29  30
ENDBRANCH  28  29
ENDBRANCH  27  28
ENDBRANCH  26  27
ENDBRANCH  25  26
ENDBRANCH  24  25
ENDBRANCH  23  24
ENDBRANCH  22  23
ENDBRANCH  21  22
ENDBRANCH  20  21
ENDBRANCH  19  20
ENDBRANCH  18  19
ENDBRANCH   1  18
TORSDOF 28
ENDMDL
MODEL 7
REMARK VINA RESULT:    28.531      3.384     10.989
REMARK INTER + INTRA:          75.109
REMARK INTER:                  75.023
REMARK INTRA:                   0.086
REMARK UNBOUND:                -0.123
REMARK SMILES CCCCCCCCCCCCCCCCCCCCCCCCCCCCCC(=O)[O-]
REMARK SMILES IDX 16 1 17 2 18 3 19 4 20 5 21 6 22 7 23 8 24 9 25 10 26 11
REMARK SMILES IDX 27 12 28 13 29 14 30 15 31 16 32 17 15 18 14 19 13 20 12 21
REMARK SMILES IDX 11 22 10 23 9 24 8 25 7 26 6 27 5 28 4 29 3 30 2 31 1 32
REMARK H PARENT
REMARK Flexibility Score: inf
ROOT
ATOM      1  C   UNL     1     -14.528  34.650 -11.631  1.00  0.00     0.000 C 
ENDROOT
BRANCH   1   2
ATOM      2  C   UNL     1     -13.010  34.836 -11.815  1.00  0.00     0.000 C 
BRANCH   2   3
ATOM      3  C   UNL     1     -12.557  36.276 -12.122  1.00  0.00     0.000 C 
BRANCH   3   4
ATOM      4  C   UNL     1     -13.091  36.804 -13.465  1.00  0.00     0.000 C 
BRANCH   4   5
ATOM      5  C   UNL     1     -12.345  38.058 -13.950  1.00  0.00     0.000 C 
BRANCH   5   6
ATOM      6  C   UNL     1     -12.771  39.324 -13.191  1.00  0.00     0.000 C 
BRANCH   6   7
ATOM      7  C   UNL     1     -11.571  40.006 -12.524  1.00  0.00     0.000 C 
BRANCH   7   8
ATOM      8  C   UNL     1     -11.839  41.506 -12.325  1.00  0.00     0.000 C 
BRANCH   8   9
ATOM      9  C   UNL     1     -11.045  42.100 -11.143  1.00  0.00     0.000 C 
BRANCH   9  10
ATOM     10  C   UNL     1     -11.168  41.285  -9.840  1.00  0.00     0.000 C 
BRANCH  10  11
ATOM     11  C   UNL     1     -10.209  41.716  -8.718  1.00  0.00     0.000 C 
BRANCH  11  12
ATOM     12  C   UNL     1     -10.922  42.487  -7.597  1.00  0.00     0.000 C 
BRANCH  12  13
ATOM     13  C   UNL     1     -12.248  41.815  -7.217  1.00  0.00     0.006 C 
BRANCH  13  14
ATOM     14  C   UNL     1     -12.323  41.566  -5.708  1.00  0.00     0.053 C 
BRANCH  14  15
ATOM     15  C   UNL     1     -11.128  42.139  -5.013  1.00  0.00     0.041 C 
ATOM     16  O   UNL     1     -10.019  41.541  -5.065  1.00  0.00    -0.550 OA
ATOM     17  O   UNL     1     -11.234  43.339  -4.316  1.00  0.00    -0.550 OA
ENDBRANCH  14  15
ENDBRANCH  13  14
ENDBRANCH  12  13
ENDBRANCH  11  12
ENDBRANCH  10  11
ENDBRANCH   9  10
ENDBRANCH   8   9
ENDBRANCH   7   8
ENDBRANCH   6   7
ENDBRANCH   5   6
ENDBRANCH   4   5
ENDBRANCH   3   4
ENDBRANCH   2   3
ENDBRANCH   1   2
BRANCH   1  18
ATOM     18  C   UNL     1     -14.962  33.174 -11.655  1.00  0.00     0.000 C 
BRANCH  18  19
ATOM     19  C   UNL     1     -15.083  32.570 -10.244  1.00  0.00     0.000 C 
BRANCH  19  20
ATOM     20  C   UNL     1     -13.771  32.009  -9.658  1.00  0.00     0.000 C 
BRANCH  20  21
ATOM     21  C   UNL     1     -13.907  31.355  -8.268  1.00  0.00     0.000 C 
BRANCH  21  22
ATOM     22  C   UNL     1     -12.728  30.454  -7.848  1.00  0.00     0.000 C 
BRANCH  22  23
ATOM     23  C   UNL     1     -12.147  30.751  -6.454  1.00  0.00     0.000 C 
BRANCH  23  24
ATOM     24  C   UNL     1     -11.611  29.492  -5.750  1.00  0.00    -0.000 C 
BRANCH  24  25
ATOM     25  C   UNL     1     -10.375  28.907  -6.453  1.00  0.00    -0.000 C 
BRANCH  25  26
ATOM     26  C   UNL     1     -10.454  29.048  -7.982  1.00  0.00    -0.000 C 
BRANCH  26  27
ATOM     27  C   UNL     1      -9.478  30.110  -8.529  1.00  0.00    -0.000 C 
BRANCH  27  28
ATOM     28  C   UNL     1      -8.594  30.762  -7.449  1.00  0.00    -0.000 C 
BRANCH  28  29
ATOM     29  C   UNL     1      -7.351  31.502  -7.982  1.00  0.00    -0.000 C 
BRANCH  29  30
ATOM     30  C   UNL     1      -7.647  32.768  -8.811  1.00  0.00    -0.000 C 
BRANCH  30  31
ATOM     31  C   UNL     1      -6.451  33.222  -9.660  1.00  0.00    -0.003 C 
ATOM     32  C   UNL     1      -6.733  33.043 -11.150  1.00  0.00     0.004 C 
ENDBRANCH  30  31
ENDBRANCH  29  30
ENDBRANCH  28  29
ENDBRANCH  27  28
ENDBRANCH  26  27
ENDBRANCH  25  26
ENDBRANCH  24  25
ENDBRANCH  23  24
ENDBRANCH  22  23
ENDBRANCH  21  22
ENDBRANCH  20  21
ENDBRANCH  19  20
ENDBRANCH  18  19
ENDBRANCH   1  18
TORSDOF 28
ENDMDL
MODEL 8
REMARK VINA RESULT:    28.586      1.966      3.515
REMARK INTER + INTRA:          75.254
REMARK INTER:                  74.742
REMARK INTRA:                   0.512
REMARK UNBOUND:                -0.123
REMARK SMILES CCCCCCCCCCCCCCCCCCCCCCCCCCCCCC(=O)[O-]
REMARK SMILES IDX 16 1 17 2 18 3 19 4 20 5 21 6 22 7 23 8 24 9 25 10 26 11
REMARK SMILES IDX 27 12 28 13 29 14 30 15 31 16 32 17 15 18 14 19 13 20 12 21
REMARK SMILES IDX 11 22 10 23 9 24 8 25 7 26 6 27 5 28 4 29 3 30 2 31 1 32
REMARK H PARENT
REMARK Flexibility Score: inf
ROOT
ATOM      1  C   UNL     1     -12.528  36.443 -12.254  1.00  0.00     0.000 C 
ENDROOT
BRANCH   1   2
ATOM      2  C   UNL     1     -13.750  35.508 -12.297  1.00  0.00     0.000 C 
BRANCH   2   3
ATOM      3  C   UNL     1     -13.628  34.226 -11.450  1.00  0.00     0.000 C 
BRANCH   3   4
ATOM      4  C   UNL     1     -14.717  34.112 -10.369  1.00  0.00     0.000 C 
BRANCH   4   5
ATOM      5  C   UNL     1     -15.027  32.654  -9.989  1.00  0.00     0.000 C 
BRANCH   5   6
ATOM      6  C   UNL     1     -13.760  31.860  -9.637  1.00  0.00     0.000 C 
BRANCH   6   7
ATOM      7  C   UNL     1     -13.856  31.248  -8.234  1.00  0.00     0.000 C 
BRANCH   7   8
ATOM      8  C   UNL     1     -12.461  31.097  -7.609  1.00  0.00     0.000 C 
BRANCH   8   9
ATOM      9  C   UNL     1     -12.504  30.455  -6.206  1.00  0.00     0.000 C 
BRANCH   9  10
ATOM     10  C   UNL     1     -11.298  29.544  -5.903  1.00  0.00     0.000 C 
BRANCH  10  11
ATOM     11  C   UNL     1     -11.224  28.269  -6.759  1.00  0.00     0.000 C 
BRANCH  11  12
ATOM     12  C   UNL     1     -10.648  28.530  -8.158  1.00  0.00     0.000 C 
BRANCH  12  13
ATOM     13  C   UNL     1      -9.949  29.895  -8.225  1.00  0.00     0.006 C 
BRANCH  13  14
ATOM     14  C   UNL     1      -8.888  30.021  -7.129  1.00  0.00     0.053 C 
BRANCH  14  15
ATOM     15  C   UNL     1      -8.194  31.345  -7.208  1.00  0.00     0.041 C 
ATOM     16  O   UNL     1      -7.545  31.659  -8.242  1.00  0.00    -0.550 OA
ATOM     17  O   UNL     1      -8.273  32.239  -6.144  1.00  0.00    -0.550 OA
ENDBRANCH  14  15
ENDBRANCH  13  14
ENDBRANCH  12  13
ENDBRANCH  11  12
ENDBRANCH  10  11
ENDBRANCH   9  10
ENDBRANCH   8   9
ENDBRANCH   7   8
ENDBRANCH   6   7
ENDBRANCH   5   6
ENDBRANCH   4   5
ENDBRANCH   3   4
ENDBRANCH   2   3
ENDBRANCH   1   2
BRANCH   1  18
ATOM     18  C   UNL     1     -12.324  37.231 -13.560  1.00  0.00     0.000 C 
BRANCH  18  19
ATOM     19  C   UNL     1     -12.606  38.735 -13.394  1.00  0.00     0.000 C 
BRANCH  19  20
ATOM     20  C   UNL     1     -11.408  39.574 -12.904  1.00  0.00     0.000 C 
BRANCH  20  21
ATOM     21  C   UNL     1     -11.681  41.088 -12.784  1.00  0.00     0.000 C 
BRANCH  21  22
ATOM     22  C   UNL     1     -11.697  41.640 -11.344  1.00  0.00     0.000 C 
BRANCH  22  23
ATOM     23  C   UNL     1     -10.690  40.981 -10.383  1.00  0.00     0.000 C 
BRANCH  23  24
ATOM     24  C   UNL     1     -10.849  41.461  -8.930  1.00  0.00    -0.000 C 
BRANCH  24  25
ATOM     25  C   UNL     1      -9.563  42.095  -8.377  1.00  0.00    -0.000 C 
BRANCH  25  26
ATOM     26  C   UNL     1      -8.635  41.057  -7.726  1.00  0.00    -0.000 C 
BRANCH  26  27
ATOM     27  C   UNL     1      -8.550  41.217  -6.194  1.00  0.00    -0.000 C 
BRANCH  27  28
ATOM     28  C   UNL     1      -9.883  40.961  -5.465  1.00  0.00    -0.000 C 
BRANCH  28  29
ATOM     29  C   UNL     1     -10.621  42.229  -4.990  1.00  0.00    -0.000 C 
BRANCH  29  30
ATOM     30  C   UNL     1     -11.856  42.620  -5.826  1.00  0.00    -0.000 C 
BRANCH  30  31
ATOM     31  C   UNL     1     -12.869  41.475  -5.971  1.00  0.00    -0.003 C 
ATOM     32  C   UNL     1     -13.593  41.547  -7.313  1.00  0.00     0.004 C 
ENDBRANCH  30  31
ENDBRANCH  29  30
ENDBRANCH  28  29
ENDBRANCH  27  28
ENDBRANCH  26  27
ENDBRANCH  25  26
ENDBRANCH  24  25
ENDBRANCH  23  24
ENDBRANCH  22  23
ENDBRANCH  21  22
ENDBRANCH  20  21
ENDBRANCH  19  20
ENDBRANCH  18  19
ENDBRANCH   1  18
TORSDOF 28
ENDMDL
MODEL 9
REMARK VINA RESULT:    28.920      1.179      2.517
REMARK INTER + INTRA:          76.136
REMARK INTER:                  77.176
REMARK INTRA:                  -1.039
REMARK UNBOUND:                -0.123
REMARK SMILES CCCCCCCCCCCCCCCCCCCCCCCCCCCCCC(=O)[O-]
REMARK SMILES IDX 16 1 17 2 18 3 19 4 20 5 21 6 22 7 23 8 24 9 25 10 26 11
REMARK SMILES IDX 27 12 28 13 29 14 30 15 31 16 32 17 15 18 14 19 13 20 12 21
REMARK SMILES IDX 11 22 10 23 9 24 8 25 7 26 6 27 5 28 4 29 3 30 2 31 1 32
REMARK H PARENT
REMARK Flexibility Score: inf
ROOT
ATOM      1  C   UNL     1     -11.801  41.235 -11.866  1.00  0.00     0.000 C 
ENDROOT
BRANCH   1   2
ATOM      2  C   UNL     1     -11.317  39.866 -12.377  1.00  0.00     0.000 C 
BRANCH   2   3
ATOM      3  C   UNL     1     -12.425  38.823 -12.615  1.00  0.00     0.000 C 
BRANCH   3   4
ATOM      4  C   UNL     1     -11.944  37.603 -13.421  1.00  0.00     0.000 C 
BRANCH   4   5
ATOM      5  C   UNL     1     -12.410  36.269 -12.814  1.00  0.00     0.000 C 
BRANCH   5   6
ATOM      6  C   UNL     1     -13.725  36.409 -12.033  1.00  0.00     0.000 C 
BRANCH   6   7
ATOM      7  C   UNL     1     -14.428  35.055 -11.877  1.00  0.00     0.000 C 
BRANCH   7   8
ATOM      8  C   UNL     1     -13.558  34.079 -11.071  1.00  0.00     0.000 C 
BRANCH   8   9
ATOM      9  C   UNL     1     -14.235  33.620  -9.762  1.00  0.00     0.000 C 
BRANCH   9  10
ATOM     10  C   UNL     1     -14.355  32.088  -9.629  1.00  0.00     0.000 C 
BRANCH  10  11
ATOM     11  C   UNL     1     -14.079  31.541  -8.220  1.00  0.00     0.000 C 
BRANCH  11  12
ATOM     12  C   UNL     1     -12.653  30.989  -8.070  1.00  0.00     0.000 C 
BRANCH  12  13
ATOM     13  C   UNL     1     -12.438  30.375  -6.681  1.00  0.00     0.006 C 
BRANCH  13  14
ATOM     14  C   UNL     1     -11.405  29.246  -6.735  1.00  0.00     0.053 C 
BRANCH  14  15
ATOM     15  C   UNL     1     -10.261  29.613  -7.626  1.00  0.00     0.041 C 
ATOM     16  O   UNL     1     -10.353  29.455  -8.874  1.00  0.00    -0.550 OA
ATOM     17  O   UNL     1      -9.093  30.140  -7.083  1.00  0.00    -0.550 OA
ENDBRANCH  14  15
ENDBRANCH  13  14
ENDBRANCH  12  13
ENDBRANCH  11  12
ENDBRANCH  10  11
ENDBRANCH   9  10
ENDBRANCH   8   9
ENDBRANCH   7   8
ENDBRANCH   6   7
ENDBRANCH   5   6
ENDBRANCH   4   5
ENDBRANCH   3   4
ENDBRANCH   2   3
ENDBRANCH   1   2
BRANCH   1  18
ATOM     18  C   UNL     1     -11.678  41.387 -10.339  1.00  0.00     0.000 C 
BRANCH  18  19
ATOM     19  C   UNL     1     -10.240  41.164  -9.836  1.00  0.00     0.000 C 
BRANCH  19  20
ATOM     20  C   UNL     1      -9.983  41.600  -8.379  1.00  0.00     0.000 C 
BRANCH  20  21
ATOM     21  C   UNL     1     -10.250  43.091  -8.090  1.00  0.00     0.000 C 
BRANCH  21  22
ATOM     22  C   UNL     1     -11.205  43.370  -6.911  1.00  0.00     0.000 C 
BRANCH  22  23
ATOM     23  C   UNL     1     -11.626  42.127  -6.106  1.00  0.00     0.000 C 
BRANCH  23  24
ATOM     24  C   UNL     1     -13.138  42.082  -5.823  1.00  0.00    -0.000 C 
BRANCH  24  25
ATOM     25  C   UNL     1     -13.624  40.673  -5.450  1.00  0.00    -0.000 C 
BRANCH  25  26
ATOM     26  C   UNL     1     -14.655  40.695  -4.310  1.00  0.00    -0.000 C 
BRANCH  26  27
ATOM     27  C   UNL     1     -15.023  42.128  -3.872  1.00  0.00    -0.000 C 
BRANCH  27  28
ATOM     28  C   UNL     1     -16.365  42.227  -3.122  1.00  0.00    -0.000 C 
BRANCH  28  29
ATOM     29  C   UNL     1     -17.565  41.581  -3.842  1.00  0.00    -0.000 C 
BRANCH  29  30
ATOM     30  C   UNL     1     -18.624  40.950  -2.916  1.00  0.00    -0.000 C 
BRANCH  30  31
ATOM     31  C   UNL     1     -19.936  41.745  -2.876  1.00  0.00    -0.003 C 
ATOM     32  C   UNL     1     -20.569  41.836  -4.263  1.00  0.00     0.004 C 
ENDBRANCH  30  31
ENDBRANCH  29  30
ENDBRANCH  28  29
ENDBRANCH  27  28
ENDBRANCH  26  27
ENDBRANCH  25  26
ENDBRANCH  24  25
ENDBRANCH  23  24
ENDBRANCH  22  23
ENDBRANCH  21  22
ENDBRANCH  20  21
ENDBRANCH  19  20
ENDBRANCH  18  19
ENDBRANCH   1  18
TORSDOF 28
ENDMDL
