MODEL 1
REMARK VINA RESULT:    -5.243      0.000      0.000
REMARK INTER + INTRA:          -5.987
REMARK INTER:                  -5.856
REMARK INTRA:                  -0.131
REMARK UNBOUND:                -0.131
REMARK SMILES COc1cc2ccc(=O)oc2cc1OC
REMARK SMILES IDX 3 1 13 2 12 3 11 4 5 5 4 6 6 7 7 8 8 9 9 10 10 11 2 12 1 13
REMARK SMILES IDX 14 14 15 15
REMARK H PARENT
REMARK Flexibility Score: inf
ROOT
ATOM      1  C   UNL     1      10.093 -28.485  27.133  1.00  0.00     0.161 A 
ATOM      2  C   UNL     1       8.789 -28.980  26.967  1.00  0.00     0.164 A 
ATOM      3  C   UNL     1       8.098 -29.517  28.072  1.00  0.00     0.098 A 
ATOM      4  C   UNL     1       8.703 -29.560  29.331  1.00  0.00     0.142 A 
ATOM      5  C   UNL     1      10.011 -29.063  29.498  1.00  0.00     0.022 A 
ATOM      6  C   UNL     1      10.702 -28.529  28.403  1.00  0.00     0.062 A 
ATOM      7  C   UNL     1      10.588 -29.120  30.771  1.00  0.00     0.019 A 
ATOM      8  C   UNL     1       9.859 -29.662  31.829  1.00  0.00     0.094 A 
ATOM      9  C   UNL     1       8.565 -30.136  31.588  1.00  0.00     0.336 A 
ATOM     10  O   UNL     1       7.890 -30.627  32.531  1.00  0.00    -0.246 OA
ATOM     11  O   UNL     1       8.040 -30.068  30.368  1.00  0.00    -0.423 OA
ENDROOT
BRANCH   1  12
ATOM     12  O   UNL     1      10.752 -27.958  26.010  1.00  0.00    -0.493 OA
ATOM     13  C   UNL     1      10.812 -26.572  25.686  1.00  0.00     0.278 C 
ENDBRANCH   1  12
BRANCH   2  14
ATOM     14  O   UNL     1       8.213 -28.921  25.688  1.00  0.00    -0.493 OA
ATOM     15  C   UNL     1       8.113 -30.026  24.796  1.00  0.00     0.278 C 
ENDBRANCH   2  14
TORSDOF 2
ENDMDL
MODEL 2
REMARK VINA RESULT:    -5.183      3.660      5.231
REMARK INTER + INTRA:          -5.920
REMARK INTER:                  -5.802
REMARK INTRA:                  -0.118
REMARK UNBOUND:                -0.131
REMARK SMILES COc1cc2ccc(=O)oc2cc1OC
REMARK SMILES IDX 3 1 13 2 12 3 11 4 5 5 4 6 6 7 7 8 8 9 9 10 10 11 2 12 1 13
REMARK SMILES IDX 14 14 15 15
REMARK H PARENT
REMARK Flexibility Score: inf
ROOT
ATOM      1  C   UNL     1       9.394 -28.308  30.778  1.00  0.00     0.161 A 
ATOM      2  C   UNL     1       9.279 -28.121  29.391  1.00  0.00     0.164 A 
ATOM      3  C   UNL     1       9.266 -26.816  28.859  1.00  0.00     0.098 A 
ATOM      4  C   UNL     1       9.369 -25.708  29.704  1.00  0.00     0.142 A 
ATOM      5  C   UNL     1       9.486 -25.895  31.096  1.00  0.00     0.022 A 
ATOM      6  C   UNL     1       9.497 -27.190  31.629  1.00  0.00     0.062 A 
ATOM      7  C   UNL     1       9.586 -24.765  31.914  1.00  0.00     0.019 A 
ATOM      8  C   UNL     1       9.569 -23.496  31.335  1.00  0.00     0.094 A 
ATOM      9  C   UNL     1       9.451 -23.388  29.946  1.00  0.00     0.336 A 
ATOM     10  O   UNL     1       9.435 -22.252  29.403  1.00  0.00    -0.246 OA
ATOM     11  O   UNL     1       9.358 -24.479  29.191  1.00  0.00    -0.423 OA
ENDROOT
BRANCH   1  12
ATOM     12  O   UNL     1       9.402 -29.623  31.272  1.00  0.00    -0.493 OA
ATOM     13  C   UNL     1       9.522 -29.967  32.650  1.00  0.00     0.278 C 
ENDBRANCH   1  12
BRANCH   2  14
ATOM     14  O   UNL     1       9.178 -29.257  28.572  1.00  0.00    -0.493 OA
ATOM     15  C   UNL     1       7.983 -29.682  27.924  1.00  0.00     0.278 C 
ENDBRANCH   2  14
TORSDOF 2
ENDMDL
MODEL 3
REMARK VINA RESULT:    -5.169      4.241      5.623
REMARK INTER + INTRA:          -5.904
REMARK INTER:                  -5.791
REMARK INTRA:                  -0.113
REMARK UNBOUND:                -0.131
REMARK SMILES COc1cc2ccc(=O)oc2cc1OC
REMARK SMILES IDX 3 1 13 2 12 3 11 4 5 5 4 6 6 7 7 8 8 9 9 10 10 11 2 12 1 13
REMARK SMILES IDX 14 14 15 15
REMARK H PARENT
REMARK Flexibility Score: inf
ROOT
ATOM      1  C   UNL     1       9.950 -24.967  32.262  1.00  0.00     0.161 A 
ATOM      2  C   UNL     1       9.708 -24.559  30.940  1.00  0.00     0.164 A 
ATOM      3  C   UNL     1       9.412 -25.521  29.954  1.00  0.00     0.098 A 
ATOM      4  C   UNL     1       9.357 -26.877  30.283  1.00  0.00     0.142 A 
ATOM      5  C   UNL     1       9.599 -27.287  31.609  1.00  0.00     0.022 A 
ATOM      6  C   UNL     1       9.895 -26.335  32.593  1.00  0.00     0.062 A 
ATOM      7  C   UNL     1       9.537 -28.653  31.907  1.00  0.00     0.019 A 
ATOM      8  C   UNL     1       9.240 -29.562  30.892  1.00  0.00     0.094 A 
ATOM      9  C   UNL     1       9.010 -29.081  29.599  1.00  0.00     0.336 A 
ATOM     10  O   UNL     1       8.739 -29.886  28.668  1.00  0.00    -0.246 OA
ATOM     11  O   UNL     1       9.075 -27.777  29.344  1.00  0.00    -0.423 OA
ENDROOT
BRANCH   1  12
ATOM     12  O   UNL     1      10.243 -23.981  33.219  1.00  0.00    -0.493 OA
ATOM     13  C   UNL     1      10.323 -24.216  34.622  1.00  0.00     0.278 C 
ENDBRANCH   1  12
BRANCH   2  14
ATOM     14  O   UNL     1       9.771 -23.187  30.645  1.00  0.00    -0.493 OA
ATOM     15  C   UNL     1       8.640 -22.330  30.542  1.00  0.00     0.278 C 
ENDBRANCH   2  14
TORSDOF 2
ENDMDL
MODEL 4
REMARK VINA RESULT:    -5.143      8.692     10.380
REMARK INTER + INTRA:          -5.874
REMARK INTER:                  -5.719
REMARK INTRA:                  -0.155
REMARK UNBOUND:                -0.131
REMARK SMILES COc1cc2ccc(=O)oc2cc1OC
REMARK SMILES IDX 3 1 13 2 12 3 11 4 5 5 4 6 6 7 7 8 8 9 9 10 10 11 2 12 1 13
REMARK SMILES IDX 14 14 15 15
REMARK H PARENT
REMARK Flexibility Score: inf
ROOT
ATOM      1  C   UNL     1      15.927 -24.750  34.160  1.00  0.00     0.161 A 
ATOM      2  C   UNL     1      14.910 -23.963  33.596  1.00  0.00     0.164 A 
ATOM      3  C   UNL     1      14.972 -23.608  32.234  1.00  0.00     0.098 A 
ATOM      4  C   UNL     1      16.039 -24.036  31.440  1.00  0.00     0.142 A 
ATOM      5  C   UNL     1      17.060 -24.827  32.004  1.00  0.00     0.022 A 
ATOM      6  C   UNL     1      17.004 -25.181  33.359  1.00  0.00     0.062 A 
ATOM      7  C   UNL     1      18.116 -25.239  31.183  1.00  0.00     0.019 A 
ATOM      8  C   UNL     1      18.127 -24.859  29.842  1.00  0.00     0.094 A 
ATOM      9  C   UNL     1      17.079 -24.074  29.351  1.00  0.00     0.336 A 
ATOM     10  O   UNL     1      17.071 -23.722  28.142  1.00  0.00    -0.246 OA
ATOM     11  O   UNL     1      16.088 -23.696  30.154  1.00  0.00    -0.423 OA
ENDROOT
BRANCH   1  12
ATOM     12  O   UNL     1      15.833 -25.083  35.521  1.00  0.00    -0.493 OA
ATOM     13  C   UNL     1      15.506 -26.380  36.014  1.00  0.00     0.278 C 
ENDBRANCH   1  12
BRANCH   2  14
ATOM     14  O   UNL     1      13.853 -23.550  34.423  1.00  0.00    -0.493 OA
ATOM     15  C   UNL     1      12.514 -24.024  34.319  1.00  0.00     0.278 C 
ENDBRANCH   2  14
TORSDOF 2
ENDMDL
MODEL 5
REMARK VINA RESULT:    -5.137      9.006     11.121
REMARK INTER + INTRA:          -5.868
REMARK INTER:                  -5.760
REMARK INTRA:                  -0.107
REMARK UNBOUND:                -0.131
REMARK SMILES COc1cc2ccc(=O)oc2cc1OC
REMARK SMILES IDX 3 1 13 2 12 3 11 4 5 5 4 6 6 7 7 8 8 9 9 10 10 11 2 12 1 13
REMARK SMILES IDX 14 14 15 15
REMARK H PARENT
REMARK Flexibility Score: inf
ROOT
ATOM      1  C   UNL     1      16.204 -24.105  34.019  1.00  0.00     0.161 A 
ATOM      2  C   UNL     1      17.422 -24.799  34.106  1.00  0.00     0.164 A 
ATOM      3  C   UNL     1      18.059 -25.246  32.930  1.00  0.00     0.098 A 
ATOM      4  C   UNL     1      17.485 -25.003  31.680  1.00  0.00     0.142 A 
ATOM      5  C   UNL     1      16.263 -24.307  31.592  1.00  0.00     0.022 A 
ATOM      6  C   UNL     1      15.626 -23.861  32.757  1.00  0.00     0.062 A 
ATOM      7  C   UNL     1      15.715 -24.080  30.325  1.00  0.00     0.019 A 
ATOM      8  C   UNL     1      16.387 -24.544  29.195  1.00  0.00     0.094 A 
ATOM      9  C   UNL     1      17.597 -25.227  29.359  1.00  0.00     0.336 A 
ATOM     10  O   UNL     1      18.220 -25.654  28.352  1.00  0.00    -0.246 OA
ATOM     11  O   UNL     1      18.096 -25.429  30.576  1.00  0.00    -0.423 OA
ENDROOT
BRANCH   1  12
ATOM     12  O   UNL     1      15.598 -23.675  35.210  1.00  0.00    -0.493 OA
ATOM     13  C   UNL     1      14.221 -23.329  35.337  1.00  0.00     0.278 C 
ENDBRANCH   1  12
BRANCH   2  14
ATOM     14  O   UNL     1      17.970 -25.025  35.379  1.00  0.00    -0.493 OA
ATOM     15  C   UNL     1      18.962 -24.207  35.989  1.00  0.00     0.278 C 
ENDBRANCH   2  14
TORSDOF 2
ENDMDL
MODEL 6
REMARK VINA RESULT:    -5.050      5.059      5.884
REMARK INTER + INTRA:          -5.771
REMARK INTER:                  -5.646
REMARK INTRA:                  -0.125
REMARK UNBOUND:                -0.131
REMARK SMILES COc1cc2ccc(=O)oc2cc1OC
REMARK SMILES IDX 3 1 13 2 12 3 11 4 5 5 4 6 6 7 7 8 8 9 9 10 10 11 2 12 1 13
REMARK SMILES IDX 14 14 15 15
REMARK H PARENT
REMARK Flexibility Score: inf
ROOT
ATOM      1  C   UNL     1       9.157 -26.014  29.890  1.00  0.00     0.161 A 
ATOM      2  C   UNL     1       9.366 -26.833  31.012  1.00  0.00     0.164 A 
ATOM      3  C   UNL     1       9.720 -26.253  32.247  1.00  0.00     0.098 A 
ATOM      4  C   UNL     1       9.865 -24.868  32.361  1.00  0.00     0.142 A 
ATOM      5  C   UNL     1       9.655 -24.046  31.237  1.00  0.00     0.022 A 
ATOM      6  C   UNL     1       9.304 -24.617  30.007  1.00  0.00     0.062 A 
ATOM      7  C   UNL     1       9.809 -22.663  31.384  1.00  0.00     0.019 A 
ATOM      8  C   UNL     1      10.160 -22.142  32.629  1.00  0.00     0.094 A 
ATOM      9  C   UNL     1      10.351 -23.020  33.701  1.00  0.00     0.336 A 
ATOM     10  O   UNL     1      10.668 -22.570  34.833  1.00  0.00    -0.246 OA
ATOM     11  O   UNL     1      10.199 -24.331  33.533  1.00  0.00    -0.423 OA
ENDROOT
BRANCH   1  12
ATOM     12  O   UNL     1       8.806 -26.626  28.676  1.00  0.00    -0.493 OA
ATOM     13  C   UNL     1       9.291 -26.223  27.399  1.00  0.00     0.278 C 
ENDBRANCH   1  12
BRANCH   2  14
ATOM     14  O   UNL     1       9.212 -28.221  30.860  1.00  0.00    -0.493 OA
ATOM     15  C   UNL     1      10.286 -29.154  30.832  1.00  0.00     0.278 C 
ENDBRANCH   2  14
TORSDOF 2
ENDMDL
MODEL 7
REMARK VINA RESULT:    -5.040      5.085      5.913
REMARK INTER + INTRA:          -5.760
REMARK INTER:                  -5.625
REMARK INTRA:                  -0.135
REMARK UNBOUND:                -0.131
REMARK SMILES COc1cc2ccc(=O)oc2cc1OC
REMARK SMILES IDX 3 1 13 2 12 3 11 4 5 5 4 6 6 7 7 8 8 9 9 10 10 11 2 12 1 13
REMARK SMILES IDX 14 14 15 15
REMARK H PARENT
REMARK Flexibility Score: inf
ROOT
ATOM      1  C   UNL     1       9.315 -26.873  30.840  1.00  0.00     0.161 A 
ATOM      2  C   UNL     1       9.031 -25.888  29.879  1.00  0.00     0.164 A 
ATOM      3  C   UNL     1       9.178 -24.526  30.209  1.00  0.00     0.098 A 
ATOM      4  C   UNL     1       9.605 -24.150  31.485  1.00  0.00     0.142 A 
ATOM      5  C   UNL     1       9.891 -25.137  32.448  1.00  0.00     0.022 A 
ATOM      6  C   UNL     1       9.745 -26.492  32.126  1.00  0.00     0.062 A 
ATOM      7  C   UNL     1      10.317 -24.727  33.717  1.00  0.00     0.019 A 
ATOM      8  C   UNL     1      10.445 -23.366  33.989  1.00  0.00     0.094 A 
ATOM      9  C   UNL     1      10.144 -22.443  32.982  1.00  0.00     0.336 A 
ATOM     10  O   UNL     1      10.255 -21.209  33.208  1.00  0.00    -0.246 OA
ATOM     11  O   UNL     1       9.742 -22.860  31.785  1.00  0.00    -0.423 OA
ENDROOT
BRANCH   1  12
ATOM     12  O   UNL     1       9.157 -28.221  30.477  1.00  0.00    -0.493 OA
ATOM     13  C   UNL     1      10.143 -29.231  30.672  1.00  0.00     0.278 C 
ENDBRANCH   1  12
BRANCH   2  14
ATOM     14  O   UNL     1       8.604 -26.303  28.608  1.00  0.00    -0.493 OA
ATOM     15  C   UNL     1       9.421 -26.305  27.442  1.00  0.00     0.278 C 
ENDBRANCH   2  14
TORSDOF 2
ENDMDL
MODEL 8
REMARK VINA RESULT:    -5.014      4.148      5.814
REMARK INTER + INTRA:          -5.730
REMARK INTER:                  -5.568
REMARK INTRA:                  -0.163
REMARK UNBOUND:                -0.131
REMARK SMILES COc1cc2ccc(=O)oc2cc1OC
REMARK SMILES IDX 3 1 13 2 12 3 11 4 5 5 4 6 6 7 7 8 8 9 9 10 10 11 2 12 1 13
REMARK SMILES IDX 14 14 15 15
REMARK H PARENT
REMARK Flexibility Score: inf
ROOT
ATOM      1  C   UNL     1       9.523 -24.464  31.235  1.00  0.00     0.161 A 
ATOM      2  C   UNL     1       9.650 -25.502  32.174  1.00  0.00     0.164 A 
ATOM      3  C   UNL     1       9.506 -26.841  31.760  1.00  0.00     0.098 A 
ATOM      4  C   UNL     1       9.239 -27.143  30.422  1.00  0.00     0.142 A 
ATOM      5  C   UNL     1       9.112 -26.102  29.480  1.00  0.00     0.022 A 
ATOM      6  C   UNL     1       9.252 -24.769  29.887  1.00  0.00     0.062 A 
ATOM      7  C   UNL     1       8.843 -26.438  28.149  1.00  0.00     0.019 A 
ATOM      8  C   UNL     1       8.711 -27.779  27.794  1.00  0.00     0.094 A 
ATOM      9  C   UNL     1       8.850 -28.759  28.783  1.00  0.00     0.336 A 
ATOM     10  O   UNL     1       8.736 -29.976  28.483  1.00  0.00    -0.246 OA
ATOM     11  O   UNL     1       9.106 -28.412  30.042  1.00  0.00    -0.423 OA
ENDROOT
BRANCH   1  12
ATOM     12  O   UNL     1       9.671 -23.141  31.683  1.00  0.00    -0.493 OA
ATOM     13  C   UNL     1      10.846 -22.355  31.505  1.00  0.00     0.278 C 
ENDBRANCH   1  12
BRANCH   2  14
ATOM     14  O   UNL     1       9.919 -25.162  33.509  1.00  0.00    -0.493 OA
ATOM     15  C   UNL     1      11.213 -25.182  34.103  1.00  0.00     0.278 C 
ENDBRANCH   2  14
TORSDOF 2
ENDMDL
MODEL 9
REMARK VINA RESULT:    -5.012      4.696      5.986
REMARK INTER + INTRA:          -5.729
REMARK INTER:                  -5.628
REMARK INTRA:                  -0.101
REMARK UNBOUND:                -0.131
REMARK SMILES COc1cc2ccc(=O)oc2cc1OC
REMARK SMILES IDX 3 1 13 2 12 3 11 4 5 5 4 6 6 7 7 8 8 9 9 10 10 11 2 12 1 13
REMARK SMILES IDX 14 14 15 15
REMARK H PARENT
REMARK Flexibility Score: inf
ROOT
ATOM      1  C   UNL     1       9.672 -23.861  31.025  1.00  0.00     0.161 A 
ATOM      2  C   UNL     1       9.910 -24.127  32.384  1.00  0.00     0.164 A 
ATOM      3  C   UNL     1       9.931 -25.459  32.844  1.00  0.00     0.098 A 
ATOM      4  C   UNL     1       9.718 -26.517  31.956  1.00  0.00     0.142 A 
ATOM      5  C   UNL     1       9.481 -26.251  30.592  1.00  0.00     0.022 A 
ATOM      6  C   UNL     1       9.457 -24.929  30.131  1.00  0.00     0.062 A 
ATOM      7  C   UNL     1       9.271 -27.332  29.729  1.00  0.00     0.019 A 
ATOM      8  C   UNL     1       9.303 -28.630  30.238  1.00  0.00     0.094 A 
ATOM      9  C   UNL     1       9.545 -28.817  31.602  1.00  0.00     0.336 A 
ATOM     10  O   UNL     1       9.579 -29.981  32.081  1.00  0.00    -0.246 OA
ATOM     11  O   UNL     1       9.742 -27.771  32.401  1.00  0.00    -0.423 OA
ENDROOT
BRANCH   1  12
ATOM     12  O   UNL     1       9.657 -22.522  30.603  1.00  0.00    -0.493 OA
ATOM     13  C   UNL     1       9.344 -22.096  29.279  1.00  0.00     0.278 C 
ENDBRANCH   1  12
BRANCH   2  14
ATOM     14  O   UNL     1      10.119 -23.040  33.247  1.00  0.00    -0.493 OA
ATOM     15  C   UNL     1      10.377 -23.154  34.643  1.00  0.00     0.278 C 
ENDBRANCH   2  14
TORSDOF 2
ENDMDL
