MODEL 1
REMARK VINA RESULT:    -4.059      0.000      0.000
REMARK INTER + INTRA:          -5.645
REMARK INTER:                  -5.483
REMARK INTRA:                  -0.161
REMARK UNBOUND:                -0.161
REMARK SMILES [NH3+]CCCC[C@H]([NH3+])C(=O)[O-]
REMARK SMILES IDX 4 1 3 2 2 3 1 4 5 8 6 9 7 10 8 14 9 15 10 16
REMARK H PARENT 1 5 1 6 1 7 7 11 7 12 7 13
REMARK Flexibility Score: inf
ROOT
ATOM      1  C   UNL     1      23.849  -1.462   0.317  1.00  0.00     0.012 C 
ENDROOT
BRANCH   1   2
ATOM      2  C   UNL     1      24.537  -0.819   1.533  1.00  0.00     0.061 C 
BRANCH   2   3
ATOM      3  C   UNL     1      25.438  -1.803   2.297  1.00  0.00     0.258 C 
BRANCH   3   4
ATOM      4  N   UNL     1      26.811  -1.305   2.368  1.00  0.00    -0.358 N 
ATOM      5  H   UNL     1      27.286  -1.683   3.220  1.00  0.00     0.344 HD
ATOM      6  H   UNL     1      26.813  -0.258   2.398  1.00  0.00     0.344 HD
ATOM      7  H   UNL     1      27.334  -1.620   1.520  1.00  0.00     0.344 HD
ENDBRANCH   3   4
ENDBRANCH   2   3
ENDBRANCH   1   2
BRANCH   1   8
ATOM      8  C   UNL     1      24.206  -2.950   0.156  1.00  0.00     0.072 C 
BRANCH   8   9
ATOM      9  C   UNL     1      23.248  -3.691  -0.804  1.00  0.00     0.227 C 
BRANCH   9  10
ATOM     10  N   UNL     1      23.038  -2.945  -2.054  1.00  0.00    -0.350 N 
ATOM     11  H   UNL     1      23.833  -3.119  -2.710  1.00  0.00     0.345 HD
ATOM     12  H   UNL     1      22.145  -3.236  -2.514  1.00  0.00     0.345 HD
ATOM     13  H   UNL     1      23.011  -1.919  -1.860  1.00  0.00     0.345 HD
ENDBRANCH   9  10
BRANCH   9  14
ATOM     14  C   UNL     1      21.929  -3.932  -0.117  1.00  0.00     0.099 C 
ATOM     15  O   UNL     1      20.904  -3.284  -0.459  1.00  0.00    -0.544 OA
ATOM     16  O   UNL     1      21.842  -4.858   0.914  1.00  0.00    -0.544 OA
ENDBRANCH   9  14
ENDBRANCH   8   9
ENDBRANCH   1   8
TORSDOF 7
ENDMDL
MODEL 2
REMARK VINA RESULT:    -3.900      3.119      4.653
REMARK INTER + INTRA:          -5.430
REMARK INTER:                  -5.243
REMARK INTRA:                  -0.187
REMARK UNBOUND:                -0.161
REMARK SMILES [NH3+]CCCC[C@H]([NH3+])C(=O)[O-]
REMARK SMILES IDX 4 1 3 2 2 3 1 4 5 8 6 9 7 10 8 14 9 15 10 16
REMARK H PARENT 1 5 1 6 1 7 7 11 7 12 7 13
REMARK Flexibility Score: inf
ROOT
ATOM      1  C   UNL     1      22.871  -3.489   1.483  1.00  0.00     0.012 C 
ENDROOT
BRANCH   1   2
ATOM      2  C   UNL     1      22.142  -2.847   0.291  1.00  0.00     0.061 C 
BRANCH   2   3
ATOM      3  C   UNL     1      22.248  -3.686  -0.994  1.00  0.00     0.258 C 
BRANCH   3   4
ATOM      4  N   UNL     1      23.023  -2.981  -2.014  1.00  0.00    -0.358 N 
ATOM      5  H   UNL     1      23.903  -2.598  -1.596  1.00  0.00     0.344 HD
ATOM      6  H   UNL     1      22.457  -2.201  -2.422  1.00  0.00     0.344 HD
ATOM      7  H   UNL     1      23.275  -3.650  -2.776  1.00  0.00     0.344 HD
ENDBRANCH   3   4
ENDBRANCH   2   3
ENDBRANCH   1   2
BRANCH   1   8
ATOM      8  C   UNL     1      23.737  -2.480   2.257  1.00  0.00     0.072 C 
BRANCH   8   9
ATOM      9  C   UNL     1      24.709  -1.703   1.341  1.00  0.00     0.227 C 
BRANCH   9  10
ATOM     10  N   UNL     1      25.646  -2.600   0.649  1.00  0.00    -0.350 N 
ATOM     11  H   UNL     1      25.660  -3.534   1.120  1.00  0.00     0.345 HD
ATOM     12  H   UNL     1      25.369  -2.727  -0.351  1.00  0.00     0.345 HD
ATOM     13  H   UNL     1      26.615  -2.213   0.695  1.00  0.00     0.345 HD
ENDBRANCH   9  10
BRANCH   9  14
ATOM     14  C   UNL     1      25.468  -0.686   2.152  1.00  0.00     0.099 C 
ATOM     15  O   UNL     1      25.075   0.509   2.207  1.00  0.00    -0.544 OA
ATOM     16  O   UNL     1      26.623  -1.061   2.829  1.00  0.00    -0.544 OA
ENDBRANCH   9  14
ENDBRANCH   8   9
ENDBRANCH   1   8
TORSDOF 7
ENDMDL
MODEL 3
REMARK VINA RESULT:    -3.882      2.945      4.939
REMARK INTER + INTRA:          -5.405
REMARK INTER:                  -5.214
REMARK INTRA:                  -0.191
REMARK UNBOUND:                -0.161
REMARK SMILES [NH3+]CCCC[C@H]([NH3+])C(=O)[O-]
REMARK SMILES IDX 4 1 3 2 2 3 1 4 5 8 6 9 7 10 8 14 9 15 10 16
REMARK H PARENT 1 5 1 6 1 7 7 11 7 12 7 13
REMARK Flexibility Score: inf
ROOT
ATOM      1  C   UNL     1      23.402  -2.891   1.729  1.00  0.00     0.012 C 
ENDROOT
BRANCH   1   2
ATOM      2  C   UNL     1      23.852  -2.848   0.260  1.00  0.00     0.061 C 
BRANCH   2   3
ATOM      3  C   UNL     1      22.822  -3.468  -0.698  1.00  0.00     0.258 C 
BRANCH   3   4
ATOM      4  N   UNL     1      23.058  -3.029  -2.073  1.00  0.00    -0.358 N 
ATOM      5  H   UNL     1      23.762  -2.255  -2.087  1.00  0.00     0.344 HD
ATOM      6  H   UNL     1      22.162  -2.700  -2.505  1.00  0.00     0.344 HD
ATOM      7  H   UNL     1      23.427  -3.832  -2.631  1.00  0.00     0.344 HD
ENDBRANCH   3   4
ENDBRANCH   2   3
ENDBRANCH   1   2
BRANCH   1   8
ATOM      8  C   UNL     1      24.370  -2.147   2.665  1.00  0.00     0.072 C 
BRANCH   8   9
ATOM      9  C   UNL     1      25.335  -1.213   1.901  1.00  0.00     0.227 C 
BRANCH   9  10
ATOM     10  N   UNL     1      26.733  -1.414   2.311  1.00  0.00    -0.350 N 
ATOM     11  H   UNL     1      27.362  -1.353   1.478  1.00  0.00     0.345 HD
ATOM     12  H   UNL     1      27.023  -0.692   3.011  1.00  0.00     0.345 HD
ATOM     13  H   UNL     1      26.853  -2.367   2.724  1.00  0.00     0.345 HD
ENDBRANCH   9  10
BRANCH   9  14
ATOM     14  C   UNL     1      24.933   0.222   2.122  1.00  0.00     0.099 C 
ATOM     15  O   UNL     1      25.536   0.930   2.972  1.00  0.00    -0.544 OA
ATOM     16  O   UNL     1      23.878   0.766   1.401  1.00  0.00    -0.544 OA
ENDBRANCH   9  14
ENDBRANCH   8   9
ENDBRANCH   1   8
TORSDOF 7
ENDMDL
MODEL 4
REMARK VINA RESULT:    -3.823      2.142      2.559
REMARK INTER + INTRA:          -5.326
REMARK INTER:                  -4.772
REMARK INTRA:                  -0.553
REMARK UNBOUND:                -0.161
REMARK SMILES [NH3+]CCCC[C@H]([NH3+])C(=O)[O-]
REMARK SMILES IDX 4 1 3 2 2 3 1 4 5 8 6 9 7 10 8 14 9 15 10 16
REMARK H PARENT 1 5 1 6 1 7 7 11 7 12 7 13
REMARK Flexibility Score: inf
ROOT
ATOM      1  C   UNL     1      23.659  -1.183   0.055  1.00  0.00     0.012 C 
ENDROOT
BRANCH   1   2
ATOM      2  C   UNL     1      23.309  -0.568   1.420  1.00  0.00     0.061 C 
BRANCH   2   3
ATOM      3  C   UNL     1      21.794  -0.504   1.674  1.00  0.00     0.258 C 
BRANCH   3   4
ATOM      4  N   UNL     1      21.058  -0.404   0.414  1.00  0.00    -0.358 N 
ATOM      5  H   UNL     1      21.726  -0.312  -0.386  1.00  0.00     0.344 HD
ATOM      6  H   UNL     1      20.417   0.424   0.436  1.00  0.00     0.344 HD
ATOM      7  H   UNL     1      20.487  -1.269   0.280  1.00  0.00     0.344 HD
ENDBRANCH   3   4
ENDBRANCH   2   3
ENDBRANCH   1   2
BRANCH   1   8
ATOM      8  C   UNL     1      24.101  -2.653   0.167  1.00  0.00     0.072 C 
BRANCH   8   9
ATOM      9  C   UNL     1      23.242  -3.601  -0.700  1.00  0.00     0.227 C 
BRANCH   9  10
ATOM     10  N   UNL     1      22.973  -3.034  -2.030  1.00  0.00    -0.350 N 
ATOM     11  H   UNL     1      23.049  -3.781  -2.758  1.00  0.00     0.345 HD
ATOM     12  H   UNL     1      22.015  -2.616  -2.069  1.00  0.00     0.345 HD
ATOM     13  H   UNL     1      23.681  -2.301  -2.259  1.00  0.00     0.345 HD
ENDBRANCH   9  10
BRANCH   9  14
ATOM     14  C   UNL     1      21.946  -3.900   0.006  1.00  0.00     0.099 C 
ATOM     15  O   UNL     1      21.920  -4.697   0.981  1.00  0.00    -0.544 OA
ATOM     16  O   UNL     1      20.765  -3.311  -0.430  1.00  0.00    -0.544 OA
ENDBRANCH   9  14
ENDBRANCH   8   9
ENDBRANCH   1   8
TORSDOF 7
ENDMDL
MODEL 5
REMARK VINA RESULT:    -3.820      2.865      4.902
REMARK INTER + INTRA:          -5.322
REMARK INTER:                  -5.158
REMARK INTRA:                  -0.164
REMARK UNBOUND:                -0.161
REMARK SMILES [NH3+]CCCC[C@H]([NH3+])C(=O)[O-]
REMARK SMILES IDX 4 1 3 2 2 3 1 4 5 8 6 9 7 10 8 14 9 15 10 16
REMARK H PARENT 1 5 1 6 1 7 7 11 7 12 7 13
REMARK Flexibility Score: inf
ROOT
ATOM      1  C   UNL     1      24.139  -2.707   1.451  1.00  0.00     0.012 C 
ENDROOT
BRANCH   1   2
ATOM      2  C   UNL     1      24.215  -3.355   0.058  1.00  0.00     0.061 C 
BRANCH   2   3
ATOM      3  C   UNL     1      22.865  -3.347  -0.677  1.00  0.00     0.258 C 
BRANCH   3   4
ATOM      4  N   UNL     1      23.044  -3.020  -2.092  1.00  0.00    -0.358 N 
ATOM      5  H   UNL     1      22.115  -2.853  -2.542  1.00  0.00     0.344 HD
ATOM      6  H   UNL     1      23.539  -3.801  -2.582  1.00  0.00     0.344 HD
ATOM      7  H   UNL     1      23.621  -2.152  -2.172  1.00  0.00     0.344 HD
ENDBRANCH   3   4
ENDBRANCH   2   3
ENDBRANCH   1   2
BRANCH   1   8
ATOM      8  C   UNL     1      24.389  -1.189   1.410  1.00  0.00     0.072 C 
BRANCH   8   9
ATOM      9  C   UNL     1      25.455  -0.734   2.431  1.00  0.00     0.227 C 
BRANCH   9  10
ATOM     10  N   UNL     1      26.738  -1.424   2.229  1.00  0.00    -0.350 N 
ATOM     11  H   UNL     1      27.456  -0.749   1.881  1.00  0.00     0.345 HD
ATOM     12  H   UNL     1      27.075  -1.850   3.123  1.00  0.00     0.345 HD
ATOM     13  H   UNL     1      26.635  -2.171   1.505  1.00  0.00     0.345 HD
ENDBRANCH   9  10
BRANCH   9  14
ATOM     14  C   UNL     1      24.953  -0.974   3.830  1.00  0.00     0.099 C 
ATOM     15  O   UNL     1      24.038  -0.256   4.311  1.00  0.00    -0.544 OA
ATOM     16  O   UNL     1      25.516  -1.980   4.607  1.00  0.00    -0.544 OA
ENDBRANCH   9  14
ENDBRANCH   8   9
ENDBRANCH   1   8
TORSDOF 7
ENDMDL
MODEL 6
REMARK VINA RESULT:    -3.786     13.941     15.598
REMARK INTER + INTRA:          -5.275
REMARK INTER:                  -4.989
REMARK INTRA:                  -0.286
REMARK UNBOUND:                -0.161
REMARK SMILES [NH3+]CCCC[C@H]([NH3+])C(=O)[O-]
REMARK SMILES IDX 4 1 3 2 2 3 1 4 5 8 6 9 7 10 8 14 9 15 10 16
REMARK H PARENT 1 5 1 6 1 7 7 11 7 12 7 13
REMARK Flexibility Score: inf
ROOT
ATOM      1  C   UNL     1      32.178  -3.217  11.699  1.00  0.00     0.012 C 
ENDROOT
BRANCH   1   2
ATOM      2  C   UNL     1      31.688  -3.757  10.345  1.00  0.00     0.061 C 
BRANCH   2   3
ATOM      3  C   UNL     1      32.837  -4.222   9.437  1.00  0.00     0.258 C 
BRANCH   3   4
ATOM      4  N   UNL     1      33.589  -3.078   8.922  1.00  0.00    -0.358 N 
ATOM      5  H   UNL     1      33.544  -2.283   9.601  1.00  0.00     0.344 HD
ATOM      6  H   UNL     1      33.199  -2.777   7.998  1.00  0.00     0.344 HD
ATOM      7  H   UNL     1      34.589  -3.355   8.792  1.00  0.00     0.344 HD
ENDBRANCH   3   4
ENDBRANCH   2   3
ENDBRANCH   1   2
BRANCH   1   8
ATOM      8  C   UNL     1      32.400  -4.334  12.734  1.00  0.00     0.072 C 
BRANCH   8   9
ATOM      9  C   UNL     1      33.873  -4.439  13.189  1.00  0.00     0.227 C 
BRANCH   9  10
ATOM     10  N   UNL     1      34.679  -3.309  12.703  1.00  0.00    -0.350 N 
ATOM     11  H   UNL     1      35.327  -3.631  11.948  1.00  0.00     0.345 HD
ATOM     12  H   UNL     1      34.066  -2.550  12.326  1.00  0.00     0.345 HD
ATOM     13  H   UNL     1      35.267  -2.927  13.478  1.00  0.00     0.345 HD
ENDBRANCH   9  10
BRANCH   9  14
ATOM     14  C   UNL     1      34.461  -5.739  12.707  1.00  0.00     0.099 C 
ATOM     15  O   UNL     1      34.302  -6.796  13.373  1.00  0.00    -0.544 OA
ATOM     16  O   UNL     1      35.204  -5.773  11.534  1.00  0.00    -0.544 OA
ENDBRANCH   9  14
ENDBRANCH   8   9
ENDBRANCH   1   8
TORSDOF 7
ENDMDL
MODEL 7
REMARK VINA RESULT:    -3.698      2.169      2.905
REMARK INTER + INTRA:          -5.156
REMARK INTER:                  -5.024
REMARK INTRA:                  -0.132
REMARK UNBOUND:                -0.161
REMARK SMILES [NH3+]CCCC[C@H]([NH3+])C(=O)[O-]
REMARK SMILES IDX 4 1 3 2 2 3 1 4 5 8 6 9 7 10 8 14 9 15 10 16
REMARK H PARENT 1 5 1 6 1 7 7 11 7 12 7 13
REMARK Flexibility Score: inf
ROOT
ATOM      1  C   UNL     1      22.807  -3.487  -0.955  1.00  0.00     0.012 C 
ENDROOT
BRANCH   1   2
ATOM      2  C   UNL     1      23.675  -2.425  -0.260  1.00  0.00     0.061 C 
BRANCH   2   3
ATOM      3  C   UNL     1      24.730  -3.037   0.676  1.00  0.00     0.258 C 
BRANCH   3   4
ATOM      4  N   UNL     1      25.763  -2.057   1.009  1.00  0.00    -0.358 N 
ATOM      5  H   UNL     1      25.359  -1.091   0.994  1.00  0.00     0.344 HD
ATOM      6  H   UNL     1      26.553  -2.120   0.326  1.00  0.00     0.344 HD
ATOM      7  H   UNL     1      26.128  -2.256   1.968  1.00  0.00     0.344 HD
ENDBRANCH   3   4
ENDBRANCH   2   3
ENDBRANCH   1   2
BRANCH   1   8
ATOM      8  C   UNL     1      21.320  -3.373  -0.577  1.00  0.00     0.072 C 
BRANCH   8   9
ATOM      9  C   UNL     1      20.861  -4.496   0.380  1.00  0.00     0.227 C 
BRANCH   9  10
ATOM     10  N   UNL     1      19.884  -5.393  -0.254  1.00  0.00    -0.350 N 
ATOM     11  H   UNL     1      19.522  -4.960  -1.134  1.00  0.00     0.345 HD
ATOM     12  H   UNL     1      20.321  -6.316  -0.483  1.00  0.00     0.345 HD
ATOM     13  H   UNL     1      19.068  -5.543   0.380  1.00  0.00     0.345 HD
ENDBRANCH   9  10
BRANCH   9  14
ATOM     14  C   UNL     1      20.274  -3.891   1.628  1.00  0.00     0.099 C 
ATOM     15  O   UNL     1      19.888  -4.628   2.574  1.00  0.00    -0.544 OA
ATOM     16  O   UNL     1      20.134  -2.512   1.732  1.00  0.00    -0.544 OA
ENDBRANCH   9  14
ENDBRANCH   8   9
ENDBRANCH   1   8
TORSDOF 7
ENDMDL
MODEL 8
REMARK VINA RESULT:    -3.641      2.421      4.440
REMARK INTER + INTRA:          -5.080
REMARK INTER:                  -4.613
REMARK INTRA:                  -0.466
REMARK UNBOUND:                -0.161
REMARK SMILES [NH3+]CCCC[C@H]([NH3+])C(=O)[O-]
REMARK SMILES IDX 4 1 3 2 2 3 1 4 5 8 6 9 7 10 8 14 9 15 10 16
REMARK H PARENT 1 5 1 6 1 7 7 11 7 12 7 13
REMARK Flexibility Score: inf
ROOT
ATOM      1  C   UNL     1      22.455  -4.235   0.444  1.00  0.00     0.012 C 
ENDROOT
BRANCH   1   2
ATOM      2  C   UNL     1      21.041  -4.361   1.035  1.00  0.00     0.061 C 
BRANCH   2   3
ATOM      3  C   UNL     1      20.013  -3.473   0.316  1.00  0.00     0.258 C 
BRANCH   3   4
ATOM      4  N   UNL     1      20.579  -2.907  -0.908  1.00  0.00    -0.358 N 
ATOM      5  H   UNL     1      20.556  -3.617  -1.676  1.00  0.00     0.344 HD
ATOM      6  H   UNL     1      21.565  -2.599  -0.740  1.00  0.00     0.344 HD
ATOM      7  H   UNL     1      20.011  -2.079  -1.197  1.00  0.00     0.344 HD
ENDBRANCH   3   4
ENDBRANCH   2   3
ENDBRANCH   1   2
BRANCH   1   8
ATOM      8  C   UNL     1      23.389  -3.389   1.327  1.00  0.00     0.072 C 
BRANCH   8   9
ATOM      9  C   UNL     1      24.107  -2.272   0.535  1.00  0.00     0.227 C 
BRANCH   9  10
ATOM     10  N   UNL     1      25.551  -2.245   0.812  1.00  0.00    -0.350 N 
ATOM     11  H   UNL     1      25.726  -2.468   1.819  1.00  0.00     0.345 HD
ATOM     12  H   UNL     1      26.056  -2.941   0.216  1.00  0.00     0.345 HD
ATOM     13  H   UNL     1      25.934  -1.290   0.632  1.00  0.00     0.345 HD
ENDBRANCH   9  10
BRANCH   9  14
ATOM     14  C   UNL     1      23.491  -0.939   0.868  1.00  0.00     0.099 C 
ATOM     15  O   UNL     1      22.276  -0.718   0.620  1.00  0.00    -0.544 OA
ATOM     16  O   UNL     1      24.269   0.065   1.431  1.00  0.00    -0.544 OA
ENDBRANCH   9  14
ENDBRANCH   8   9
ENDBRANCH   1   8
TORSDOF 7
ENDMDL
MODEL 9
REMARK VINA RESULT:    -3.576      2.969      4.460
REMARK INTER + INTRA:          -4.991
REMARK INTER:                  -4.791
REMARK INTRA:                  -0.200
REMARK UNBOUND:                -0.161
REMARK SMILES [NH3+]CCCC[C@H]([NH3+])C(=O)[O-]
REMARK SMILES IDX 4 1 3 2 2 3 1 4 5 8 6 9 7 10 8 14 9 15 10 16
REMARK H PARENT 1 5 1 6 1 7 7 11 7 12 7 13
REMARK Flexibility Score: inf
ROOT
ATOM      1  C   UNL     1      24.418  -3.267   0.225  1.00  0.00     0.012 C 
ENDROOT
BRANCH   1   2
ATOM      2  C   UNL     1      22.930  -3.614   0.397  1.00  0.00     0.061 C 
BRANCH   2   3
ATOM      3  C   UNL     1      22.166  -3.637  -0.937  1.00  0.00     0.258 C 
BRANCH   3   4
ATOM      4  N   UNL     1      22.998  -3.121  -2.024  1.00  0.00    -0.358 N 
ATOM      5  H   UNL     1      22.942  -3.758  -2.852  1.00  0.00     0.344 HD
ATOM      6  H   UNL     1      23.993  -3.039  -1.708  1.00  0.00     0.344 HD
ATOM      7  H   UNL     1      22.652  -2.175  -2.301  1.00  0.00     0.344 HD
ENDBRANCH   3   4
ENDBRANCH   2   3
ENDBRANCH   1   2
BRANCH   1   8
ATOM      8  C   UNL     1      24.814  -1.982   0.973  1.00  0.00     0.072 C 
BRANCH   8   9
ATOM      9  C   UNL     1      23.622  -1.020   1.174  1.00  0.00     0.227 C 
BRANCH   9  10
ATOM     10  N   UNL     1      23.370  -0.202  -0.022  1.00  0.00    -0.350 N 
ATOM     11  H   UNL     1      23.852  -0.622  -0.850  1.00  0.00     0.345 HD
ATOM     12  H   UNL     1      22.345  -0.140  -0.220  1.00  0.00     0.345 HD
ATOM     13  H   UNL     1      23.757   0.759   0.111  1.00  0.00     0.345 HD
ENDBRANCH   9  10
BRANCH   9  14
ATOM     14  C   UNL     1      23.882  -0.131   2.362  1.00  0.00     0.099 C 
ATOM     15  O   UNL     1      23.148  -0.202   3.383  1.00  0.00    -0.544 OA
ATOM     16  O   UNL     1      24.924   0.787   2.328  1.00  0.00    -0.544 OA
ENDBRANCH   9  14
ENDBRANCH   8   9
ENDBRANCH   1   8
TORSDOF 7
ENDMDL
