MODEL 1
REMARK VINA RESULT:    -3.413      0.000      0.000
REMARK INTER + INTRA:          -8.288
REMARK INTER:                  -6.207
REMARK INTRA:                  -2.081
REMARK UNBOUND:                -2.081
REMARK SMILES CCCCCCCCCCCCCC[C@@H](C)C(=O)[O-]
REMARK SMILES IDX 9 1 10 2 11 3 12 4 13 5 14 6 15 7 16 8 17 9 18 10 19 11 8 12
REMARK SMILES IDX 7 13 6 14 5 15 4 16 3 17 2 18 1 19
REMARK H PARENT
REMARK Flexibility Score: inf
ROOT
ATOM      1  C   UNL     1      44.610  20.898  78.860  1.00  0.00     0.000 C 
ENDROOT
BRANCH   1   2
ATOM      2  C   UNL     1      44.174  22.051  77.938  1.00  0.00     0.000 C 
BRANCH   2   3
ATOM      3  C   UNL     1      43.078  21.635  76.943  1.00  0.00     0.000 C 
BRANCH   3   4
ATOM      4  C   UNL     1      41.845  22.553  77.009  1.00  0.00     0.000 C 
BRANCH   4   5
ATOM      5  C   UNL     1      40.889  22.174  78.152  1.00  0.00     0.001 C 
BRANCH   5   6
ATOM      6  C   UNL     1      40.395  20.716  78.041  1.00  0.00     0.009 C 
BRANCH   6   7
ATOM      7  C   UNL     1      40.428  19.933  79.374  1.00  0.00     0.032 C 
ATOM      8  C   UNL     1      41.424  20.526  80.380  1.00  0.00     0.014 C 
BRANCH   7   9
ATOM      9  C   UNL     1      39.052  19.789  79.971  1.00  0.00     0.044 C 
ATOM     10  O   UNL     1      38.470  20.796  80.455  1.00  0.00    -0.550 OA
ATOM     11  O   UNL     1      38.437  18.544  80.047  1.00  0.00    -0.550 OA
ENDBRANCH   7   9
ENDBRANCH   6   7
ENDBRANCH   5   6
ENDBRANCH   4   5
ENDBRANCH   3   4
ENDBRANCH   2   3
ENDBRANCH   1   2
BRANCH   1  12
ATOM     12  C   UNL     1      44.386  19.518  78.221  1.00  0.00     0.000 C 
BRANCH  12  13
ATOM     13  C   UNL     1      45.704  18.842  77.802  1.00  0.00    -0.000 C 
BRANCH  13  14
ATOM     14  C   UNL     1      45.715  18.435  76.322  1.00  0.00    -0.000 C 
BRANCH  14  15
ATOM     15  C   UNL     1      46.268  19.543  75.408  1.00  0.00    -0.000 C 
BRANCH  15  16
ATOM     16  C   UNL     1      47.314  20.422  76.125  1.00  0.00    -0.000 C 
BRANCH  16  17
ATOM     17  C   UNL     1      47.154  21.924  75.836  1.00  0.00    -0.000 C 
BRANCH  17  18
ATOM     18  C   UNL     1      48.488  22.683  75.870  1.00  0.00    -0.003 C 
ATOM     19  C   UNL     1      49.576  21.911  75.132  1.00  0.00     0.004 C 
ENDBRANCH  17  18
ENDBRANCH  16  17
ENDBRANCH  15  16
ENDBRANCH  14  15
ENDBRANCH  13  14
ENDBRANCH  12  13
ENDBRANCH   1  12
TORSDOF 14
ENDMDL
MODEL 2
REMARK VINA RESULT:    -3.405     16.338     18.203
REMARK INTER + INTRA:          -8.273
REMARK INTER:                  -6.423
REMARK INTRA:                  -1.850
REMARK UNBOUND:                -2.081
REMARK SMILES CCCCCCCCCCCCCC[C@@H](C)C(=O)[O-]
REMARK SMILES IDX 9 1 10 2 11 3 12 4 13 5 14 6 15 7 16 8 17 9 18 10 19 11 8 12
REMARK SMILES IDX 7 13 6 14 5 15 4 16 3 17 2 18 1 19
REMARK H PARENT
REMARK Flexibility Score: inf
ROOT
ATOM      1  C   UNL     1      47.372  31.532  87.309  1.00  0.00     0.000 C 
ENDROOT
BRANCH   1   2
ATOM      2  C   UNL     1      47.897  32.856  87.893  1.00  0.00     0.000 C 
BRANCH   2   3
ATOM      3  C   UNL     1      48.642  33.710  86.855  1.00  0.00     0.000 C 
BRANCH   3   4
ATOM      4  C   UNL     1      48.572  35.215  87.172  1.00  0.00     0.000 C 
BRANCH   4   5
ATOM      5  C   UNL     1      49.963  35.864  87.257  1.00  0.00     0.001 C 
BRANCH   5   6
ATOM      6  C   UNL     1      51.070  34.835  87.569  1.00  0.00     0.009 C 
BRANCH   6   7
ATOM      7  C   UNL     1      52.388  35.068  86.795  1.00  0.00     0.032 C 
ATOM      8  C   UNL     1      53.630  34.745  87.638  1.00  0.00     0.014 C 
BRANCH   7   9
ATOM      9  C   UNL     1      52.401  34.331  85.480  1.00  0.00     0.044 C 
ATOM     10  O   UNL     1      53.047  34.799  84.505  1.00  0.00    -0.550 OA
ATOM     11  O   UNL     1      51.659  33.167  85.311  1.00  0.00    -0.550 OA
ENDBRANCH   7   9
ENDBRANCH   6   7
ENDBRANCH   5   6
ENDBRANCH   4   5
ENDBRANCH   3   4
ENDBRANCH   2   3
ENDBRANCH   1   2
BRANCH   1  12
ATOM     12  C   UNL     1      46.310  30.874  88.205  1.00  0.00     0.000 C 
BRANCH  12  13
ATOM     13  C   UNL     1      45.980  31.722  89.446  1.00  0.00    -0.000 C 
BRANCH  13  14
ATOM     14  C   UNL     1      46.523  31.106  90.744  1.00  0.00    -0.000 C 
BRANCH  14  15
ATOM     15  C   UNL     1      47.003  29.657  90.555  1.00  0.00    -0.000 C 
BRANCH  15  16
ATOM     16  C   UNL     1      48.525  29.515  90.766  1.00  0.00    -0.000 C 
BRANCH  16  17
ATOM     17  C   UNL     1      49.263  30.863  90.832  1.00  0.00    -0.000 C 
BRANCH  17  18
ATOM     18  C   UNL     1      50.370  30.988  89.777  1.00  0.00    -0.003 C 
ATOM     19  C   UNL     1      51.287  32.169  90.083  1.00  0.00     0.004 C 
ENDBRANCH  17  18
ENDBRANCH  16  17
ENDBRANCH  15  16
ENDBRANCH  14  15
ENDBRANCH  13  14
ENDBRANCH  12  13
ENDBRANCH   1  12
TORSDOF 14
ENDMDL
MODEL 3
REMARK VINA RESULT:    -3.374     17.235     19.247
REMARK INTER + INTRA:          -8.217
REMARK INTER:                  -6.350
REMARK INTRA:                  -1.867
REMARK UNBOUND:                -2.081
REMARK SMILES CCCCCCCCCCCCCC[C@@H](C)C(=O)[O-]
REMARK SMILES IDX 9 1 10 2 11 3 12 4 13 5 14 6 15 7 16 8 17 9 18 10 19 11 8 12
REMARK SMILES IDX 7 13 6 14 5 15 4 16 3 17 2 18 1 19
REMARK H PARENT
REMARK Flexibility Score: inf
ROOT
ATOM      1  C   UNL     1      53.298  33.789  86.384  1.00  0.00     0.000 C 
ENDROOT
BRANCH   1   2
ATOM      2  C   UNL     1      54.223  33.930  87.606  1.00  0.00     0.000 C 
BRANCH   2   3
ATOM      3  C   UNL     1      54.809  32.585  88.067  1.00  0.00     0.000 C 
BRANCH   3   4
ATOM      4  C   UNL     1      55.327  32.634  89.515  1.00  0.00     0.000 C 
BRANCH   4   5
ATOM      5  C   UNL     1      54.275  33.171  90.499  1.00  0.00     0.001 C 
BRANCH   5   6
ATOM      6  C   UNL     1      53.284  32.076  90.949  1.00  0.00     0.009 C 
BRANCH   6   7
ATOM      7  C   UNL     1      51.796  32.468  90.801  1.00  0.00     0.032 C 
ATOM      8  C   UNL     1      51.249  32.179  89.396  1.00  0.00     0.014 C 
BRANCH   7   9
ATOM      9  C   UNL     1      50.943  31.837  91.871  1.00  0.00     0.044 C 
ATOM     10  O   UNL     1      50.703  32.468  92.935  1.00  0.00    -0.550 OA
ATOM     11  O   UNL     1      50.465  30.539  91.725  1.00  0.00    -0.550 OA
ENDBRANCH   7   9
ENDBRANCH   6   7
ENDBRANCH   5   6
ENDBRANCH   4   5
ENDBRANCH   3   4
ENDBRANCH   2   3
ENDBRANCH   1   2
BRANCH   1  12
ATOM     12  C   UNL     1      52.404  35.022  86.178  1.00  0.00     0.000 C 
BRANCH  12  13
ATOM     13  C   UNL     1      51.700  35.462  87.475  1.00  0.00    -0.000 C 
BRANCH  13  14
ATOM     14  C   UNL     1      50.171  35.357  87.381  1.00  0.00    -0.000 C 
BRANCH  14  15
ATOM     15  C   UNL     1      49.696  34.833  86.014  1.00  0.00    -0.000 C 
BRANCH  15  16
ATOM     16  C   UNL     1      48.619  33.737  86.151  1.00  0.00    -0.000 C 
BRANCH  16  17
ATOM     17  C   UNL     1      48.278  33.393  87.611  1.00  0.00    -0.000 C 
BRANCH  17  18
ATOM     18  C   UNL     1      47.563  32.042  87.753  1.00  0.00    -0.003 C 
ATOM     19  C   UNL     1      46.771  31.976  89.056  1.00  0.00     0.004 C 
ENDBRANCH  17  18
ENDBRANCH  16  17
ENDBRANCH  15  16
ENDBRANCH  14  15
ENDBRANCH  13  14
ENDBRANCH  12  13
ENDBRANCH   1  12
TORSDOF 14
ENDMDL
MODEL 4
REMARK VINA RESULT:    -3.362     16.608     18.223
REMARK INTER + INTRA:          -8.193
REMARK INTER:                  -5.743
REMARK INTRA:                  -2.450
REMARK UNBOUND:                -2.081
REMARK SMILES CCCCCCCCCCCCCC[C@@H](C)C(=O)[O-]
REMARK SMILES IDX 9 1 10 2 11 3 12 4 13 5 14 6 15 7 16 8 17 9 18 10 19 11 8 12
REMARK SMILES IDX 7 13 6 14 5 15 4 16 3 17 2 18 1 19
REMARK H PARENT
REMARK Flexibility Score: inf
ROOT
ATOM      1  C   UNL     1      47.491  31.308  87.825  1.00  0.00     0.000 C 
ENDROOT
BRANCH   1   2
ATOM      2  C   UNL     1      46.960  31.892  89.147  1.00  0.00     0.000 C 
BRANCH   2   3
ATOM      3  C   UNL     1      47.404  31.081  90.376  1.00  0.00     0.000 C 
BRANCH   3   4
ATOM      4  C   UNL     1      48.758  30.382  90.161  1.00  0.00     0.000 C 
BRANCH   4   5
ATOM      5  C   UNL     1      49.918  31.126  90.844  1.00  0.00     0.001 C 
BRANCH   5   6
ATOM      6  C   UNL     1      50.678  32.047  89.866  1.00  0.00     0.009 C 
BRANCH   6   7
ATOM      7  C   UNL     1      51.815  31.345  89.088  1.00  0.00     0.032 C 
ATOM      8  C   UNL     1      51.492  31.182  87.596  1.00  0.00     0.014 C 
BRANCH   7   9
ATOM      9  C   UNL     1      53.141  32.030  89.299  1.00  0.00     0.044 C 
ATOM     10  O   UNL     1      53.236  32.968  90.135  1.00  0.00    -0.550 OA
ATOM     11  O   UNL     1      54.251  31.678  88.539  1.00  0.00    -0.550 OA
ENDBRANCH   7   9
ENDBRANCH   6   7
ENDBRANCH   5   6
ENDBRANCH   4   5
ENDBRANCH   3   4
ENDBRANCH   2   3
ENDBRANCH   1   2
BRANCH   1  12
ATOM     12  C   UNL     1      48.061  32.389  86.893  1.00  0.00     0.000 C 
BRANCH  12  13
ATOM     13  C   UNL     1      48.325  33.718  87.624  1.00  0.00    -0.000 C 
BRANCH  13  14
ATOM     14  C   UNL     1      48.613  34.876  86.658  1.00  0.00    -0.000 C 
BRANCH  14  15
ATOM     15  C   UNL     1      49.824  35.721  87.091  1.00  0.00    -0.000 C 
BRANCH  15  16
ATOM     16  C   UNL     1      50.962  34.855  87.669  1.00  0.00    -0.000 C 
BRANCH  16  17
ATOM     17  C   UNL     1      52.367  35.356  87.289  1.00  0.00    -0.000 C 
BRANCH  17  18
ATOM     18  C   UNL     1      53.112  34.391  86.358  1.00  0.00    -0.003 C 
ATOM     19  C   UNL     1      52.695  34.600  84.905  1.00  0.00     0.004 C 
ENDBRANCH  17  18
ENDBRANCH  16  17
ENDBRANCH  15  16
ENDBRANCH  14  15
ENDBRANCH  13  14
ENDBRANCH  12  13
ENDBRANCH   1  12
TORSDOF 14
ENDMDL
MODEL 5
REMARK VINA RESULT:    -3.343     16.251     18.219
REMARK INTER + INTRA:          -8.160
REMARK INTER:                  -5.700
REMARK INTRA:                  -2.460
REMARK UNBOUND:                -2.081
REMARK SMILES CCCCCCCCCCCCCC[C@@H](C)C(=O)[O-]
REMARK SMILES IDX 9 1 10 2 11 3 12 4 13 5 14 6 15 7 16 8 17 9 18 10 19 11 8 12
REMARK SMILES IDX 7 13 6 14 5 15 4 16 3 17 2 18 1 19
REMARK H PARENT
REMARK Flexibility Score: inf
ROOT
ATOM      1  C   UNL     1      49.516  31.556  87.506  1.00  0.00     0.000 C 
ENDROOT
BRANCH   1   2
ATOM      2  C   UNL     1      48.595  32.514  86.730  1.00  0.00     0.000 C 
BRANCH   2   3
ATOM      3  C   UNL     1      48.311  33.816  87.496  1.00  0.00     0.000 C 
BRANCH   3   4
ATOM      4  C   UNL     1      48.759  35.066  86.718  1.00  0.00     0.000 C 
BRANCH   4   5
ATOM      5  C   UNL     1      50.202  35.479  87.048  1.00  0.00     0.001 C 
BRANCH   5   6
ATOM      6  C   UNL     1      51.215  34.943  86.014  1.00  0.00     0.009 C 
BRANCH   6   7
ATOM      7  C   UNL     1      52.631  34.696  86.583  1.00  0.00     0.032 C 
ATOM      8  C   UNL     1      52.748  35.092  88.061  1.00  0.00     0.014 C 
BRANCH   7   9
ATOM      9  C   UNL     1      53.087  33.279  86.348  1.00  0.00     0.044 C 
ATOM     10  O   UNL     1      54.176  32.880  86.841  1.00  0.00    -0.550 OA
ATOM     11  O   UNL     1      52.349  32.419  85.542  1.00  0.00    -0.550 OA
ENDBRANCH   7   9
ENDBRANCH   6   7
ENDBRANCH   5   6
ENDBRANCH   4   5
ENDBRANCH   3   4
ENDBRANCH   2   3
ENDBRANCH   1   2
BRANCH   1  12
ATOM     12  C   UNL     1      50.260  32.257  88.654  1.00  0.00     0.000 C 
BRANCH  12  13
ATOM     13  C   UNL     1      50.650  31.285  89.783  1.00  0.00    -0.000 C 
BRANCH  13  14
ATOM     14  C   UNL     1      49.522  31.085  90.805  1.00  0.00    -0.000 C 
BRANCH  14  15
ATOM     15  C   UNL     1      48.826  29.721  90.659  1.00  0.00    -0.000 C 
BRANCH  15  16
ATOM     16  C   UNL     1      47.292  29.856  90.559  1.00  0.00    -0.000 C 
BRANCH  16  17
ATOM     17  C   UNL     1      46.803  31.314  90.574  1.00  0.00    -0.000 C 
BRANCH  17  18
ATOM     18  C   UNL     1      45.995  31.684  89.323  1.00  0.00    -0.003 C 
ATOM     19  C   UNL     1      45.921  30.510  88.352  1.00  0.00     0.004 C 
ENDBRANCH  17  18
ENDBRANCH  16  17
ENDBRANCH  15  16
ENDBRANCH  14  15
ENDBRANCH  13  14
ENDBRANCH  12  13
ENDBRANCH   1  12
TORSDOF 14
ENDMDL
MODEL 6
REMARK VINA RESULT:    -3.309     16.647     18.745
REMARK INTER + INTRA:          -8.098
REMARK INTER:                  -6.425
REMARK INTRA:                  -1.673
REMARK UNBOUND:                -2.081
REMARK SMILES CCCCCCCCCCCCCC[C@@H](C)C(=O)[O-]
REMARK SMILES IDX 9 1 10 2 11 3 12 4 13 5 14 6 15 7 16 8 17 9 18 10 19 11 8 12
REMARK SMILES IDX 7 13 6 14 5 15 4 16 3 17 2 18 1 19
REMARK H PARENT
REMARK Flexibility Score: inf
ROOT
ATOM      1  C   UNL     1      48.580  33.691  86.636  1.00  0.00     0.000 C 
ENDROOT
BRANCH   1   2
ATOM      2  C   UNL     1      48.593  35.229  86.573  1.00  0.00     0.000 C 
BRANCH   2   3
ATOM      3  C   UNL     1      49.782  35.845  87.327  1.00  0.00     0.000 C 
BRANCH   3   4
ATOM      4  C   UNL     1      51.137  35.314  86.824  1.00  0.00     0.000 C 
BRANCH   4   5
ATOM      5  C   UNL     1      52.181  35.209  87.948  1.00  0.00     0.001 C 
BRANCH   5   6
ATOM      6  C   UNL     1      52.726  33.774  88.108  1.00  0.00     0.009 C 
BRANCH   6   7
ATOM      7  C   UNL     1      51.680  32.751  88.606  1.00  0.00     0.032 C 
ATOM      8  C   UNL     1      51.485  31.585  87.627  1.00  0.00     0.014 C 
BRANCH   7   9
ATOM      9  C   UNL     1      51.995  32.264  89.997  1.00  0.00     0.044 C 
ATOM     10  O   UNL     1      51.389  31.263  90.464  1.00  0.00    -0.550 OA
ATOM     11  O   UNL     1      52.908  32.943  90.798  1.00  0.00    -0.550 OA
ENDBRANCH   7   9
ENDBRANCH   6   7
ENDBRANCH   5   6
ENDBRANCH   4   5
ENDBRANCH   3   4
ENDBRANCH   2   3
ENDBRANCH   1   2
BRANCH   1  12
ATOM     12  C   UNL     1      47.898  33.161  87.907  1.00  0.00     0.000 C 
BRANCH  12  13
ATOM     13  C   UNL     1      47.488  31.683  87.783  1.00  0.00    -0.000 C 
BRANCH  13  14
ATOM     14  C   UNL     1      48.239  30.777  88.771  1.00  0.00    -0.000 C 
BRANCH  14  15
ATOM     15  C   UNL     1      47.884  31.079  90.237  1.00  0.00    -0.000 C 
BRANCH  15  16
ATOM     16  C   UNL     1      46.489  30.546  90.622  1.00  0.00    -0.000 C 
BRANCH  16  17
ATOM     17  C   UNL     1      45.501  31.653  91.029  1.00  0.00    -0.000 C 
BRANCH  17  18
ATOM     18  C   UNL     1      44.304  31.118  91.827  1.00  0.00    -0.003 C 
ATOM     19  C   UNL     1      43.863  32.121  92.889  1.00  0.00     0.004 C 
ENDBRANCH  17  18
ENDBRANCH  16  17
ENDBRANCH  15  16
ENDBRANCH  14  15
ENDBRANCH  13  14
ENDBRANCH  12  13
ENDBRANCH   1  12
TORSDOF 14
ENDMDL
MODEL 7
REMARK VINA RESULT:    -3.300     15.707     17.064
REMARK INTER + INTRA:          -8.081
REMARK INTER:                  -5.686
REMARK INTRA:                  -2.396
REMARK UNBOUND:                -2.081
REMARK SMILES CCCCCCCCCCCCCC[C@@H](C)C(=O)[O-]
REMARK SMILES IDX 9 1 10 2 11 3 12 4 13 5 14 6 15 7 16 8 17 9 18 10 19 11 8 12
REMARK SMILES IDX 7 13 6 14 5 15 4 16 3 17 2 18 1 19
REMARK H PARENT
REMARK Flexibility Score: inf
ROOT
ATOM      1  C   UNL     1      50.697  31.501  86.678  1.00  0.00     0.000 C 
ENDROOT
BRANCH   1   2
ATOM      2  C   UNL     1      51.344  31.212  88.045  1.00  0.00     0.000 C 
BRANCH   2   3
ATOM      3  C   UNL     1      50.664  31.971  89.196  1.00  0.00     0.000 C 
BRANCH   3   4
ATOM      4  C   UNL     1      50.428  31.079  90.429  1.00  0.00     0.000 C 
BRANCH   4   5
ATOM      5  C   UNL     1      48.960  31.085  90.886  1.00  0.00     0.001 C 
BRANCH   5   6
ATOM      6  C   UNL     1      48.025  30.410  89.860  1.00  0.00     0.009 C 
BRANCH   6   7
ATOM      7  C   UNL     1      46.660  31.114  89.687  1.00  0.00     0.032 C 
ATOM      8  C   UNL     1      45.963  30.731  88.374  1.00  0.00     0.014 C 
BRANCH   7   9
ATOM      9  C   UNL     1      45.763  30.895  90.878  1.00  0.00     0.044 C 
ATOM     10  O   UNL     1      45.199  31.877  91.429  1.00  0.00    -0.550 OA
ATOM     11  O   UNL     1      45.596  29.623  91.417  1.00  0.00    -0.550 OA
ENDBRANCH   7   9
ENDBRANCH   6   7
ENDBRANCH   5   6
ENDBRANCH   4   5
ENDBRANCH   3   4
ENDBRANCH   2   3
ENDBRANCH   1   2
BRANCH   1  12
ATOM     12  C   UNL     1      49.162  31.440  86.730  1.00  0.00     0.000 C 
BRANCH  12  13
ATOM     13  C   UNL     1      48.503  32.724  86.197  1.00  0.00    -0.000 C 
BRANCH  13  14
ATOM     14  C   UNL     1      48.223  33.749  87.305  1.00  0.00    -0.000 C 
BRANCH  14  15
ATOM     15  C   UNL     1      48.809  35.137  86.989  1.00  0.00    -0.000 C 
BRANCH  15  16
ATOM     16  C   UNL     1      50.255  35.290  87.502  1.00  0.00    -0.000 C 
BRANCH  16  17
ATOM     17  C   UNL     1      51.319  35.037  86.421  1.00  0.00    -0.000 C 
BRANCH  17  18
ATOM     18  C   UNL     1      52.752  35.212  86.942  1.00  0.00    -0.003 C 
ATOM     19  C   UNL     1      53.583  33.959  86.688  1.00  0.00     0.004 C 
ENDBRANCH  17  18
ENDBRANCH  16  17
ENDBRANCH  15  16
ENDBRANCH  14  15
ENDBRANCH  13  14
ENDBRANCH  12  13
ENDBRANCH   1  12
TORSDOF 14
ENDMDL
MODEL 8
REMARK VINA RESULT:    -3.292      3.534      7.177
REMARK INTER + INTRA:          -8.067
REMARK INTER:                  -5.752
REMARK INTRA:                  -2.314
REMARK UNBOUND:                -2.081
REMARK SMILES CCCCCCCCCCCCCC[C@@H](C)C(=O)[O-]
REMARK SMILES IDX 9 1 10 2 11 3 12 4 13 5 14 6 15 7 16 8 17 9 18 10 19 11 8 12
REMARK SMILES IDX 7 13 6 14 5 15 4 16 3 17 2 18 1 19
REMARK H PARENT
REMARK Flexibility Score: inf
ROOT
ATOM      1  C   UNL     1      44.700  22.157  78.203  1.00  0.00     0.000 C 
ENDROOT
BRANCH   1   2
ATOM      2  C   UNL     1      45.001  20.812  78.891  1.00  0.00     0.000 C 
BRANCH   2   3
ATOM      3  C   UNL     1      44.534  19.604  78.062  1.00  0.00     0.000 C 
BRANCH   3   4
ATOM      4  C   UNL     1      45.693  18.660  77.696  1.00  0.00     0.000 C 
BRANCH   4   5
ATOM      5  C   UNL     1      45.756  18.363  76.188  1.00  0.00     0.001 C 
BRANCH   5   6
ATOM      6  C   UNL     1      45.618  19.641  75.334  1.00  0.00     0.009 C 
BRANCH   6   7
ATOM      7  C   UNL     1      46.944  20.131  74.709  1.00  0.00     0.032 C 
ATOM      8  C   UNL     1      46.784  20.541  73.238  1.00  0.00     0.014 C 
BRANCH   7   9
ATOM      9  C   UNL     1      47.574  21.229  75.527  1.00  0.00     0.044 C 
ATOM     10  O   UNL     1      48.034  20.973  76.672  1.00  0.00    -0.550 OA
ATOM     11  O   UNL     1      47.604  22.538  75.058  1.00  0.00    -0.550 OA
ENDBRANCH   7   9
ENDBRANCH   6   7
ENDBRANCH   5   6
ENDBRANCH   4   5
ENDBRANCH   3   4
ENDBRANCH   2   3
ENDBRANCH   1   2
BRANCH   1  12
ATOM     12  C   UNL     1      43.627  22.031  77.110  1.00  0.00     0.000 C 
BRANCH  12  13
ATOM     13  C   UNL     1      42.585  23.163  77.175  1.00  0.00    -0.000 C 
BRANCH  13  14
ATOM     14  C   UNL     1      41.282  22.809  76.443  1.00  0.00    -0.000 C 
BRANCH  14  15
ATOM     15  C   UNL     1      40.717  21.443  76.869  1.00  0.00    -0.000 C 
BRANCH  15  16
ATOM     16  C   UNL     1      40.254  21.437  78.340  1.00  0.00    -0.000 C 
BRANCH  16  17
ATOM     17  C   UNL     1      40.596  20.135  79.085  1.00  0.00    -0.000 C 
BRANCH  17  18
ATOM     18  C   UNL     1      41.521  20.363  80.288  1.00  0.00    -0.003 C 
ATOM     19  C   UNL     1      41.751  21.851  80.528  1.00  0.00     0.004 C 
ENDBRANCH  17  18
ENDBRANCH  16  17
ENDBRANCH  15  16
ENDBRANCH  14  15
ENDBRANCH  13  14
ENDBRANCH  12  13
ENDBRANCH   1  12
TORSDOF 14
ENDMDL
MODEL 9
REMARK VINA RESULT:    -3.250     16.810     18.730
REMARK INTER + INTRA:          -7.990
REMARK INTER:                  -5.428
REMARK INTRA:                  -2.562
REMARK UNBOUND:                -2.081
REMARK SMILES CCCCCCCCCCCCCC[C@@H](C)C(=O)[O-]
REMARK SMILES IDX 9 1 10 2 11 3 12 4 13 5 14 6 15 7 16 8 17 9 18 10 19 11 8 12
REMARK SMILES IDX 7 13 6 14 5 15 4 16 3 17 2 18 1 19
REMARK H PARENT
REMARK Flexibility Score: inf
ROOT
ATOM      1  C   UNL     1      52.594  35.614  87.736  1.00  0.00     0.000 C 
ENDROOT
BRANCH   1   2
ATOM      2  C   UNL     1      53.808  34.698  87.496  1.00  0.00     0.000 C 
BRANCH   2   3
ATOM      3  C   UNL     1      53.458  33.454  86.664  1.00  0.00     0.000 C 
BRANCH   3   4
ATOM      4  C   UNL     1      54.187  32.191  87.158  1.00  0.00     0.000 C 
BRANCH   4   5
ATOM      5  C   UNL     1      53.326  31.351  88.116  1.00  0.00     0.001 C 
BRANCH   5   6
ATOM      6  C   UNL     1      53.539  31.746  89.592  1.00  0.00     0.009 C 
BRANCH   6   7
ATOM      7  C   UNL     1      52.324  32.444  90.244  1.00  0.00     0.032 C 
ATOM      8  C   UNL     1      51.068  32.383  89.363  1.00  0.00     0.014 C 
BRANCH   7   9
ATOM      9  C   UNL     1      52.056  31.919  91.632  1.00  0.00     0.044 C 
ATOM     10  O   UNL     1      52.757  30.979  92.092  1.00  0.00    -0.550 OA
ATOM     11  O   UNL     1      51.005  32.421  92.391  1.00  0.00    -0.550 OA
ENDBRANCH   7   9
ENDBRANCH   6   7
ENDBRANCH   5   6
ENDBRANCH   4   5
ENDBRANCH   3   4
ENDBRANCH   2   3
ENDBRANCH   1   2
BRANCH   1  12
ATOM     12  C   UNL     1      51.365  35.187  86.917  1.00  0.00     0.000 C 
BRANCH  12  13
ATOM     13  C   UNL     1      50.058  35.796  87.456  1.00  0.00    -0.000 C 
BRANCH  13  14
ATOM     14  C   UNL     1      48.812  35.231  86.758  1.00  0.00    -0.000 C 
BRANCH  14  15
ATOM     15  C   UNL     1      48.302  33.937  87.415  1.00  0.00    -0.000 C 
BRANCH  15  16
ATOM     16  C   UNL     1      48.270  32.754  86.425  1.00  0.00    -0.000 C 
BRANCH  16  17
ATOM     17  C   UNL     1      48.874  33.089  85.050  1.00  0.00    -0.000 C 
BRANCH  17  18
ATOM     18  C   UNL     1      50.223  32.399  84.808  1.00  0.00    -0.003 C 
ATOM     19  C   UNL     1      50.460  31.288  85.827  1.00  0.00     0.004 C 
ENDBRANCH  17  18
ENDBRANCH  16  17
ENDBRANCH  15  16
ENDBRANCH  14  15
ENDBRANCH  13  14
ENDBRANCH  12  13
ENDBRANCH   1  12
TORSDOF 14
ENDMDL
