MODEL 1
REMARK VINA RESULT:    -3.825      0.000      0.000
REMARK INTER + INTRA:          -7.654
REMARK INTER:                  -6.955
REMARK INTRA:                  -0.699
REMARK UNBOUND:                -0.699
REMARK SMILES CCCCCCCCCCCCCC[C@@H](C)C(=O)[O-]
REMARK SMILES IDX 9 1 10 2 11 3 12 4 13 5 14 6 15 7 16 8 17 9 18 10 19 11 8 12
REMARK SMILES IDX 7 13 6 14 5 15 4 16 3 17 2 18 1 19
REMARK H PARENT
REMARK Flexibility Score: inf
ROOT
ATOM      1  C   UNL     1    -116.118 -98.863  41.506  1.00  0.00     0.000 C 
ENDROOT
BRANCH   1   2
ATOM      2  C   UNL     1    -116.945 -99.702  40.525  1.00  0.00     0.000 C 
BRANCH   2   3
ATOM      3  C   UNL     1    -117.218 -98.927  39.230  1.00  0.00     0.000 C 
BRANCH   3   4
ATOM      4  C   UNL     1    -116.922 -99.791  37.999  1.00  0.00     0.000 C 
BRANCH   4   5
ATOM      5  C   UNL     1    -116.265 -98.960  36.889  1.00  0.00     0.001 C 
BRANCH   5   6
ATOM      6  C   UNL     1    -116.846 -99.328  35.512  1.00  0.00     0.009 C 
BRANCH   6   7
ATOM      7  C   UNL     1    -116.031 -98.794  34.313  1.00  0.00     0.032 C 
ATOM      8  C   UNL     1    -115.694 -99.891  33.291  1.00  0.00     0.014 C 
BRANCH   7   9
ATOM      9  C   UNL     1    -116.707 -97.617  33.659  1.00  0.00     0.044 C 
ATOM     10  O   UNL     1    -117.890 -97.728  33.243  1.00  0.00    -0.550 OA
ATOM     11  O   UNL     1    -116.024 -96.423  33.462  1.00  0.00    -0.550 OA
ENDBRANCH   7   9
ENDBRANCH   6   7
ENDBRANCH   5   6
ENDBRANCH   4   5
ENDBRANCH   3   4
ENDBRANCH   2   3
ENDBRANCH   1   2
BRANCH   1  12
ATOM     12  C   UNL     1    -116.858 -98.684  42.837  1.00  0.00     0.000 C 
BRANCH  12  13
ATOM     13  C   UNL     1    -117.820 -99.850  43.093  1.00  0.00    -0.000 C 
BRANCH  13  14
ATOM     14  C   UNL     1    -118.735 -99.555  44.292  1.00  0.00    -0.000 C 
BRANCH  14  15
ATOM     15  C   UNL     1    -117.959 -99.374  45.610  1.00  0.00    -0.000 C 
BRANCH  15  16
ATOM     16  C   UNL     1    -118.568 -98.350  46.584  1.00  0.00    -0.000 C 
BRANCH  16  17
ATOM     17  C   UNL     1    -118.498 -96.907  46.055  1.00  0.00    -0.000 C 
BRANCH  17  18
ATOM     18  C   UNL     1    -118.210 -95.886  47.167  1.00  0.00    -0.003 C 
ATOM     19  C   UNL     1    -117.759 -96.546  48.470  1.00  0.00     0.004 C 
ENDBRANCH  17  18
ENDBRANCH  16  17
ENDBRANCH  15  16
ENDBRANCH  14  15
ENDBRANCH  13  14
ENDBRANCH  12  13
ENDBRANCH   1  12
TORSDOF 14
ENDMDL
MODEL 2
REMARK VINA RESULT:    -3.606      4.647     10.552
REMARK INTER + INTRA:          -7.257
REMARK INTER:                  -6.597
REMARK INTRA:                  -0.660
REMARK UNBOUND:                -0.699
REMARK SMILES CCCCCCCCCCCCCC[C@@H](C)C(=O)[O-]
REMARK SMILES IDX 9 1 10 2 11 3 12 4 13 5 14 6 15 7 16 8 17 9 18 10 19 11 8 12
REMARK SMILES IDX 7 13 6 14 5 15 4 16 3 17 2 18 1 19
REMARK H PARENT
REMARK Flexibility Score: inf
ROOT
ATOM      1  C   UNL     1    -117.756 -98.489  40.012  1.00  0.00     0.000 C 
ENDROOT
BRANCH   1   2
ATOM      2  C   UNL     1    -118.761 -98.756  41.137  1.00  0.00     0.000 C 
BRANCH   2   3
ATOM      3  C   UNL     1    -118.331 -98.065  42.438  1.00  0.00     0.000 C 
BRANCH   3   4
ATOM      4  C   UNL     1    -117.166 -98.812  43.098  1.00  0.00     0.000 C 
BRANCH   4   5
ATOM      5  C   UNL     1    -117.470 -99.114  44.570  1.00  0.00     0.001 C 
BRANCH   5   6
ATOM      6  C   UNL     1    -118.603 -98.213  45.093  1.00  0.00     0.009 C 
BRANCH   6   7
ATOM      7  C   UNL     1    -118.639 -98.060  46.630  1.00  0.00     0.032 C 
ATOM      8  C   UNL     1    -117.917 -99.205  47.356  1.00  0.00     0.014 C 
BRANCH   7   9
ATOM      9  C   UNL     1    -118.121 -96.714  47.067  1.00  0.00     0.044 C 
ATOM     10  O   UNL     1    -117.367 -96.630  48.072  1.00  0.00    -0.550 OA
ATOM     11  O   UNL     1    -118.507 -95.554  46.406  1.00  0.00    -0.550 OA
ENDBRANCH   7   9
ENDBRANCH   6   7
ENDBRANCH   5   6
ENDBRANCH   4   5
ENDBRANCH   3   4
ENDBRANCH   2   3
ENDBRANCH   1   2
BRANCH   1  12
ATOM     12  C   UNL     1    -117.161 -99.799  39.482  1.00  0.00     0.000 C 
BRANCH  12  13
ATOM     13  C   UNL     1    -117.630-100.077  38.049  1.00  0.00    -0.000 C 
BRANCH  13  14
ATOM     14  C   UNL     1    -116.464 -99.961  37.056  1.00  0.00    -0.000 C 
BRANCH  14  15
ATOM     15  C   UNL     1    -116.928 -99.712  35.610  1.00  0.00    -0.000 C 
BRANCH  15  16
ATOM     16  C   UNL     1    -115.821 -99.254  34.644  1.00  0.00    -0.000 C 
BRANCH  16  17
ATOM     17  C   UNL     1    -116.280 -99.230  33.176  1.00  0.00    -0.000 C 
BRANCH  17  18
ATOM     18  C   UNL     1    -116.839 -97.862  32.757  1.00  0.00    -0.003 C 
ATOM     19  C   UNL     1    -116.040 -96.696  33.338  1.00  0.00     0.004 C 
ENDBRANCH  17  18
ENDBRANCH  16  17
ENDBRANCH  15  16
ENDBRANCH  14  15
ENDBRANCH  13  14
ENDBRANCH  12  13
ENDBRANCH   1  12
TORSDOF 14
ENDMDL
MODEL 3
REMARK VINA RESULT:    -3.542      1.290      2.359
REMARK INTER + INTRA:          -7.140
REMARK INTER:                  -6.411
REMARK INTRA:                  -0.729
REMARK UNBOUND:                -0.699
REMARK SMILES CCCCCCCCCCCCCC[C@@H](C)C(=O)[O-]
REMARK SMILES IDX 9 1 10 2 11 3 12 4 13 5 14 6 15 7 16 8 17 9 18 10 19 11 8 12
REMARK SMILES IDX 7 13 6 14 5 15 4 16 3 17 2 18 1 19
REMARK H PARENT
REMARK Flexibility Score: inf
ROOT
ATOM      1  C   UNL     1    -117.122 -99.489  39.282  1.00  0.00     0.000 C 
ENDROOT
BRANCH   1   2
ATOM      2  C   UNL     1    -116.958-100.092  37.883  1.00  0.00     0.000 C 
BRANCH   2   3
ATOM      3  C   UNL     1    -116.482 -99.036  36.878  1.00  0.00     0.000 C 
BRANCH   3   4
ATOM      4  C   UNL     1    -115.582 -99.661  35.806  1.00  0.00     0.000 C 
BRANCH   4   5
ATOM      5  C   UNL     1    -116.375 -99.960  34.527  1.00  0.00     0.001 C 
BRANCH   5   6
ATOM      6  C   UNL     1    -115.821 -99.156  33.337  1.00  0.00     0.009 C 
BRANCH   6   7
ATOM      7  C   UNL     1    -116.900 -98.450  32.486  1.00  0.00     0.032 C 
ATOM      8  C   UNL     1    -118.313 -98.984  32.761  1.00  0.00     0.014 C 
BRANCH   7   9
ATOM      9  C   UNL     1    -116.834 -96.952  32.637  1.00  0.00     0.044 C 
ATOM     10  O   UNL     1    -115.982 -96.437  33.407  1.00  0.00    -0.550 OA
ATOM     11  O   UNL     1    -117.739 -96.130  31.975  1.00  0.00    -0.550 OA
ENDBRANCH   7   9
ENDBRANCH   6   7
ENDBRANCH   5   6
ENDBRANCH   4   5
ENDBRANCH   3   4
ENDBRANCH   2   3
ENDBRANCH   1   2
BRANCH   1  12
ATOM     12  C   UNL     1    -118.337-100.086  40.000  1.00  0.00     0.000 C 
BRANCH  12  13
ATOM     13  C   UNL     1    -118.539 -99.436  41.374  1.00  0.00    -0.000 C 
BRANCH  13  14
ATOM     14  C   UNL     1    -117.528 -99.981  42.394  1.00  0.00    -0.000 C 
BRANCH  14  15
ATOM     15  C   UNL     1    -117.292 -99.024  43.577  1.00  0.00    -0.000 C 
BRANCH  15  16
ATOM     16  C   UNL     1    -118.165 -97.757  43.568  1.00  0.00    -0.000 C 
BRANCH  16  17
ATOM     17  C   UNL     1    -119.082 -97.653  44.798  1.00  0.00    -0.000 C 
BRANCH  17  18
ATOM     18  C   UNL     1    -118.530 -96.698  45.866  1.00  0.00    -0.003 C 
ATOM     19  C   UNL     1    -118.263 -97.397  47.200  1.00  0.00     0.004 C 
ENDBRANCH  17  18
ENDBRANCH  16  17
ENDBRANCH  15  16
ENDBRANCH  14  15
ENDBRANCH  13  14
ENDBRANCH  12  13
ENDBRANCH   1  12
TORSDOF 14
ENDMDL
MODEL 4
REMARK VINA RESULT:    -3.468      4.859     10.679
REMARK INTER + INTRA:          -7.006
REMARK INTER:                  -6.397
REMARK INTRA:                  -0.609
REMARK UNBOUND:                -0.699
REMARK SMILES CCCCCCCCCCCCCC[C@@H](C)C(=O)[O-]
REMARK SMILES IDX 9 1 10 2 11 3 12 4 13 5 14 6 15 7 16 8 17 9 18 10 19 11 8 12
REMARK SMILES IDX 7 13 6 14 5 15 4 16 3 17 2 18 1 19
REMARK H PARENT
REMARK Flexibility Score: inf
ROOT
ATOM      1  C   UNL     1    -116.646 -98.316  41.472  1.00  0.00     0.000 C 
ENDROOT
BRANCH   1   2
ATOM      2  C   UNL     1    -117.580 -98.236  42.684  1.00  0.00     0.000 C 
BRANCH   2   3
ATOM      3  C   UNL     1    -117.267 -99.345  43.697  1.00  0.00     0.000 C 
BRANCH   3   4
ATOM      4  C   UNL     1    -118.513 -99.718  44.507  1.00  0.00     0.000 C 
BRANCH   4   5
ATOM      5  C   UNL     1    -118.325 -99.384  45.992  1.00  0.00     0.001 C 
BRANCH   5   6
ATOM      6  C   UNL     1    -118.486 -97.874  46.240  1.00  0.00     0.009 C 
BRANCH   6   7
ATOM      7  C   UNL     1    -118.515 -97.471  47.732  1.00  0.00     0.032 C 
ATOM      8  C   UNL     1    -117.518 -98.274  48.581  1.00  0.00     0.014 C 
BRANCH   7   9
ATOM      9  C   UNL     1    -118.327 -95.987  47.912  1.00  0.00     0.044 C 
ATOM     10  O   UNL     1    -118.278 -95.499  49.071  1.00  0.00    -0.550 OA
ATOM     11  O   UNL     1    -118.258 -95.140  46.812  1.00  0.00    -0.550 OA
ENDBRANCH   7   9
ENDBRANCH   6   7
ENDBRANCH   5   6
ENDBRANCH   4   5
ENDBRANCH   3   4
ENDBRANCH   2   3
ENDBRANCH   1   2
BRANCH   1  12
ATOM     12  C   UNL     1    -116.683 -99.711  40.839  1.00  0.00     0.000 C 
BRANCH  12  13
ATOM     13  C   UNL     1    -117.640 -99.747  39.641  1.00  0.00    -0.000 C 
BRANCH  13  14
ATOM     14  C   UNL     1    -116.893-100.125  38.352  1.00  0.00    -0.000 C 
BRANCH  14  15
ATOM     15  C   UNL     1    -116.916 -99.007  37.294  1.00  0.00    -0.000 C 
BRANCH  15  16
ATOM     16  C   UNL     1    -116.078 -99.290  36.035  1.00  0.00    -0.000 C 
BRANCH  16  17
ATOM     17  C   UNL     1    -116.728 -98.749  34.750  1.00  0.00    -0.000 C 
BRANCH  17  18
ATOM     18  C   UNL     1    -115.695 -98.199  33.754  1.00  0.00    -0.003 C 
ATOM     19  C   UNL     1    -116.155 -96.904  33.085  1.00  0.00     0.004 C 
ENDBRANCH  17  18
ENDBRANCH  16  17
ENDBRANCH  15  16
ENDBRANCH  14  15
ENDBRANCH  13  14
ENDBRANCH  12  13
ENDBRANCH   1  12
TORSDOF 14
ENDMDL
MODEL 5
REMARK VINA RESULT:    -2.932      4.190     10.375
REMARK INTER + INTRA:          -6.031
REMARK INTER:                  -5.069
REMARK INTRA:                  -0.962
REMARK UNBOUND:                -0.699
REMARK SMILES CCCCCCCCCCCCCC[C@@H](C)C(=O)[O-]
REMARK SMILES IDX 9 1 10 2 11 3 12 4 13 5 14 6 15 7 16 8 17 9 18 10 19 11 8 12
REMARK SMILES IDX 7 13 6 14 5 15 4 16 3 17 2 18 1 19
REMARK H PARENT
REMARK Flexibility Score: inf
ROOT
ATOM      1  C   UNL     1    -115.690 -98.055  35.235  1.00  0.00     0.000 C 
ENDROOT
BRANCH   1   2
ATOM      2  C   UNL     1    -115.680 -99.096  36.359  1.00  0.00     0.000 C 
BRANCH   2   3
ATOM      3  C   UNL     1    -116.851-100.076  36.214  1.00  0.00     0.000 C 
BRANCH   3   4
ATOM      4  C   UNL     1    -117.760-100.033  37.448  1.00  0.00     0.000 C 
BRANCH   4   5
ATOM      5  C   UNL     1    -116.934-100.020  38.740  1.00  0.00     0.001 C 
BRANCH   5   6
ATOM      6  C   UNL     1    -117.844 -99.854  39.971  1.00  0.00     0.009 C 
BRANCH   6   7
ATOM      7  C   UNL     1    -117.528 -98.614  40.836  1.00  0.00     0.032 C 
ATOM      8  C   UNL     1    -118.720 -97.652  40.950  1.00  0.00     0.014 C 
BRANCH   7   9
ATOM      9  C   UNL     1    -116.998 -99.002  42.192  1.00  0.00     0.044 C 
ATOM     10  O   UNL     1    -115.762 -98.937  42.423  1.00  0.00    -0.550 OA
ATOM     11  O   UNL     1    -117.851 -99.481  43.179  1.00  0.00    -0.550 OA
ENDBRANCH   7   9
ENDBRANCH   6   7
ENDBRANCH   5   6
ENDBRANCH   4   5
ENDBRANCH   3   4
ENDBRANCH   2   3
ENDBRANCH   1   2
BRANCH   1  12
ATOM     12  C   UNL     1    -116.522 -98.539  34.043  1.00  0.00     0.000 C 
BRANCH  12  13
ATOM     13  C   UNL     1    -115.791 -99.646  33.273  1.00  0.00    -0.000 C 
BRANCH  13  14
ATOM     14  C   UNL     1    -116.623-100.125  32.074  1.00  0.00    -0.000 C 
BRANCH  14  15
ATOM     15  C   UNL     1    -118.140 -99.987  32.302  1.00  0.00    -0.000 C 
BRANCH  15  16
ATOM     16  C   UNL     1    -118.990 -99.990  31.019  1.00  0.00    -0.000 C 
BRANCH  16  17
ATOM     17  C   UNL     1    -119.105 -98.598  30.375  1.00  0.00    -0.000 C 
BRANCH  17  18
ATOM     18  C   UNL     1    -119.112 -97.467  31.415  1.00  0.00    -0.003 C 
ATOM     19  C   UNL     1    -118.126 -96.350  31.075  1.00  0.00     0.004 C 
ENDBRANCH  17  18
ENDBRANCH  16  17
ENDBRANCH  15  16
ENDBRANCH  14  15
ENDBRANCH  13  14
ENDBRANCH  12  13
ENDBRANCH   1  12
TORSDOF 14
ENDMDL
MODEL 6
REMARK VINA RESULT:    -2.845      1.958      4.442
REMARK INTER + INTRA:          -5.872
REMARK INTER:                  -5.110
REMARK INTRA:                  -0.763
REMARK UNBOUND:                -0.699
REMARK SMILES CCCCCCCCCCCCCC[C@@H](C)C(=O)[O-]
REMARK SMILES IDX 9 1 10 2 11 3 12 4 13 5 14 6 15 7 16 8 17 9 18 10 19 11 8 12
REMARK SMILES IDX 7 13 6 14 5 15 4 16 3 17 2 18 1 19
REMARK H PARENT
REMARK Flexibility Score: inf
ROOT
ATOM      1  C   UNL     1    -116.566 -99.829  36.363  1.00  0.00     0.000 C 
ENDROOT
BRANCH   1   2
ATOM      2  C   UNL     1    -115.507 -99.250  35.418  1.00  0.00     0.000 C 
BRANCH   2   3
ATOM      3  C   UNL     1    -115.747 -99.708  33.974  1.00  0.00     0.000 C 
BRANCH   3   4
ATOM      4  C   UNL     1    -115.750 -98.515  33.011  1.00  0.00     0.000 C 
BRANCH   4   5
ATOM      5  C   UNL     1    -116.900 -97.552  33.332  1.00  0.00     0.001 C 
BRANCH   5   6
ATOM      6  C   UNL     1    -118.254 -98.284  33.296  1.00  0.00     0.009 C 
BRANCH   6   7
ATOM      7  C   UNL     1    -119.105 -97.992  32.040  1.00  0.00     0.032 C 
ATOM      8  C   UNL     1    -119.110 -96.503  31.662  1.00  0.00     0.014 C 
BRANCH   7   9
ATOM      9  C   UNL     1    -118.694 -98.857  30.876  1.00  0.00     0.044 C 
ATOM     10  O   UNL     1    -118.875 -98.449  29.699  1.00  0.00    -0.550 OA
ATOM     11  O   UNL     1    -118.163-100.124  31.084  1.00  0.00    -0.550 OA
ENDBRANCH   7   9
ENDBRANCH   6   7
ENDBRANCH   5   6
ENDBRANCH   4   5
ENDBRANCH   3   4
ENDBRANCH   2   3
ENDBRANCH   1   2
BRANCH   1  12
ATOM     12  C   UNL     1    -116.636 -99.027  37.668  1.00  0.00     0.000 C 
BRANCH  12  13
ATOM     13  C   UNL     1    -117.647 -99.647  38.641  1.00  0.00    -0.000 C 
BRANCH  13  14
ATOM     14  C   UNL     1    -117.017 -99.860  40.026  1.00  0.00    -0.000 C 
BRANCH  14  15
ATOM     15  C   UNL     1    -118.063 -99.987  41.149  1.00  0.00    -0.000 C 
BRANCH  15  16
ATOM     16  C   UNL     1    -117.714 -99.237  42.447  1.00  0.00    -0.000 C 
BRANCH  16  17
ATOM     17  C   UNL     1    -118.889 -99.177  43.437  1.00  0.00    -0.000 C 
BRANCH  17  18
ATOM     18  C   UNL     1    -118.438 -98.840  44.866  1.00  0.00    -0.003 C 
ATOM     19  C   UNL     1    -118.417 -97.336  45.137  1.00  0.00     0.004 C 
ENDBRANCH  17  18
ENDBRANCH  16  17
ENDBRANCH  15  16
ENDBRANCH  14  15
ENDBRANCH  13  14
ENDBRANCH  12  13
ENDBRANCH   1  12
TORSDOF 14
ENDMDL
MODEL 7
REMARK VINA RESULT:    -2.426      1.480      2.225
REMARK INTER + INTRA:          -5.111
REMARK INTER:                  -5.324
REMARK INTRA:                   0.213
REMARK UNBOUND:                -0.699
REMARK SMILES CCCCCCCCCCCCCC[C@@H](C)C(=O)[O-]
REMARK SMILES IDX 9 1 10 2 11 3 12 4 13 5 14 6 15 7 16 8 17 9 18 10 19 11 8 12
REMARK SMILES IDX 7 13 6 14 5 15 4 16 3 17 2 18 1 19
REMARK H PARENT
REMARK Flexibility Score: inf
ROOT
ATOM      1  C   UNL     1    -118.856 -99.976  41.579  1.00  0.00     0.000 C 
ENDROOT
BRANCH   1   2
ATOM      2  C   UNL     1    -118.332 -98.665  40.982  1.00  0.00     0.000 C 
BRANCH   2   3
ATOM      3  C   UNL     1    -117.244 -98.933  39.934  1.00  0.00     0.000 C 
BRANCH   3   4
ATOM      4  C   UNL     1    -117.675-100.039  38.964  1.00  0.00     0.000 C 
BRANCH   4   5
ATOM      5  C   UNL     1    -116.722-100.121  37.765  1.00  0.00     0.001 C 
BRANCH   5   6
ATOM      6  C   UNL     1    -116.551 -98.741  37.104  1.00  0.00     0.009 C 
BRANCH   6   7
ATOM      7  C   UNL     1    -116.070 -98.792  35.636  1.00  0.00     0.032 C 
ATOM      8  C   UNL     1    -115.147 -99.987  35.357  1.00  0.00     0.014 C 
BRANCH   7   9
ATOM      9  C   UNL     1    -117.226 -98.746  34.670  1.00  0.00     0.044 C 
ATOM     10  O   UNL     1    -117.280 -97.836  33.802  1.00  0.00    -0.550 OA
ATOM     11  O   UNL     1    -118.263 -99.667  34.757  1.00  0.00    -0.550 OA
ENDBRANCH   7   9
ENDBRANCH   6   7
ENDBRANCH   5   6
ENDBRANCH   4   5
ENDBRANCH   3   4
ENDBRANCH   2   3
ENDBRANCH   1   2
BRANCH   1  12
ATOM     12  C   UNL     1    -118.569-100.050  43.083  1.00  0.00     0.000 C 
BRANCH  12  13
ATOM     13  C   UNL     1    -117.497 -99.032  43.489  1.00  0.00    -0.000 C 
BRANCH  13  14
ATOM     14  C   UNL     1    -118.091 -97.618  43.589  1.00  0.00    -0.000 C 
BRANCH  14  15
ATOM     15  C   UNL     1    -118.709 -97.322  44.967  1.00  0.00    -0.000 C 
BRANCH  15  16
ATOM     16  C   UNL     1    -118.939 -98.560  45.853  1.00  0.00    -0.000 C 
BRANCH  16  17
ATOM     17  C   UNL     1    -118.540 -98.327  47.320  1.00  0.00    -0.000 C 
BRANCH  17  18
ATOM     18  C   UNL     1    -118.572 -99.619  48.151  1.00  0.00    -0.003 C 
ATOM     19  C   UNL     1    -117.176-100.096  48.551  1.00  0.00     0.004 C 
ENDBRANCH  17  18
ENDBRANCH  16  17
ENDBRANCH  15  16
ENDBRANCH  14  15
ENDBRANCH  13  14
ENDBRANCH  12  13
ENDBRANCH   1  12
TORSDOF 14
ENDMDL
MODEL 8
REMARK VINA RESULT:    -2.136      4.029     10.136
REMARK INTER + INTRA:          -4.583
REMARK INTER:                  -3.299
REMARK INTRA:                  -1.285
REMARK UNBOUND:                -0.699
REMARK SMILES CCCCCCCCCCCCCC[C@@H](C)C(=O)[O-]
REMARK SMILES IDX 9 1 10 2 11 3 12 4 13 5 14 6 15 7 16 8 17 9 18 10 19 11 8 12
REMARK SMILES IDX 7 13 6 14 5 15 4 16 3 17 2 18 1 19
REMARK H PARENT
REMARK Flexibility Score: inf
ROOT
ATOM      1  C   UNL     1    -116.128 -98.086  34.460  1.00  0.00     0.000 C 
ENDROOT
BRANCH   1   2
ATOM      2  C   UNL     1    -115.563 -98.159  35.883  1.00  0.00     0.000 C 
BRANCH   2   3
ATOM      3  C   UNL     1    -115.660 -99.583  36.444  1.00  0.00     0.000 C 
BRANCH   3   4
ATOM      4  C   UNL     1    -117.051 -99.851  37.030  1.00  0.00     0.000 C 
BRANCH   4   5
ATOM      5  C   UNL     1    -116.974-100.085  38.544  1.00  0.00     0.001 C 
BRANCH   5   6
ATOM      6  C   UNL     1    -118.193 -99.471  39.257  1.00  0.00     0.009 C 
BRANCH   6   7
ATOM      7  C   UNL     1    -117.925 -99.033  40.714  1.00  0.00     0.032 C 
ATOM      8  C   UNL     1    -116.455 -99.206  41.124  1.00  0.00     0.014 C 
BRANCH   7   9
ATOM      9  C   UNL     1    -118.410 -97.630  40.971  1.00  0.00     0.044 C 
ATOM     10  O   UNL     1    -118.314 -96.759  40.067  1.00  0.00    -0.550 OA
ATOM     11  O   UNL     1    -118.916 -97.268  42.214  1.00  0.00    -0.550 OA
ENDBRANCH   7   9
ENDBRANCH   6   7
ENDBRANCH   5   6
ENDBRANCH   4   5
ENDBRANCH   3   4
ENDBRANCH   2   3
ENDBRANCH   1   2
BRANCH   1  12
ATOM     12  C   UNL     1    -115.632 -99.261  33.610  1.00  0.00     0.000 C 
BRANCH  12  13
ATOM     13  C   UNL     1    -116.542 -99.487  32.397  1.00  0.00    -0.000 C 
BRANCH  13  14
ATOM     14  C   UNL     1    -117.891-100.085  32.825  1.00  0.00    -0.000 C 
BRANCH  14  15
ATOM     15  C   UNL     1    -119.097 -99.314  32.258  1.00  0.00    -0.000 C 
BRANCH  15  16
ATOM     16  C   UNL     1    -119.117 -99.180  30.725  1.00  0.00    -0.000 C 
BRANCH  16  17
ATOM     17  C   UNL     1    -118.785 -97.757  30.245  1.00  0.00    -0.000 C 
BRANCH  17  18
ATOM     18  C   UNL     1    -119.125 -96.688  31.294  1.00  0.00    -0.003 C 
ATOM     19  C   UNL     1    -117.880 -96.022  31.880  1.00  0.00     0.004 C 
ENDBRANCH  17  18
ENDBRANCH  16  17
ENDBRANCH  15  16
ENDBRANCH  14  15
ENDBRANCH  13  14
ENDBRANCH  12  13
ENDBRANCH   1  12
TORSDOF 14
ENDMDL
