MODEL 1
REMARK VINA RESULT:    -4.304      0.000      0.000
REMARK INTER + INTRA:          -6.694
REMARK INTER:                  -6.568
REMARK INTRA:                  -0.126
REMARK UNBOUND:                -0.126
REMARK SMILES CC(=O)CCC=C(C)CCC=C(C)CCC=C(C)C
REMARK SMILES IDX 10 1 11 2 12 3 13 4 14 5 15 6 16 7 18 8 17 9 19 10 9 11 7 12
REMARK SMILES IDX 6 13 8 14 5 15 4 16 2 17 3 18 1 19
REMARK H PARENT
REMARK Flexibility Score: inf
ROOT
ATOM      1  C   UNL     1      -2.634 -14.762  -9.125  1.00  0.00     0.032 C 
ENDROOT
BRANCH   1   2
ATOM      2  C   UNL     1      -3.829 -13.839  -9.091  1.00  0.00    -0.028 C 
ATOM      3  C   UNL     1      -5.117 -14.251  -9.036  1.00  0.00    -0.077 C 
ATOM      4  C   UNL     1      -5.484 -15.713  -8.933  1.00  0.00     0.039 C 
BRANCH   3   5
ATOM      5  C   UNL     1      -6.221 -13.215  -9.057  1.00  0.00     0.034 C 
BRANCH   5   6
ATOM      6  C   UNL     1      -5.755 -11.867  -8.487  1.00  0.00     0.032 C 
BRANCH   6   7
ATOM      7  C   UNL     1      -6.428 -11.554  -7.172  1.00  0.00    -0.028 C 
ATOM      8  C   UNL     1      -7.071 -11.874  -4.823  1.00  0.00     0.039 C 
ATOM      9  C   UNL     1      -6.391 -12.349  -6.080  1.00  0.00    -0.080 C 
ATOM     10  C   UNL     1      -5.707 -13.697  -6.095  1.00  0.00     0.039 C 
ENDBRANCH   6   7
ENDBRANCH   5   6
ENDBRANCH   3   5
ENDBRANCH   1   2
BRANCH   1  11
ATOM     11  C   UNL     1      -1.619 -14.424  -8.023  1.00  0.00     0.034 C 
BRANCH  11  12
ATOM     12  C   UNL     1      -2.271 -13.715  -6.850  1.00  0.00    -0.077 C 
ATOM     13  C   UNL     1      -2.581 -14.341  -5.691  1.00  0.00    -0.028 C 
ATOM     14  C   UNL     1      -2.626 -12.257  -6.990  1.00  0.00     0.039 C 
BRANCH  13  15
ATOM     15  C   UNL     1      -2.240 -15.776  -5.364  1.00  0.00     0.035 C 
BRANCH  15  16
ATOM     16  C   UNL     1      -3.085 -16.760  -6.183  1.00  0.00     0.079 C 
BRANCH  16  17
ATOM     17  C   UNL     1      -4.140 -17.421  -5.336  1.00  0.00     0.130 C 
ATOM     18  O   UNL     1      -4.849 -16.739  -4.612  1.00  0.00    -0.300 OA
ATOM     19  C   UNL     1      -4.362 -18.903  -5.395  1.00  0.00     0.087 C 
ENDBRANCH  16  17
ENDBRANCH  15  16
ENDBRANCH  13  15
ENDBRANCH  11  12
ENDBRANCH   1  11
TORSDOF 9
ENDMDL
MODEL 2
REMARK VINA RESULT:    -4.036      1.563      4.436
REMARK INTER + INTRA:          -6.285
REMARK INTER:                  -5.044
REMARK INTRA:                  -1.242
REMARK UNBOUND:                -0.126
REMARK SMILES CC(=O)CCC=C(C)CCC=C(C)CCC=C(C)C
REMARK SMILES IDX 10 1 11 2 12 3 13 4 14 5 15 6 16 7 18 8 17 9 19 10 9 11 7 12
REMARK SMILES IDX 6 13 8 14 5 15 4 16 2 17 3 18 1 19
REMARK H PARENT
REMARK Flexibility Score: inf
ROOT
ATOM      1  C   UNL     1      -2.615 -13.779  -9.059  1.00  0.00     0.032 C 
ENDROOT
BRANCH   1   2
ATOM      2  C   UNL     1      -3.002 -15.124  -8.493  1.00  0.00    -0.028 C 
ATOM      3  C   UNL     1      -4.260 -15.622  -8.487  1.00  0.00    -0.077 C 
ATOM      4  C   UNL     1      -5.414 -14.884  -9.125  1.00  0.00     0.039 C 
BRANCH   3   5
ATOM      5  C   UNL     1      -4.516 -16.967  -7.840  1.00  0.00     0.034 C 
BRANCH   5   6
ATOM      6  C   UNL     1      -3.563 -17.228  -6.663  1.00  0.00     0.032 C 
BRANCH   6   7
ATOM      7  C   UNL     1      -3.960 -16.441  -5.437  1.00  0.00    -0.028 C 
ATOM      8  C   UNL     1      -3.763 -14.742  -3.674  1.00  0.00     0.039 C 
ATOM      9  C   UNL     1      -3.207 -15.475  -4.867  1.00  0.00    -0.080 C 
ATOM     10  C   UNL     1      -1.829 -15.126  -5.381  1.00  0.00     0.039 C 
ENDBRANCH   6   7
ENDBRANCH   5   6
ENDBRANCH   3   5
ENDBRANCH   1   2
BRANCH   1  11
ATOM     11  C   UNL     1      -2.784 -12.654  -8.027  1.00  0.00     0.034 C 
BRANCH  11  12
ATOM     12  C   UNL     1      -3.265 -11.365  -8.668  1.00  0.00    -0.077 C 
ATOM     13  C   UNL     1      -4.572 -11.103  -8.904  1.00  0.00    -0.028 C 
ATOM     14  C   UNL     1      -2.244 -10.343  -9.099  1.00  0.00     0.039 C 
BRANCH  13  15
ATOM     15  C   UNL     1      -5.722 -11.985  -8.481  1.00  0.00     0.035 C 
BRANCH  15  16
ATOM     16  C   UNL     1      -6.387 -11.473  -7.197  1.00  0.00     0.079 C 
BRANCH  16  17
ATOM     17  C   UNL     1      -6.237 -12.456  -6.066  1.00  0.00     0.130 C 
ATOM     18  O   UNL     1      -5.659 -13.515  -6.258  1.00  0.00    -0.300 OA
ATOM     19  C   UNL     1      -6.752 -12.140  -4.694  1.00  0.00     0.087 C 
ENDBRANCH  16  17
ENDBRANCH  15  16
ENDBRANCH  13  15
ENDBRANCH  11  12
ENDBRANCH   1  11
TORSDOF 9
ENDMDL
MODEL 3
REMARK VINA RESULT:    -3.799      1.878      5.063
REMARK INTER + INTRA:          -5.923
REMARK INTER:                  -4.480
REMARK INTRA:                  -1.443
REMARK UNBOUND:                -0.126
REMARK SMILES CC(=O)CCC=C(C)CCC=C(C)CCC=C(C)C
REMARK SMILES IDX 10 1 11 2 12 3 13 4 14 5 15 6 16 7 18 8 17 9 19 10 9 11 7 12
REMARK SMILES IDX 6 13 8 14 5 15 4 16 2 17 3 18 1 19
REMARK H PARENT
REMARK Flexibility Score: inf
ROOT
ATOM      1  C   UNL     1      -1.708 -14.352  -7.888  1.00  0.00     0.032 C 
ENDROOT
BRANCH   1   2
ATOM      2  C   UNL     1      -2.533 -14.921  -6.759  1.00  0.00    -0.028 C 
ATOM      3  C   UNL     1      -2.977 -14.210  -5.697  1.00  0.00    -0.077 C 
ATOM      4  C   UNL     1      -2.737 -12.723  -5.575  1.00  0.00     0.039 C 
BRANCH   3   5
ATOM      5  C   UNL     1      -3.755 -14.921  -4.609  1.00  0.00     0.034 C 
BRANCH   5   6
ATOM      6  C   UNL     1      -4.751 -15.938  -5.187  1.00  0.00     0.032 C 
BRANCH   6   7
ATOM      7  C   UNL     1      -4.303 -17.359  -4.944  1.00  0.00    -0.028 C 
ATOM      8  C   UNL     1      -3.523 -19.618  -5.515  1.00  0.00     0.039 C 
ATOM      9  C   UNL     1      -4.006 -18.249  -5.917  1.00  0.00    -0.080 C 
ATOM     10  C   UNL     1      -4.161 -17.914  -7.383  1.00  0.00     0.039 C 
ENDBRANCH   6   7
ENDBRANCH   5   6
ENDBRANCH   3   5
ENDBRANCH   1   2
BRANCH   1  11
ATOM     11  C   UNL     1      -2.568 -14.030  -9.119  1.00  0.00     0.034 C 
BRANCH  11  12
ATOM     12  C   UNL     1      -3.105 -12.611  -9.079  1.00  0.00    -0.077 C 
ATOM     13  C   UNL     1      -4.428 -12.325  -9.038  1.00  0.00    -0.028 C 
ATOM     14  C   UNL     1      -2.129 -11.463  -9.125  1.00  0.00     0.039 C 
BRANCH  13  15
ATOM     15  C   UNL     1      -5.531 -13.349  -8.925  1.00  0.00     0.035 C 
BRANCH  15  16
ATOM     16  C   UNL     1      -5.862 -13.668  -7.461  1.00  0.00     0.079 C 
BRANCH  16  17
ATOM     17  C   UNL     1      -6.219 -12.424  -6.691  1.00  0.00     0.130 C 
ATOM     18  O   UNL     1      -6.095 -11.330  -7.219  1.00  0.00    -0.300 OA
ATOM     19  C   UNL     1      -6.761 -12.508  -5.296  1.00  0.00     0.087 C 
ENDBRANCH  16  17
ENDBRANCH  15  16
ENDBRANCH  13  15
ENDBRANCH  11  12
ENDBRANCH   1  11
TORSDOF 9
ENDMDL
MODEL 4
REMARK VINA RESULT:    -3.795      1.383      2.656
REMARK INTER + INTRA:          -5.918
REMARK INTER:                  -4.648
REMARK INTRA:                  -1.270
REMARK UNBOUND:                -0.126
REMARK SMILES CC(=O)CCC=C(C)CCC=C(C)CCC=C(C)C
REMARK SMILES IDX 10 1 11 2 12 3 13 4 14 5 15 6 16 7 18 8 17 9 19 10 9 11 7 12
REMARK SMILES IDX 6 13 8 14 5 15 4 16 2 17 3 18 1 19
REMARK H PARENT
REMARK Flexibility Score: inf
ROOT
ATOM      1  C   UNL     1      -2.499 -15.096  -8.455  1.00  0.00     0.032 C 
ENDROOT
BRANCH   1   2
ATOM      2  C   UNL     1      -2.708 -13.703  -8.998  1.00  0.00    -0.028 C 
ATOM      3  C   UNL     1      -2.716 -12.578  -8.246  1.00  0.00    -0.077 C 
ATOM      4  C   UNL     1      -2.441 -12.609  -6.760  1.00  0.00     0.039 C 
BRANCH   3   5
ATOM      5  C   UNL     1      -2.988 -11.248  -8.916  1.00  0.00     0.034 C 
BRANCH   5   6
ATOM      6  C   UNL     1      -4.469 -10.852  -8.826  1.00  0.00     0.032 C 
BRANCH   6   7
ATOM      7  C   UNL     1      -5.045 -11.149  -7.462  1.00  0.00    -0.028 C 
ATOM      8  C   UNL     1      -6.627 -12.067  -5.821  1.00  0.00     0.039 C 
ATOM      9  C   UNL     1      -6.209 -11.800  -7.244  1.00  0.00    -0.080 C 
ATOM     10  C   UNL     1      -7.101 -12.247  -8.379  1.00  0.00     0.039 C 
ENDBRANCH   6   7
ENDBRANCH   5   6
ENDBRANCH   3   5
ENDBRANCH   1   2
BRANCH   1  11
ATOM     11  C   UNL     1      -3.734 -15.984  -8.665  1.00  0.00     0.034 C 
BRANCH  11  12
ATOM     12  C   UNL     1      -4.999 -15.327  -8.141  1.00  0.00    -0.077 C 
ATOM     13  C   UNL     1      -5.224 -15.108  -6.825  1.00  0.00    -0.028 C 
ATOM     14  C   UNL     1      -6.072 -14.932  -9.124  1.00  0.00     0.039 C 
BRANCH  13  15
ATOM     15  C   UNL     1      -4.234 -15.385  -5.719  1.00  0.00     0.035 C 
BRANCH  15  16
ATOM     16  C   UNL     1      -4.495 -16.739  -5.049  1.00  0.00     0.079 C 
BRANCH  16  17
ATOM     17  C   UNL     1      -3.600 -17.814  -5.606  1.00  0.00     0.130 C 
ATOM     18  O   UNL     1      -2.456 -17.539  -5.933  1.00  0.00    -0.300 OA
ATOM     19  C   UNL     1      -4.078 -19.230  -5.731  1.00  0.00     0.087 C 
ENDBRANCH  16  17
ENDBRANCH  15  16
ENDBRANCH  13  15
ENDBRANCH  11  12
ENDBRANCH   1  11
TORSDOF 9
ENDMDL
MODEL 5
REMARK VINA RESULT:    -3.721      1.455      2.770
REMARK INTER + INTRA:          -5.805
REMARK INTER:                  -4.098
REMARK INTRA:                  -1.707
REMARK UNBOUND:                -0.126
REMARK SMILES CC(=O)CCC=C(C)CCC=C(C)CCC=C(C)C
REMARK SMILES IDX 10 1 11 2 12 3 13 4 14 5 15 6 16 7 18 8 17 9 19 10 9 11 7 12
REMARK SMILES IDX 6 13 8 14 5 15 4 16 2 17 3 18 1 19
REMARK H PARENT
REMARK Flexibility Score: inf
ROOT
ATOM      1  C   UNL     1      -4.692 -16.225  -7.789  1.00  0.00     0.032 C 
ENDROOT
BRANCH   1   2
ATOM      2  C   UNL     1      -5.274 -15.000  -8.453  1.00  0.00    -0.028 C 
ATOM      3  C   UNL     1      -5.713 -13.904  -7.793  1.00  0.00    -0.077 C 
ATOM      4  C   UNL     1      -5.595 -13.775  -6.292  1.00  0.00     0.039 C 
BRANCH   3   5
ATOM      5  C   UNL     1      -6.320 -12.763  -8.583  1.00  0.00     0.034 C 
BRANCH   5   6
ATOM      6  C   UNL     1      -5.827 -11.396  -8.088  1.00  0.00     0.032 C 
BRANCH   6   7
ATOM      7  C   UNL     1      -4.577 -10.956  -8.811  1.00  0.00    -0.028 C 
ATOM      8  C   UNL     1      -2.184 -10.498  -9.125  1.00  0.00     0.039 C 
ATOM      9  C   UNL     1      -3.345 -10.911  -8.258  1.00  0.00    -0.080 C 
ATOM     10  C   UNL     1      -3.108 -11.242  -6.803  1.00  0.00     0.039 C 
ENDBRANCH   6   7
ENDBRANCH   5   6
ENDBRANCH   3   5
ENDBRANCH   1   2
BRANCH   1  11
ATOM     11  C   UNL     1      -3.194 -16.380  -8.086  1.00  0.00     0.034 C 
BRANCH  11  12
ATOM     12  C   UNL     1      -2.440 -15.077  -7.890  1.00  0.00    -0.077 C 
ATOM     13  C   UNL     1      -2.003 -14.654  -6.680  1.00  0.00    -0.028 C 
ATOM     14  C   UNL     1      -2.197 -14.191  -9.085  1.00  0.00     0.039 C 
BRANCH  13  15
ATOM     15  C   UNL     1      -2.108 -15.444  -5.398  1.00  0.00     0.035 C 
BRANCH  15  16
ATOM     16  C   UNL     1      -3.125 -14.824  -4.431  1.00  0.00     0.079 C 
BRANCH  16  17
ATOM     17  C   UNL     1      -4.075 -15.860  -3.889  1.00  0.00     0.130 C 
ATOM     18  O   UNL     1      -4.309 -15.897  -2.691  1.00  0.00    -0.300 OA
ATOM     19  C   UNL     1      -4.770 -16.824  -4.803  1.00  0.00     0.087 C 
ENDBRANCH  16  17
ENDBRANCH  15  16
ENDBRANCH  13  15
ENDBRANCH  11  12
ENDBRANCH   1  11
TORSDOF 9
ENDMDL
MODEL 6
REMARK VINA RESULT:    -3.631      1.351      2.707
REMARK INTER + INTRA:          -5.667
REMARK INTER:                  -5.514
REMARK INTRA:                  -0.153
REMARK UNBOUND:                -0.126
REMARK SMILES CC(=O)CCC=C(C)CCC=C(C)CCC=C(C)C
REMARK SMILES IDX 10 1 11 2 12 3 13 4 14 5 15 6 16 7 18 8 17 9 19 10 9 11 7 12
REMARK SMILES IDX 6 13 8 14 5 15 4 16 2 17 3 18 1 19
REMARK H PARENT
REMARK Flexibility Score: inf
ROOT
ATOM      1  C   UNL     1      -2.223 -13.270  -6.840  1.00  0.00     0.032 C 
ENDROOT
BRANCH   1   2
ATOM      2  C   UNL     1      -3.306 -12.773  -7.766  1.00  0.00    -0.028 C 
ATOM      3  C   UNL     1      -3.400 -11.504  -8.228  1.00  0.00    -0.077 C 
ATOM      4  C   UNL     1      -2.361 -10.457  -7.903  1.00  0.00     0.039 C 
BRANCH   3   5
ATOM      5  C   UNL     1      -4.570 -11.129  -9.115  1.00  0.00     0.034 C 
BRANCH   5   6
ATOM      6  C   UNL     1      -5.846 -11.896  -8.736  1.00  0.00     0.032 C 
BRANCH   6   7
ATOM      7  C   UNL     1      -6.272 -11.605  -7.316  1.00  0.00    -0.028 C 
ATOM      8  C   UNL     1      -6.739 -12.075  -4.950  1.00  0.00     0.039 C 
ATOM      9  C   UNL     1      -6.345 -12.529  -6.332  1.00  0.00    -0.080 C 
ATOM     10  C   UNL     1      -6.062 -13.992  -6.584  1.00  0.00     0.039 C 
ENDBRANCH   6   7
ENDBRANCH   5   6
ENDBRANCH   3   5
ENDBRANCH   1   2
BRANCH   1  11
ATOM     11  C   UNL     1      -1.922 -14.760  -7.059  1.00  0.00     0.034 C 
BRANCH  11  12
ATOM     12  C   UNL     1      -3.083 -15.480  -7.721  1.00  0.00    -0.077 C 
ATOM     13  C   UNL     1      -3.765 -16.484  -7.122  1.00  0.00    -0.028 C 
ATOM     14  C   UNL     1      -3.474 -15.092  -9.124  1.00  0.00     0.039 C 
BRANCH  13  15
ATOM     15  C   UNL     1      -3.545 -16.953  -5.703  1.00  0.00     0.035 C 
BRANCH  15  16
ATOM     16  C   UNL     1      -4.646 -16.448  -4.762  1.00  0.00     0.079 C 
BRANCH  16  17
ATOM     17  C   UNL     1      -4.094 -15.515  -3.716  1.00  0.00     0.130 C 
ATOM     18  O   UNL     1      -4.182 -15.811  -2.535  1.00  0.00    -0.300 OA
ATOM     19  C   UNL     1      -3.404 -14.242  -4.104  1.00  0.00     0.087 C 
ENDBRANCH  16  17
ENDBRANCH  15  16
ENDBRANCH  13  15
ENDBRANCH  11  12
ENDBRANCH   1  11
TORSDOF 9
ENDMDL
MODEL 7
REMARK VINA RESULT:    -3.313      1.478      2.470
REMARK INTER + INTRA:          -5.181
REMARK INTER:                  -3.254
REMARK INTRA:                  -1.927
REMARK UNBOUND:                -0.126
REMARK SMILES CC(=O)CCC=C(C)CCC=C(C)CCC=C(C)C
REMARK SMILES IDX 10 1 11 2 12 3 13 4 14 5 15 6 16 7 18 8 17 9 19 10 9 11 7 12
REMARK SMILES IDX 6 13 8 14 5 15 4 16 2 17 3 18 1 19
REMARK H PARENT
REMARK Flexibility Score: inf
ROOT
ATOM      1  C   UNL     1      -1.831 -15.300  -6.669  1.00  0.00     0.032 C 
ENDROOT
BRANCH   1   2
ATOM      2  C   UNL     1      -1.943 -13.941  -7.318  1.00  0.00    -0.028 C 
ATOM      3  C   UNL     1      -2.660 -13.680  -8.435  1.00  0.00    -0.077 C 
ATOM      4  C   UNL     1      -3.493 -14.742  -9.116  1.00  0.00     0.039 C 
BRANCH   3   5
ATOM      5  C   UNL     1      -2.645 -12.278  -9.008  1.00  0.00     0.034 C 
BRANCH   5   6
ATOM      6  C   UNL     1      -4.059 -11.691  -9.125  1.00  0.00     0.032 C 
BRANCH   6   7
ATOM      7  C   UNL     1      -4.749 -11.624  -7.784  1.00  0.00    -0.028 C 
ATOM      8  C   UNL     1      -6.467 -12.101  -6.093  1.00  0.00     0.039 C 
ATOM      9  C   UNL     1      -5.929 -12.217  -7.496  1.00  0.00    -0.080 C 
ATOM     10  C   UNL     1      -6.722 -12.970  -8.538  1.00  0.00     0.039 C 
ENDBRANCH   6   7
ENDBRANCH   5   6
ENDBRANCH   3   5
ENDBRANCH   1   2
BRANCH   1  11
ATOM     11  C   UNL     1      -2.302 -15.276  -5.207  1.00  0.00     0.034 C 
BRANCH  11  12
ATOM     12  C   UNL     1      -3.654 -14.602  -5.059  1.00  0.00    -0.077 C 
ATOM     13  C   UNL     1      -4.798 -15.128  -5.556  1.00  0.00    -0.028 C 
ATOM     14  C   UNL     1      -3.727 -13.267  -4.362  1.00  0.00     0.039 C 
BRANCH  13  15
ATOM     15  C   UNL     1      -4.911 -16.477  -6.223  1.00  0.00     0.035 C 
BRANCH  15  16
ATOM     16  C   UNL     1      -4.588 -17.620  -5.252  1.00  0.00     0.079 C 
BRANCH  16  17
ATOM     17  C   UNL     1      -4.087 -18.839  -5.979  1.00  0.00     0.130 C 
ATOM     18  O   UNL     1      -4.520 -19.101  -7.090  1.00  0.00    -0.300 OA
ATOM     19  C   UNL     1      -3.034 -19.720  -5.376  1.00  0.00     0.087 C 
ENDBRANCH  16  17
ENDBRANCH  15  16
ENDBRANCH  13  15
ENDBRANCH  11  12
ENDBRANCH   1  11
TORSDOF 9
ENDMDL
MODEL 8
REMARK VINA RESULT:    -3.274      0.879      3.221
REMARK INTER + INTRA:          -5.123
REMARK INTER:                  -4.182
REMARK INTRA:                  -0.941
REMARK UNBOUND:                -0.126
REMARK SMILES CC(=O)CCC=C(C)CCC=C(C)CCC=C(C)C
REMARK SMILES IDX 10 1 11 2 12 3 13 4 14 5 15 6 16 7 18 8 17 9 19 10 9 11 7 12
REMARK SMILES IDX 6 13 8 14 5 15 4 16 2 17 3 18 1 19
REMARK H PARENT
REMARK Flexibility Score: inf
ROOT
ATOM      1  C   UNL     1      -5.341 -14.399  -5.027  1.00  0.00     0.032 C 
ENDROOT
BRANCH   1   2
ATOM      2  C   UNL     1      -5.574 -13.803  -6.394  1.00  0.00    -0.028 C 
ATOM      3  C   UNL     1      -6.239 -12.647  -6.625  1.00  0.00    -0.077 C 
ATOM      4  C   UNL     1      -6.765 -11.789  -5.498  1.00  0.00     0.039 C 
BRANCH   3   5
ATOM      5  C   UNL     1      -6.443 -12.190  -8.055  1.00  0.00     0.034 C 
BRANCH   5   6
ATOM      6  C   UNL     1      -5.913 -13.216  -9.067  1.00  0.00     0.032 C 
BRANCH   6   7
ATOM      7  C   UNL     1      -4.404 -13.286  -9.054  1.00  0.00    -0.028 C 
ATOM      8  C   UNL     1      -2.184 -14.335  -9.120  1.00  0.00     0.039 C 
ATOM      9  C   UNL     1      -3.687 -14.431  -9.087  1.00  0.00    -0.080 C 
ATOM     10  C   UNL     1      -4.348 -15.790  -9.072  1.00  0.00     0.039 C 
ENDBRANCH   6   7
ENDBRANCH   5   6
ENDBRANCH   3   5
ENDBRANCH   1   2
BRANCH   1  11
ATOM     11  C   UNL     1      -3.984 -13.978  -4.443  1.00  0.00     0.034 C 
BRANCH  11  12
ATOM     12  C   UNL     1      -2.927 -13.826  -5.521  1.00  0.00    -0.077 C 
ATOM     13  C   UNL     1      -2.137 -14.848  -5.927  1.00  0.00    -0.028 C 
ATOM     14  C   UNL     1      -2.716 -12.470  -6.145  1.00  0.00     0.039 C 
BRANCH  13  15
ATOM     15  C   UNL     1      -2.257 -16.276  -5.452  1.00  0.00     0.035 C 
BRANCH  15  16
ATOM     16  C   UNL     1      -3.265 -17.070  -6.294  1.00  0.00     0.079 C 
BRANCH  16  17
ATOM     17  C   UNL     1      -3.994 -18.093  -5.464  1.00  0.00     0.130 C 
ATOM     18  O   UNL     1      -4.929 -17.745  -4.759  1.00  0.00    -0.300 OA
ATOM     19  C   UNL     1      -3.615 -19.543  -5.516  1.00  0.00     0.087 C 
ENDBRANCH  16  17
ENDBRANCH  15  16
ENDBRANCH  13  15
ENDBRANCH  11  12
ENDBRANCH   1  11
TORSDOF 9
ENDMDL
MODEL 9
REMARK VINA RESULT:    -1.963      1.706      4.824
REMARK INTER + INTRA:          -3.121
REMARK INTER:                  -2.210
REMARK INTRA:                  -0.911
REMARK UNBOUND:                -0.126
REMARK SMILES CC(=O)CCC=C(C)CCC=C(C)CCC=C(C)C
REMARK SMILES IDX 10 1 11 2 12 3 13 4 14 5 15 6 16 7 18 8 17 9 19 10 9 11 7 12
REMARK SMILES IDX 6 13 8 14 5 15 4 16 2 17 3 18 1 19
REMARK H PARENT
REMARK Flexibility Score: inf
ROOT
ATOM      1  C   UNL     1      -2.424 -12.711  -6.709  1.00  0.00     0.032 C 
ENDROOT
BRANCH   1   2
ATOM      2  C   UNL     1      -3.166 -13.884  -7.301  1.00  0.00    -0.028 C 
ATOM      3  C   UNL     1      -2.776 -14.564  -8.404  1.00  0.00    -0.077 C 
ATOM      4  C   UNL     1      -1.487 -14.242  -9.125  1.00  0.00     0.039 C 
BRANCH   3   5
ATOM      5  C   UNL     1      -3.645 -15.693  -8.919  1.00  0.00     0.034 C 
BRANCH   5   6
ATOM      6  C   UNL     1      -4.645 -16.176  -7.859  1.00  0.00     0.032 C 
BRANCH   6   7
ATOM      7  C   UNL     1      -4.241 -17.508  -7.275  1.00  0.00    -0.028 C 
ATOM      8  C   UNL     1      -3.684 -19.140  -5.524  1.00  0.00     0.039 C 
ATOM      9  C   UNL     1      -4.034 -17.740  -5.960  1.00  0.00    -0.080 C 
ATOM     10  C   UNL     1      -4.125 -16.639  -4.928  1.00  0.00     0.039 C 
ENDBRANCH   6   7
ENDBRANCH   5   6
ENDBRANCH   3   5
ENDBRANCH   1   2
BRANCH   1  11
ATOM     11  C   UNL     1      -3.207 -11.399  -6.867  1.00  0.00     0.034 C 
BRANCH  11  12
ATOM     12  C   UNL     1      -3.404 -11.030  -8.326  1.00  0.00    -0.077 C 
ATOM     13  C   UNL     1      -4.492 -11.403  -9.040  1.00  0.00    -0.028 C 
ATOM     14  C   UNL     1      -2.327 -10.243  -9.027  1.00  0.00     0.039 C 
BRANCH  13  15
ATOM     15  C   UNL     1      -5.686 -12.136  -8.478  1.00  0.00     0.035 C 
BRANCH  15  16
ATOM     16  C   UNL     1      -6.279 -11.409  -7.264  1.00  0.00     0.079 C 
BRANCH  16  17
ATOM     17  C   UNL     1      -6.388 -12.321  -6.071  1.00  0.00     0.130 C 
ATOM     18  O   UNL     1      -6.817 -11.886  -5.014  1.00  0.00    -0.300 OA
ATOM     19  C   UNL     1      -6.013 -13.770  -6.169  1.00  0.00     0.087 C 
ENDBRANCH  16  17
ENDBRANCH  15  16
ENDBRANCH  13  15
ENDBRANCH  11  12
ENDBRANCH   1  11
TORSDOF 9
ENDMDL
