MODEL 1
REMARK VINA RESULT:    -3.128      0.000      0.000
REMARK INTER + INTRA:          -4.184
REMARK INTER:                  -4.043
REMARK INTRA:                  -0.141
REMARK UNBOUND:                -0.141
REMARK SMILES CCCCCCC=O
REMARK SMILES IDX 4 1 3 2 2 3 1 4 5 5 6 6 7 7 8 8
REMARK H PARENT
REMARK Flexibility Score: inf
ROOT
ATOM      1  C   UNL     1     169.794 166.777 168.003  1.00  0.00     0.000 C 
ENDROOT
BRANCH   1   2
ATOM      2  C   UNL     1     168.346 166.331 167.733  1.00  0.00    -0.000 C 
BRANCH   2   3
ATOM      3  C   UNL     1     167.511 166.235 169.019  1.00  0.00    -0.003 C 
ATOM      4  C   UNL     1     168.346 166.434 170.284  1.00  0.00     0.004 C 
ENDBRANCH   2   3
ENDBRANCH   1   2
BRANCH   1   5
ATOM      5  C   UNL     1     170.655 166.787 166.730  1.00  0.00     0.008 C 
BRANCH   5   6
ATOM      6  C   UNL     1     172.008 166.087 166.925  1.00  0.00     0.072 C 
BRANCH   6   7
ATOM      7  C   UNL     1     172.681 166.568 168.175  1.00  0.00     0.224 C 
ATOM      8  O   UNL     1     173.085 165.771 169.007  1.00  0.00    -0.303 OA
ENDBRANCH   6   7
ENDBRANCH   5   6
ENDBRANCH   1   5
TORSDOF 5
ENDMDL
MODEL 2
REMARK VINA RESULT:    -3.125      0.984      1.614
REMARK INTER + INTRA:          -4.179
REMARK INTER:                  -3.988
REMARK INTRA:                  -0.191
REMARK UNBOUND:                -0.141
REMARK SMILES CCCCCCC=O
REMARK SMILES IDX 4 1 3 2 2 3 1 4 5 5 6 6 7 7 8 8
REMARK H PARENT
REMARK Flexibility Score: inf
ROOT
ATOM      1  C   UNL     1     169.683 166.779 168.402  1.00  0.00     0.000 C 
ENDROOT
BRANCH   1   2
ATOM      2  C   UNL     1     168.198 166.377 168.430  1.00  0.00    -0.000 C 
BRANCH   2   3
ATOM      3  C   UNL     1     167.644 166.079 167.028  1.00  0.00    -0.003 C 
ATOM      4  C   UNL     1     166.304 165.345 167.064  1.00  0.00     0.004 C 
ENDBRANCH   2   3
ENDBRANCH   1   2
BRANCH   1   5
ATOM      5  C   UNL     1     170.275 166.755 166.983  1.00  0.00     0.008 C 
BRANCH   5   6
ATOM      6  C   UNL     1     171.711 166.213 166.949  1.00  0.00     0.072 C 
BRANCH   6   7
ATOM      7  C   UNL     1     172.442 166.563 168.211  1.00  0.00     0.224 C 
ATOM      8  O   UNL     1     173.076 165.713 168.815  1.00  0.00    -0.303 OA
ENDBRANCH   6   7
ENDBRANCH   5   6
ENDBRANCH   1   5
TORSDOF 5
ENDMDL
MODEL 3
REMARK VINA RESULT:    -3.115      8.254     10.321
REMARK INTER + INTRA:          -4.167
REMARK INTER:                  -4.024
REMARK INTRA:                  -0.143
REMARK UNBOUND:                -0.141
REMARK SMILES CCCCCCC=O
REMARK SMILES IDX 4 1 3 2 2 3 1 4 5 5 6 6 7 7 8 8
REMARK H PARENT
REMARK Flexibility Score: inf
ROOT
ATOM      1  C   UNL     1     161.437 164.457 167.987  1.00  0.00     0.000 C 
ENDROOT
BRANCH   1   2
ATOM      2  C   UNL     1     162.894 164.877 167.722  1.00  0.00    -0.000 C 
BRANCH   2   3
ATOM      3  C   UNL     1     163.704 165.034 169.018  1.00  0.00    -0.003 C 
ATOM      4  C   UNL     1     162.916 164.629 170.264  1.00  0.00     0.004 C 
ENDBRANCH   2   3
ENDBRANCH   1   2
BRANCH   1   5
ATOM      5  C   UNL     1     160.581 164.460 166.710  1.00  0.00     0.008 C 
BRANCH   5   6
ATOM      6  C   UNL     1     159.179 165.042 166.939  1.00  0.00     0.072 C 
BRANCH   6   7
ATOM      7  C   UNL     1     158.649 164.641 168.283  1.00  0.00     0.224 C 
ATOM      8  O   UNL     1     158.144 165.471 169.022  1.00  0.00    -0.303 OA
ENDBRANCH   6   7
ENDBRANCH   5   6
ENDBRANCH   1   5
TORSDOF 5
ENDMDL
MODEL 4
REMARK VINA RESULT:    -3.105      6.293      7.274
REMARK INTER + INTRA:          -4.154
REMARK INTER:                  -4.017
REMARK INTRA:                  -0.137
REMARK UNBOUND:                -0.141
REMARK SMILES CCCCCCC=O
REMARK SMILES IDX 4 1 3 2 2 3 1 4 5 5 6 6 7 7 8 8
REMARK H PARENT
REMARK Flexibility Score: inf
ROOT
ATOM      1  C   UNL     1     164.500 169.728 167.992  1.00  0.00     0.000 C 
ENDROOT
BRANCH   1   2
ATOM      2  C   UNL     1     164.867 168.260 167.715  1.00  0.00    -0.000 C 
BRANCH   2   3
ATOM      3  C   UNL     1     165.112 167.462 169.005  1.00  0.00    -0.003 C 
ATOM      4  C   UNL     1     164.684 168.220 170.262  1.00  0.00     0.004 C 
ENDBRANCH   2   3
ENDBRANCH   1   2
BRANCH   1   5
ATOM      5  C   UNL     1     164.395 170.563 166.706  1.00  0.00     0.008 C 
BRANCH   5   6
ATOM      6  C   UNL     1     165.093 171.925 166.825  1.00  0.00     0.072 C 
BRANCH   6   7
ATOM      7  C   UNL     1     164.676 172.629 168.082  1.00  0.00     0.224 C 
ATOM      8  O   UNL     1     165.514 173.079 168.847  1.00  0.00    -0.303 OA
ENDBRANCH   6   7
ENDBRANCH   5   6
ENDBRANCH   1   5
TORSDOF 5
ENDMDL
MODEL 5
REMARK VINA RESULT:    -3.100      6.333      7.264
REMARK INTER + INTRA:          -4.147
REMARK INTER:                  -4.012
REMARK INTRA:                  -0.135
REMARK UNBOUND:                -0.141
REMARK SMILES CCCCCCC=O
REMARK SMILES IDX 4 1 3 2 2 3 1 4 5 5 6 6 7 7 8 8
REMARK H PARENT
REMARK Flexibility Score: inf
ROOT
ATOM      1  C   UNL     1     166.733 161.498 168.021  1.00  0.00     0.000 C 
ENDROOT
BRANCH   1   2
ATOM      2  C   UNL     1     166.322 162.948 167.710  1.00  0.00    -0.000 C 
BRANCH   2   3
ATOM      3  C   UNL     1     165.997 163.751 168.979  1.00  0.00    -0.003 C 
ATOM      4  C   UNL     1     166.569 163.116 170.246  1.00  0.00     0.004 C 
ENDBRANCH   2   3
ENDBRANCH   1   2
BRANCH   1   5
ATOM      5  C   UNL     1     166.814 160.624 166.759  1.00  0.00     0.008 C 
BRANCH   5   6
ATOM      6  C   UNL     1     166.084 159.283 166.920  1.00  0.00     0.072 C 
BRANCH   6   7
ATOM      7  C   UNL     1     166.563 158.560 168.144  1.00  0.00     0.224 C 
ATOM      8  O   UNL     1     165.769 158.185 168.992  1.00  0.00    -0.303 OA
ENDBRANCH   6   7
ENDBRANCH   5   6
ENDBRANCH   1   5
TORSDOF 5
ENDMDL
MODEL 6
REMARK VINA RESULT:    -3.099      6.250      7.243
REMARK INTER + INTRA:          -4.146
REMARK INTER:                  -3.950
REMARK INTRA:                  -0.197
REMARK UNBOUND:                -0.141
REMARK SMILES CCCCCCC=O
REMARK SMILES IDX 4 1 3 2 2 3 1 4 5 5 6 6 7 7 8 8
REMARK H PARENT
REMARK Flexibility Score: inf
ROOT
ATOM      1  C   UNL     1     164.469 169.521 168.317  1.00  0.00     0.000 C 
ENDROOT
BRANCH   1   2
ATOM      2  C   UNL     1     164.880 168.039 168.357  1.00  0.00    -0.000 C 
BRANCH   2   3
ATOM      3  C   UNL     1     165.164 167.470 166.958  1.00  0.00    -0.003 C 
ATOM      4  C   UNL     1     164.796 165.991 166.833  1.00  0.00     0.004 C 
ENDBRANCH   2   3
ENDBRANCH   1   2
BRANCH   1   5
ATOM      5  C   UNL     1     164.538 170.114 166.900  1.00  0.00     0.008 C 
BRANCH   5   6
ATOM      6  C   UNL     1     164.919 171.601 166.898  1.00  0.00     0.072 C 
BRANCH   6   7
ATOM      7  C   UNL     1     164.842 172.172 168.283  1.00  0.00     0.224 C 
ATOM      8  O   UNL     1     165.568 173.097 168.612  1.00  0.00    -0.303 OA
ENDBRANCH   6   7
ENDBRANCH   5   6
ENDBRANCH   1   5
TORSDOF 5
ENDMDL
MODEL 7
REMARK VINA RESULT:    -3.026      8.023     10.189
REMARK INTER + INTRA:          -4.052
REMARK INTER:                  -3.900
REMARK INTRA:                  -0.152
REMARK UNBOUND:                -0.141
REMARK SMILES CCCCCCC=O
REMARK SMILES IDX 4 1 3 2 2 3 1 4 5 5 6 6 7 7 8 8
REMARK H PARENT
REMARK Flexibility Score: inf
ROOT
ATOM      1  C   UNL     1     161.813 164.481 168.880  1.00  0.00     0.000 C 
ENDROOT
BRANCH   1   2
ATOM      2  C   UNL     1     162.634 164.830 167.626  1.00  0.00    -0.000 C 
BRANCH   2   3
ATOM      3  C   UNL     1     164.019 165.398 167.970  1.00  0.00    -0.003 C 
ATOM      4  C   UNL     1     164.771 165.912 166.742  1.00  0.00     0.004 C 
ENDBRANCH   2   3
ENDBRANCH   1   2
BRANCH   1   5
ATOM      5  C   UNL     1     160.405 163.967 168.540  1.00  0.00     0.008 C 
BRANCH   5   6
ATOM      6  C   UNL     1     159.941 164.393 167.140  1.00  0.00     0.072 C 
BRANCH   6   7
ATOM      7  C   UNL     1     158.662 165.172 167.217  1.00  0.00     0.224 C 
ATOM      8  O   UNL     1     158.202 165.501 168.299  1.00  0.00    -0.303 OA
ENDBRANCH   6   7
ENDBRANCH   5   6
ENDBRANCH   1   5
TORSDOF 5
ENDMDL
MODEL 8
REMARK VINA RESULT:    -3.016      6.020      7.105
REMARK INTER + INTRA:          -4.039
REMARK INTER:                  -3.894
REMARK INTRA:                  -0.144
REMARK UNBOUND:                -0.141
REMARK SMILES CCCCCCC=O
REMARK SMILES IDX 4 1 3 2 2 3 1 4 5 5 6 6 7 7 8 8
REMARK H PARENT
REMARK Flexibility Score: inf
ROOT
ATOM      1  C   UNL     1     166.612 162.212 168.475  1.00  0.00     0.000 C 
ENDROOT
BRANCH   1   2
ATOM      2  C   UNL     1     166.095 163.624 168.148  1.00  0.00    -0.000 C 
BRANCH   2   3
ATOM      3  C   UNL     1     166.084 163.910 166.638  1.00  0.00    -0.003 C 
ATOM      4  C   UNL     1     166.334 165.383 166.312  1.00  0.00     0.004 C 
ENDBRANCH   2   3
ENDBRANCH   1   2
BRANCH   1   5
ATOM      5  C   UNL     1     166.565 161.271 167.261  1.00  0.00     0.008 C 
BRANCH   5   6
ATOM      6  C   UNL     1     167.170 159.891 167.557  1.00  0.00     0.072 C 
BRANCH   6   7
ATOM      7  C   UNL     1     166.164 158.806 167.315  1.00  0.00     0.224 C 
ATOM      8  O   UNL     1     165.653 158.214 168.252  1.00  0.00    -0.303 OA
ENDBRANCH   6   7
ENDBRANCH   5   6
ENDBRANCH   1   5
TORSDOF 5
ENDMDL
MODEL 9
REMARK VINA RESULT:    -2.931      7.389      8.213
REMARK INTER + INTRA:          -3.929
REMARK INTER:                  -3.665
REMARK INTRA:                  -0.265
REMARK UNBOUND:                -0.141
REMARK SMILES CCCCCCC=O
REMARK SMILES IDX 4 1 3 2 2 3 1 4 5 5 6 6 7 7 8 8
REMARK H PARENT
REMARK Flexibility Score: inf
ROOT
ATOM      1  C   UNL     1     164.401 169.784 168.715  1.00  0.00     0.000 C 
ENDROOT
BRANCH   1   2
ATOM      2  C   UNL     1     163.987 169.974 170.185  1.00  0.00    -0.000 C 
BRANCH   2   3
ATOM      3  C   UNL     1     163.205 171.277 170.411  1.00  0.00    -0.003 C 
ATOM      4  C   UNL     1     161.754 171.035 170.825  1.00  0.00     0.004 C 
ENDBRANCH   2   3
ENDBRANCH   1   2
BRANCH   1   5
ATOM      5  C   UNL     1     163.817 170.867 167.793  1.00  0.00     0.008 C 
BRANCH   5   6
ATOM      6  C   UNL     1     164.852 171.426 166.806  1.00  0.00     0.072 C 
BRANCH   6   7
ATOM      7  C   UNL     1     165.241 172.825 167.179  1.00  0.00     0.224 C 
ATOM      8  O   UNL     1     165.479 173.113 168.341  1.00  0.00    -0.303 OA
ENDBRANCH   6   7
ENDBRANCH   5   6
ENDBRANCH   1   5
TORSDOF 5
ENDMDL
