MODEL 1
REMARK VINA RESULT:    -5.408      0.000      0.000
REMARK INTER + INTRA:          -8.154
REMARK INTER:                  -7.305
REMARK INTRA:                  -0.848
REMARK UNBOUND:                -0.848
REMARK SMILES O=c1c(-c2ccc(O)cc2)coc2c([C@H]3O[C@@H](CO)[C@H](O)[C@H](O)[C@H]3O)c(O)ccc12
REMARK SMILES IDX 3 1 11 2 12 3 13 4 30 5 2 6 1 7 29 8 28 9 26 10 14 11 4 12
REMARK SMILES IDX 5 13 6 14 7 15 10 16 9 17 8 18 15 20 24 21 16 22 22 23 17 24
REMARK SMILES IDX 20 25 25 26 23 28 18 30 19 31 21 33 27 35
REMARK H PARENT 8 19 25 27 23 29 19 32 21 34 27 36
REMARK Flexibility Score: inf
ROOT
ATOM      1  C   UNL     1      64.361  -6.393   6.728  1.00  0.00     0.065 A 
ATOM      2  C   UNL     1      63.889  -6.152   5.430  1.00  0.00     0.208 A 
ATOM      3  O   UNL     1      62.703  -6.605   5.041  1.00  0.00    -0.463 OA
ATOM      4  C   UNL     1      61.895  -7.307   5.834  1.00  0.00     0.147 A 
ATOM      5  C   UNL     1      62.293  -7.595   7.160  1.00  0.00     0.066 A 
ATOM      6  C   UNL     1      63.547  -7.137   7.603  1.00  0.00     0.200 A 
ATOM      7  O   UNL     1      63.948  -7.405   8.770  1.00  0.00    -0.288 OA
ATOM      8  C   UNL     1      61.436  -8.323   7.998  1.00  0.00     0.020 A 
ATOM      9  C   UNL     1      60.191  -8.744   7.533  1.00  0.00     0.047 A 
ATOM     10  C   UNL     1      59.783  -8.458   6.224  1.00  0.00     0.125 A 
ATOM     11  C   UNL     1      60.646  -7.757   5.347  1.00  0.00     0.069 A 
ENDROOT
BRANCH   1  12
ATOM     12  C   UNL     1      65.688  -5.870   7.142  1.00  0.00    -0.011 A 
ATOM     13  C   UNL     1      66.831  -6.148   6.372  1.00  0.00     0.013 A 
ATOM     14  C   UNL     1      68.080  -5.650   6.754  1.00  0.00     0.047 A 
ATOM     15  C   UNL     1      68.202  -4.864   7.906  1.00  0.00     0.115 A 
ATOM     16  C   UNL     1      65.817  -5.075   8.294  1.00  0.00     0.013 A 
ATOM     17  C   UNL     1      67.067  -4.577   8.673  1.00  0.00     0.047 A 
BRANCH  15  18
ATOM     18  O   UNL     1      69.441  -4.362   8.297  1.00  0.00    -0.508 OA
ATOM     19  H   UNL     1      69.737  -4.380   9.266  1.00  0.00     0.293 HD
ENDBRANCH  15  18
ENDBRANCH   1  12
BRANCH  11  20
ATOM     20  C   UNL     1      60.222  -7.414   3.924  1.00  0.00     0.188 C 
ATOM     21  C   UNL     1      59.486  -6.053   3.885  1.00  0.00     0.179 C 
ATOM     22  O   UNL     1      59.408  -8.443   3.386  1.00  0.00    -0.362 OA
ATOM     23  C   UNL     1      59.083  -5.724   2.438  1.00  0.00     0.177 C 
ATOM     24  C   UNL     1      59.149  -8.220   2.009  1.00  0.00     0.176 C 
ATOM     25  C   UNL     1      58.337  -6.917   1.808  1.00  0.00     0.177 C 
BRANCH  21  26
ATOM     26  O   UNL     1      58.329  -6.094   4.685  1.00  0.00    -0.387 OA
ATOM     27  H   UNL     1      57.655  -5.506   4.256  1.00  0.00     0.211 HD
ENDBRANCH  21  26
BRANCH  23  28
ATOM     28  O   UNL     1      60.224  -5.422   1.673  1.00  0.00    -0.387 OA
ATOM     29  H   UNL     1      59.901  -5.117   0.784  1.00  0.00     0.211 HD
ENDBRANCH  23  28
BRANCH  24  30
ATOM     30  C   UNL     1      58.401  -9.438   1.452  1.00  0.00     0.191 C 
BRANCH  30  31
ATOM     31  O   UNL     1      57.027  -9.324   1.703  1.00  0.00    -0.394 OA
ATOM     32  H   UNL     1      56.646 -10.229   1.560  1.00  0.00     0.210 HD
ENDBRANCH  30  31
ENDBRANCH  24  30
BRANCH  25  33
ATOM     33  O   UNL     1      58.134  -6.686   0.437  1.00  0.00    -0.388 OA
ATOM     34  H   UNL     1      57.299  -6.156   0.357  1.00  0.00     0.211 HD
ENDBRANCH  25  33
ENDBRANCH  11  20
BRANCH  10  35
ATOM     35  O   UNL     1      58.517  -8.866   5.802  1.00  0.00    -0.507 OA
ATOM     36  H   UNL     1      58.336  -9.815   5.499  1.00  0.00     0.293 HD
ENDBRANCH  10  35
TORSDOF 9
ENDMDL
MODEL 2
REMARK VINA RESULT:    -5.256     11.164     13.576
REMARK INTER + INTRA:          -7.948
REMARK INTER:                  -6.813
REMARK INTRA:                  -1.134
REMARK UNBOUND:                -0.848
REMARK SMILES O=c1c(-c2ccc(O)cc2)coc2c([C@H]3O[C@@H](CO)[C@H](O)[C@H](O)[C@H]3O)c(O)ccc12
REMARK SMILES IDX 3 1 11 2 12 3 13 4 30 5 2 6 1 7 29 8 28 9 26 10 14 11 4 12
REMARK SMILES IDX 5 13 6 14 7 15 10 16 9 17 8 18 15 20 24 21 16 22 22 23 17 24
REMARK SMILES IDX 20 25 25 26 23 28 18 30 19 31 21 33 27 35
REMARK H PARENT 8 19 25 27 23 29 19 32 21 34 27 36
REMARK Flexibility Score: inf
ROOT
ATOM      1  C   UNL     1      58.914 -17.933   3.972  1.00  0.00     0.065 A 
ATOM      2  C   UNL     1      59.346 -17.411   2.744  1.00  0.00     0.208 A 
ATOM      3  O   UNL     1      60.572 -17.651   2.294  1.00  0.00    -0.463 OA
ATOM      4  C   UNL     1      61.461 -18.385   2.960  1.00  0.00     0.147 A 
ATOM      5  C   UNL     1      61.108 -18.952   4.206  1.00  0.00     0.066 A 
ATOM      6  C   UNL     1      59.820 -18.711   4.717  1.00  0.00     0.200 A 
ATOM      7  O   UNL     1      59.483 -19.173   5.842  1.00  0.00    -0.288 OA
ATOM      8  C   UNL     1      62.042 -19.737   4.900  1.00  0.00     0.020 A 
ATOM      9  C   UNL     1      63.302 -19.972   4.356  1.00  0.00     0.047 A 
ATOM     10  C   UNL     1      63.661 -19.423   3.118  1.00  0.00     0.125 A 
ATOM     11  C   UNL     1      62.750 -18.597   2.416  1.00  0.00     0.069 A 
ENDROOT
BRANCH   1  12
ATOM     12  C   UNL     1      57.537 -17.656   4.450  1.00  0.00    -0.011 A 
ATOM     13  C   UNL     1      56.521 -18.613   4.278  1.00  0.00     0.013 A 
ATOM     14  C   UNL     1      55.224 -18.359   4.735  1.00  0.00     0.047 A 
ATOM     15  C   UNL     1      54.928 -17.149   5.375  1.00  0.00     0.115 A 
ATOM     16  C   UNL     1      57.232 -16.447   5.099  1.00  0.00     0.013 A 
ATOM     17  C   UNL     1      55.935 -16.196   5.557  1.00  0.00     0.047 A 
BRANCH  15  18
ATOM     18  O   UNL     1      53.640 -16.885   5.835  1.00  0.00    -0.508 OA
ATOM     19  H   UNL     1      53.123 -16.072   5.521  1.00  0.00     0.293 HD
ENDBRANCH  15  18
ENDBRANCH   1  12
BRANCH  11  20
ATOM     20  C   UNL     1      63.103 -18.001   1.059  1.00  0.00     0.188 C 
ATOM     21  C   UNL     1      62.874 -19.036  -0.069  1.00  0.00     0.179 C 
ATOM     22  O   UNL     1      64.444 -17.538   1.052  1.00  0.00    -0.362 OA
ATOM     23  C   UNL     1      63.223 -18.406  -1.429  1.00  0.00     0.177 C 
ATOM     24  C   UNL     1      64.731 -16.829  -0.142  1.00  0.00     0.176 C 
ATOM     25  C   UNL     1      64.622 -17.762  -1.373  1.00  0.00     0.177 C 
BRANCH  21  26
ATOM     26  O   UNL     1      63.679 -20.172   0.130  1.00  0.00    -0.387 OA
ATOM     27  H   UNL     1      63.223 -20.936  -0.308  1.00  0.00     0.211 HD
ENDBRANCH  21  26
BRANCH  23  28
ATOM     28  O   UNL     1      62.267 -17.433  -1.773  1.00  0.00    -0.387 OA
ATOM     29  H   UNL     1      61.414 -17.914  -1.935  1.00  0.00     0.211 HD
ENDBRANCH  23  28
BRANCH  24  30
ATOM     30  C   UNL     1      66.136 -16.224  -0.021  1.00  0.00     0.191 C 
BRANCH  30  31
ATOM     31  O   UNL     1      66.229 -15.049  -0.779  1.00  0.00    -0.394 OA
ATOM     32  H   UNL     1      67.144 -15.039  -1.161  1.00  0.00     0.210 HD
ENDBRANCH  30  31
ENDBRANCH  24  30
BRANCH  25  33
ATOM     33  O   UNL     1      64.861 -17.031  -2.550  1.00  0.00    -0.388 OA
ATOM     34  H   UNL     1      64.081 -16.430  -2.676  1.00  0.00     0.211 HD
ENDBRANCH  25  33
ENDBRANCH  11  20
BRANCH  10  35
ATOM     35  O   UNL     1      64.919 -19.706   2.587  1.00  0.00    -0.507 OA
ATOM     36  H   UNL     1      65.680 -20.040   3.166  1.00  0.00     0.293 HD
ENDBRANCH  10  35
TORSDOF 9
ENDMDL
MODEL 3
REMARK VINA RESULT:    -5.184      9.331     13.155
REMARK INTER + INTRA:          -7.851
REMARK INTER:                  -7.364
REMARK INTRA:                  -0.487
REMARK UNBOUND:                -0.848
REMARK SMILES O=c1c(-c2ccc(O)cc2)coc2c([C@H]3O[C@@H](CO)[C@H](O)[C@H](O)[C@H]3O)c(O)ccc12
REMARK SMILES IDX 3 1 11 2 12 3 13 4 30 5 2 6 1 7 29 8 28 9 26 10 14 11 4 12
REMARK SMILES IDX 5 13 6 14 7 15 10 16 9 17 8 18 15 20 24 21 16 22 22 23 17 24
REMARK SMILES IDX 20 25 25 26 23 28 18 30 19 31 21 33 27 35
REMARK H PARENT 8 19 25 27 23 29 19 32 21 34 27 36
REMARK Flexibility Score: inf
ROOT
ATOM      1  C   UNL     1      56.434 -17.365   6.152  1.00  0.00     0.065 A 
ATOM      2  C   UNL     1      57.033 -17.835   4.974  1.00  0.00     0.208 A 
ATOM      3  O   UNL     1      58.253 -17.440   4.626  1.00  0.00    -0.463 OA
ATOM      4  C   UNL     1      58.977 -16.589   5.350  1.00  0.00     0.147 A 
ATOM      5  C   UNL     1      58.450 -16.068   6.554  1.00  0.00     0.066 A 
ATOM      6  C   UNL     1      57.157 -16.459   6.949  1.00  0.00     0.200 A 
ATOM      7  O   UNL     1      56.642 -15.986   8.000  1.00  0.00    -0.288 OA
ATOM      8  C   UNL     1      59.220 -15.183   7.322  1.00  0.00     0.020 A 
ATOM      9  C   UNL     1      60.505 -14.833   6.912  1.00  0.00     0.047 A 
ATOM     10  C   UNL     1      61.041 -15.349   5.725  1.00  0.00     0.125 A 
ATOM     11  C   UNL     1      60.270 -16.215   4.913  1.00  0.00     0.069 A 
ENDROOT
BRANCH   1  12
ATOM     12  C   UNL     1      55.072 -17.826   6.524  1.00  0.00    -0.011 A 
ATOM     13  C   UNL     1      53.944 -17.305   5.866  1.00  0.00     0.013 A 
ATOM     14  C   UNL     1      52.661 -17.742   6.207  1.00  0.00     0.047 A 
ATOM     15  C   UNL     1      52.490 -18.711   7.205  1.00  0.00     0.115 A 
ATOM     16  C   UNL     1      54.892 -18.802   7.519  1.00  0.00     0.013 A 
ATOM     17  C   UNL     1      53.608 -19.239   7.858  1.00  0.00     0.047 A 
BRANCH  15  18
ATOM     18  O   UNL     1      51.216 -19.154   7.554  1.00  0.00    -0.508 OA
ATOM     19  H   UNL     1      50.411 -18.542   7.506  1.00  0.00     0.293 HD
ENDBRANCH  15  18
ENDBRANCH   1  12
BRANCH  11  20
ATOM     20  C   UNL     1      60.833 -16.808   3.628  1.00  0.00     0.188 C 
ATOM     21  C   UNL     1      61.116 -18.320   3.800  1.00  0.00     0.179 C 
ATOM     22  O   UNL     1      62.008 -16.117   3.234  1.00  0.00    -0.362 OA
ATOM     23  C   UNL     1      61.669 -18.897   2.486  1.00  0.00     0.177 C 
ATOM     24  C   UNL     1      62.444 -16.545   1.954  1.00  0.00     0.176 C 
ATOM     25  C   UNL     1      62.847 -18.039   1.982  1.00  0.00     0.177 C 
BRANCH  21  26
ATOM     26  O   UNL     1      62.056 -18.533   4.825  1.00  0.00    -0.387 OA
ATOM     27  H   UNL     1      62.225 -19.510   4.870  1.00  0.00     0.211 HD
ENDBRANCH  21  26
BRANCH  23  28
ATOM     28  O   UNL     1      60.658 -18.934   1.509  1.00  0.00    -0.387 OA
ATOM     29  H   UNL     1      59.823 -19.208   1.971  1.00  0.00     0.211 HD
ENDBRANCH  23  28
BRANCH  24  30
ATOM     30  C   UNL     1      63.617 -15.657   1.519  1.00  0.00     0.191 C 
BRANCH  30  31
ATOM     31  O   UNL     1      63.340 -14.311   1.796  1.00  0.00    -0.394 OA
ATOM     32  H   UNL     1      62.554 -14.310   2.402  1.00  0.00     0.210 HD
ENDBRANCH  30  31
ENDBRANCH  24  30
BRANCH  25  33
ATOM     33  O   UNL     1      63.228 -18.457   0.695  1.00  0.00    -0.388 OA
ATOM     34  H   UNL     1      64.170 -18.170   0.569  1.00  0.00     0.211 HD
ENDBRANCH  25  33
ENDBRANCH  11  20
BRANCH  10  35
ATOM     35  O   UNL     1      62.343 -15.004   5.361  1.00  0.00    -0.507 OA
ATOM     36  H   UNL     1      63.031 -14.717   6.047  1.00  0.00     0.293 HD
ENDBRANCH  10  35
TORSDOF 9
ENDMDL
MODEL 4
REMARK VINA RESULT:    -5.138      9.811     13.456
REMARK INTER + INTRA:          -7.788
REMARK INTER:                  -6.644
REMARK INTRA:                  -1.144
REMARK UNBOUND:                -0.848
REMARK SMILES O=c1c(-c2ccc(O)cc2)coc2c([C@H]3O[C@@H](CO)[C@H](O)[C@H](O)[C@H]3O)c(O)ccc12
REMARK SMILES IDX 3 1 11 2 12 3 13 4 30 5 2 6 1 7 29 8 28 9 26 10 14 11 4 12
REMARK SMILES IDX 5 13 6 14 7 15 10 16 9 17 8 18 15 20 24 21 16 22 22 23 17 24
REMARK SMILES IDX 20 25 25 26 23 28 18 30 19 31 21 33 27 35
REMARK H PARENT 8 19 25 27 23 29 19 32 21 34 27 36
REMARK Flexibility Score: inf
ROOT
ATOM      1  C   UNL     1      57.193 -17.603   5.404  1.00  0.00     0.065 A 
ATOM      2  C   UNL     1      57.625 -18.333   4.287  1.00  0.00     0.208 A 
ATOM      3  O   UNL     1      58.830 -18.131   3.765  1.00  0.00    -0.463 OA
ATOM      4  C   UNL     1      59.694 -17.242   4.250  1.00  0.00     0.147 A 
ATOM      5  C   UNL     1      59.340 -16.464   5.377  1.00  0.00     0.066 A 
ATOM      6  C   UNL     1      58.068 -16.646   5.950  1.00  0.00     0.200 A 
ATOM      7  O   UNL     1      57.706 -15.944   6.935  1.00  0.00    -0.288 OA
ATOM      8  C   UNL     1      60.256 -15.537   5.895  1.00  0.00     0.020 A 
ATOM      9  C   UNL     1      61.516 -15.397   5.315  1.00  0.00     0.047 A 
ATOM     10  C   UNL     1      61.881 -16.167   4.204  1.00  0.00     0.125 A 
ATOM     11  C   UNL     1      60.960 -17.083   3.640  1.00  0.00     0.069 A 
ENDROOT
BRANCH   1  12
ATOM     12  C   UNL     1      55.845 -17.851   5.973  1.00  0.00    -0.011 A 
ATOM     13  C   UNL     1      54.724 -17.170   5.465  1.00  0.00     0.013 A 
ATOM     14  C   UNL     1      53.452 -17.407   5.993  1.00  0.00     0.047 A 
ATOM     15  C   UNL     1      53.282 -18.332   7.030  1.00  0.00     0.115 A 
ATOM     16  C   UNL     1      55.664 -18.783   7.010  1.00  0.00     0.013 A 
ATOM     17  C   UNL     1      54.390 -19.020   7.535  1.00  0.00     0.047 A 
BRANCH  15  18
ATOM     18  O   UNL     1      52.019 -18.577   7.564  1.00  0.00    -0.508 OA
ATOM     19  H   UNL     1      51.894 -19.172   8.375  1.00  0.00     0.293 HD
ENDBRANCH  15  18
ENDBRANCH   1  12
BRANCH  11  20
ATOM     20  C   UNL     1      61.335 -17.949   2.444  1.00  0.00     0.188 C 
ATOM     21  C   UNL     1      62.137 -19.192   2.898  1.00  0.00     0.179 C 
ATOM     22  O   UNL     1      62.070 -17.195   1.494  1.00  0.00    -0.362 OA
ATOM     23  C   UNL     1      62.489 -20.057   1.676  1.00  0.00     0.177 C 
ATOM     24  C   UNL     1      62.277 -17.938   0.304  1.00  0.00     0.176 C 
ATOM     25  C   UNL     1      63.144 -19.190   0.582  1.00  0.00     0.177 C 
BRANCH  21  26
ATOM     26  O   UNL     1      63.325 -18.806   3.544  1.00  0.00    -0.387 OA
ATOM     27  H   UNL     1      63.198 -17.874   3.860  1.00  0.00     0.211 HD
ENDBRANCH  21  26
BRANCH  23  28
ATOM     28  O   UNL     1      61.331 -20.670   1.164  1.00  0.00    -0.387 OA
ATOM     29  H   UNL     1      61.015 -21.308   1.856  1.00  0.00     0.211 HD
ENDBRANCH  23  28
BRANCH  24  30
ATOM     30  C   UNL     1      62.935 -17.020  -0.734  1.00  0.00     0.191 C 
BRANCH  30  31
ATOM     31  O   UNL     1      62.495 -17.345  -2.024  1.00  0.00    -0.394 OA
ATOM     32  H   UNL     1      63.313 -17.507  -2.562  1.00  0.00     0.210 HD
ENDBRANCH  30  31
ENDBRANCH  24  30
BRANCH  25  33
ATOM     33  O   UNL     1      63.295 -19.939  -0.598  1.00  0.00    -0.388 OA
ATOM     34  H   UNL     1      63.456 -19.289  -1.331  1.00  0.00     0.211 HD
ENDBRANCH  25  33
ENDBRANCH  11  20
BRANCH  10  35
ATOM     35  O   UNL     1      63.162 -16.025   3.669  1.00  0.00    -0.507 OA
ATOM     36  H   UNL     1      63.966 -15.832   4.254  1.00  0.00     0.293 HD
ENDBRANCH  10  35
TORSDOF 9
ENDMDL
MODEL 5
REMARK VINA RESULT:    -5.128      9.136     12.668
REMARK INTER + INTRA:          -7.776
REMARK INTER:                  -7.184
REMARK INTRA:                  -0.591
REMARK UNBOUND:                -0.848
REMARK SMILES O=c1c(-c2ccc(O)cc2)coc2c([C@H]3O[C@@H](CO)[C@H](O)[C@H](O)[C@H]3O)c(O)ccc12
REMARK SMILES IDX 3 1 11 2 12 3 13 4 30 5 2 6 1 7 29 8 28 9 26 10 14 11 4 12
REMARK SMILES IDX 5 13 6 14 7 15 10 16 9 17 8 18 15 20 24 21 16 22 22 23 17 24
REMARK SMILES IDX 20 25 25 26 23 28 18 30 19 31 21 33 27 35
REMARK H PARENT 8 19 25 27 23 29 19 32 21 34 27 36
REMARK Flexibility Score: inf
ROOT
ATOM      1  C   UNL     1      57.448 -16.977   6.158  1.00  0.00     0.065 A 
ATOM      2  C   UNL     1      58.223 -17.562   5.146  1.00  0.00     0.208 A 
ATOM      3  O   UNL     1      59.469 -17.161   4.924  1.00  0.00    -0.463 OA
ATOM      4  C   UNL     1      60.060 -16.196   5.625  1.00  0.00     0.147 A 
ATOM      5  C   UNL     1      59.351 -15.553   6.666  1.00  0.00     0.066 A 
ATOM      6  C   UNL     1      58.026 -15.947   6.924  1.00  0.00     0.200 A 
ATOM      7  O   UNL     1      57.353 -15.371   7.823  1.00  0.00    -0.288 OA
ATOM      8  C   UNL     1      59.980 -14.546   7.413  1.00  0.00     0.020 A 
ATOM      9  C   UNL     1      61.301 -14.193   7.145  1.00  0.00     0.047 A 
ATOM     10  C   UNL     1      62.016 -14.829   6.121  1.00  0.00     0.125 A 
ATOM     11  C   UNL     1      61.392 -15.823   5.328  1.00  0.00     0.069 A 
ENDROOT
BRANCH   1  12
ATOM     12  C   UNL     1      56.060 -17.447   6.393  1.00  0.00    -0.011 A 
ATOM     13  C   UNL     1      55.800 -18.435   7.359  1.00  0.00     0.013 A 
ATOM     14  C   UNL     1      54.493 -18.875   7.588  1.00  0.00     0.047 A 
ATOM     15  C   UNL     1      53.429 -18.328   6.860  1.00  0.00     0.115 A 
ATOM     16  C   UNL     1      54.986 -16.899   5.671  1.00  0.00     0.013 A 
ATOM     17  C   UNL     1      53.679 -17.339   5.902  1.00  0.00     0.047 A 
BRANCH  15  18
ATOM     18  O   UNL     1      52.122 -18.757   7.079  1.00  0.00    -0.508 OA
ATOM     19  H   UNL     1      51.448 -18.806   6.325  1.00  0.00     0.293 HD
ENDBRANCH  15  18
ENDBRANCH   1  12
BRANCH  11  20
ATOM     20  C   UNL     1      62.149 -16.545   4.222  1.00  0.00     0.188 C 
ATOM     21  C   UNL     1      61.871 -15.888   2.848  1.00  0.00     0.179 C 
ATOM     22  O   UNL     1      61.806 -17.921   4.200  1.00  0.00    -0.362 OA
ATOM     23  C   UNL     1      62.658 -16.626   1.752  1.00  0.00     0.177 C 
ATOM     24  C   UNL     1      62.628 -18.636   3.292  1.00  0.00     0.176 C 
ATOM     25  C   UNL     1      62.402 -18.143   1.842  1.00  0.00     0.177 C 
BRANCH  21  26
ATOM     26  O   UNL     1      60.498 -15.943   2.543  1.00  0.00    -0.387 OA
ATOM     27  H   UNL     1      60.421 -16.030   1.558  1.00  0.00     0.211 HD
ENDBRANCH  21  26
BRANCH  23  28
ATOM     28  O   UNL     1      64.035 -16.369   1.886  1.00  0.00    -0.387 OA
ATOM     29  H   UNL     1      64.374 -16.144   0.980  1.00  0.00     0.211 HD
ENDBRANCH  23  28
BRANCH  24  30
ATOM     30  C   UNL     1      62.316 -20.132   3.429  1.00  0.00     0.191 C 
BRANCH  30  31
ATOM     31  O   UNL     1      61.359 -20.521   2.482  1.00  0.00    -0.394 OA
ATOM     32  H   UNL     1      60.867 -19.696   2.233  1.00  0.00     0.210 HD
ENDBRANCH  30  31
ENDBRANCH  24  30
BRANCH  25  33
ATOM     33  O   UNL     1      63.260 -18.827   0.964  1.00  0.00    -0.388 OA
ATOM     34  H   UNL     1      63.810 -19.439   1.521  1.00  0.00     0.211 HD
ENDBRANCH  25  33
ENDBRANCH  11  20
BRANCH  10  35
ATOM     35  O   UNL     1      63.347 -14.475   5.901  1.00  0.00    -0.507 OA
ATOM     36  H   UNL     1      63.838 -14.741   5.056  1.00  0.00     0.293 HD
ENDBRANCH  10  35
TORSDOF 9
ENDMDL
MODEL 6
REMARK VINA RESULT:    -5.042      4.307      8.167
REMARK INTER + INTRA:          -7.658
REMARK INTER:                  -6.553
REMARK INTRA:                  -1.105
REMARK UNBOUND:                -0.848
REMARK SMILES O=c1c(-c2ccc(O)cc2)coc2c([C@H]3O[C@@H](CO)[C@H](O)[C@H](O)[C@H]3O)c(O)ccc12
REMARK SMILES IDX 3 1 11 2 12 3 13 4 30 5 2 6 1 7 29 8 28 9 26 10 14 11 4 12
REMARK SMILES IDX 5 13 6 14 7 15 10 16 9 17 8 18 15 20 24 21 16 22 22 23 17 24
REMARK SMILES IDX 20 25 25 26 23 28 18 30 19 31 21 33 27 35
REMARK H PARENT 8 19 25 27 23 29 19 32 21 34 27 36
REMARK Flexibility Score: inf
ROOT
ATOM      1  C   UNL     1      59.244  -6.065   1.755  1.00  0.00     0.065 A 
ATOM      2  C   UNL     1      58.115  -6.851   1.478  1.00  0.00     0.208 A 
ATOM      3  O   UNL     1      57.288  -6.532   0.489  1.00  0.00    -0.463 OA
ATOM      4  C   UNL     1      57.463  -5.468  -0.292  1.00  0.00     0.147 A 
ATOM      5  C   UNL     1      58.577  -4.622  -0.084  1.00  0.00     0.066 A 
ATOM      6  C   UNL     1      59.469  -4.926   0.961  1.00  0.00     0.200 A 
ATOM      7  O   UNL     1      60.454  -4.172   1.196  1.00  0.00    -0.288 OA
ATOM      8  C   UNL     1      58.767  -3.509  -0.916  1.00  0.00     0.020 A 
ATOM      9  C   UNL     1      57.875  -3.249  -1.954  1.00  0.00     0.047 A 
ATOM     10  C   UNL     1      56.772  -4.085  -2.176  1.00  0.00     0.125 A 
ATOM     11  C   UNL     1      56.538  -5.193  -1.326  1.00  0.00     0.069 A 
ENDROOT
BRANCH   1  12
ATOM     12  C   UNL     1      60.157  -6.446   2.861  1.00  0.00    -0.011 A 
ATOM     13  C   UNL     1      59.769  -6.250   4.199  1.00  0.00     0.013 A 
ATOM     14  C   UNL     1      60.624  -6.615   5.244  1.00  0.00     0.047 A 
ATOM     15  C   UNL     1      61.872  -7.186   4.966  1.00  0.00     0.115 A 
ATOM     16  C   UNL     1      61.409  -7.025   2.591  1.00  0.00     0.013 A 
ATOM     17  C   UNL     1      62.261  -7.390   3.637  1.00  0.00     0.047 A 
BRANCH  15  18
ATOM     18  O   UNL     1      62.732  -7.554   5.998  1.00  0.00    -0.508 OA
ATOM     19  H   UNL     1      63.570  -8.095   5.821  1.00  0.00     0.293 HD
ENDBRANCH  15  18
ENDBRANCH   1  12
BRANCH  11  20
ATOM     20  C   UNL     1      55.359  -6.131  -1.553  1.00  0.00     0.188 C 
ATOM     21  C   UNL     1      55.708  -7.200  -2.617  1.00  0.00     0.179 C 
ATOM     22  O   UNL     1      54.206  -5.398  -1.935  1.00  0.00    -0.362 OA
ATOM     23  C   UNL     1      54.508  -8.142  -2.817  1.00  0.00     0.177 C 
ATOM     24  C   UNL     1      53.063  -6.237  -1.982  1.00  0.00     0.176 C 
ATOM     25  C   UNL     1      53.226  -7.325  -3.071  1.00  0.00     0.177 C 
BRANCH  21  26
ATOM     26  O   UNL     1      56.022  -6.591  -3.846  1.00  0.00    -0.387 OA
ATOM     27  H   UNL     1      55.164  -6.356  -4.285  1.00  0.00     0.211 HD
ENDBRANCH  21  26
BRANCH  23  28
ATOM     28  O   UNL     1      54.335  -8.955  -1.682  1.00  0.00    -0.387 OA
ATOM     29  H   UNL     1      54.112  -8.349  -0.927  1.00  0.00     0.211 HD
ENDBRANCH  23  28
BRANCH  24  30
ATOM     30  C   UNL     1      51.830  -5.362  -2.245  1.00  0.00     0.191 C 
BRANCH  30  31
ATOM     31  O   UNL     1      50.687  -5.948  -1.685  1.00  0.00    -0.394 OA
ATOM     32  H   UNL     1      49.911  -5.505  -2.117  1.00  0.00     0.210 HD
ENDBRANCH  30  31
ENDBRANCH  24  30
BRANCH  25  33
ATOM     33  O   UNL     1      52.107  -8.176  -3.069  1.00  0.00    -0.388 OA
ATOM     34  H   UNL     1      52.454  -9.105  -3.017  1.00  0.00     0.211 HD
ENDBRANCH  25  33
ENDBRANCH  11  20
BRANCH  10  35
ATOM     35  O   UNL     1      55.918  -3.814  -3.245  1.00  0.00    -0.507 OA
ATOM     36  H   UNL     1      55.443  -4.553  -3.749  1.00  0.00     0.293 HD
ENDBRANCH  10  35
TORSDOF 9
ENDMDL
MODEL 7
REMARK VINA RESULT:    -4.999     10.294     13.588
REMARK INTER + INTRA:          -7.600
REMARK INTER:                  -6.912
REMARK INTRA:                  -0.688
REMARK UNBOUND:                -0.848
REMARK SMILES O=c1c(-c2ccc(O)cc2)coc2c([C@H]3O[C@@H](CO)[C@H](O)[C@H](O)[C@H]3O)c(O)ccc12
REMARK SMILES IDX 3 1 11 2 12 3 13 4 30 5 2 6 1 7 29 8 28 9 26 10 14 11 4 12
REMARK SMILES IDX 5 13 6 14 7 15 10 16 9 17 8 18 15 20 24 21 16 22 22 23 17 24
REMARK SMILES IDX 20 25 25 26 23 28 18 30 19 31 21 33 27 35
REMARK H PARENT 8 19 25 27 23 29 19 32 21 34 27 36
REMARK Flexibility Score: inf
ROOT
ATOM      1  C   UNL     1      58.012 -17.625   3.802  1.00  0.00     0.065 A 
ATOM      2  C   UNL     1      58.267 -18.203   2.550  1.00  0.00     0.208 A 
ATOM      3  O   UNL     1      59.459 -18.089   1.976  1.00  0.00    -0.463 OA
ATOM      4  C   UNL     1      60.475 -17.431   2.531  1.00  0.00     0.147 A 
ATOM      5  C   UNL     1      60.306 -16.819   3.795  1.00  0.00     0.066 A 
ATOM      6  C   UNL     1      59.053 -16.914   4.428  1.00  0.00     0.200 A 
ATOM      7  O   UNL     1      58.857 -16.350   5.540  1.00  0.00    -0.288 OA
ATOM      8  C   UNL     1      61.381 -16.139   4.385  1.00  0.00     0.020 A 
ATOM      9  C   UNL     1      62.614 -16.082   3.739  1.00  0.00     0.047 A 
ATOM     10  C   UNL     1      62.797 -16.691   2.491  1.00  0.00     0.125 A 
ATOM     11  C   UNL     1      61.716 -17.352   1.857  1.00  0.00     0.069 A 
ENDROOT
BRANCH   1  12
ATOM     12  C   UNL     1      56.674 -17.772   4.426  1.00  0.00    -0.011 A 
ATOM     13  C   UNL     1      55.944 -16.635   4.814  1.00  0.00     0.013 A 
ATOM     14  C   UNL     1      54.680 -16.769   5.395  1.00  0.00     0.047 A 
ATOM     15  C   UNL     1      54.126 -18.041   5.589  1.00  0.00     0.115 A 
ATOM     16  C   UNL     1      56.108 -19.045   4.619  1.00  0.00     0.013 A 
ATOM     17  C   UNL     1      54.843 -19.177   5.199  1.00  0.00     0.047 A 
BRANCH  15  18
ATOM     18  O   UNL     1      52.867 -18.188   6.167  1.00  0.00    -0.508 OA
ATOM     19  H   UNL     1      52.750 -18.610   7.080  1.00  0.00     0.293 HD
ENDBRANCH  15  18
ENDBRANCH   1  12
BRANCH  11  20
ATOM     20  C   UNL     1      61.889 -18.041   0.510  1.00  0.00     0.188 C 
ATOM     21  C   UNL     1      62.439 -19.476   0.695  1.00  0.00     0.179 C 
ATOM     22  O   UNL     1      62.739 -17.280  -0.333  1.00  0.00    -0.362 OA
ATOM     23  C   UNL     1      62.590 -20.154  -0.678  1.00  0.00     0.177 C 
ATOM     24  C   UNL     1      62.771 -17.819  -1.644  1.00  0.00     0.176 C 
ATOM     25  C   UNL     1      63.380 -19.243  -1.638  1.00  0.00     0.177 C 
BRANCH  21  26
ATOM     26  O   UNL     1      63.694 -19.446   1.331  1.00  0.00    -0.387 OA
ATOM     27  H   UNL     1      64.355 -19.820   0.694  1.00  0.00     0.211 HD
ENDBRANCH  21  26
BRANCH  23  28
ATOM     28  O   UNL     1      61.324 -20.432  -1.224  1.00  0.00    -0.387 OA
ATOM     29  H   UNL     1      60.847 -21.003  -0.565  1.00  0.00     0.211 HD
ENDBRANCH  23  28
BRANCH  24  30
ATOM     30  C   UNL     1      63.576 -16.870  -2.540  1.00  0.00     0.191 C 
BRANCH  30  31
ATOM     31  O   UNL     1      62.748 -15.865  -3.057  1.00  0.00    -0.394 OA
ATOM     32  H   UNL     1      61.822 -16.218  -3.005  1.00  0.00     0.210 HD
ENDBRANCH  30  31
ENDBRANCH  24  30
BRANCH  25  33
ATOM     33  O   UNL     1      63.357 -19.780  -2.937  1.00  0.00    -0.388 OA
ATOM     34  H   UNL     1      64.045 -20.495  -2.963  1.00  0.00     0.211 HD
ENDBRANCH  25  33
ENDBRANCH  11  20
BRANCH  10  35
ATOM     35  O   UNL     1      64.054 -16.643   1.888  1.00  0.00    -0.507 OA
ATOM     36  H   UNL     1      64.660 -15.836   1.980  1.00  0.00     0.293 HD
ENDBRANCH  10  35
TORSDOF 9
ENDMDL
MODEL 8
REMARK VINA RESULT:    -4.960      4.837     11.534
REMARK INTER + INTRA:          -7.548
REMARK INTER:                  -6.497
REMARK INTRA:                  -1.051
REMARK UNBOUND:                -0.848
REMARK SMILES O=c1c(-c2ccc(O)cc2)coc2c([C@H]3O[C@@H](CO)[C@H](O)[C@H](O)[C@H]3O)c(O)ccc12
REMARK SMILES IDX 3 1 11 2 12 3 13 4 30 5 2 6 1 7 29 8 28 9 26 10 14 11 4 12
REMARK SMILES IDX 5 13 6 14 7 15 10 16 9 17 8 18 15 20 24 21 16 22 22 23 17 24
REMARK SMILES IDX 20 25 25 26 23 28 18 30 19 31 21 33 27 35
REMARK H PARENT 8 19 25 27 23 29 19 32 21 34 27 36
REMARK Flexibility Score: inf
ROOT
ATOM      1  C   UNL     1      54.820  -6.497  -2.073  1.00  0.00     0.065 A 
ATOM      2  C   UNL     1      56.035  -7.095  -1.711  1.00  0.00     0.208 A 
ATOM      3  O   UNL     1      56.743  -6.635  -0.686  1.00  0.00    -0.463 OA
ATOM      4  C   UNL     1      56.362  -5.596   0.055  1.00  0.00     0.147 A 
ATOM      5  C   UNL     1      55.147  -4.934  -0.239  1.00  0.00     0.066 A 
ATOM      6  C   UNL     1      54.376  -5.390  -1.324  1.00  0.00     0.200 A 
ATOM      7  O   UNL     1      53.304  -4.802  -1.636  1.00  0.00    -0.288 OA
ATOM      8  C   UNL     1      54.741  -3.849   0.550  1.00  0.00     0.020 A 
ATOM      9  C   UNL     1      55.518  -3.436   1.630  1.00  0.00     0.047 A 
ATOM     10  C   UNL     1      56.720  -4.089   1.936  1.00  0.00     0.125 A 
ATOM     11  C   UNL     1      57.171  -5.164   1.132  1.00  0.00     0.069 A 
ENDROOT
BRANCH   1  12
ATOM     12  C   UNL     1      54.043  -7.033  -3.218  1.00  0.00    -0.011 A 
ATOM     13  C   UNL     1      53.357  -8.255  -3.100  1.00  0.00     0.013 A 
ATOM     14  C   UNL     1      52.618  -8.759  -4.174  1.00  0.00     0.047 A 
ATOM     15  C   UNL     1      52.550  -8.045  -5.377  1.00  0.00     0.115 A 
ATOM     16  C   UNL     1      53.964  -6.320  -4.427  1.00  0.00     0.013 A 
ATOM     17  C   UNL     1      53.223  -6.825  -5.500  1.00  0.00     0.047 A 
BRANCH  15  18
ATOM     18  O   UNL     1      51.816  -8.537  -6.455  1.00  0.00    -0.508 OA
ATOM     19  H   UNL     1      51.803  -8.059  -7.348  1.00  0.00     0.293 HD
ENDBRANCH  15  18
ENDBRANCH   1  12
BRANCH  11  20
ATOM     20  C   UNL     1      58.462  -5.905   1.452  1.00  0.00     0.188 C 
ATOM     21  C   UNL     1      58.226  -6.967   2.553  1.00  0.00     0.179 C 
ATOM     22  O   UNL     1      59.477  -4.994   1.840  1.00  0.00    -0.362 OA
ATOM     23  C   UNL     1      59.540  -7.711   2.846  1.00  0.00     0.177 C 
ATOM     24  C   UNL     1      60.727  -5.650   1.974  1.00  0.00     0.176 C 
ATOM     25  C   UNL     1      60.676  -6.702   3.108  1.00  0.00     0.177 C 
BRANCH  21  26
ATOM     26  O   UNL     1      57.770  -6.358   3.737  1.00  0.00    -0.387 OA
ATOM     27  H   UNL     1      57.887  -5.379   3.627  1.00  0.00     0.211 HD
ENDBRANCH  21  26
BRANCH  23  28
ATOM     28  O   UNL     1      59.882  -8.538   1.761  1.00  0.00    -0.387 OA
ATOM     29  H   UNL     1      59.328  -9.359   1.841  1.00  0.00     0.211 HD
ENDBRANCH  23  28
BRANCH  24  30
ATOM     30  C   UNL     1      61.805  -4.592   2.240  1.00  0.00     0.191 C 
BRANCH  30  31
ATOM     31  O   UNL     1      63.071  -5.086   1.895  1.00  0.00    -0.394 OA
ATOM     32  H   UNL     1      62.962  -5.534   1.017  1.00  0.00     0.210 HD
ENDBRANCH  30  31
ENDBRANCH  24  30
BRANCH  25  33
ATOM     33  O   UNL     1      61.906  -7.377   3.192  1.00  0.00    -0.388 OA
ATOM     34  H   UNL     1      62.574  -6.813   2.720  1.00  0.00     0.211 HD
ENDBRANCH  25  33
ENDBRANCH  11  20
BRANCH  10  35
ATOM     35  O   UNL     1      57.457  -3.671   3.045  1.00  0.00    -0.507 OA
ATOM     36  H   UNL     1      57.611  -4.276   3.842  1.00  0.00     0.293 HD
ENDBRANCH  10  35
TORSDOF 9
ENDMDL
MODEL 9
REMARK VINA RESULT:    -4.890     12.194     14.228
REMARK INTER + INTRA:          -7.453
REMARK INTER:                  -6.321
REMARK INTRA:                  -1.132
REMARK UNBOUND:                -0.848
REMARK SMILES O=c1c(-c2ccc(O)cc2)coc2c([C@H]3O[C@@H](CO)[C@H](O)[C@H](O)[C@H]3O)c(O)ccc12
REMARK SMILES IDX 3 1 11 2 12 3 13 4 30 5 2 6 1 7 29 8 28 9 26 10 14 11 4 12
REMARK SMILES IDX 5 13 6 14 7 15 10 16 9 17 8 18 15 20 24 21 16 22 22 23 17 24
REMARK SMILES IDX 20 25 25 26 23 28 18 30 19 31 21 33 27 35
REMARK H PARENT 8 19 25 27 23 29 19 32 21 34 27 36
REMARK Flexibility Score: inf
ROOT
ATOM      1  C   UNL     1      67.382 -15.754  -4.105  1.00  0.00     0.065 A 
ATOM      2  C   UNL     1      66.211 -15.432  -3.403  1.00  0.00     0.208 A 
ATOM      3  O   UNL     1      65.656 -16.301  -2.566  1.00  0.00    -0.463 OA
ATOM      4  C   UNL     1      66.156 -17.513  -2.338  1.00  0.00     0.147 A 
ATOM      5  C   UNL     1      67.336 -17.920  -3.002  1.00  0.00     0.066 A 
ATOM      6  C   UNL     1      67.946 -17.027  -3.902  1.00  0.00     0.200 A 
ATOM      7  O   UNL     1      68.981 -17.371  -4.538  1.00  0.00    -0.288 OA
ATOM      8  C   UNL     1      67.869 -19.192  -2.750  1.00  0.00     0.020 A 
ATOM      9  C   UNL     1      67.251 -20.044  -1.836  1.00  0.00     0.047 A 
ATOM     10  C   UNL     1      66.086 -19.649  -1.167  1.00  0.00     0.125 A 
ATOM     11  C   UNL     1      65.507 -18.384  -1.431  1.00  0.00     0.069 A 
ENDROOT
BRANCH   1  12
ATOM     12  C   UNL     1      67.987 -14.764  -5.030  1.00  0.00    -0.011 A 
ATOM     13  C   UNL     1      68.821 -13.747  -4.533  1.00  0.00     0.013 A 
ATOM     14  C   UNL     1      69.400 -12.818  -5.402  1.00  0.00     0.047 A 
ATOM     15  C   UNL     1      69.157 -12.896  -6.779  1.00  0.00     0.115 A 
ATOM     16  C   UNL     1      67.753 -14.839  -6.414  1.00  0.00     0.013 A 
ATOM     17  C   UNL     1      68.334 -13.910  -7.282  1.00  0.00     0.047 A 
BRANCH  15  18
ATOM     18  O   UNL     1      69.728 -11.976  -7.655  1.00  0.00    -0.508 OA
ATOM     19  H   UNL     1      70.719 -11.988  -7.863  1.00  0.00     0.293 HD
ENDBRANCH  15  18
ENDBRANCH   1  12
BRANCH  11  20
ATOM     20  C   UNL     1      64.252 -17.918  -0.704  1.00  0.00     0.188 C 
ATOM     21  C   UNL     1      64.610 -17.322   0.679  1.00  0.00     0.179 C 
ATOM     22  O   UNL     1      63.330 -18.987  -0.569  1.00  0.00    -0.362 OA
ATOM     23  C   UNL     1      63.329 -16.847   1.385  1.00  0.00     0.177 C 
ATOM     24  C   UNL     1      62.092 -18.529  -0.050  1.00  0.00     0.176 C 
ATOM     25  C   UNL     1      62.272 -17.969   1.382  1.00  0.00     0.177 C 
BRANCH  21  26
ATOM     26  O   UNL     1      65.246 -18.286   1.483  1.00  0.00    -0.387 OA
ATOM     27  H   UNL     1      65.033 -19.175   1.099  1.00  0.00     0.211 HD
ENDBRANCH  21  26
BRANCH  23  28
ATOM     28  O   UNL     1      62.812 -15.708   0.739  1.00  0.00    -0.387 OA
ATOM     29  H   UNL     1      63.422 -14.955   0.956  1.00  0.00     0.211 HD
ENDBRANCH  23  28
BRANCH  24  30
ATOM     30  C   UNL     1      61.094 -19.694  -0.074  1.00  0.00     0.191 C 
BRANCH  30  31
ATOM     31  O   UNL     1      59.779 -19.212  -0.009  1.00  0.00    -0.394 OA
ATOM     32  H   UNL     1      59.306 -19.790   0.644  1.00  0.00     0.210 HD
ENDBRANCH  30  31
ENDBRANCH  24  30
BRANCH  25  33
ATOM     33  O   UNL     1      61.046 -17.474   1.860  1.00  0.00    -0.388 OA
ATOM     34  H   UNL     1      60.825 -17.995   2.676  1.00  0.00     0.211 HD
ENDBRANCH  25  33
ENDBRANCH  11  20
BRANCH  10  35
ATOM     35  O   UNL     1      65.512 -20.513  -0.234  1.00  0.00    -0.507 OA
ATOM     36  H   UNL     1      66.068 -20.991   0.465  1.00  0.00     0.293 HD
ENDBRANCH  10  35
TORSDOF 9
ENDMDL
