MODEL 1
REMARK VINA RESULT:    -2.765      0.000      0.000
REMARK INTER + INTRA:           0.237
REMARK INTER:                  -3.412
REMARK INTRA:                   3.649
REMARK UNBOUND:                 3.649
REMARK SMILES C=C1CC[C@H]2[C@H]([C@@H]3[C@H](C)CC[C@H]13)C2(C)C
REMARK SMILES IDX 3 1 2 2 1 3 12 4 9 5 8 6 10 7 7 8 11 9 4 11 5 12 6 13 13 14
REMARK SMILES IDX 14 16 15 17
REMARK H PARENT
REMARK Flexibility Score: 80.00
ROOT
ATOM      1  C   UNL     1      54.716  28.172  28.011  1.00  0.00     0.031 C 
ENDROOT
BRANCH   1   2
ATOM      2  C   UNL     1      55.613  28.881  26.991  1.00  0.00    -0.074 C 
ATOM      3  C   UNL     1      56.899  28.472  26.931  1.00  0.00     0.008 C 
BRANCH   2   4
ATOM      4  C   UNL     1      55.212  30.176  26.226  1.00  0.00     0.018 C 
ATOM      5  C   UNL     1      52.435  31.585  23.983  1.00  0.00     0.008 C 
ATOM      6  C   UNL     1      53.742  31.439  24.770  1.00  0.00    -0.010 C 
ATOM      7  C   UNL     1      54.897  30.972  23.896  1.00  0.00     0.004 C 
ATOM      8  C   UNL     1      53.706  30.473  25.967  1.00  0.00     0.003 CG0
ATOM      9  C   UNL     1      55.865  30.250  24.827  1.00  0.00     0.008 C 
ATOM     10  G   UNL     1      52.987  29.147  25.646  1.00  0.00     0.000 G0
ENDBRANCH   2   4
ENDBRANCH   1   2
BRANCH   1  11
ATOM     11  C   UNL     1      53.480  27.485  27.402  1.00  0.00     0.009 C 
BRANCH  11  12
ATOM     12  C   UNL     1      52.499  28.584  27.030  1.00  0.00    -0.001 C 
ATOM     13  C   UNL     1      52.961  29.142  25.663  1.00  0.00     0.002 CG0
ATOM     14  C   UNL     1      51.518  28.680  25.878  1.00  0.00    -0.029 C 
ATOM     15  G   UNL     1      53.674  30.473  25.978  1.00  0.00     0.000 G0
ATOM     16  C   UNL     1      50.430  29.745  26.044  1.00  0.00     0.011 C 
ATOM     17  C   UNL     1      51.103  27.348  25.245  1.00  0.00     0.011 C 
ENDBRANCH  11  12
ENDBRANCH   1  11
TORSDOF 0
ENDMDL
MODEL 2
REMARK VINA RESULT:    -2.754      4.475      5.720
REMARK INTER + INTRA:           0.251
REMARK INTER:                  -3.612
REMARK INTRA:                   3.863
REMARK UNBOUND:                 3.649
REMARK SMILES C=C1CC[C@H]2[C@H]([C@@H]3[C@H](C)CC[C@H]13)C2(C)C
REMARK SMILES IDX 3 1 2 2 1 3 12 4 9 5 8 6 10 7 7 8 11 9 4 11 5 12 6 13 13 14
REMARK SMILES IDX 14 16 15 17
REMARK H PARENT
REMARK Flexibility Score: 80.00
ROOT
ATOM      1  C   UNL     1      50.470  32.538  31.148  1.00  0.00     0.031 C 
ENDROOT
BRANCH   1   2
ATOM      2  C   UNL     1      50.677  33.570  30.035  1.00  0.00    -0.074 C 
ATOM      3  C   UNL     1      51.556  34.563  30.288  1.00  0.00     0.008 C 
BRANCH   2   4
ATOM      4  C   UNL     1      49.775  33.684  28.771  1.00  0.00     0.018 C 
ATOM      5  C   UNL     1      48.428  31.580  25.858  1.00  0.00     0.008 C 
ATOM      6  C   UNL     1      48.752  32.765  26.775  1.00  0.00    -0.010 C 
ATOM      7  C   UNL     1      49.963  33.553  26.299  1.00  0.00     0.004 C 
ATOM      8  C   UNL     1      49.029  32.422  28.250  1.00  0.00     0.003 CG0
ATOM      9  C   UNL     1      50.559  34.203  27.543  1.00  0.00     0.008 C 
ATOM     10  G   UNL     1      49.951  31.197  28.417  1.00  0.00     0.000 G0
ENDBRANCH   2   4
ENDBRANCH   1   2
BRANCH   1  11
ATOM     11  C   UNL     1      50.766  31.086  30.731  1.00  0.00     0.009 C 
BRANCH  11  12
ATOM     12  C   UNL     1      49.626  30.640  29.832  1.00  0.00    -0.001 C 
ATOM     13  C   UNL     1      49.936  31.192  28.421  1.00  0.00     0.002 CG0
ATOM     14  C   UNL     1      49.621  29.710  28.635  1.00  0.00    -0.029 C 
ATOM     15  G   UNL     1      49.025  32.424  28.248  1.00  0.00     0.000 G0
ATOM     16  C   UNL     1      48.238  29.193  28.224  1.00  0.00     0.011 C 
ATOM     17  C   UNL     1      50.789  28.722  28.555  1.00  0.00     0.011 C 
ENDBRANCH  11  12
ENDBRANCH   1  11
TORSDOF 0
ENDMDL
MODEL 3
REMARK VINA RESULT:    -2.636      4.003      5.578
REMARK INTER + INTRA:           0.397
REMARK INTER:                  -3.267
REMARK INTRA:                   3.664
REMARK UNBOUND:                 3.649
REMARK SMILES C=C1CC[C@H]2[C@H]([C@@H]3[C@H](C)CC[C@H]13)C2(C)C
REMARK SMILES IDX 3 1 2 2 1 3 12 4 9 5 8 6 10 7 7 8 11 9 4 11 5 12 6 13 13 14
REMARK SMILES IDX 14 16 15 17
REMARK H PARENT
REMARK Flexibility Score: 80.00
ROOT
ATOM      1  C   UNL     1      49.508  29.182  29.146  1.00  0.00     0.031 C 
ENDROOT
BRANCH   1   2
ATOM      2  C   UNL     1      49.790  29.445  27.663  1.00  0.00    -0.074 C 
ATOM      3  C   UNL     1      49.351  28.514  26.790  1.00  0.00     0.008 C 
BRANCH   2   4
ATOM      4  C   UNL     1      50.747  30.557  27.141  1.00  0.00     0.018 C 
ATOM      5  C   UNL     1      51.351  34.339  27.384  1.00  0.00     0.008 C 
ATOM      6  C   UNL     1      51.458  32.868  26.967  1.00  0.00    -0.010 C 
ATOM      7  C   UNL     1      50.689  32.569  25.688  1.00  0.00     0.004 C 
ATOM      8  C   UNL     1      50.971  31.836  27.999  1.00  0.00     0.003 CG0
ATOM      9  C   UNL     1      50.314  31.092  25.757  1.00  0.00     0.008 C 
ATOM     10  G   UNL     1      49.633  32.232  28.657  1.00  0.00     0.000 G0
ENDBRANCH   2   4
ENDBRANCH   1   2
BRANCH   1  11
ATOM     11  C   UNL     1      48.690  30.284  29.843  1.00  0.00     0.009 C 
BRANCH  11  12
ATOM     12  C   UNL     1      49.617  31.471  30.035  1.00  0.00    -0.001 C 
ATOM     13  C   UNL     1      49.633  32.240  28.693  1.00  0.00     0.002 CG0
ATOM     14  C   UNL     1      49.331  32.960  30.009  1.00  0.00    -0.029 C 
ATOM     15  G   UNL     1      50.962  31.855  28.011  1.00  0.00     0.000 G0
ATOM     16  C   UNL     1      50.424  33.839  30.624  1.00  0.00     0.011 C 
ATOM     17  C   UNL     1      47.877  33.362  30.274  1.00  0.00     0.011 C 
ENDBRANCH  11  12
ENDBRANCH   1  11
TORSDOF 0
ENDMDL
MODEL 4
REMARK VINA RESULT:    -2.632      4.329      6.222
REMARK INTER + INTRA:           0.401
REMARK INTER:                  -3.344
REMARK INTRA:                   3.745
REMARK UNBOUND:                 3.649
REMARK SMILES C=C1CC[C@H]2[C@H]([C@@H]3[C@H](C)CC[C@H]13)C2(C)C
REMARK SMILES IDX 3 1 2 2 1 3 12 4 9 5 8 6 10 7 7 8 11 9 4 11 5 12 6 13 13 14
REMARK SMILES IDX 14 16 15 17
REMARK H PARENT
REMARK Flexibility Score: 80.00
ROOT
ATOM      1  C   UNL     1      51.186  34.317  28.645  1.00  0.00     0.031 C 
ENDROOT
BRANCH   1   2
ATOM      2  C   UNL     1      50.573  33.463  29.759  1.00  0.00    -0.074 C 
ATOM      3  C   UNL     1      50.284  34.097  30.916  1.00  0.00     0.008 C 
BRANCH   2   4
ATOM      4  C   UNL     1      50.504  31.908  29.730  1.00  0.00     0.018 C 
ATOM      5  C   UNL     1      49.269  29.010  27.537  1.00  0.00     0.008 C 
ATOM      6  C   UNL     1      49.849  29.808  28.711  1.00  0.00    -0.010 C 
ATOM      7  C   UNL     1      48.812  30.091  29.788  1.00  0.00     0.004 C 
ATOM      8  C   UNL     1      50.470  31.171  28.359  1.00  0.00     0.003 CG0
ATOM      9  C   UNL     1      49.269  31.367  30.488  1.00  0.00     0.008 C 
ATOM     10  G   UNL     1      49.605  31.989  27.378  1.00  0.00     0.000 G0
ENDBRANCH   2   4
ENDBRANCH   1   2
BRANCH   1  11
ATOM     11  C   UNL     1      50.378  34.326  27.334  1.00  0.00     0.009 C 
BRANCH  11  12
ATOM     12  C   UNL     1      50.588  32.975  26.673  1.00  0.00    -0.001 C 
ATOM     13  C   UNL     1      49.613  31.991  27.362  1.00  0.00     0.002 CG0
ATOM     14  C   UNL     1      49.646  32.129  25.838  1.00  0.00    -0.029 C 
ATOM     15  G   UNL     1      50.476  31.169  28.341  1.00  0.00     0.000 G0
ATOM     16  C   UNL     1      50.323  31.023  25.022  1.00  0.00     0.011 C 
ATOM     17  C   UNL     1      48.490  32.882  25.173  1.00  0.00     0.011 C 
ENDBRANCH  11  12
ENDBRANCH   1  11
TORSDOF 0
ENDMDL
MODEL 5
REMARK VINA RESULT:    -2.549      3.979      6.341
REMARK INTER + INTRA:           0.504
REMARK INTER:                  -3.188
REMARK INTRA:                   3.692
REMARK UNBOUND:                 3.649
REMARK SMILES C=C1CC[C@H]2[C@H]([C@@H]3[C@H](C)CC[C@H]13)C2(C)C
REMARK SMILES IDX 3 1 2 2 1 3 12 4 9 5 8 6 10 7 7 8 11 9 4 11 5 12 6 13 13 14
REMARK SMILES IDX 14 16 15 17
REMARK H PARENT
REMARK Flexibility Score: 80.00
ROOT
ATOM      1  C   UNL     1      49.723  32.320  30.896  1.00  0.00     0.031 C 
ENDROOT
BRANCH   1   2
ATOM      2  C   UNL     1      48.888  31.092  30.522  1.00  0.00    -0.074 C 
ATOM      3  C   UNL     1      47.876  30.771  31.357  1.00  0.00     0.008 C 
BRANCH   2   4
ATOM      4  C   UNL     1      49.282  30.074  29.412  1.00  0.00     0.018 C 
ATOM      5  C   UNL     1      50.217  29.918  25.693  1.00  0.00     0.008 C 
ATOM      6  C   UNL     1      49.861  29.508  27.127  1.00  0.00    -0.010 C 
ATOM      7  C   UNL     1      48.388  29.162  27.283  1.00  0.00     0.004 C 
ATOM      8  C   UNL     1      50.165  30.547  28.221  1.00  0.00     0.003 CG0
ATOM      9  C   UNL     1      48.042  29.436  28.743  1.00  0.00     0.008 C 
ATOM     10  G   UNL     1      49.739  31.976  27.825  1.00  0.00     0.000 G0
ENDBRANCH   2   4
ENDBRANCH   1   2
BRANCH   1  11
ATOM     11  C   UNL     1      49.744  33.425  29.825  1.00  0.00     0.009 C 
BRANCH  11  12
ATOM     12  C   UNL     1      50.628  32.931  28.693  1.00  0.00    -0.001 C 
ATOM     13  C   UNL     1      49.750  31.999  27.824  1.00  0.00     0.002 CG0
ATOM     14  C   UNL     1      50.532  33.156  27.197  1.00  0.00    -0.029 C 
ATOM     15  G   UNL     1      50.166  30.564  28.206  1.00  0.00     0.000 G0
ATOM     16  C   UNL     1      51.806  32.832  26.412  1.00  0.00     0.011 C 
ATOM     17  C   UNL     1      49.735  34.389  26.761  1.00  0.00     0.011 C 
ENDBRANCH  11  12
ENDBRANCH   1  11
TORSDOF 0
ENDMDL
MODEL 6
REMARK VINA RESULT:    -2.513      3.421      5.448
REMARK INTER + INTRA:           0.548
REMARK INTER:                  -3.125
REMARK INTRA:                   3.673
REMARK UNBOUND:                 3.649
REMARK SMILES C=C1CC[C@H]2[C@H]([C@@H]3[C@H](C)CC[C@H]13)C2(C)C
REMARK SMILES IDX 3 1 2 2 1 3 12 4 9 5 8 6 10 7 7 8 11 9 4 11 5 12 6 13 13 14
REMARK SMILES IDX 14 16 15 17
REMARK H PARENT
REMARK Flexibility Score: 80.00
ROOT
ATOM      1  C   UNL     1      52.434  32.239  26.153  1.00  0.00     0.031 C 
ENDROOT
BRANCH   1   2
ATOM      2  C   UNL     1      52.388  30.758  26.540  1.00  0.00    -0.074 C 
ATOM      3  C   UNL     1      53.504  30.036  26.302  1.00  0.00     0.008 C 
BRANCH   2   4
ATOM      4  C   UNL     1      51.088  30.000  26.940  1.00  0.00     0.018 C 
ATOM      5  C   UNL     1      48.165  30.180  29.420  1.00  0.00     0.008 C 
ATOM      6  C   UNL     1      49.122  29.696  28.325  1.00  0.00    -0.010 C 
ATOM      7  C   UNL     1      50.162  28.719  28.855  1.00  0.00     0.004 C 
ATOM      8  C   UNL     1      49.913  30.790  27.587  1.00  0.00     0.003 CG0
ATOM      9  C   UNL     1      51.370  28.848  27.932  1.00  0.00     0.008 C 
ATOM     10  G   UNL     1      50.496  31.854  28.538  1.00  0.00     0.000 G0
ENDBRANCH   2   4
ENDBRANCH   1   2
BRANCH   1  11
ATOM     11  C   UNL     1      52.186  33.210  27.322  1.00  0.00     0.009 C 
BRANCH  11  12
ATOM     12  C   UNL     1      50.706  33.140  27.652  1.00  0.00    -0.001 C 
ATOM     13  C   UNL     1      50.509  31.881  28.529  1.00  0.00     0.002 CG0
ATOM     14  C   UNL     1      49.986  33.246  28.982  1.00  0.00    -0.029 C 
ATOM     15  G   UNL     1      49.914  30.811  27.590  1.00  0.00     0.000 G0
ATOM     16  C   UNL     1      48.482  33.519  28.884  1.00  0.00     0.011 C 
ATOM     17  C   UNL     1      50.755  33.959  30.099  1.00  0.00     0.011 C 
ENDBRANCH  11  12
ENDBRANCH   1  11
TORSDOF 0
ENDMDL
MODEL 7
REMARK VINA RESULT:    -2.447      3.841      5.654
REMARK INTER + INTRA:           0.629
REMARK INTER:                  -3.159
REMARK INTRA:                   3.788
REMARK UNBOUND:                 3.649
REMARK SMILES C=C1CC[C@H]2[C@H]([C@@H]3[C@H](C)CC[C@H]13)C2(C)C
REMARK SMILES IDX 3 1 2 2 1 3 12 4 9 5 8 6 10 7 7 8 11 9 4 11 5 12 6 13 13 14
REMARK SMILES IDX 14 16 15 17
REMARK H PARENT
REMARK Flexibility Score: 80.00
ROOT
ATOM      1  C   UNL     1      51.357  33.829  27.536  1.00  0.00     0.031 C 
ENDROOT
BRANCH   1   2
ATOM      2  C   UNL     1      51.807  32.531  26.857  1.00  0.00    -0.074 C 
ATOM      3  C   UNL     1      52.948  32.590  26.137  1.00  0.00     0.008 C 
BRANCH   2   4
ATOM      4  C   UNL     1      50.923  31.255  26.739  1.00  0.00     0.018 C 
ATOM      5  C   UNL     1      48.919  28.795  28.898  1.00  0.00     0.008 C 
ATOM      6  C   UNL     1      49.600  29.465  27.699  1.00  0.00    -0.010 C 
ATOM      7  C   UNL     1      50.963  28.861  27.395  1.00  0.00     0.004 C 
ATOM      8  C   UNL     1      49.831  30.982  27.814  1.00  0.00     0.003 CG0
ATOM      9  C   UNL     1      51.769  29.962  26.712  1.00  0.00     0.008 C 
ATOM     10  G   UNL     1      50.377  31.403  29.194  1.00  0.00     0.000 G0
ENDBRANCH   2   4
ENDBRANCH   1   2
BRANCH   1  11
ATOM     11  C   UNL     1      51.214  33.730  29.065  1.00  0.00     0.009 C 
BRANCH  11  12
ATOM     12  C   UNL     1      49.963  32.914  29.343  1.00  0.00    -0.001 C 
ATOM     13  C   UNL     1      50.364  31.428  29.192  1.00  0.00     0.002 CG0
ATOM     14  C   UNL     1      49.656  31.928  30.453  1.00  0.00    -0.029 C 
ATOM     15  G   UNL     1      49.827  30.991  27.813  1.00  0.00     0.000 G0
ATOM     16  C   UNL     1      48.170  31.600  30.632  1.00  0.00     0.011 C 
ATOM     17  C   UNL     1      50.498  32.074  31.723  1.00  0.00     0.011 C 
ENDBRANCH  11  12
ENDBRANCH   1  11
TORSDOF 0
ENDMDL
MODEL 8
REMARK VINA RESULT:    -2.401      1.359      3.520
REMARK INTER + INTRA:           0.686
REMARK INTER:                  -2.957
REMARK INTRA:                   3.643
REMARK UNBOUND:                 3.649
REMARK SMILES C=C1CC[C@H]2[C@H]([C@@H]3[C@H](C)CC[C@H]13)C2(C)C
REMARK SMILES IDX 3 1 2 2 1 3 12 4 9 5 8 6 10 7 7 8 11 9 4 11 5 12 6 13 13 14
REMARK SMILES IDX 14 16 15 17
REMARK H PARENT
REMARK Flexibility Score: 80.00
ROOT
ATOM      1  C   UNL     1      54.218  31.147  24.758  1.00  0.00     0.031 C 
ENDROOT
BRANCH   1   2
ATOM      2  C   UNL     1      54.940  30.023  25.508  1.00  0.00    -0.074 C 
ATOM      3  C   UNL     1      56.283  30.123  25.599  1.00  0.00     0.008 C 
BRANCH   2   4
ATOM      4  C   UNL     1      54.266  28.685  25.934  1.00  0.00     0.018 C 
ATOM      5  C   UNL     1      51.249  27.347  27.892  1.00  0.00     0.008 C 
ATOM      6  C   UNL     1      52.557  27.419  27.096  1.00  0.00    -0.010 C 
ATOM      7  C   UNL     1      53.786  27.385  27.993  1.00  0.00     0.004 C 
ATOM      8  C   UNL     1      52.732  28.652  26.194  1.00  0.00     0.003 CG0
ATOM      9  C   UNL     1      54.888  28.108  27.227  1.00  0.00     0.008 C 
ATOM     10  G   UNL     1      52.318  29.966  26.888  1.00  0.00     0.000 G0
ENDBRANCH   2   4
ENDBRANCH   1   2
BRANCH   1  11
ATOM     11  C   UNL     1      53.166  31.897  25.596  1.00  0.00     0.009 C 
BRANCH  11  12
ATOM     12  C   UNL     1      51.969  30.973  25.736  1.00  0.00    -0.001 C 
ATOM     13  C   UNL     1      52.304  29.988  26.881  1.00  0.00     0.002 CG0
ATOM     14  C   UNL     1      50.998  30.786  26.886  1.00  0.00    -0.029 C 
ATOM     15  G   UNL     1      52.703  28.669  26.188  1.00  0.00     0.000 G0
ATOM     16  C   UNL     1      49.700  30.058  26.523  1.00  0.00     0.011 C 
ATOM     17  C   UNL     1      50.893  31.959  27.865  1.00  0.00     0.011 C 
ENDBRANCH  11  12
ENDBRANCH   1  11
TORSDOF 0
ENDMDL
MODEL 9
REMARK VINA RESULT:    -2.095      3.573      5.571
REMARK INTER + INTRA:           1.064
REMARK INTER:                  -2.723
REMARK INTRA:                   3.787
REMARK UNBOUND:                 3.649
REMARK SMILES C=C1CC[C@H]2[C@H]([C@@H]3[C@H](C)CC[C@H]13)C2(C)C
REMARK SMILES IDX 3 1 2 2 1 3 12 4 9 5 8 6 10 7 7 8 11 9 4 11 5 12 6 13 13 14
REMARK SMILES IDX 14 16 15 17
REMARK H PARENT
REMARK Flexibility Score: 80.00
ROOT
ATOM      1  C   UNL     1      48.832  30.428  30.284  1.00  0.00     0.031 C 
ENDROOT
BRANCH   1   2
ATOM      2  C   UNL     1      49.153  29.425  29.172  1.00  0.00    -0.074 C 
ATOM      3  C   UNL     1      48.427  28.286  29.158  1.00  0.00     0.008 C 
BRANCH   2   4
ATOM      4  C   UNL     1      50.398  29.520  28.242  1.00  0.00     0.018 C 
ATOM      5  C   UNL     1      52.165  31.944  25.849  1.00  0.00     0.008 C 
ATOM      6  C   UNL     1      51.795  30.684  26.639  1.00  0.00    -0.010 C 
ATOM      7  C   UNL     1      50.942  29.719  25.828  1.00  0.00     0.004 C 
ATOM      8  C   UNL     1      51.031  30.912  27.956  1.00  0.00     0.003 CG0
ATOM      9  C   UNL     1      50.124  28.925  26.842  1.00  0.00     0.008 C 
ATOM     10  G   UNL     1      49.901  31.953  27.820  1.00  0.00     0.000 G0
ENDBRANCH   2   4
ENDBRANCH   1   2
BRANCH   1  11
ATOM     11  C   UNL     1      48.414  31.822  29.782  1.00  0.00     0.009 C 
BRANCH  11  12
ATOM     12  C   UNL     1      49.668  32.503  29.262  1.00  0.00    -0.001 C 
ATOM     13  C   UNL     1      49.900  31.964  27.830  1.00  0.00     0.002 CG0
ATOM     14  C   UNL     1      49.859  33.468  28.109  1.00  0.00    -0.029 C 
ATOM     15  G   UNL     1      51.032  30.923  27.958  1.00  0.00     0.000 G0
ATOM     16  C   UNL     1      51.182  34.241  28.126  1.00  0.00     0.011 C 
ATOM     17  C   UNL     1      48.608  34.232  27.667  1.00  0.00     0.011 C 
ENDBRANCH  11  12
ENDBRANCH   1  11
TORSDOF 0
ENDMDL
