MODEL 1
REMARK VINA RESULT:    -4.457      0.000      0.000
REMARK INTER + INTRA:          -7.786
REMARK INTER:                  -7.062
REMARK INTRA:                  -0.724
REMARK UNBOUND:                -0.724
REMARK SMILES CCCCCCCCCCCC(=O)[O-]
REMARK SMILES IDX 7 1 8 2 9 3 10 4 11 5 12 6 13 7 14 8 6 9 5 10 4 11 3 12 2 13
REMARK SMILES IDX 1 14
REMARK H PARENT
REMARK Flexibility Score: inf
ROOT
ATOM      1  C   UNL     1      18.298  22.139  48.368  1.00  0.00     0.000 C 
ENDROOT
BRANCH   1   2
ATOM      2  C   UNL     1      19.725  22.496  48.814  1.00  0.00     0.000 C 
BRANCH   2   3
ATOM      3  C   UNL     1      20.254  23.771  48.133  1.00  0.00     0.000 C 
BRANCH   3   4
ATOM      4  C   UNL     1      21.399  23.487  47.144  1.00  0.00     0.006 C 
BRANCH   4   5
ATOM      5  C   UNL     1      20.992  23.562  45.663  1.00  0.00     0.053 C 
BRANCH   5   6
ATOM      6  C   UNL     1      20.937  22.207  45.028  1.00  0.00     0.041 C 
ATOM      7  O   UNL     1      21.842  21.843  44.232  1.00  0.00    -0.550 OA
ATOM      8  O   UNL     1      19.903  21.334  45.338  1.00  0.00    -0.550 OA
ENDBRANCH   5   6
ENDBRANCH   4   5
ENDBRANCH   3   4
ENDBRANCH   2   3
ENDBRANCH   1   2
BRANCH   1   9
ATOM      9  C   UNL     1      17.624  23.267  47.572  1.00  0.00     0.000 C 
BRANCH   9  10
ATOM     10  C   UNL     1      16.115  23.312  47.857  1.00  0.00    -0.000 C 
BRANCH  10  11
ATOM     11  C   UNL     1      15.269  23.299  46.573  1.00  0.00    -0.000 C 
BRANCH  11  12
ATOM     12  C   UNL     1      14.204  22.192  46.577  1.00  0.00    -0.000 C 
BRANCH  12  13
ATOM     13  C   UNL     1      12.924  22.664  47.277  1.00  0.00    -0.003 C 
ATOM     14  C   UNL     1      12.576  24.096  46.882  1.00  0.00     0.004 C 
ENDBRANCH  12  13
ENDBRANCH  11  12
ENDBRANCH  10  11
ENDBRANCH   9  10
ENDBRANCH   1   9
TORSDOF 10
ENDMDL
MODEL 2
REMARK VINA RESULT:    -4.448      3.203      6.848
REMARK INTER + INTRA:          -7.772
REMARK INTER:                  -7.058
REMARK INTRA:                  -0.714
REMARK UNBOUND:                -0.724
REMARK SMILES CCCCCCCCCCCC(=O)[O-]
REMARK SMILES IDX 7 1 8 2 9 3 10 4 11 5 12 6 13 7 14 8 6 9 5 10 4 11 3 12 2 13
REMARK SMILES IDX 1 14
REMARK H PARENT
REMARK Flexibility Score: inf
ROOT
ATOM      1  C   UNL     1      16.737  23.525  46.732  1.00  0.00     0.000 C 
ENDROOT
BRANCH   1   2
ATOM      2  C   UNL     1      15.538  23.232  47.650  1.00  0.00     0.000 C 
BRANCH   2   3
ATOM      3  C   UNL     1      14.394  22.512  46.914  1.00  0.00     0.000 C 
BRANCH   3   4
ATOM      4  C   UNL     1      13.004  22.895  47.456  1.00  0.00     0.006 C 
BRANCH   4   5
ATOM      5  C   UNL     1      12.482  24.255  46.964  1.00  0.00     0.053 C 
BRANCH   5   6
ATOM      6  C   UNL     1      12.785  24.479  45.513  1.00  0.00     0.041 C 
ATOM      7  O   UNL     1      13.613  25.361  45.168  1.00  0.00    -0.550 OA
ATOM      8  O   UNL     1      12.173  23.692  44.546  1.00  0.00    -0.550 OA
ENDBRANCH   5   6
ENDBRANCH   4   5
ENDBRANCH   3   4
ENDBRANCH   2   3
ENDBRANCH   1   2
BRANCH   1   9
ATOM      9  C   UNL     1      17.872  22.502  46.894  1.00  0.00     0.000 C 
BRANCH   9  10
ATOM     10  C   UNL     1      18.137  22.209  48.378  1.00  0.00    -0.000 C 
BRANCH  10  11
ATOM     11  C   UNL     1      19.625  22.321  48.749  1.00  0.00    -0.000 C 
BRANCH  11  12
ATOM     12  C   UNL     1      20.224  23.689  48.389  1.00  0.00    -0.000 C 
BRANCH  12  13
ATOM     13  C   UNL     1      21.584  23.527  47.700  1.00  0.00    -0.003 C 
ATOM     14  C   UNL     1      21.416  23.158  46.230  1.00  0.00     0.004 C 
ENDBRANCH  12  13
ENDBRANCH  11  12
ENDBRANCH  10  11
ENDBRANCH   9  10
ENDBRANCH   1   9
TORSDOF 10
ENDMDL
MODEL 3
REMARK VINA RESULT:    -4.420      6.890      9.619
REMARK INTER + INTRA:          -7.727
REMARK INTER:                  -7.163
REMARK INTRA:                  -0.564
REMARK UNBOUND:                -0.724
REMARK SMILES CCCCCCCCCCCC(=O)[O-]
REMARK SMILES IDX 7 1 8 2 9 3 10 4 11 5 12 6 13 7 14 8 6 9 5 10 4 11 3 12 2 13
REMARK SMILES IDX 1 14
REMARK H PARENT
REMARK Flexibility Score: inf
ROOT
ATOM      1  C   UNL     1      10.383  23.232  41.717  1.00  0.00     0.000 C 
ENDROOT
BRANCH   1   2
ATOM      2  C   UNL     1       9.337  22.268  41.131  1.00  0.00     0.000 C 
BRANCH   2   3
ATOM      3  C   UNL     1       9.976  21.123  40.325  1.00  0.00     0.000 C 
BRANCH   3   4
ATOM      4  C   UNL     1      11.255  21.556  39.587  1.00  0.00     0.006 C 
BRANCH   4   5
ATOM      5  C   UNL     1      11.007  22.239  38.232  1.00  0.00     0.053 C 
BRANCH   5   6
ATOM      6  C   UNL     1      12.069  21.898  37.231  1.00  0.00     0.041 C 
ATOM      7  O   UNL     1      11.938  22.242  36.027  1.00  0.00    -0.550 OA
ATOM      8  O   UNL     1      13.216  21.228  37.635  1.00  0.00    -0.550 OA
ENDBRANCH   5   6
ENDBRANCH   4   5
ENDBRANCH   3   4
ENDBRANCH   2   3
ENDBRANCH   1   2
BRANCH   1   9
ATOM      9  C   UNL     1      10.735  22.908  43.177  1.00  0.00     0.000 C 
BRANCH   9  10
ATOM     10  C   UNL     1      12.225  22.557  43.315  1.00  0.00    -0.000 C 
BRANCH  10  11
ATOM     11  C   UNL     1      12.799  22.936  44.690  1.00  0.00    -0.000 C 
BRANCH  11  12
ATOM     12  C   UNL     1      12.414  21.934  45.789  1.00  0.00    -0.000 C 
BRANCH  12  13
ATOM     13  C   UNL     1      12.742  22.494  47.179  1.00  0.00    -0.003 C 
ATOM     14  C   UNL     1      12.493  23.997  47.240  1.00  0.00     0.004 C 
ENDBRANCH  12  13
ENDBRANCH  11  12
ENDBRANCH  10  11
ENDBRANCH   9  10
ENDBRANCH   1   9
TORSDOF 10
ENDMDL
MODEL 4
REMARK VINA RESULT:    -4.411     10.813     12.411
REMARK INTER + INTRA:          -7.713
REMARK INTER:                  -7.134
REMARK INTRA:                  -0.579
REMARK UNBOUND:                -0.724
REMARK SMILES CCCCCCCCCCCC(=O)[O-]
REMARK SMILES IDX 7 1 8 2 9 3 10 4 11 5 12 6 13 7 14 8 6 9 5 10 4 11 3 12 2 13
REMARK SMILES IDX 1 14
REMARK H PARENT
REMARK Flexibility Score: inf
ROOT
ATOM      1  C   UNL     1      21.254  21.991  34.624  1.00  0.00     0.000 C 
ENDROOT
BRANCH   1   2
ATOM      2  C   UNL     1      22.230  21.892  35.808  1.00  0.00     0.000 C 
BRANCH   2   3
ATOM      3  C   UNL     1      23.701  22.002  35.371  1.00  0.00     0.000 C 
BRANCH   3   4
ATOM      4  C   UNL     1      24.684  21.881  36.550  1.00  0.00     0.006 C 
BRANCH   4   5
ATOM      5  C   UNL     1      25.170  23.227  37.113  1.00  0.00     0.053 C 
BRANCH   5   6
ATOM      6  C   UNL     1      24.319  23.697  38.253  1.00  0.00     0.041 C 
ATOM      7  O   UNL     1      23.383  24.513  38.051  1.00  0.00    -0.550 OA
ATOM      8  O   UNL     1      24.542  23.209  39.534  1.00  0.00    -0.550 OA
ENDBRANCH   5   6
ENDBRANCH   4   5
ENDBRANCH   3   4
ENDBRANCH   2   3
ENDBRANCH   1   2
BRANCH   1   9
ATOM      9  C   UNL     1      21.063  20.650  33.899  1.00  0.00     0.000 C 
BRANCH   9  10
ATOM     10  C   UNL     1      19.618  20.500  33.398  1.00  0.00    -0.000 C 
BRANCH  10  11
ATOM     11  C   UNL     1      19.193  21.643  32.462  1.00  0.00    -0.000 C 
BRANCH  11  12
ATOM     12  C   UNL     1      17.734  22.075  32.678  1.00  0.00    -0.000 C 
BRANCH  12  13
ATOM     13  C   UNL     1      17.366  22.036  34.166  1.00  0.00    -0.003 C 
ATOM     14  C   UNL     1      15.874  21.786  34.358  1.00  0.00     0.004 C 
ENDBRANCH  12  13
ENDBRANCH  11  12
ENDBRANCH  10  11
ENDBRANCH   9  10
ENDBRANCH   1   9
TORSDOF 10
ENDMDL
MODEL 5
REMARK VINA RESULT:    -4.374      9.279     11.234
REMARK INTER + INTRA:          -7.654
REMARK INTER:                  -7.185
REMARK INTRA:                  -0.469
REMARK UNBOUND:                -0.724
REMARK SMILES CCCCCCCCCCCC(=O)[O-]
REMARK SMILES IDX 7 1 8 2 9 3 10 4 11 5 12 6 13 7 14 8 6 9 5 10 4 11 3 12 2 13
REMARK SMILES IDX 1 14
REMARK H PARENT
REMARK Flexibility Score: inf
ROOT
ATOM      1  C   UNL     1      11.420  21.991  38.703  1.00  0.00     0.000 C 
ENDROOT
BRANCH   1   2
ATOM      2  C   UNL     1      11.252  22.211  37.191  1.00  0.00     0.000 C 
BRANCH   2   3
ATOM      3  C   UNL     1      12.423  21.633  36.376  1.00  0.00     0.000 C 
BRANCH   3   4
ATOM      4  C   UNL     1      12.187  21.709  34.857  1.00  0.00     0.006 C 
BRANCH   4   5
ATOM      5  C   UNL     1      12.721  22.989  34.194  1.00  0.00     0.053 C 
BRANCH   5   6
ATOM      6  C   UNL     1      14.034  23.415  34.776  1.00  0.00     0.041 C 
ATOM      7  O   UNL     1      14.102  24.441  35.502  1.00  0.00    -0.550 OA
ATOM      8  O   UNL     1      15.176  22.662  34.540  1.00  0.00    -0.550 OA
ENDBRANCH   5   6
ENDBRANCH   4   5
ENDBRANCH   3   4
ENDBRANCH   2   3
ENDBRANCH   1   2
BRANCH   1   9
ATOM      9  C   UNL     1      10.269  21.179  39.316  1.00  0.00     0.000 C 
BRANCH   9  10
ATOM     10  C   UNL     1      10.279  21.287  40.849  1.00  0.00    -0.000 C 
BRANCH  10  11
ATOM     11  C   UNL     1       9.506  22.513  41.362  1.00  0.00    -0.000 C 
BRANCH  11  12
ATOM     12  C   UNL     1      10.063  23.052  42.688  1.00  0.00    -0.000 C 
BRANCH  12  13
ATOM     13  C   UNL     1      11.541  22.678  42.854  1.00  0.00    -0.003 C 
ATOM     14  C   UNL     1      11.986  22.821  44.305  1.00  0.00     0.004 C 
ENDBRANCH  12  13
ENDBRANCH  11  12
ENDBRANCH  10  11
ENDBRANCH   9  10
ENDBRANCH   1   9
TORSDOF 10
ENDMDL
MODEL 6
REMARK VINA RESULT:    -4.310      8.187     10.909
REMARK INTER + INTRA:          -7.553
REMARK INTER:                  -7.170
REMARK INTRA:                  -0.383
REMARK UNBOUND:                -0.724
REMARK SMILES CCCCCCCCCCCC(=O)[O-]
REMARK SMILES IDX 7 1 8 2 9 3 10 4 11 5 12 6 13 7 14 8 6 9 5 10 4 11 3 12 2 13
REMARK SMILES IDX 1 14
REMARK H PARENT
REMARK Flexibility Score: inf
ROOT
ATOM      1  C   UNL     1      10.393  23.008  39.857  1.00  0.00     0.000 C 
ENDROOT
BRANCH   1   2
ATOM      2  C   UNL     1       9.366  22.549  40.905  1.00  0.00     0.000 C 
BRANCH   2   3
ATOM      3  C   UNL     1       9.756  22.963  42.334  1.00  0.00     0.000 C 
BRANCH   3   4
ATOM      4  C   UNL     1      11.181  22.523  42.714  1.00  0.00     0.006 C 
BRANCH   4   5
ATOM      5  C   UNL     1      11.767  23.250  43.936  1.00  0.00     0.053 C 
BRANCH   5   6
ATOM      6  C   UNL     1      12.589  22.335  44.791  1.00  0.00     0.041 C 
ATOM      7  O   UNL     1      12.365  22.251  46.027  1.00  0.00    -0.550 OA
ATOM      8  O   UNL     1      13.583  21.552  44.217  1.00  0.00    -0.550 OA
ENDBRANCH   5   6
ENDBRANCH   4   5
ENDBRANCH   3   4
ENDBRANCH   2   3
ENDBRANCH   1   2
BRANCH   1   9
ATOM      9  C   UNL     1      10.950  21.844  39.022  1.00  0.00     0.000 C 
BRANCH   9  10
ATOM     10  C   UNL     1      11.142  22.264  37.557  1.00  0.00    -0.000 C 
BRANCH  10  11
ATOM     11  C   UNL     1      12.601  22.138  37.089  1.00  0.00    -0.000 C 
BRANCH  11  12
ATOM     12  C   UNL     1      12.811  22.653  35.657  1.00  0.00    -0.000 C 
BRANCH  12  13
ATOM     13  C   UNL     1      12.308  21.633  34.629  1.00  0.00    -0.003 C 
ATOM     14  C   UNL     1      13.230  20.420  34.559  1.00  0.00     0.004 C 
ENDBRANCH  12  13
ENDBRANCH  11  12
ENDBRANCH  10  11
ENDBRANCH   9  10
ENDBRANCH   1   9
TORSDOF 10
ENDMDL
MODEL 7
REMARK VINA RESULT:    -4.305      3.014      6.512
REMARK INTER + INTRA:          -7.545
REMARK INTER:                  -6.902
REMARK INTRA:                  -0.643
REMARK UNBOUND:                -0.724
REMARK SMILES CCCCCCCCCCCC(=O)[O-]
REMARK SMILES IDX 7 1 8 2 9 3 10 4 11 5 12 6 13 7 14 8 6 9 5 10 4 11 3 12 2 13
REMARK SMILES IDX 1 14
REMARK H PARENT
REMARK Flexibility Score: inf
ROOT
ATOM      1  C   UNL     1      15.275  23.194  46.960  1.00  0.00     0.000 C 
ENDROOT
BRANCH   1   2
ATOM      2  C   UNL     1      14.160  23.324  48.011  1.00  0.00     0.000 C 
BRANCH   2   3
ATOM      3  C   UNL     1      12.765  23.031  47.431  1.00  0.00     0.000 C 
BRANCH   3   4
ATOM      4  C   UNL     1      12.789  21.942  46.343  1.00  0.00     0.006 C 
BRANCH   4   5
ATOM      5  C   UNL     1      12.228  22.390  44.983  1.00  0.00     0.053 C 
BRANCH   5   6
ATOM      6  C   UNL     1      13.222  22.199  43.878  1.00  0.00     0.041 C 
ATOM      7  O   UNL     1      14.067  21.268  43.939  1.00  0.00    -0.550 OA
ATOM      8  O   UNL     1      13.195  23.032  42.767  1.00  0.00    -0.550 OA
ENDBRANCH   5   6
ENDBRANCH   4   5
ENDBRANCH   3   4
ENDBRANCH   2   3
ENDBRANCH   1   2
BRANCH   1   9
ATOM      9  C   UNL     1      16.654  22.942  47.587  1.00  0.00     0.000 C 
BRANCH   9  10
ATOM     10  C   UNL     1      17.662  22.480  46.523  1.00  0.00    -0.000 C 
BRANCH  10  11
ATOM     11  C   UNL     1      18.909  21.820  47.135  1.00  0.00    -0.000 C 
BRANCH  11  12
ATOM     12  C   UNL     1      19.076  22.139  48.628  1.00  0.00    -0.000 C 
BRANCH  12  13
ATOM     13  C   UNL     1      20.208  23.150  48.848  1.00  0.00    -0.003 C 
ATOM     14  C   UNL     1      19.671  24.576  48.904  1.00  0.00     0.004 C 
ENDBRANCH  12  13
ENDBRANCH  11  12
ENDBRANCH  10  11
ENDBRANCH   9  10
ENDBRANCH   1   9
TORSDOF 10
ENDMDL
MODEL 8
REMARK VINA RESULT:    -4.261      1.271      2.241
REMARK INTER + INTRA:          -7.475
REMARK INTER:                  -6.792
REMARK INTRA:                  -0.683
REMARK UNBOUND:                -0.724
REMARK SMILES CCCCCCCCCCCC(=O)[O-]
REMARK SMILES IDX 7 1 8 2 9 3 10 4 11 5 12 6 13 7 14 8 6 9 5 10 4 11 3 12 2 13
REMARK SMILES IDX 1 14
REMARK H PARENT
REMARK Flexibility Score: inf
ROOT
ATOM      1  C   UNL     1      16.295  23.123  47.205  1.00  0.00     0.000 C 
ENDROOT
BRANCH   1   2
ATOM      2  C   UNL     1      17.666  23.492  47.797  1.00  0.00     0.000 C 
BRANCH   2   3
ATOM      3  C   UNL     1      18.384  22.281  48.420  1.00  0.00     0.000 C 
BRANCH   3   4
ATOM      4  C   UNL     1      19.917  22.385  48.324  1.00  0.00     0.006 C 
BRANCH   4   5
ATOM      5  C   UNL     1      20.430  23.721  47.761  1.00  0.00     0.053 C 
BRANCH   5   6
ATOM      6  C   UNL     1      21.074  23.553  46.419  1.00  0.00     0.041 C 
ATOM      7  O   UNL     1      20.593  24.130  45.409  1.00  0.00    -0.550 OA
ATOM      8  O   UNL     1      22.223  22.784  46.290  1.00  0.00    -0.550 OA
ENDBRANCH   5   6
ENDBRANCH   4   5
ENDBRANCH   3   4
ENDBRANCH   2   3
ENDBRANCH   1   2
BRANCH   1   9
ATOM      9  C   UNL     1      16.383  22.682  45.736  1.00  0.00     0.000 C 
BRANCH   9  10
ATOM     10  C   UNL     1      14.985  22.389  45.169  1.00  0.00    -0.000 C 
BRANCH  10  11
ATOM     11  C   UNL     1      14.183  21.412  46.044  1.00  0.00    -0.000 C 
BRANCH  11  12
ATOM     12  C   UNL     1      12.767  21.920  46.356  1.00  0.00    -0.000 C 
BRANCH  12  13
ATOM     13  C   UNL     1      12.791  22.938  47.502  1.00  0.00    -0.003 C 
ATOM     14  C   UNL     1      12.408  24.330  47.012  1.00  0.00     0.004 C 
ENDBRANCH  12  13
ENDBRANCH  11  12
ENDBRANCH  10  11
ENDBRANCH   9  10
ENDBRANCH   1   9
TORSDOF 10
ENDMDL
MODEL 9
REMARK VINA RESULT:    -4.254      3.714      5.845
REMARK INTER + INTRA:          -7.464
REMARK INTER:                  -6.913
REMARK INTRA:                  -0.551
REMARK UNBOUND:                -0.724
REMARK SMILES CCCCCCCCCCCC(=O)[O-]
REMARK SMILES IDX 7 1 8 2 9 3 10 4 11 5 12 6 13 7 14 8 6 9 5 10 4 11 3 12 2 13
REMARK SMILES IDX 1 14
REMARK H PARENT
REMARK Flexibility Score: inf
ROOT
ATOM      1  C   UNL     1      12.537  21.892  45.970  1.00  0.00     0.000 C 
ENDROOT
BRANCH   1   2
ATOM      2  C   UNL     1      12.989  22.678  47.212  1.00  0.00     0.000 C 
BRANCH   2   3
ATOM      3  C   UNL     1      14.117  23.677  46.900  1.00  0.00     0.000 C 
BRANCH   3   4
ATOM      4  C   UNL     1      15.473  22.988  46.658  1.00  0.00     0.006 C 
BRANCH   4   5
ATOM      5  C   UNL     1      16.456  23.089  47.836  1.00  0.00     0.053 C 
BRANCH   5   6
ATOM      6  C   UNL     1      17.799  23.591  47.403  1.00  0.00     0.041 C 
ATOM      7  O   UNL     1      17.932  24.163  46.289  1.00  0.00    -0.550 OA
ATOM      8  O   UNL     1      18.897  23.455  48.242  1.00  0.00    -0.550 OA
ENDBRANCH   5   6
ENDBRANCH   4   5
ENDBRANCH   3   4
ENDBRANCH   2   3
ENDBRANCH   1   2
BRANCH   1   9
ATOM      9  C   UNL     1      12.002  22.803  44.854  1.00  0.00     0.000 C 
BRANCH   9  10
ATOM     10  C   UNL     1      12.626  22.433  43.499  1.00  0.00    -0.000 C 
BRANCH  10  11
ATOM     11  C   UNL     1      11.572  22.206  42.403  1.00  0.00    -0.000 C 
BRANCH  11  12
ATOM     12  C   UNL     1      10.246  22.923  42.698  1.00  0.00    -0.000 C 
BRANCH  12  13
ATOM     13  C   UNL     1       9.266  22.765  41.530  1.00  0.00    -0.003 C 
ATOM     14  C   UNL     1       9.606  21.540  40.686  1.00  0.00     0.004 C 
ENDBRANCH  12  13
ENDBRANCH  11  12
ENDBRANCH  10  11
ENDBRANCH   9  10
ENDBRANCH   1   9
TORSDOF 10
ENDMDL
