MODEL 1
REMARK VINA RESULT:    -4.347      0.000      0.000
REMARK INTER + INTRA:          -5.433
REMARK INTER:                  -5.236
REMARK INTRA:                  -0.196
REMARK UNBOUND:                -0.196
REMARK SMILES [NH3+][C@@H](Cc1cnc[nH]1)C(=O)[O-]
REMARK SMILES IDX 3 1 2 2 1 3 9 7 10 8 11 9 4 10 5 11 8 12 6 13 7 14
REMARK H PARENT 1 4 1 5 1 6 8 15
REMARK Flexibility Score: inf
ROOT
ATOM      1  C   UNL     1      -1.611 -23.756 -30.664  1.00  0.00     0.127 C 
ENDROOT
BRANCH   1   2
ATOM      2  C   UNL     1      -1.909 -25.234 -30.331  1.00  0.00     0.233 C 
BRANCH   2   3
ATOM      3  N   UNL     1      -1.319 -26.146 -31.321  1.00  0.00    -0.350 N 
ATOM      4  H   UNL     1      -0.283 -26.004 -31.355  1.00  0.00     0.345 HD
ATOM      5  H   UNL     1      -1.709 -25.942 -32.269  1.00  0.00     0.345 HD
ATOM      6  H   UNL     1      -1.514 -27.145 -31.079  1.00  0.00     0.345 HD
ENDBRANCH   2   3
BRANCH   2   7
ATOM      7  C   UNL     1      -3.390 -25.477 -30.172  1.00  0.00     0.099 C 
ATOM      8  O   UNL     1      -4.172 -25.359 -31.153  1.00  0.00    -0.544 OA
ATOM      9  O   UNL     1      -3.906 -25.782 -28.919  1.00  0.00    -0.544 OA
ENDBRANCH   2   7
ENDBRANCH   1   2
BRANCH   1  10
ATOM     10  C   UNL     1      -1.656 -22.854 -29.463  1.00  0.00     0.041 A 
ATOM     11  C   UNL     1      -1.183 -23.143 -28.203  1.00  0.00     0.134 A 
ATOM     12  N   UNL     1      -2.137 -21.601 -29.465  1.00  0.00    -0.348 N 
ATOM     13  N   UNL     1      -1.370 -22.071 -27.406  1.00  0.00    -0.245 NA
ATOM     14  C   UNL     1      -1.953 -21.155 -28.209  1.00  0.00     0.196 A 
ATOM     15  H   UNL     1      -2.558 -21.081 -30.266  1.00  0.00     0.167 HD
ENDBRANCH   1  10
TORSDOF 4
ENDMDL
MODEL 2
REMARK VINA RESULT:    -4.331      2.492      3.524
REMARK INTER + INTRA:          -5.414
REMARK INTER:                  -5.154
REMARK INTRA:                  -0.260
REMARK UNBOUND:                -0.196
REMARK SMILES [NH3+][C@@H](Cc1cnc[nH]1)C(=O)[O-]
REMARK SMILES IDX 3 1 2 2 1 3 9 7 10 8 11 9 4 10 5 11 8 12 6 13 7 14
REMARK H PARENT 1 4 1 5 1 6 8 15
REMARK Flexibility Score: inf
ROOT
ATOM      1  C   UNL     1      -3.795 -22.266 -30.100  1.00  0.00     0.127 C 
ENDROOT
BRANCH   1   2
ATOM      2  C   UNL     1      -4.771 -22.469 -31.279  1.00  0.00     0.233 C 
BRANCH   2   3
ATOM      3  N   UNL     1      -5.685 -21.329 -31.434  1.00  0.00    -0.350 N 
ATOM      4  H   UNL     1      -5.138 -20.474 -31.686  1.00  0.00     0.345 HD
ATOM      5  H   UNL     1      -6.180 -21.146 -30.531  1.00  0.00     0.345 HD
ATOM      6  H   UNL     1      -6.393 -21.509 -32.182  1.00  0.00     0.345 HD
ENDBRANCH   2   3
BRANCH   2   7
ATOM      7  C   UNL     1      -5.529 -23.768 -31.152  1.00  0.00     0.099 C 
ATOM      8  O   UNL     1      -6.405 -23.919 -30.259  1.00  0.00    -0.544 OA
ATOM      9  O   UNL     1      -5.219 -24.830 -31.992  1.00  0.00    -0.544 OA
ENDBRANCH   2   7
ENDBRANCH   1   2
BRANCH   1  10
ATOM     10  C   UNL     1      -2.732 -23.326 -30.018  1.00  0.00     0.041 A 
ATOM     11  C   UNL     1      -2.235 -23.902 -28.871  1.00  0.00     0.134 A 
ATOM     12  N   UNL     1      -2.141 -23.899 -31.078  1.00  0.00    -0.348 N 
ATOM     13  N   UNL     1      -1.324 -24.837 -29.207  1.00  0.00    -0.245 NA
ATOM     14  C   UNL     1      -1.293 -24.805 -30.556  1.00  0.00     0.196 A 
ATOM     15  H   UNL     1      -2.304 -23.693 -32.088  1.00  0.00     0.167 HD
ENDBRANCH   1  10
TORSDOF 4
ENDMDL
MODEL 3
REMARK VINA RESULT:    -4.301      2.830      3.973
REMARK INTER + INTRA:          -5.377
REMARK INTER:                  -5.222
REMARK INTRA:                  -0.156
REMARK UNBOUND:                -0.196
REMARK SMILES [NH3+][C@@H](Cc1cnc[nH]1)C(=O)[O-]
REMARK SMILES IDX 3 1 2 2 1 3 9 7 10 8 11 9 4 10 5 11 8 12 6 13 7 14
REMARK H PARENT 1 4 1 5 1 6 8 15
REMARK Flexibility Score: inf
ROOT
ATOM      1  C   UNL     1      -3.207 -25.758 -30.411  1.00  0.00     0.127 C 
ENDROOT
BRANCH   1   2
ATOM      2  C   UNL     1      -1.999 -24.831 -30.669  1.00  0.00     0.233 C 
BRANCH   2   3
ATOM      3  N   UNL     1      -0.862 -25.562 -31.244  1.00  0.00    -0.350 N 
ATOM      4  H   UNL     1      -0.282 -25.969 -30.474  1.00  0.00     0.345 HD
ATOM      5  H   UNL     1      -0.261 -24.907 -31.795  1.00  0.00     0.345 HD
ATOM      6  H   UNL     1      -1.185 -26.336 -31.868  1.00  0.00     0.345 HD
ENDBRANCH   2   3
BRANCH   2   7
ATOM      7  C   UNL     1      -1.600 -24.085 -29.419  1.00  0.00     0.099 C 
ATOM      8  O   UNL     1      -1.396 -24.699 -28.338  1.00  0.00    -0.544 OA
ATOM      9  O   UNL     1      -1.508 -22.699 -29.446  1.00  0.00    -0.544 OA
ENDBRANCH   2   7
ENDBRANCH   1   2
BRANCH   1  10
ATOM     10  C   UNL     1      -4.504 -25.017 -30.255  1.00  0.00     0.041 A 
ATOM     11  C   UNL     1      -4.854 -23.837 -30.871  1.00  0.00     0.134 A 
ATOM     12  N   UNL     1      -5.539 -25.436 -29.509  1.00  0.00    -0.348 N 
ATOM     13  N   UNL     1      -6.110 -23.506 -30.509  1.00  0.00    -0.245 NA
ATOM     14  C   UNL     1      -6.492 -24.501 -29.681  1.00  0.00     0.196 A 
ATOM     15  H   UNL     1      -5.597 -26.299 -28.926  1.00  0.00     0.167 HD
ENDBRANCH   1  10
TORSDOF 4
ENDMDL
MODEL 4
REMARK VINA RESULT:    -4.220      2.825      3.280
REMARK INTER + INTRA:          -5.279
REMARK INTER:                  -5.165
REMARK INTRA:                  -0.114
REMARK UNBOUND:                -0.196
REMARK SMILES [NH3+][C@@H](Cc1cnc[nH]1)C(=O)[O-]
REMARK SMILES IDX 3 1 2 2 1 3 9 7 10 8 11 9 4 10 5 11 8 12 6 13 7 14
REMARK H PARENT 1 4 1 5 1 6 8 15
REMARK Flexibility Score: inf
ROOT
ATOM      1  C   UNL     1      -3.973 -23.105 -31.122  1.00  0.00     0.127 C 
ENDROOT
BRANCH   1   2
ATOM      2  C   UNL     1      -2.674 -23.497 -30.385  1.00  0.00     0.233 C 
BRANCH   2   3
ATOM      3  N   UNL     1      -1.524 -22.708 -30.847  1.00  0.00    -0.350 N 
ATOM      4  H   UNL     1      -1.629 -22.499 -31.866  1.00  0.00     0.345 HD
ATOM      5  H   UNL     1      -0.642 -23.255 -30.715  1.00  0.00     0.345 HD
ATOM      6  H   UNL     1      -1.448 -21.806 -30.324  1.00  0.00     0.345 HD
ENDBRANCH   2   3
BRANCH   2   7
ATOM      7  C   UNL     1      -2.404 -24.978 -30.491  1.00  0.00     0.099 C 
ATOM      8  O   UNL     1      -3.334 -25.816 -30.348  1.00  0.00    -0.544 OA
ATOM      9  O   UNL     1      -1.105 -25.428 -30.695  1.00  0.00    -0.544 OA
ENDBRANCH   2   7
ENDBRANCH   1   2
BRANCH   1  10
ATOM     10  C   UNL     1      -4.657 -21.908 -30.526  1.00  0.00     0.041 A 
ATOM     11  C   UNL     1      -4.418 -21.359 -29.286  1.00  0.00     0.134 A 
ATOM     12  N   UNL     1      -5.586 -21.167 -31.151  1.00  0.00    -0.348 N 
ATOM     13  N   UNL     1      -5.201 -20.273 -29.127  1.00  0.00    -0.245 NA
ATOM     14  C   UNL     1      -5.897 -20.190 -30.280  1.00  0.00     0.196 A 
ATOM     15  H   UNL     1      -5.979 -21.313 -32.107  1.00  0.00     0.167 HD
ENDBRANCH   1  10
TORSDOF 4
ENDMDL
MODEL 5
REMARK VINA RESULT:    -4.189      3.141      4.185
REMARK INTER + INTRA:          -5.242
REMARK INTER:                  -4.985
REMARK INTRA:                  -0.257
REMARK UNBOUND:                -0.196
REMARK SMILES [NH3+][C@@H](Cc1cnc[nH]1)C(=O)[O-]
REMARK SMILES IDX 3 1 2 2 1 3 9 7 10 8 11 9 4 10 5 11 8 12 6 13 7 14
REMARK H PARENT 1 4 1 5 1 6 8 15
REMARK Flexibility Score: inf
ROOT
ATOM      1  C   UNL     1      -4.189 -23.905 -31.204  1.00  0.00     0.127 C 
ENDROOT
BRANCH   1   2
ATOM      2  C   UNL     1      -2.835 -24.004 -30.468  1.00  0.00     0.233 C 
BRANCH   2   3
ATOM      3  N   UNL     1      -1.904 -22.949 -30.892  1.00  0.00    -0.350 N 
ATOM      4  H   UNL     1      -0.958 -23.134 -30.487  1.00  0.00     0.345 HD
ATOM      5  H   UNL     1      -2.235 -22.022 -30.541  1.00  0.00     0.345 HD
ATOM      6  H   UNL     1      -1.823 -22.911 -31.934  1.00  0.00     0.345 HD
ENDBRANCH   2   3
BRANCH   2   7
ATOM      7  C   UNL     1      -2.222 -25.374 -30.623  1.00  0.00     0.099 C 
ATOM      8  O   UNL     1      -2.938 -26.410 -30.590  1.00  0.00    -0.544 OA
ATOM      9  O   UNL     1      -0.844 -25.501 -30.747  1.00  0.00    -0.544 OA
ENDBRANCH   2   7
ENDBRANCH   1   2
BRANCH   1  10
ATOM     10  C   UNL     1      -5.366 -24.241 -30.333  1.00  0.00     0.041 A 
ATOM     11  C   UNL     1      -6.147 -23.351 -29.630  1.00  0.00     0.134 A 
ATOM     12  N   UNL     1      -5.854 -25.478 -30.152  1.00  0.00    -0.348 N 
ATOM     13  N   UNL     1      -7.127 -24.029 -28.999  1.00  0.00    -0.245 NA
ATOM     14  C   UNL     1      -6.915 -25.318 -29.339  1.00  0.00     0.196 A 
ATOM     15  H   UNL     1      -5.495 -26.371 -30.555  1.00  0.00     0.167 HD
ENDBRANCH   1  10
TORSDOF 4
ENDMDL
MODEL 6
REMARK VINA RESULT:    -4.089      2.880      3.969
REMARK INTER + INTRA:          -5.122
REMARK INTER:                  -4.961
REMARK INTRA:                  -0.161
REMARK UNBOUND:                -0.196
REMARK SMILES [NH3+][C@@H](Cc1cnc[nH]1)C(=O)[O-]
REMARK SMILES IDX 3 1 2 2 1 3 9 7 10 8 11 9 4 10 5 11 8 12 6 13 7 14
REMARK H PARENT 1 4 1 5 1 6 8 15
REMARK Flexibility Score: inf
ROOT
ATOM      1  C   UNL     1      -4.646 -24.954 -30.996  1.00  0.00     0.127 C 
ENDROOT
BRANCH   1   2
ATOM      2  C   UNL     1      -5.588 -24.712 -29.798  1.00  0.00     0.233 C 
BRANCH   2   3
ATOM      3  N   UNL     1      -6.638 -25.736 -29.712  1.00  0.00    -0.350 N 
ATOM      4  H   UNL     1      -6.425 -26.391 -28.925  1.00  0.00     0.345 HD
ATOM      5  H   UNL     1      -6.667 -26.289 -30.599  1.00  0.00     0.345 HD
ATOM      6  H   UNL     1      -7.577 -25.305 -29.547  1.00  0.00     0.345 HD
ENDBRANCH   2   3
BRANCH   2   7
ATOM      7  C   UNL     1      -6.177 -23.322 -29.830  1.00  0.00     0.099 C 
ATOM      8  O   UNL     1      -7.119 -23.003 -29.058  1.00  0.00    -0.544 OA
ATOM      9  O   UNL     1      -5.711 -22.400 -30.759  1.00  0.00    -0.544 OA
ENDBRANCH   2   7
ENDBRANCH   1   2
BRANCH   1  10
ATOM     10  C   UNL     1      -3.191 -24.944 -30.621  1.00  0.00     0.041 A 
ATOM     11  C   UNL     1      -2.593 -24.140 -29.677  1.00  0.00     0.134 A 
ATOM     12  N   UNL     1      -2.263 -25.766 -31.136  1.00  0.00    -0.348 N 
ATOM     13  N   UNL     1      -1.283 -24.451 -29.600  1.00  0.00    -0.245 NA
ATOM     14  C   UNL     1      -1.121 -25.442 -30.502  1.00  0.00     0.196 A 
ATOM     15  H   UNL     1      -2.396 -26.500 -31.866  1.00  0.00     0.167 HD
ENDBRANCH   1  10
TORSDOF 4
ENDMDL
MODEL 7
REMARK VINA RESULT:    -4.076      9.268     10.164
REMARK INTER + INTRA:          -5.106
REMARK INTER:                  -4.959
REMARK INTRA:                  -0.148
REMARK UNBOUND:                -0.196
REMARK SMILES [NH3+][C@@H](Cc1cnc[nH]1)C(=O)[O-]
REMARK SMILES IDX 3 1 2 2 1 3 9 7 10 8 11 9 4 10 5 11 8 12 6 13 7 14
REMARK H PARENT 1 4 1 5 1 6 8 15
REMARK Flexibility Score: inf
ROOT
ATOM      1  C   UNL     1      -6.990 -28.863 -23.063  1.00  0.00     0.127 C 
ENDROOT
BRANCH   1   2
ATOM      2  C   UNL     1      -7.200 -28.494 -24.548  1.00  0.00     0.233 C 
BRANCH   2   3
ATOM      3  N   UNL     1      -7.957 -29.529 -25.266  1.00  0.00    -0.350 N 
ATOM      4  H   UNL     1      -7.296 -30.146 -25.792  1.00  0.00     0.345 HD
ATOM      5  H   UNL     1      -8.605 -29.082 -25.955  1.00  0.00     0.345 HD
ATOM      6  H   UNL     1      -8.515 -30.119 -24.606  1.00  0.00     0.345 HD
ENDBRANCH   2   3
BRANCH   2   7
ATOM      7  C   UNL     1      -5.890 -28.195 -25.234  1.00  0.00     0.099 C 
ATOM      8  O   UNL     1      -5.844 -27.990 -26.475  1.00  0.00    -0.544 OA
ATOM      9  O   UNL     1      -4.712 -28.200 -24.498  1.00  0.00    -0.544 OA
ENDBRANCH   2   7
ENDBRANCH   1   2
BRANCH   1  10
ATOM     10  C   UNL     1      -8.261 -28.854 -22.262  1.00  0.00     0.041 A 
ATOM     11  C   UNL     1      -9.160 -27.816 -22.161  1.00  0.00     0.134 A 
ATOM     12  N   UNL     1      -8.726 -29.895 -21.553  1.00  0.00    -0.348 N 
ATOM     13  N   UNL     1     -10.192 -28.201 -21.383  1.00  0.00    -0.245 NA
ATOM     14  C   UNL     1      -9.891 -29.469 -21.032  1.00  0.00     0.196 A 
ATOM     15  H   UNL     1      -8.285 -30.833 -21.434  1.00  0.00     0.167 HD
ENDBRANCH   1  10
TORSDOF 4
ENDMDL
MODEL 8
REMARK VINA RESULT:    -4.071     15.657     16.746
REMARK INTER + INTRA:          -5.100
REMARK INTER:                  -4.809
REMARK INTRA:                  -0.291
REMARK UNBOUND:                -0.196
REMARK SMILES [NH3+][C@@H](Cc1cnc[nH]1)C(=O)[O-]
REMARK SMILES IDX 3 1 2 2 1 3 9 7 10 8 11 9 4 10 5 11 8 12 6 13 7 14
REMARK H PARENT 1 4 1 5 1 6 8 15
REMARK Flexibility Score: inf
ROOT
ATOM      1  C   UNL     1     -15.465 -25.803 -19.153  1.00  0.00     0.127 C 
ENDROOT
BRANCH   1   2
ATOM      2  C   UNL     1     -14.205 -25.097 -18.607  1.00  0.00     0.233 C 
BRANCH   2   3
ATOM      3  N   UNL     1     -14.517 -24.228 -17.463  1.00  0.00    -0.350 N 
ATOM      4  H   UNL     1     -14.745 -24.816 -16.629  1.00  0.00     0.345 HD
ATOM      5  H   UNL     1     -15.351 -23.637 -17.684  1.00  0.00     0.345 HD
ATOM      6  H   UNL     1     -13.710 -23.606 -17.227  1.00  0.00     0.345 HD
ENDBRANCH   2   3
BRANCH   2   7
ATOM      7  C   UNL     1     -13.482 -24.338 -19.693  1.00  0.00     0.099 C 
ATOM      8  O   UNL     1     -13.691 -23.109 -19.870  1.00  0.00    -0.544 OA
ATOM      9  O   UNL     1     -12.615 -25.013 -20.544  1.00  0.00    -0.544 OA
ENDBRANCH   2   7
ENDBRANCH   1   2
BRANCH   1  10
ATOM     10  C   UNL     1     -15.260 -27.268 -19.415  1.00  0.00     0.041 A 
ATOM     11  C   UNL     1     -16.238 -28.234 -19.481  1.00  0.00     0.134 A 
ATOM     12  N   UNL     1     -14.072 -27.840 -19.668  1.00  0.00    -0.348 N 
ATOM     13  N   UNL     1     -15.667 -29.420 -19.771  1.00  0.00    -0.245 NA
ATOM     14  C   UNL     1     -14.350 -29.141 -19.877  1.00  0.00     0.196 A 
ATOM     15  H   UNL     1     -13.137 -27.380 -19.702  1.00  0.00     0.167 HD
ENDBRANCH   1  10
TORSDOF 4
ENDMDL
MODEL 9
REMARK VINA RESULT:    -4.000      2.815      4.448
REMARK INTER + INTRA:          -5.015
REMARK INTER:                  -4.864
REMARK INTRA:                  -0.151
REMARK UNBOUND:                -0.196
REMARK SMILES [NH3+][C@@H](Cc1cnc[nH]1)C(=O)[O-]
REMARK SMILES IDX 3 1 2 2 1 3 9 7 10 8 11 9 4 10 5 11 8 12 6 13 7 14
REMARK H PARENT 1 4 1 5 1 6 8 15
REMARK Flexibility Score: inf
ROOT
ATOM      1  C   UNL     1      -2.203 -22.733 -30.325  1.00  0.00     0.127 C 
ENDROOT
BRANCH   1   2
ATOM      2  C   UNL     1      -2.222 -22.261 -28.854  1.00  0.00     0.233 C 
BRANCH   2   3
ATOM      3  N   UNL     1      -1.980 -20.816 -28.741  1.00  0.00    -0.350 N 
ATOM      4  H   UNL     1      -1.347 -20.505 -29.513  1.00  0.00     0.345 HD
ATOM      5  H   UNL     1      -1.513 -20.605 -27.830  1.00  0.00     0.345 HD
ATOM      6  H   UNL     1      -2.874 -20.276 -28.800  1.00  0.00     0.345 HD
ENDBRANCH   2   3
BRANCH   2   7
ATOM      7  C   UNL     1      -1.252 -23.049 -28.009  1.00  0.00     0.099 C 
ATOM      8  O   UNL     1      -1.278 -24.308 -28.001  1.00  0.00    -0.544 OA
ATOM      9  O   UNL     1      -0.354 -22.379 -27.187  1.00  0.00    -0.544 OA
ENDBRANCH   2   7
ENDBRANCH   1   2
BRANCH   1  10
ATOM     10  C   UNL     1      -3.513 -23.308 -30.782  1.00  0.00     0.041 A 
ATOM     11  C   UNL     1      -4.726 -22.658 -30.819  1.00  0.00     0.134 A 
ATOM     12  N   UNL     1      -3.675 -24.549 -31.268  1.00  0.00    -0.348 N 
ATOM     13  N   UNL     1      -5.657 -23.492 -31.325  1.00  0.00    -0.245 NA
ATOM     14  C   UNL     1      -4.981 -24.631 -31.585  1.00  0.00     0.196 A 
ATOM     15  H   UNL     1      -2.948 -25.289 -31.382  1.00  0.00     0.167 HD
ENDBRANCH   1  10
TORSDOF 4
ENDMDL
