MODEL 1
REMARK VINA RESULT:    -4.554      0.000      0.000
REMARK INTER + INTRA:          -4.997
REMARK INTER:                  -4.953
REMARK INTRA:                  -0.044
REMARK UNBOUND:                -0.044
REMARK SMILES COc1cc2ccc(=O)oc2cc1O
REMARK SMILES IDX 3 1 13 2 12 3 11 4 5 5 4 6 6 7 7 8 8 9 9 10 10 11 2 12 1 13
REMARK SMILES IDX 14 14
REMARK H PARENT 14 15
REMARK Flexibility Score: inf
ROOT
ATOM      1  C   UNL     1      35.053 -39.487  13.480  1.00  0.00     0.161 A 
ATOM      2  C   UNL     1      34.889 -38.128  13.811  1.00  0.00     0.161 A 
ATOM      3  C   UNL     1      34.567 -37.194  12.819  1.00  0.00     0.098 A 
ATOM      4  C   UNL     1      34.405 -37.598  11.494  1.00  0.00     0.142 A 
ATOM      5  C   UNL     1      34.565 -38.957  11.151  1.00  0.00     0.022 A 
ATOM      6  C   UNL     1      34.889 -39.895  12.141  1.00  0.00     0.062 A 
ATOM      7  C   UNL     1      34.396 -39.331   9.814  1.00  0.00     0.019 A 
ATOM      8  C   UNL     1      34.075 -38.360   8.866  1.00  0.00     0.094 A 
ATOM      9  C   UNL     1      33.931 -37.031   9.279  1.00  0.00     0.336 A 
ATOM     10  O   UNL     1      33.641 -36.139   8.440  1.00  0.00    -0.246 OA
ATOM     11  O   UNL     1      34.098 -36.702  10.558  1.00  0.00    -0.423 OA
ENDROOT
BRANCH   1  12
ATOM     12  O   UNL     1      35.376 -40.398  14.499  1.00  0.00    -0.493 OA
ATOM     13  C   UNL     1      35.961 -41.678  14.283  1.00  0.00     0.278 C 
ENDBRANCH   1  12
BRANCH   2  14
ATOM     14  O   UNL     1      35.044 -37.685  15.125  1.00  0.00    -0.504 OA
ATOM     15  H   UNL     1      34.300 -37.752  15.809  1.00  0.00     0.293 HD
ENDBRANCH   2  14
TORSDOF 2
ENDMDL
MODEL 2
REMARK VINA RESULT:    -4.319      1.590      5.059
REMARK INTER + INTRA:          -4.742
REMARK INTER:                  -4.699
REMARK INTRA:                  -0.043
REMARK UNBOUND:                -0.044
REMARK SMILES COc1cc2ccc(=O)oc2cc1O
REMARK SMILES IDX 3 1 13 2 12 3 11 4 5 5 4 6 6 7 7 8 8 9 9 10 10 11 2 12 1 13
REMARK SMILES IDX 14 14
REMARK H PARENT 14 15
REMARK Flexibility Score: inf
ROOT
ATOM      1  C   UNL     1      34.740 -38.348  12.408  1.00  0.00     0.161 A 
ATOM      2  C   UNL     1      35.186 -38.221  13.738  1.00  0.00     0.161 A 
ATOM      3  C   UNL     1      35.543 -39.357  14.474  1.00  0.00     0.098 A 
ATOM      4  C   UNL     1      35.460 -40.626  13.900  1.00  0.00     0.142 A 
ATOM      5  C   UNL     1      35.015 -40.765  12.568  1.00  0.00     0.022 A 
ATOM      6  C   UNL     1      34.656 -39.630  11.828  1.00  0.00     0.062 A 
ATOM      7  C   UNL     1      34.942 -42.050  12.021  1.00  0.00     0.019 A 
ATOM      8  C   UNL     1      35.310 -43.148  12.799  1.00  0.00     0.094 A 
ATOM      9  C   UNL     1      35.743 -42.934  14.112  1.00  0.00     0.336 A 
ATOM     10  O   UNL     1      36.079 -43.911  14.830  1.00  0.00    -0.246 OA
ATOM     11  O   UNL     1      35.802 -41.700  14.609  1.00  0.00    -0.423 OA
ENDROOT
BRANCH   1  12
ATOM     12  O   UNL     1      34.390 -37.189  11.698  1.00  0.00    -0.493 OA
ATOM     13  C   UNL     1      34.060 -37.157  10.313  1.00  0.00     0.278 C 
ENDBRANCH   1  12
BRANCH   2  14
ATOM     14  O   UNL     1      35.282 -36.970  14.347  1.00  0.00    -0.504 OA
ATOM     15  H   UNL     1      35.380 -36.863  15.350  1.00  0.00     0.293 HD
ENDBRANCH   2  14
TORSDOF 2
ENDMDL
MODEL 3
REMARK VINA RESULT:    -4.285     14.610     16.049
REMARK INTER + INTRA:          -4.705
REMARK INTER:                  -4.660
REMARK INTRA:                  -0.045
REMARK UNBOUND:                -0.044
REMARK SMILES COc1cc2ccc(=O)oc2cc1O
REMARK SMILES IDX 3 1 13 2 12 3 11 4 5 5 4 6 6 7 7 8 8 9 9 10 10 11 2 12 1 13
REMARK SMILES IDX 14 14
REMARK H PARENT 14 15
REMARK Flexibility Score: inf
ROOT
ATOM      1  C   UNL     1      32.882 -41.794  -3.592  1.00  0.00     0.161 A 
ATOM      2  C   UNL     1      32.928 -40.740  -2.658  1.00  0.00     0.161 A 
ATOM      3  C   UNL     1      34.080 -39.955  -2.536  1.00  0.00     0.098 A 
ATOM      4  C   UNL     1      35.195 -40.206  -3.338  1.00  0.00     0.142 A 
ATOM      5  C   UNL     1      35.159 -41.258  -4.277  1.00  0.00     0.022 A 
ATOM      6  C   UNL     1      34.008 -42.047  -4.401  1.00  0.00     0.062 A 
ATOM      7  C   UNL     1      36.292 -41.485  -5.066  1.00  0.00     0.019 A 
ATOM      8  C   UNL     1      37.414 -40.673  -4.904  1.00  0.00     0.094 A 
ATOM      9  C   UNL     1      37.376 -39.647  -3.953  1.00  0.00     0.336 A 
ATOM     10  O   UNL     1      38.378 -38.902  -3.791  1.00  0.00    -0.246 OA
ATOM     11  O   UNL     1      36.286 -39.453  -3.215  1.00  0.00    -0.423 OA
ENDROOT
BRANCH   1  12
ATOM     12  O   UNL     1      31.711 -42.562  -3.688  1.00  0.00    -0.493 OA
ATOM     13  C   UNL     1      31.664 -43.912  -4.138  1.00  0.00     0.278 C 
ENDBRANCH   1  12
BRANCH   2  14
ATOM     14  O   UNL     1      31.835 -40.458  -1.839  1.00  0.00    -0.504 OA
ATOM     15  H   UNL     1      31.410 -39.539  -1.802  1.00  0.00     0.293 HD
ENDBRANCH   2  14
TORSDOF 2
ENDMDL
MODEL 4
REMARK VINA RESULT:    -4.081      5.669      8.680
REMARK INTER + INTRA:          -4.483
REMARK INTER:                  -4.437
REMARK INTRA:                  -0.047
REMARK UNBOUND:                -0.044
REMARK SMILES COc1cc2ccc(=O)oc2cc1O
REMARK SMILES IDX 3 1 13 2 12 3 11 4 5 5 4 6 6 7 7 8 8 9 9 10 10 11 2 12 1 13
REMARK SMILES IDX 14 14
REMARK H PARENT 14 15
REMARK Flexibility Score: inf
ROOT
ATOM      1  C   UNL     1      34.786 -36.856   3.255  1.00  0.00     0.161 A 
ATOM      2  C   UNL     1      33.480 -37.331   3.027  1.00  0.00     0.161 A 
ATOM      3  C   UNL     1      32.534 -37.316   4.059  1.00  0.00     0.098 A 
ATOM      4  C   UNL     1      32.875 -36.832   5.323  1.00  0.00     0.142 A 
ATOM      5  C   UNL     1      34.180 -36.353   5.562  1.00  0.00     0.022 A 
ATOM      6  C   UNL     1      35.130 -36.367   4.531  1.00  0.00     0.062 A 
ATOM      7  C   UNL     1      34.491 -35.875   6.839  1.00  0.00     0.019 A 
ATOM      8  C   UNL     1      33.510 -35.883   7.831  1.00  0.00     0.094 A 
ATOM      9  C   UNL     1      32.237 -36.372   7.521  1.00  0.00     0.336 A 
ATOM     10  O   UNL     1      31.338 -36.388   8.402  1.00  0.00    -0.246 OA
ATOM     11  O   UNL     1      31.967 -36.822   6.298  1.00  0.00    -0.423 OA
ENDROOT
BRANCH   1  12
ATOM     12  O   UNL     1      35.710 -36.885   2.198  1.00  0.00    -0.493 OA
ATOM     13  C   UNL     1      36.721 -35.905   1.981  1.00  0.00     0.278 C 
ENDBRANCH   1  12
BRANCH   2  14
ATOM     14  O   UNL     1      33.102 -37.822   1.778  1.00  0.00    -0.504 OA
ATOM     15  H   UNL     1      32.227 -37.564   1.337  1.00  0.00     0.293 HD
ENDBRANCH   2  14
TORSDOF 2
ENDMDL
MODEL 5
REMARK VINA RESULT:    -4.004     15.270     16.469
REMARK INTER + INTRA:          -4.399
REMARK INTER:                  -4.337
REMARK INTRA:                  -0.062
REMARK UNBOUND:                -0.044
REMARK SMILES COc1cc2ccc(=O)oc2cc1O
REMARK SMILES IDX 3 1 13 2 12 3 11 4 5 5 4 6 6 7 7 8 8 9 9 10 10 11 2 12 1 13
REMARK SMILES IDX 14 14
REMARK H PARENT 14 15
REMARK Flexibility Score: inf
ROOT
ATOM      1  C   UNL     1      37.804 -39.800  -3.604  1.00  0.00     0.161 A 
ATOM      2  C   UNL     1      37.900 -40.865  -4.521  1.00  0.00     0.161 A 
ATOM      3  C   UNL     1      36.765 -41.613  -4.854  1.00  0.00     0.098 A 
ATOM      4  C   UNL     1      35.527 -41.312  -4.284  1.00  0.00     0.142 A 
ATOM      5  C   UNL     1      35.419 -40.246  -3.366  1.00  0.00     0.022 A 
ATOM      6  C   UNL     1      36.554 -39.495  -3.028  1.00  0.00     0.062 A 
ATOM      7  C   UNL     1      34.165 -39.970  -2.811  1.00  0.00     0.019 A 
ATOM      8  C   UNL     1      33.067 -40.746  -3.178  1.00  0.00     0.094 A 
ATOM      9  C   UNL     1      33.249 -41.787  -4.096  1.00  0.00     0.336 A 
ATOM     10  O   UNL     1      32.271 -42.499  -4.441  1.00  0.00    -0.246 OA
ATOM     11  O   UNL     1      34.453 -42.029  -4.609  1.00  0.00    -0.423 OA
ENDROOT
BRANCH   1  12
ATOM     12  O   UNL     1      38.962 -39.070  -3.292  1.00  0.00    -0.493 OA
ATOM     13  C   UNL     1      39.187 -37.713  -3.662  1.00  0.00     0.278 C 
ENDBRANCH   1  12
BRANCH   2  14
ATOM     14  O   UNL     1      39.119 -41.197  -5.112  1.00  0.00    -0.504 OA
ATOM     15  H   UNL     1      39.786 -41.813  -4.664  1.00  0.00     0.293 HD
ENDBRANCH   2  14
TORSDOF 2
ENDMDL
MODEL 6
REMARK VINA RESULT:    -3.855      1.789      3.198
REMARK INTER + INTRA:          -4.237
REMARK INTER:                  -4.195
REMARK INTRA:                  -0.043
REMARK UNBOUND:                -0.044
REMARK SMILES COc1cc2ccc(=O)oc2cc1O
REMARK SMILES IDX 3 1 13 2 12 3 11 4 5 5 4 6 6 7 7 8 8 9 9 10 10 11 2 12 1 13
REMARK SMILES IDX 14 14
REMARK H PARENT 14 15
REMARK Flexibility Score: inf
ROOT
ATOM      1  C   UNL     1      35.699 -41.524  13.678  1.00  0.00     0.161 A 
ATOM      2  C   UNL     1      35.475 -41.907  12.341  1.00  0.00     0.161 A 
ATOM      3  C   UNL     1      35.049 -40.963  11.399  1.00  0.00     0.098 A 
ATOM      4  C   UNL     1      34.843 -39.634  11.774  1.00  0.00     0.142 A 
ATOM      5  C   UNL     1      35.066 -39.240  13.110  1.00  0.00     0.022 A 
ATOM      6  C   UNL     1      35.491 -40.182  14.056  1.00  0.00     0.062 A 
ATOM      7  C   UNL     1      34.850 -37.901  13.454  1.00  0.00     0.019 A 
ATOM      8  C   UNL     1      34.426 -37.002  12.476  1.00  0.00     0.094 A 
ATOM      9  C   UNL     1      34.227 -37.465  11.171  1.00  0.00     0.336 A 
ATOM     10  O   UNL     1      33.845 -36.670  10.273  1.00  0.00    -0.246 OA
ATOM     11  O   UNL     1      34.439 -38.744  10.870  1.00  0.00    -0.423 OA
ENDROOT
BRANCH   1  12
ATOM     12  O   UNL     1      36.126 -42.496  14.598  1.00  0.00    -0.493 OA
ATOM     13  C   UNL     1      37.486 -42.844  14.834  1.00  0.00     0.278 C 
ENDBRANCH   1  12
BRANCH   2  14
ATOM     14  O   UNL     1      35.670 -43.225  11.929  1.00  0.00    -0.504 OA
ATOM     15  H   UNL     1      36.384 -43.481  11.258  1.00  0.00     0.293 HD
ENDBRANCH   2  14
TORSDOF 2
ENDMDL
MODEL 7
REMARK VINA RESULT:    -3.785      1.256      4.891
REMARK INTER + INTRA:          -4.162
REMARK INTER:                  -4.100
REMARK INTRA:                  -0.062
REMARK UNBOUND:                -0.044
REMARK SMILES COc1cc2ccc(=O)oc2cc1O
REMARK SMILES IDX 3 1 13 2 12 3 11 4 5 5 4 6 6 7 7 8 8 9 9 10 10 11 2 12 1 13
REMARK SMILES IDX 14 14
REMARK H PARENT 14 15
REMARK Flexibility Score: inf
ROOT
ATOM      1  C   UNL     1      34.358 -38.465   8.927  1.00  0.00     0.161 A 
ATOM      2  C   UNL     1      33.994 -37.193   9.412  1.00  0.00     0.161 A 
ATOM      3  C   UNL     1      34.010 -36.931  10.786  1.00  0.00     0.098 A 
ATOM      4  C   UNL     1      34.386 -37.926  11.691  1.00  0.00     0.142 A 
ATOM      5  C   UNL     1      34.753 -39.202  11.217  1.00  0.00     0.022 A 
ATOM      6  C   UNL     1      34.738 -39.469   9.840  1.00  0.00     0.062 A 
ATOM      7  C   UNL     1      35.124 -40.177  12.148  1.00  0.00     0.019 A 
ATOM      8  C   UNL     1      35.123 -39.863  13.507  1.00  0.00     0.094 A 
ATOM      9  C   UNL     1      34.747 -38.575  13.904  1.00  0.00     0.336 A 
ATOM     10  O   UNL     1      34.739 -38.271  15.125  1.00  0.00    -0.246 OA
ATOM     11  O   UNL     1      34.398 -37.666  12.997  1.00  0.00    -0.423 OA
ENDROOT
BRANCH   1  12
ATOM     12  O   UNL     1      34.332 -38.694   7.542  1.00  0.00    -0.493 OA
ATOM     13  C   UNL     1      35.456 -38.559   6.678  1.00  0.00     0.278 C 
ENDBRANCH   1  12
BRANCH   2  14
ATOM     14  O   UNL     1      33.613 -36.174   8.539  1.00  0.00    -0.504 OA
ATOM     15  H   UNL     1      32.751 -36.213   8.007  1.00  0.00     0.293 HD
ENDBRANCH   2  14
TORSDOF 2
ENDMDL
MODEL 8
REMARK VINA RESULT:    -3.747     11.124     14.434
REMARK INTER + INTRA:          -4.120
REMARK INTER:                  -4.076
REMARK INTRA:                  -0.043
REMARK UNBOUND:                -0.044
REMARK SMILES COc1cc2ccc(=O)oc2cc1O
REMARK SMILES IDX 3 1 13 2 12 3 11 4 5 5 4 6 6 7 7 8 8 9 9 10 10 11 2 12 1 13
REMARK SMILES IDX 14 14
REMARK H PARENT 14 15
REMARK Flexibility Score: inf
ROOT
ATOM      1  C   UNL     1      34.777 -40.827  -3.540  1.00  0.00     0.161 A 
ATOM      2  C   UNL     1      33.389 -40.687  -3.343  1.00  0.00     0.161 A 
ATOM      3  C   UNL     1      32.895 -40.186  -2.133  1.00  0.00     0.098 A 
ATOM      4  C   UNL     1      33.771 -39.821  -1.109  1.00  0.00     0.142 A 
ATOM      5  C   UNL     1      35.162 -39.957  -1.295  1.00  0.00     0.022 A 
ATOM      6  C   UNL     1      35.661 -40.458  -2.506  1.00  0.00     0.062 A 
ATOM      7  C   UNL     1      36.014 -39.582  -0.251  1.00  0.00     0.019 A 
ATOM      8  C   UNL     1      35.469 -39.089   0.934  1.00  0.00     0.094 A 
ATOM      9  C   UNL     1      34.078 -38.982   1.047  1.00  0.00     0.336 A 
ATOM     10  O   UNL     1      33.566 -38.539   2.108  1.00  0.00    -0.246 OA
ATOM     11  O   UNL     1      33.290 -39.345   0.038  1.00  0.00    -0.423 OA
ENDROOT
BRANCH   1  12
ATOM     12  O   UNL     1      35.239 -41.332  -4.766  1.00  0.00    -0.493 OA
ATOM     13  C   UNL     1      36.612 -41.453  -5.125  1.00  0.00     0.278 C 
ENDBRANCH   1  12
BRANCH   2  14
ATOM     14  O   UNL     1      32.483 -41.041  -4.342  1.00  0.00    -0.504 OA
ATOM     15  H   UNL     1      32.195 -40.393  -5.065  1.00  0.00     0.293 HD
ENDBRANCH   2  14
TORSDOF 2
ENDMDL
MODEL 9
REMARK VINA RESULT:    -2.759      1.374      5.385
REMARK INTER + INTRA:          -3.045
REMARK INTER:                  -2.981
REMARK INTRA:                  -0.065
REMARK UNBOUND:                -0.044
REMARK SMILES COc1cc2ccc(=O)oc2cc1O
REMARK SMILES IDX 3 1 13 2 12 3 11 4 5 5 4 6 6 7 7 8 8 9 9 10 10 11 2 12 1 13
REMARK SMILES IDX 14 14
REMARK H PARENT 14 15
REMARK Flexibility Score: inf
ROOT
ATOM      1  C   UNL     1      34.150 -37.432  10.238  1.00  0.00     0.161 A 
ATOM      2  C   UNL     1      34.380 -38.716   9.709  1.00  0.00     0.161 A 
ATOM      3  C   UNL     1      34.729 -39.776  10.554  1.00  0.00     0.098 A 
ATOM      4  C   UNL     1      34.852 -39.571  11.929  1.00  0.00     0.142 A 
ATOM      5  C   UNL     1      34.623 -38.289  12.470  1.00  0.00     0.022 A 
ATOM      6  C   UNL     1      34.274 -37.225  11.627  1.00  0.00     0.062 A 
ATOM      7  C   UNL     1      34.755 -38.116  13.852  1.00  0.00     0.019 A 
ATOM      8  C   UNL     1      35.104 -39.205  14.649  1.00  0.00     0.094 A 
ATOM      9  C   UNL     1      35.316 -40.448  14.043  1.00  0.00     0.336 A 
ATOM     10  O   UNL     1      35.631 -41.444  14.744  1.00  0.00    -0.246 OA
ATOM     11  O   UNL     1      35.184 -40.586  12.725  1.00  0.00    -0.423 OA
ENDROOT
BRANCH   1  12
ATOM     12  O   UNL     1      33.801 -36.391   9.362  1.00  0.00    -0.493 OA
ATOM     13  C   UNL     1      32.484 -35.875   9.203  1.00  0.00     0.278 C 
ENDBRANCH   1  12
BRANCH   2  14
ATOM     14  O   UNL     1      34.266 -38.960   8.340  1.00  0.00    -0.504 OA
ATOM     15  H   UNL     1      33.504 -39.501   7.949  1.00  0.00     0.293 HD
ENDBRANCH   2  14
TORSDOF 2
ENDMDL
