MODEL 1
REMARK VINA RESULT:    -4.261      0.000      0.000
REMARK INTER + INTRA:          -6.126
REMARK INTER:                  -5.507
REMARK INTRA:                  -0.620
REMARK UNBOUND:                -0.620
REMARK SMILES CCO[C@H]1O[C@H](CO)[C@H](O)[C@H](O)[C@H]1O
REMARK SMILES IDX 4 1 13 2 11 3 9 4 6 5 5 6 3 7 2 8 1 9 14 10 12 12 7 14 8 15
REMARK SMILES IDX 10 17
REMARK H PARENT 14 11 12 13 8 16 10 18
REMARK Flexibility Score: inf
ROOT
ATOM      1  C   UNL     1      18.833  25.932  45.558  1.00  0.00     0.281 C 
ATOM      2  C   UNL     1      17.967  26.131  44.280  1.00  0.00     0.202 C 
ATOM      3  C   UNL     1      17.531  27.627  44.120  1.00  0.00     0.179 C 
ATOM      4  C   UNL     1      17.615  28.345  45.518  1.00  0.00     0.177 C 
ATOM      5  C   UNL     1      17.373  27.380  46.763  1.00  0.00     0.178 C 
ATOM      6  O   UNL     1      17.948  26.057  46.668  1.00  0.00    -0.341 OA
ENDROOT
BRANCH   1   7
ATOM      7  O   UNL     1      19.905  26.847  45.773  1.00  0.00    -0.350 OA
BRANCH   7   8
ATOM      8  C   UNL     1      21.138  26.348  45.344  1.00  0.00     0.160 C 
ATOM      9  C   UNL     1      21.357  24.910  45.918  1.00  0.00     0.035 C 
ENDBRANCH   7   8
ENDBRANCH   1   7
BRANCH   2  10
ATOM     10  O   UNL     1      18.465  25.550  43.066  1.00  0.00    -0.385 OA
ATOM     11  H   UNL     1      19.175  26.176  42.759  1.00  0.00     0.211 HD
ENDBRANCH   2  10
BRANCH   3  12
ATOM     12  O   UNL     1      16.235  27.687  43.616  1.00  0.00    -0.387 OA
ATOM     13  H   UNL     1      15.977  28.655  43.483  1.00  0.00     0.211 HD
ENDBRANCH   3  12
BRANCH   5  14
ATOM     14  C   UNL     1      15.865  27.244  47.207  1.00  0.00     0.191 C 
BRANCH  14  15
ATOM     15  O   UNL     1      14.999  27.172  46.078  1.00  0.00    -0.394 OA
ATOM     16  H   UNL     1      14.070  27.034  46.435  1.00  0.00     0.210 HD
ENDBRANCH  14  15
ENDBRANCH   5  14
BRANCH   4  17
ATOM     17  O   UNL     1      16.899  29.575  45.607  1.00  0.00    -0.387 OA
ATOM     18  H   UNL     1      17.371  30.177  46.243  1.00  0.00     0.211 HD
ENDBRANCH   4  17
TORSDOF 7
ENDMDL
MODEL 2
REMARK VINA RESULT:    -4.189      1.639      2.424
REMARK INTER + INTRA:          -6.034
REMARK INTER:                  -5.383
REMARK INTRA:                  -0.651
REMARK UNBOUND:                -0.620
REMARK SMILES CCO[C@H]1O[C@H](CO)[C@H](O)[C@H](O)[C@H]1O
REMARK SMILES IDX 4 1 13 2 11 3 9 4 6 5 5 6 3 7 2 8 1 9 14 10 12 12 7 14 8 15
REMARK SMILES IDX 10 17
REMARK H PARENT 14 11 12 13 8 16 10 18
REMARK Flexibility Score: inf
ROOT
ATOM      1  C   UNL     1      18.986  27.452  45.678  1.00  0.00     0.281 C 
ATOM      2  C   UNL     1      17.827  26.533  46.162  1.00  0.00     0.202 C 
ATOM      3  C   UNL     1      16.571  26.674  45.238  1.00  0.00     0.179 C 
ATOM      4  C   UNL     1      16.643  28.044  44.467  1.00  0.00     0.177 C 
ATOM      5  C   UNL     1      17.417  29.195  45.253  1.00  0.00     0.178 C 
ATOM      6  O   UNL     1      18.596  28.787  45.983  1.00  0.00    -0.341 OA
ENDROOT
BRANCH   1   7
ATOM      7  O   UNL     1      19.313  27.419  44.290  1.00  0.00    -0.350 OA
BRANCH   7   8
ATOM      8  C   UNL     1      20.226  26.410  43.971  1.00  0.00     0.160 C 
ATOM      9  C   UNL     1      19.511  25.290  43.147  1.00  0.00     0.035 C 
ENDBRANCH   7   8
ENDBRANCH   1   7
BRANCH   2  10
ATOM     10  O   UNL     1      18.165  25.170  46.460  1.00  0.00    -0.385 OA
ATOM     11  H   UNL     1      18.046  24.686  45.599  1.00  0.00     0.211 HD
ENDBRANCH   2  10
BRANCH   3  12
ATOM     12  O   UNL     1      15.412  26.605  46.007  1.00  0.00    -0.387 OA
ATOM     13  H   UNL     1      15.247  25.643  46.270  1.00  0.00     0.211 HD
ENDBRANCH   3  12
BRANCH   5  14
ATOM     14  C   UNL     1      16.510  30.067  46.205  1.00  0.00     0.191 C 
BRANCH  14  15
ATOM     15  O   UNL     1      15.295  29.392  46.522  1.00  0.00    -0.394 OA
ATOM     16  H   UNL     1      15.551  28.553  47.013  1.00  0.00     0.210 HD
ENDBRANCH  14  15
ENDBRANCH   5  14
BRANCH   4  17
ATOM     17  O   UNL     1      15.411  28.478  43.896  1.00  0.00    -0.387 OA
ATOM     18  H   UNL     1      15.322  29.460  44.032  1.00  0.00     0.211 HD
ENDBRANCH   4  17
TORSDOF 7
ENDMDL
MODEL 3
REMARK VINA RESULT:    -4.048     11.759     13.446
REMARK INTER + INTRA:          -5.851
REMARK INTER:                  -5.451
REMARK INTRA:                  -0.399
REMARK UNBOUND:                -0.620
REMARK SMILES CCO[C@H]1O[C@H](CO)[C@H](O)[C@H](O)[C@H]1O
REMARK SMILES IDX 4 1 13 2 11 3 9 4 6 5 5 6 3 7 2 8 1 9 14 10 12 12 7 14 8 15
REMARK SMILES IDX 10 17
REMARK H PARENT 14 11 12 13 8 16 10 18
REMARK Flexibility Score: inf
ROOT
ATOM      1  C   UNL     1      21.686  26.889  31.397  1.00  0.00     0.281 C 
ATOM      2  C   UNL     1      20.648  25.763  31.672  1.00  0.00     0.202 C 
ATOM      3  C   UNL     1      19.604  26.208  32.751  1.00  0.00     0.179 C 
ATOM      4  C   UNL     1      20.208  27.384  33.605  1.00  0.00     0.177 C 
ATOM      5  C   UNL     1      21.797  27.348  33.733  1.00  0.00     0.178 C 
ATOM      6  O   UNL     1      22.524  26.955  32.546  1.00  0.00    -0.341 OA
ENDROOT
BRANCH   1   7
ATOM      7  O   UNL     1      21.183  28.204  31.170  1.00  0.00    -0.350 OA
BRANCH   7   8
ATOM      8  C   UNL     1      21.775  28.830  30.070  1.00  0.00     0.160 C 
ATOM      9  C   UNL     1      22.853  29.852  30.559  1.00  0.00     0.035 C 
ENDBRANCH   7   8
ENDBRANCH   1   7
BRANCH   2  10
ATOM     10  O   UNL     1      20.051  25.141  30.525  1.00  0.00    -0.385 OA
ATOM     11  H   UNL     1      19.318  25.757  30.255  1.00  0.00     0.211 HD
ENDBRANCH   2  10
BRANCH   3  12
ATOM     12  O   UNL     1      19.280  25.127  33.566  1.00  0.00    -0.387 OA
ATOM     13  H   UNL     1      20.016  24.435  33.504  1.00  0.00     0.211 HD
ENDBRANCH   3  12
BRANCH   5  14
ATOM     14  C   UNL     1      22.341  26.515  34.957  1.00  0.00     0.191 C 
BRANCH  14  15
ATOM     15  O   UNL     1      21.815  27.004  36.189  1.00  0.00    -0.394 OA
ATOM     16  H   UNL     1      22.308  26.526  36.922  1.00  0.00     0.210 HD
ENDBRANCH  14  15
ENDBRANCH   5  14
BRANCH   4  17
ATOM     17  O   UNL     1      19.546  27.630  34.844  1.00  0.00    -0.387 OA
ATOM     18  H   UNL     1      20.001  28.383  35.308  1.00  0.00     0.211 HD
ENDBRANCH   4  17
TORSDOF 7
ENDMDL
MODEL 4
REMARK VINA RESULT:    -4.000     11.724     13.411
REMARK INTER + INTRA:          -5.789
REMARK INTER:                  -5.268
REMARK INTRA:                  -0.521
REMARK UNBOUND:                -0.620
REMARK SMILES CCO[C@H]1O[C@H](CO)[C@H](O)[C@H](O)[C@H]1O
REMARK SMILES IDX 4 1 13 2 11 3 9 4 6 5 5 6 3 7 2 8 1 9 14 10 12 12 7 14 8 15
REMARK SMILES IDX 10 17
REMARK H PARENT 14 11 12 13 8 16 10 18
REMARK Flexibility Score: inf
ROOT
ATOM      1  C   UNL     1      21.082  27.903  31.550  1.00  0.00     0.281 C 
ATOM      2  C   UNL     1      19.962  28.342  32.537  1.00  0.00     0.202 C 
ATOM      3  C   UNL     1      20.342  27.992  34.015  1.00  0.00     0.179 C 
ATOM      4  C   UNL     1      21.430  26.854  34.017  1.00  0.00     0.177 C 
ATOM      5  C   UNL     1      21.346  25.870  32.765  1.00  0.00     0.178 C 
ATOM      6  O   UNL     1      21.034  26.481  31.493  1.00  0.00    -0.341 OA
ENDROOT
BRANCH   1   7
ATOM      7  O   UNL     1      22.422  28.263  31.876  1.00  0.00    -0.350 OA
BRANCH   7   8
ATOM      8  C   UNL     1      23.163  28.666  30.761  1.00  0.00     0.160 C 
ATOM      9  C   UNL     1      24.074  27.490  30.277  1.00  0.00     0.035 C 
ENDBRANCH   7   8
ENDBRANCH   1   7
BRANCH   2  10
ATOM     10  O   UNL     1      19.449  29.673  32.381  1.00  0.00    -0.385 OA
ATOM     11  H   UNL     1      18.794  29.781  33.122  1.00  0.00     0.211 HD
ENDBRANCH   2  10
BRANCH   3  12
ATOM     12  O   UNL     1      19.207  27.584  34.709  1.00  0.00    -0.387 OA
ATOM     13  H   UNL     1      19.135  26.577  34.662  1.00  0.00     0.211 HD
ENDBRANCH   3  12
BRANCH   5  14
ATOM     14  C   UNL     1      20.404  24.622  32.971  1.00  0.00     0.191 C 
BRANCH  14  15
ATOM     15  O   UNL     1      19.149  25.008  33.527  1.00  0.00    -0.394 OA
ATOM     16  H   UNL     1      18.561  24.194  33.504  1.00  0.00     0.210 HD
ENDBRANCH  14  15
ENDBRANCH   5  14
BRANCH   4  17
ATOM     17  O   UNL     1      21.590  26.176  35.261  1.00  0.00    -0.387 OA
ATOM     18  H   UNL     1      22.303  26.630  35.785  1.00  0.00     0.211 HD
ENDBRANCH   4  17
TORSDOF 7
ENDMDL
MODEL 5
REMARK VINA RESULT:    -3.950     12.356     14.228
REMARK INTER + INTRA:          -5.724
REMARK INTER:                  -5.068
REMARK INTRA:                  -0.656
REMARK UNBOUND:                -0.620
REMARK SMILES CCO[C@H]1O[C@H](CO)[C@H](O)[C@H](O)[C@H]1O
REMARK SMILES IDX 4 1 13 2 11 3 9 4 6 5 5 6 3 7 2 8 1 9 14 10 12 12 7 14 8 15
REMARK SMILES IDX 10 17
REMARK H PARENT 14 11 12 13 8 16 10 18
REMARK Flexibility Score: inf
ROOT
ATOM      1  C   UNL     1      19.179  26.980  31.437  1.00  0.00     0.281 C 
ATOM      2  C   UNL     1      19.060  26.362  32.860  1.00  0.00     0.202 C 
ATOM      3  C   UNL     1      19.816  24.993  32.946  1.00  0.00     0.179 C 
ATOM      4  C   UNL     1      19.989  24.401  31.498  1.00  0.00     0.177 C 
ATOM      5  C   UNL     1      18.837  24.824  30.480  1.00  0.00     0.178 C 
ATOM      6  O   UNL     1      18.362  26.186  30.583  1.00  0.00    -0.341 OA
ENDROOT
BRANCH   1   7
ATOM      7  O   UNL     1      20.477  27.027  30.848  1.00  0.00    -0.350 OA
BRANCH   7   8
ATOM      8  C   UNL     1      21.183  28.186  31.182  1.00  0.00     0.160 C 
ATOM      9  C   UNL     1      22.370  27.828  32.135  1.00  0.00     0.035 C 
ENDBRANCH   7   8
ENDBRANCH   1   7
BRANCH   2  10
ATOM     10  O   UNL     1      19.332  27.233  33.967  1.00  0.00    -0.385 OA
ATOM     11  H   UNL     1      20.274  27.035  34.220  1.00  0.00     0.211 HD
ENDBRANCH   2  10
BRANCH   3  12
ATOM     12  O   UNL     1      19.102  24.112  33.753  1.00  0.00    -0.387 OA
ATOM     13  H   UNL     1      18.350  23.705  33.213  1.00  0.00     0.211 HD
ENDBRANCH   3  12
BRANCH   5  14
ATOM     14  C   UNL     1      17.593  23.856  30.454  1.00  0.00     0.191 C 
BRANCH  14  15
ATOM     15  O   UNL     1      17.550  23.038  31.621  1.00  0.00    -0.394 OA
ATOM     16  H   UNL     1      16.592  23.018  31.924  1.00  0.00     0.210 HD
ENDBRANCH  14  15
ENDBRANCH   5  14
BRANCH   4  17
ATOM     17  O   UNL     1      20.306  23.013  31.449  1.00  0.00    -0.387 OA
ATOM     18  H   UNL     1      19.706  22.523  32.073  1.00  0.00     0.211 HD
ENDBRANCH   4  17
TORSDOF 7
ENDMDL
MODEL 6
REMARK VINA RESULT:    -3.812     11.589     13.222
REMARK INTER + INTRA:          -5.546
REMARK INTER:                  -4.988
REMARK INTRA:                  -0.558
REMARK UNBOUND:                -0.620
REMARK SMILES CCO[C@H]1O[C@H](CO)[C@H](O)[C@H](O)[C@H]1O
REMARK SMILES IDX 4 1 13 2 11 3 9 4 6 5 5 6 3 7 2 8 1 9 14 10 12 12 7 14 8 15
REMARK SMILES IDX 10 17
REMARK H PARENT 14 11 12 13 8 16 10 18
REMARK Flexibility Score: inf
ROOT
ATOM      1  C   UNL     1      21.708  25.767  33.221  1.00  0.00     0.281 C 
ATOM      2  C   UNL     1      21.779  26.521  31.860  1.00  0.00     0.202 C 
ATOM      3  C   UNL     1      20.507  27.407  31.639  1.00  0.00     0.179 C 
ATOM      4  C   UNL     1      19.335  26.872  32.543  1.00  0.00     0.177 C 
ATOM      5  C   UNL     1      19.401  25.306  32.836  1.00  0.00     0.178 C 
ATOM      6  O   UNL     1      20.717  24.755  33.070  1.00  0.00    -0.341 OA
ENDROOT
BRANCH   1   7
ATOM      7  O   UNL     1      21.356  26.528  34.374  1.00  0.00    -0.350 OA
BRANCH   7   8
ATOM      8  C   UNL     1      22.469  27.027  35.056  1.00  0.00     0.160 C 
ATOM      9  C   UNL     1      22.016  27.685  36.400  1.00  0.00     0.035 C 
ENDBRANCH   7   8
ENDBRANCH   1   7
BRANCH   2  10
ATOM     10  O   UNL     1      23.006  27.201  31.562  1.00  0.00    -0.385 OA
ATOM     11  H   UNL     1      22.829  28.154  31.787  1.00  0.00     0.211 HD
ENDBRANCH   2  10
BRANCH   3  12
ATOM     12  O   UNL     1      20.142  27.377  30.296  1.00  0.00    -0.387 OA
ATOM     13  H   UNL     1      19.148  27.208  30.227  1.00  0.00     0.211 HD
ENDBRANCH   3  12
BRANCH   5  14
ATOM     14  C   UNL     1      18.657  24.406  31.776  1.00  0.00     0.191 C 
BRANCH  14  15
ATOM     15  O   UNL     1      18.340  25.147  30.600  1.00  0.00    -0.394 OA
ATOM     16  H   UNL     1      19.214  25.385  30.165  1.00  0.00     0.210 HD
ENDBRANCH  14  15
ENDBRANCH   5  14
BRANCH   4  17
ATOM     17  O   UNL     1      18.035  27.325  32.173  1.00  0.00    -0.387 OA
ATOM     18  H   UNL     1      18.125  28.143  31.614  1.00  0.00     0.211 HD
ENDBRANCH   4  17
TORSDOF 7
ENDMDL
MODEL 7
REMARK VINA RESULT:    -3.765      2.202      3.869
REMARK INTER + INTRA:          -5.485
REMARK INTER:                  -4.874
REMARK INTRA:                  -0.611
REMARK UNBOUND:                -0.620
REMARK SMILES CCO[C@H]1O[C@H](CO)[C@H](O)[C@H](O)[C@H]1O
REMARK SMILES IDX 4 1 13 2 11 3 9 4 6 5 5 6 3 7 2 8 1 9 14 10 12 12 7 14 8 15
REMARK SMILES IDX 10 17
REMARK H PARENT 14 11 12 13 8 16 10 18
REMARK Flexibility Score: inf
ROOT
ATOM      1  C   UNL     1      20.022  28.633  45.421  1.00  0.00     0.281 C 
ATOM      2  C   UNL     1      20.891  27.342  45.467  1.00  0.00     0.202 C 
ATOM      3  C   UNL     1      20.449  26.324  44.362  1.00  0.00     0.179 C 
ATOM      4  C   UNL     1      18.974  26.645  43.919  1.00  0.00     0.177 C 
ATOM      5  C   UNL     1      18.078  27.303  45.062  1.00  0.00     0.178 C 
ATOM      6  O   UNL     1      18.735  28.270  45.911  1.00  0.00    -0.341 OA
ENDROOT
BRANCH   1   7
ATOM      7  O   UNL     1      19.828  29.247  44.149  1.00  0.00    -0.350 OA
BRANCH   7   8
ATOM      8  C   UNL     1      19.889  30.642  44.204  1.00  0.00     0.160 C 
ATOM      9  C   UNL     1      20.968  31.084  45.246  1.00  0.00     0.035 C 
ENDBRANCH   7   8
ENDBRANCH   1   7
BRANCH   2  10
ATOM     10  O   UNL     1      22.312  27.522  45.540  1.00  0.00    -0.385 OA
ATOM     11  H   UNL     1      22.692  26.752  45.037  1.00  0.00     0.211 HD
ENDBRANCH   2  10
BRANCH   3  12
ATOM     12  O   UNL     1      20.541  25.026  44.856  1.00  0.00    -0.387 OA
ATOM     13  H   UNL     1      21.354  24.955  45.452  1.00  0.00     0.211 HD
ENDBRANCH   3  12
BRANCH   5  14
ATOM     14  C   UNL     1      17.311  26.269  45.974  1.00  0.00     0.191 C 
BRANCH  14  15
ATOM     15  O   UNL     1      18.083  25.088  46.179  1.00  0.00    -0.394 OA
ATOM     16  H   UNL     1      17.612  24.555  46.888  1.00  0.00     0.210 HD
ENDBRANCH  14  15
ENDBRANCH   5  14
BRANCH   4  17
ATOM     17  O   UNL     1      18.314  25.594  43.217  1.00  0.00    -0.387 OA
ATOM     18  H   UNL     1      17.758  25.989  42.493  1.00  0.00     0.211 HD
ENDBRANCH   4  17
TORSDOF 7
ENDMDL
MODEL 8
REMARK VINA RESULT:    -3.735      2.167      3.983
REMARK INTER + INTRA:          -5.446
REMARK INTER:                  -4.903
REMARK INTRA:                  -0.543
REMARK UNBOUND:                -0.620
REMARK SMILES CCO[C@H]1O[C@H](CO)[C@H](O)[C@H](O)[C@H]1O
REMARK SMILES IDX 4 1 13 2 11 3 9 4 6 5 5 6 3 7 2 8 1 9 14 10 12 12 7 14 8 15
REMARK SMILES IDX 10 17
REMARK H PARENT 14 11 12 13 8 16 10 18
REMARK Flexibility Score: inf
ROOT
ATOM      1  C   UNL     1      19.913  28.873  44.447  1.00  0.00     0.281 C 
ATOM      2  C   UNL     1      18.441  28.601  44.875  1.00  0.00     0.202 C 
ATOM      3  C   UNL     1      18.349  27.351  45.813  1.00  0.00     0.179 C 
ATOM      4  C   UNL     1      19.622  26.449  45.607  1.00  0.00     0.177 C 
ATOM      5  C   UNL     1      20.250  26.533  44.144  1.00  0.00     0.178 C 
ATOM      6  O   UNL     1      20.263  27.842  43.529  1.00  0.00    -0.341 OA
ENDROOT
BRANCH   1   7
ATOM      7  O   UNL     1      20.905  28.876  45.471  1.00  0.00    -0.350 OA
BRANCH   7   8
ATOM      8  C   UNL     1      21.577  30.097  45.573  1.00  0.00     0.160 C 
ATOM      9  C   UNL     1      23.074  29.849  45.951  1.00  0.00     0.035 C 
ENDBRANCH   7   8
ENDBRANCH   1   7
BRANCH   2  10
ATOM     10  O   UNL     1      17.688  29.726  45.349  1.00  0.00    -0.385 OA
ATOM     11  H   UNL     1      18.160  30.017  46.175  1.00  0.00     0.211 HD
ENDBRANCH   2  10
BRANCH   3  12
ATOM     12  O   UNL     1      17.190  26.635  45.528  1.00  0.00    -0.387 OA
ATOM     13  H   UNL     1      16.544  26.729  46.300  1.00  0.00     0.211 HD
ENDBRANCH   3  12
BRANCH   5  14
ATOM     14  C   UNL     1      19.659  25.497  43.113  1.00  0.00     0.191 C 
BRANCH  14  15
ATOM     15  O   UNL     1      18.306  25.173  43.423  1.00  0.00    -0.394 OA
ATOM     16  H   UNL     1      18.333  24.526  44.191  1.00  0.00     0.210 HD
ENDBRANCH  14  15
ENDBRANCH   5  14
BRANCH   4  17
ATOM     17  O   UNL     1      19.500  25.115  46.095  1.00  0.00    -0.387 OA
ATOM     18  H   UNL     1      18.865  24.617  45.514  1.00  0.00     0.211 HD
ENDBRANCH   4  17
TORSDOF 7
ENDMDL
MODEL 9
REMARK VINA RESULT:    -3.731     12.323     14.271
REMARK INTER + INTRA:          -5.441
REMARK INTER:                  -4.799
REMARK INTRA:                  -0.642
REMARK UNBOUND:                -0.620
REMARK SMILES CCO[C@H]1O[C@H](CO)[C@H](O)[C@H](O)[C@H]1O
REMARK SMILES IDX 4 1 13 2 11 3 9 4 6 5 5 6 3 7 2 8 1 9 14 10 12 12 7 14 8 15
REMARK SMILES IDX 10 17
REMARK H PARENT 14 11 12 13 8 16 10 18
REMARK Flexibility Score: inf
ROOT
ATOM      1  C   UNL     1      19.815  25.037  31.227  1.00  0.00     0.281 C 
ATOM      2  C   UNL     1      19.901  25.146  32.777  1.00  0.00     0.202 C 
ATOM      3  C   UNL     1      19.789  26.636  33.245  1.00  0.00     0.179 C 
ATOM      4  C   UNL     1      20.168  27.587  32.050  1.00  0.00     0.177 C 
ATOM      5  C   UNL     1      21.211  26.957  31.021  1.00  0.00     0.178 C 
ATOM      6  O   UNL     1      21.040  25.555  30.718  1.00  0.00    -0.341 OA
ENDROOT
BRANCH   1   7
ATOM      7  O   UNL     1      18.761  25.743  30.577  1.00  0.00    -0.350 OA
BRANCH   7   8
ATOM      8  C   UNL     1      17.702  24.911  30.200  1.00  0.00     0.160 C 
ATOM      9  C   UNL     1      18.230  23.461  29.952  1.00  0.00     0.035 C 
ENDBRANCH   7   8
ENDBRANCH   1   7
BRANCH   2  10
ATOM     10  O   UNL     1      19.078  24.247  33.534  1.00  0.00    -0.385 OA
ATOM     11  H   UNL     1      18.150  24.436  33.230  1.00  0.00     0.211 HD
ENDBRANCH   2  10
BRANCH   3  12
ATOM     12  O   UNL     1      20.634  26.852  34.330  1.00  0.00    -0.387 OA
ATOM     13  H   UNL     1      20.262  26.373  35.139  1.00  0.00     0.211 HD
ENDBRANCH   3  12
BRANCH   5  14
ATOM     14  C   UNL     1      22.726  27.217  31.377  1.00  0.00     0.191 C 
BRANCH  14  15
ATOM     15  O   UNL     1      22.880  27.572  32.749  1.00  0.00    -0.394 OA
ATOM     16  H   UNL     1      21.979  27.876  33.072  1.00  0.00     0.210 HD
ENDBRANCH  14  15
ENDBRANCH   5  14
BRANCH   4  17
ATOM     17  O   UNL     1      20.480  28.927  32.423  1.00  0.00    -0.387 OA
ATOM     18  H   UNL     1      21.013  29.348  31.696  1.00  0.00     0.211 HD
ENDBRANCH   4  17
TORSDOF 7
ENDMDL
