MODEL 1
REMARK VINA RESULT:    -3.725      0.000      0.000
REMARK INTER + INTRA:          -4.318
REMARK INTER:                  -4.269
REMARK INTRA:                  -0.049
REMARK UNBOUND:                -0.049
REMARK SMILES O=C([O-])c1cc(O)c(O)c(O)c1
REMARK SMILES IDX 4 1 5 2 12 3 6 4 10 5 8 6 2 7 1 8 3 9 7 10 11 12 9 14
REMARK H PARENT 7 11 11 13 9 15
REMARK Flexibility Score: inf
ROOT
ATOM      1  C   UNL     1       4.087   2.581 -18.305  1.00  0.00     0.005 A 
ATOM      2  C   UNL     1       3.827   1.423 -17.559  1.00  0.00     0.060 A 
ATOM      3  C   UNL     1       5.145   3.418 -17.916  1.00  0.00     0.060 A 
ATOM      4  C   UNL     1       4.606   1.101 -16.444  1.00  0.00     0.162 A 
ATOM      5  C   UNL     1       5.935   3.111 -16.802  1.00  0.00     0.162 A 
ATOM      6  C   UNL     1       5.666   1.940 -16.054  1.00  0.00     0.200 A 
ENDROOT
BRANCH   1   7
ATOM      7  C   UNL     1       3.256   2.913 -19.485  1.00  0.00     0.072 C 
ATOM      8  O   UNL     1       2.884   4.098 -19.694  1.00  0.00    -0.545 OA
ATOM      9  O   UNL     1       2.875   1.919 -20.379  1.00  0.00    -0.545 OA
ENDBRANCH   1   7
BRANCH   4  10
ATOM     10  O   UNL     1       4.309  -0.062 -15.732  1.00  0.00    -0.504 OA
ATOM     11  H   UNL     1       4.529  -0.166 -14.749  1.00  0.00     0.293 HD
ENDBRANCH   4  10
BRANCH   5  12
ATOM     12  O   UNL     1       6.969   3.993 -16.479  1.00  0.00    -0.504 OA
ATOM     13  H   UNL     1       7.415   4.611 -17.141  1.00  0.00     0.293 HD
ENDBRANCH   5  12
BRANCH   6  14
ATOM     14  O   UNL     1       6.420   1.582 -14.934  1.00  0.00    -0.502 OA
ATOM     15  H   UNL     1       6.025   1.249 -14.066  1.00  0.00     0.293 HD
ENDBRANCH   6  14
TORSDOF 4
ENDMDL
MODEL 2
REMARK VINA RESULT:    -3.580      1.362      4.542
REMARK INTER + INTRA:          -4.152
REMARK INTER:                  -4.105
REMARK INTRA:                  -0.047
REMARK UNBOUND:                -0.049
REMARK SMILES O=C([O-])c1cc(O)c(O)c(O)c1
REMARK SMILES IDX 4 1 5 2 12 3 6 4 10 5 8 6 2 7 1 8 3 9 7 10 11 12 9 14
REMARK H PARENT 7 11 11 13 9 15
REMARK Flexibility Score: inf
ROOT
ATOM      1  C   UNL     1       4.918   2.985 -16.319  1.00  0.00     0.005 A 
ATOM      2  C   UNL     1       4.814   3.548 -17.599  1.00  0.00     0.060 A 
ATOM      3  C   UNL     1       4.333   1.732 -16.077  1.00  0.00     0.060 A 
ATOM      4  C   UNL     1       4.138   2.877 -18.621  1.00  0.00     0.162 A 
ATOM      5  C   UNL     1       3.652   1.046 -17.089  1.00  0.00     0.162 A 
ATOM      6  C   UNL     1       3.549   1.623 -18.378  1.00  0.00     0.200 A 
ENDROOT
BRANCH   1   7
ATOM      7  C   UNL     1       5.638   3.703 -15.243  1.00  0.00     0.072 C 
ATOM      8  O   UNL     1       6.831   4.072 -15.404  1.00  0.00    -0.545 OA
ATOM      9  O   UNL     1       5.004   3.981 -14.036  1.00  0.00    -0.545 OA
ENDBRANCH   1   7
BRANCH   4  10
ATOM     10  O   UNL     1       4.058   3.478 -19.878  1.00  0.00    -0.504 OA
ATOM     11  H   UNL     1       3.767   4.441 -20.002  1.00  0.00     0.293 HD
ENDBRANCH   4  10
BRANCH   5  12
ATOM     12  O   UNL     1       3.096  -0.195 -16.770  1.00  0.00    -0.504 OA
ATOM     13  H   UNL     1       2.996  -0.546 -15.830  1.00  0.00     0.293 HD
ENDBRANCH   5  12
BRANCH   6  14
ATOM     14  O   UNL     1       2.883   0.986 -19.429  1.00  0.00    -0.502 OA
ATOM     15  H   UNL     1       2.067   0.404 -19.313  1.00  0.00     0.293 HD
ENDBRANCH   6  14
TORSDOF 4
ENDMDL
MODEL 3
REMARK VINA RESULT:    -3.514      1.585      4.778
REMARK INTER + INTRA:          -4.076
REMARK INTER:                  -4.028
REMARK INTRA:                  -0.048
REMARK UNBOUND:                -0.049
REMARK SMILES O=C([O-])c1cc(O)c(O)c(O)c1
REMARK SMILES IDX 4 1 5 2 12 3 6 4 10 5 8 6 2 7 1 8 3 9 7 10 11 12 9 14
REMARK H PARENT 7 11 11 13 9 15
REMARK Flexibility Score: inf
ROOT
ATOM      1  C   UNL     1       4.035   1.823 -16.733  1.00  0.00     0.005 A 
ATOM      2  C   UNL     1       4.031   2.974 -17.534  1.00  0.00     0.060 A 
ATOM      3  C   UNL     1       3.645   0.599 -17.299  1.00  0.00     0.060 A 
ATOM      4  C   UNL     1       3.646   2.910 -18.875  1.00  0.00     0.162 A 
ATOM      5  C   UNL     1       3.255   0.516 -18.641  1.00  0.00     0.162 A 
ATOM      6  C   UNL     1       3.253   1.684 -19.442  1.00  0.00     0.200 A 
ENDROOT
BRANCH   1   7
ATOM      7  C   UNL     1       4.446   1.901 -15.313  1.00  0.00     0.072 C 
ATOM      8  O   UNL     1       3.980   2.796 -14.559  1.00  0.00    -0.545 OA
ATOM      9  O   UNL     1       5.354   0.986 -14.791  1.00  0.00    -0.545 OA
ENDBRANCH   1   7
BRANCH   4  10
ATOM     10  O   UNL     1       3.657   4.082 -19.632  1.00  0.00    -0.504 OA
ATOM     11  H   UNL     1       3.481   4.084 -20.630  1.00  0.00     0.293 HD
ENDBRANCH   4  10
BRANCH   5  12
ATOM     12  O   UNL     1       2.880  -0.737 -19.131  1.00  0.00    -0.504 OA
ATOM     13  H   UNL     1       3.004  -1.031 -20.088  1.00  0.00     0.293 HD
ENDBRANCH   5  12
BRANCH   6  14
ATOM     14  O   UNL     1       2.875   1.664 -20.787  1.00  0.00    -0.502 OA
ATOM     15  H   UNL     1       2.006   1.280 -21.127  1.00  0.00     0.293 HD
ENDBRANCH   6  14
TORSDOF 4
ENDMDL
MODEL 4
REMARK VINA RESULT:    -3.510      1.926      2.112
REMARK INTER + INTRA:          -4.072
REMARK INTER:                  -4.027
REMARK INTRA:                  -0.045
REMARK UNBOUND:                -0.049
REMARK SMILES O=C([O-])c1cc(O)c(O)c(O)c1
REMARK SMILES IDX 4 1 5 2 12 3 6 4 10 5 8 6 2 7 1 8 3 9 7 10 11 12 9 14
REMARK H PARENT 7 11 11 13 9 15
REMARK Flexibility Score: inf
ROOT
ATOM      1  C   UNL     1       3.867   2.576 -17.583  1.00  0.00     0.005 A 
ATOM      2  C   UNL     1       3.106   2.699 -16.412  1.00  0.00     0.060 A 
ATOM      3  C   UNL     1       5.213   2.976 -17.566  1.00  0.00     0.060 A 
ATOM      4  C   UNL     1       3.673   3.213 -15.242  1.00  0.00     0.162 A 
ATOM      5  C   UNL     1       5.797   3.494 -16.403  1.00  0.00     0.162 A 
ATOM      6  C   UNL     1       5.021   3.616 -15.226  1.00  0.00     0.200 A 
ENDROOT
BRANCH   1   7
ATOM      7  C   UNL     1       3.258   2.029 -18.817  1.00  0.00     0.072 C 
ATOM      8  O   UNL     1       3.072   0.790 -18.945  1.00  0.00    -0.545 OA
ATOM      9  O   UNL     1       2.882   2.878 -19.852  1.00  0.00    -0.545 OA
ENDBRANCH   1   7
BRANCH   4  10
ATOM     10  O   UNL     1       2.876   3.318 -14.102  1.00  0.00    -0.504 OA
ATOM     11  H   UNL     1       2.567   4.211 -13.737  1.00  0.00     0.293 HD
ENDBRANCH   4  10
BRANCH   5  12
ATOM     12  O   UNL     1       7.140   3.871 -16.466  1.00  0.00    -0.504 OA
ATOM     13  H   UNL     1       7.478   4.800 -16.263  1.00  0.00     0.293 HD
ENDBRANCH   5  12
BRANCH   6  14
ATOM     14  O   UNL     1       5.548   4.124 -14.035  1.00  0.00    -0.502 OA
ATOM     15  H   UNL     1       5.856   5.078 -13.912  1.00  0.00     0.293 HD
ENDBRANCH   6  14
TORSDOF 4
ENDMDL
MODEL 5
REMARK VINA RESULT:    -2.844      1.964      2.718
REMARK INTER + INTRA:          -3.309
REMARK INTER:                  -3.264
REMARK INTRA:                  -0.045
REMARK UNBOUND:                -0.049
REMARK SMILES O=C([O-])c1cc(O)c(O)c(O)c1
REMARK SMILES IDX 4 1 5 2 12 3 6 4 10 5 8 6 2 7 1 8 3 9 7 10 11 12 9 14
REMARK H PARENT 7 11 11 13 9 15
REMARK Flexibility Score: inf
ROOT
ATOM      1  C   UNL     1       3.839   1.706 -17.300  1.00  0.00     0.005 A 
ATOM      2  C   UNL     1       5.235   1.838 -17.264  1.00  0.00     0.060 A 
ATOM      3  C   UNL     1       3.082   2.185 -16.219  1.00  0.00     0.060 A 
ATOM      4  C   UNL     1       5.868   2.437 -16.172  1.00  0.00     0.162 A 
ATOM      5  C   UNL     1       3.700   2.787 -15.117  1.00  0.00     0.162 A 
ATOM      6  C   UNL     1       5.109   2.916 -15.088  1.00  0.00     0.200 A 
ENDROOT
BRANCH   1   7
ATOM      7  C   UNL     1       3.178   1.071 -18.462  1.00  0.00     0.072 C 
ATOM      8  O   UNL     1       2.876   1.751 -19.479  1.00  0.00    -0.545 OA
ATOM      9  O   UNL     1       2.881  -0.288 -18.448  1.00  0.00    -0.545 OA
ENDBRANCH   1   7
BRANCH   4  10
ATOM     10  O   UNL     1       7.259   2.546 -16.181  1.00  0.00    -0.504 OA
ATOM     11  H   UNL     1       7.858   1.807 -16.529  1.00  0.00     0.293 HD
ENDBRANCH   4  10
BRANCH   5  12
ATOM     12  O   UNL     1       2.879   3.238 -14.081  1.00  0.00    -0.504 OA
ATOM     13  H   UNL     1       3.212   3.490 -13.162  1.00  0.00     0.293 HD
ENDBRANCH   5  12
BRANCH   6  14
ATOM     14  O   UNL     1       5.782   3.508 -14.016  1.00  0.00    -0.502 OA
ATOM     15  H   UNL     1       5.972   3.045 -13.140  1.00  0.00     0.293 HD
ENDBRANCH   6  14
TORSDOF 4
ENDMDL
MODEL 6
REMARK VINA RESULT:    -2.749      2.344      4.134
REMARK INTER + INTRA:          -3.200
REMARK INTER:                  -3.147
REMARK INTRA:                  -0.053
REMARK UNBOUND:                -0.049
REMARK SMILES O=C([O-])c1cc(O)c(O)c(O)c1
REMARK SMILES IDX 4 1 5 2 12 3 6 4 10 5 8 6 2 7 1 8 3 9 7 10 11 12 9 14
REMARK H PARENT 7 11 11 13 9 15
REMARK Flexibility Score: inf
ROOT
ATOM      1  C   UNL     1       3.005   0.462 -20.052  1.00  0.00     0.005 A 
ATOM      2  C   UNL     1       2.934   1.844 -20.282  1.00  0.00     0.060 A 
ATOM      3  C   UNL     1       3.135  -0.003 -18.734  1.00  0.00     0.060 A 
ATOM      4  C   UNL     1       2.993   2.748 -19.218  1.00  0.00     0.162 A 
ATOM      5  C   UNL     1       3.196   0.889 -17.657  1.00  0.00     0.162 A 
ATOM      6  C   UNL     1       3.125   2.282 -17.898  1.00  0.00     0.200 A 
ENDROOT
BRANCH   1   7
ATOM      7  C   UNL     1       2.941  -0.489 -21.185  1.00  0.00     0.072 C 
ATOM      8  O   UNL     1       2.944  -1.731 -20.981  1.00  0.00    -0.545 OA
ATOM      9  O   UNL     1       2.875  -0.021 -22.494  1.00  0.00    -0.545 OA
ENDBRANCH   1   7
BRANCH   4  10
ATOM     10  O   UNL     1       2.920   4.114 -19.496  1.00  0.00    -0.504 OA
ATOM     11  H   UNL     1       2.607   4.469 -20.392  1.00  0.00     0.293 HD
ENDBRANCH   4  10
BRANCH   5  12
ATOM     12  O   UNL     1       3.327   0.349 -16.375  1.00  0.00    -0.504 OA
ATOM     13  H   UNL     1       2.636  -0.240 -15.935  1.00  0.00     0.293 HD
ENDBRANCH   5  12
BRANCH   6  14
ATOM     14  O   UNL     1       3.180   3.221 -16.864  1.00  0.00    -0.502 OA
ATOM     15  H   UNL     1       3.155   2.987 -15.883  1.00  0.00     0.293 HD
ENDBRANCH   6  14
TORSDOF 4
ENDMDL
MODEL 7
REMARK VINA RESULT:    -2.502      1.780      3.094
REMARK INTER + INTRA:          -2.917
REMARK INTER:                  -2.864
REMARK INTRA:                  -0.053
REMARK UNBOUND:                -0.049
REMARK SMILES O=C([O-])c1cc(O)c(O)c(O)c1
REMARK SMILES IDX 4 1 5 2 12 3 6 4 10 5 8 6 2 7 1 8 3 9 7 10 11 12 9 14
REMARK H PARENT 7 11 11 13 9 15
REMARK Flexibility Score: inf
ROOT
ATOM      1  C   UNL     1       3.488   0.741 -18.680  1.00  0.00     0.005 A 
ATOM      2  C   UNL     1       3.507   2.136 -18.542  1.00  0.00     0.060 A 
ATOM      3  C   UNL     1       3.872  -0.056 -17.590  1.00  0.00     0.060 A 
ATOM      4  C   UNL     1       3.902   2.730 -17.341  1.00  0.00     0.162 A 
ATOM      5  C   UNL     1       4.271   0.522 -16.379  1.00  0.00     0.162 A 
ATOM      6  C   UNL     1       4.289   1.931 -16.249  1.00  0.00     0.200 A 
ENDROOT
BRANCH   1   7
ATOM      7  C   UNL     1       3.067   0.121 -19.957  1.00  0.00     0.072 C 
ATOM      8  O   UNL     1       2.877   0.829 -20.982  1.00  0.00    -0.545 OA
ATOM      9  O   UNL     1       2.875  -1.253 -20.044  1.00  0.00    -0.545 OA
ENDBRANCH   1   7
BRANCH   4  10
ATOM     10  O   UNL     1       3.906   4.122 -17.251  1.00  0.00    -0.504 OA
ATOM     11  H   UNL     1       3.099   4.683 -17.495  1.00  0.00     0.293 HD
ENDBRANCH   4  10
BRANCH   5  12
ATOM     12  O   UNL     1       4.640  -0.338 -15.342  1.00  0.00    -0.504 OA
ATOM     13  H   UNL     1       4.217  -0.334 -14.426  1.00  0.00     0.293 HD
ENDBRANCH   5  12
BRANCH   6  14
ATOM     14  O   UNL     1       4.677   2.565 -15.066  1.00  0.00    -0.502 OA
ATOM     15  H   UNL     1       4.149   3.298 -14.615  1.00  0.00     0.293 HD
ENDBRANCH   6  14
TORSDOF 4
ENDMDL
MODEL 8
REMARK VINA RESULT:    -1.632      1.544      4.164
REMARK INTER + INTRA:          -1.919
REMARK INTER:                  -1.872
REMARK INTRA:                  -0.047
REMARK UNBOUND:                -0.049
REMARK SMILES O=C([O-])c1cc(O)c(O)c(O)c1
REMARK SMILES IDX 4 1 5 2 12 3 6 4 10 5 8 6 2 7 1 8 3 9 7 10 11 12 9 14
REMARK H PARENT 7 11 11 13 9 15
REMARK Flexibility Score: inf
ROOT
ATOM      1  C   UNL     1       4.034   1.890 -16.836  1.00  0.00     0.005 A 
ATOM      2  C   UNL     1       3.653   0.646 -17.358  1.00  0.00     0.060 A 
ATOM      3  C   UNL     1       4.026   3.013 -17.678  1.00  0.00     0.060 A 
ATOM      4  C   UNL     1       3.270   0.520 -18.695  1.00  0.00     0.162 A 
ATOM      5  C   UNL     1       3.647   2.905 -19.021  1.00  0.00     0.162 A 
ATOM      6  C   UNL     1       3.264   1.645 -19.540  1.00  0.00     0.200 A 
ENDROOT
BRANCH   1   7
ATOM      7  C   UNL     1       4.437   2.014 -15.416  1.00  0.00     0.072 C 
ATOM      8  O   UNL     1       3.846   2.821 -14.650  1.00  0.00    -0.545 OA
ATOM      9  O   UNL     1       5.475   1.240 -14.909  1.00  0.00    -0.545 OA
ENDBRANCH   1   7
BRANCH   4  10
ATOM     10  O   UNL     1       2.900  -0.739 -19.170  1.00  0.00    -0.504 OA
ATOM     11  H   UNL     1       1.969  -1.115 -19.039  1.00  0.00     0.293 HD
ENDBRANCH   4  10
BRANCH   5  12
ATOM     12  O   UNL     1       3.665   4.067 -19.795  1.00  0.00    -0.504 OA
ATOM     13  H   UNL     1       4.190   4.170 -20.651  1.00  0.00     0.293 HD
ENDBRANCH   5  12
BRANCH   6  14
ATOM     14  O   UNL     1       2.875   1.474 -20.872  1.00  0.00    -0.502 OA
ATOM     15  H   UNL     1       3.505   1.229 -21.620  1.00  0.00     0.293 HD
ENDBRANCH   6  14
TORSDOF 4
ENDMDL
