MODEL 1
REMARK VINA RESULT:    -6.902      0.000      0.000
REMARK INTER + INTRA:         -12.132
REMARK INTER:                 -10.130
REMARK INTRA:                  -2.002
REMARK UNBOUND:                -2.002
REMARK SMILES O=c1c(O[C@@H]2O[C@H](CO)[C@H](O)[C@H](O)[C@@H]2O)c(-c2ccc(O)c(O)c2)oc2cc(O)cc(O)c12
REMARK SMILES IDX 4 1 3 2 16 3 25 4 2 5 26 6 1 7 33 8 27 9 31 10 28 11 30 12
REMARK SMILES IDX 17 13 18 14 19 15 20 16 24 17 22 18 21 19 23 21 32 23 29 25
REMARK SMILES IDX 5 27 14 28 6 29 12 30 7 31 10 32 15 33 13 35 8 37 9 38 11 40
REMARK H PARENT 21 20 23 22 32 24 29 26 15 34 13 36 9 39 11 41
REMARK Flexibility Score: inf
ROOT
ATOM      1  O   UNL     1     -37.406   4.434  81.908  1.00  0.00    -0.454 OA
ENDROOT
BRANCH   1   2
ATOM      2  C   UNL     1     -36.666   4.743  80.722  1.00  0.00     0.214 A 
ATOM      3  C   UNL     1     -37.472   5.222  79.622  1.00  0.00     0.180 A 
ATOM      4  O   UNL     1     -37.226   6.402  79.103  1.00  0.00    -0.452 OA
ATOM      5  C   UNL     1     -35.255   5.015  80.531  1.00  0.00     0.239 A 
ATOM      6  C   UNL     1     -35.992   6.902  79.259  1.00  0.00     0.146 A 
ATOM      7  O   UNL     1     -34.392   4.245  81.050  1.00  0.00    -0.285 OA
ATOM      8  C   UNL     1     -34.952   6.098  79.672  1.00  0.00     0.111 A 
ATOM      9  C   UNL     1     -35.685   8.235  79.036  1.00  0.00     0.094 A 
ATOM     10  C   UNL     1     -33.624   6.439  79.293  1.00  0.00     0.134 A 
ATOM     11  C   UNL     1     -34.428   8.681  79.040  1.00  0.00     0.123 A 
ATOM     12  C   UNL     1     -33.388   7.703  78.934  1.00  0.00     0.093 A 
BRANCH   3  13
ATOM     13  C   UNL     1     -38.458   4.363  78.967  1.00  0.00     0.025 A 
ATOM     14  C   UNL     1     -39.651   4.918  78.447  1.00  0.00     0.016 A 
ATOM     15  C   UNL     1     -40.685   3.946  78.201  1.00  0.00     0.051 A 
ATOM     16  C   UNL     1     -40.379   2.568  77.941  1.00  0.00     0.157 A 
ATOM     17  C   UNL     1     -38.091   3.001  78.757  1.00  0.00     0.062 A 
ATOM     18  C   UNL     1     -39.009   2.147  78.107  1.00  0.00     0.158 A 
BRANCH  16  19
ATOM     19  O   UNL     1     -41.440   1.767  77.622  1.00  0.00    -0.504 OA
ATOM     20  H   UNL     1     -42.202   2.104  77.151  1.00  0.00     0.293 HD
ENDBRANCH  16  19
BRANCH  18  21
ATOM     21  O   UNL     1     -38.638   0.891  77.620  1.00  0.00    -0.504 OA
ATOM     22  H   UNL     1     -37.621   0.642  77.635  1.00  0.00     0.293 HD
ENDBRANCH  18  21
ENDBRANCH   3  13
BRANCH  10  23
ATOM     23  O   UNL     1     -32.635   5.446  79.235  1.00  0.00    -0.507 OA
ATOM     24  H   UNL     1     -32.132   5.174  80.130  1.00  0.00     0.293 HD
ENDBRANCH  10  23
BRANCH  11  25
ATOM     25  O   UNL     1     -34.055  10.121  79.087  1.00  0.00    -0.508 OA
ATOM     26  H   UNL     1     -33.082  10.375  79.261  1.00  0.00     0.293 HD
ENDBRANCH  11  25
ENDBRANCH   1   2
BRANCH   1  27
ATOM     27  C   UNL     1     -38.388   5.115  82.705  1.00  0.00     0.339 C 
ATOM     28  C   UNL     1     -39.685   4.294  82.845  1.00  0.00     0.214 C 
ATOM     29  O   UNL     1     -37.914   5.364  84.031  1.00  0.00    -0.332 OA
ATOM     30  C   UNL     1     -39.419   2.823  83.334  1.00  0.00     0.180 C 
ATOM     31  C   UNL     1     -37.559   4.202  84.751  1.00  0.00     0.179 C 
ATOM     32  C   UNL     1     -38.534   2.925  84.583  1.00  0.00     0.177 C 
BRANCH  28  33
ATOM     33  O   UNL     1     -40.524   4.444  81.684  1.00  0.00    -0.384 OA
ATOM     34  H   UNL     1     -40.353   3.640  81.142  1.00  0.00     0.211 HD
ENDBRANCH  28  33
BRANCH  30  35
ATOM     35  O   UNL     1     -38.904   2.018  82.248  1.00  0.00    -0.387 OA
ATOM     36  H   UNL     1     -39.178   2.557  81.443  1.00  0.00     0.211 HD
ENDBRANCH  30  35
BRANCH  31  37
ATOM     37  C   UNL     1     -36.102   3.797  84.536  1.00  0.00     0.191 C 
BRANCH  37  38
ATOM     38  O   UNL     1     -35.272   4.834  84.022  1.00  0.00    -0.394 OA
ATOM     39  H   UNL     1     -34.678   4.410  83.251  1.00  0.00     0.210 HD
ENDBRANCH  37  38
ENDBRANCH  31  37
BRANCH  32  40
ATOM     40  O   UNL     1     -37.873   1.684  84.802  1.00  0.00    -0.387 OA
ATOM     41  H   UNL     1     -38.360   0.998  84.309  1.00  0.00     0.211 HD
ENDBRANCH  32  40
ENDBRANCH   1  27
TORSDOF 12
ENDMDL
MODEL 2
REMARK VINA RESULT:    -6.803      1.225      2.514
REMARK INTER + INTRA:         -11.987
REMARK INTER:                 -10.213
REMARK INTRA:                  -1.775
REMARK UNBOUND:                -2.002
REMARK SMILES O=c1c(O[C@@H]2O[C@H](CO)[C@H](O)[C@H](O)[C@@H]2O)c(-c2ccc(O)c(O)c2)oc2cc(O)cc(O)c12
REMARK SMILES IDX 4 1 3 2 16 3 25 4 2 5 26 6 1 7 33 8 27 9 31 10 28 11 30 12
REMARK SMILES IDX 17 13 18 14 19 15 20 16 24 17 22 18 21 19 23 21 32 23 29 25
REMARK SMILES IDX 5 27 14 28 6 29 12 30 7 31 10 32 15 33 13 35 8 37 9 38 11 40
REMARK H PARENT 21 20 23 22 32 24 29 26 15 34 13 36 9 39 11 41
REMARK Flexibility Score: inf
ROOT
ATOM      1  O   UNL     1     -37.544   4.342  82.382  1.00  0.00    -0.454 OA
ENDROOT
BRANCH   1   2
ATOM      2  C   UNL     1     -36.910   4.585  81.120  1.00  0.00     0.214 A 
ATOM      3  C   UNL     1     -37.803   5.047  80.082  1.00  0.00     0.180 A 
ATOM      4  O   UNL     1     -37.576   6.199  79.496  1.00  0.00    -0.452 OA
ATOM      5  C   UNL     1     -35.517   4.807  80.790  1.00  0.00     0.239 A 
ATOM      6  C   UNL     1     -36.320   6.668  79.518  1.00  0.00     0.146 A 
ATOM      7  O   UNL     1     -34.630   4.032  81.256  1.00  0.00    -0.285 OA
ATOM      8  C   UNL     1     -35.267   5.848  79.864  1.00  0.00     0.111 A 
ATOM      9  C   UNL     1     -36.001   7.981  79.214  1.00  0.00     0.094 A 
ATOM     10  C   UNL     1     -33.972   6.135  79.350  1.00  0.00     0.134 A 
ATOM     11  C   UNL     1     -34.737   8.389  79.084  1.00  0.00     0.123 A 
ATOM     12  C   UNL     1     -33.737   7.378  78.921  1.00  0.00     0.093 A 
BRANCH   3  13
ATOM     13  C   UNL     1     -38.869   4.195  79.555  1.00  0.00     0.025 A 
ATOM     14  C   UNL     1     -38.562   3.144  78.660  1.00  0.00     0.016 A 
ATOM     15  C   UNL     1     -39.699   2.656  77.923  1.00  0.00     0.051 A 
ATOM     16  C   UNL     1     -41.036   2.779  78.432  1.00  0.00     0.157 A 
ATOM     17  C   UNL     1     -40.175   4.385  80.095  1.00  0.00     0.062 A 
ATOM     18  C   UNL     1     -41.225   3.564  79.627  1.00  0.00     0.158 A 
BRANCH  16  19
ATOM     19  O   UNL     1     -42.017   2.187  77.687  1.00  0.00    -0.504 OA
ATOM     20  H   UNL     1     -42.693   2.700  77.244  1.00  0.00     0.293 HD
ENDBRANCH  16  19
BRANCH  18  21
ATOM     21  O   UNL     1     -42.458   3.490  80.281  1.00  0.00    -0.504 OA
ATOM     22  H   UNL     1     -43.201   2.887  79.855  1.00  0.00     0.293 HD
ENDBRANCH  18  21
ENDBRANCH   3  13
BRANCH  10  23
ATOM     23  O   UNL     1     -33.020   5.112  79.241  1.00  0.00    -0.507 OA
ATOM     24  H   UNL     1     -33.323   4.110  79.420  1.00  0.00     0.293 HD
ENDBRANCH  10  23
BRANCH  11  25
ATOM     25  O   UNL     1     -34.323   9.819  79.039  1.00  0.00    -0.508 OA
ATOM     26  H   UNL     1     -33.340  10.045  78.886  1.00  0.00     0.293 HD
ENDBRANCH  11  25
ENDBRANCH   1   2
BRANCH   1  27
ATOM     27  C   UNL     1     -37.093   4.163  83.733  1.00  0.00     0.339 C 
ATOM     28  C   UNL     1     -37.396   5.395  84.608  1.00  0.00     0.214 C 
ATOM     29  O   UNL     1     -37.727   3.046  84.361  1.00  0.00    -0.332 OA
ATOM     30  C   UNL     1     -38.903   5.839  84.524  1.00  0.00     0.180 C 
ATOM     31  C   UNL     1     -39.135   3.136  84.425  1.00  0.00     0.179 C 
ATOM     32  C   UNL     1     -39.749   4.586  84.786  1.00  0.00     0.177 C 
BRANCH  28  33
ATOM     33  O   UNL     1     -36.411   6.427  84.416  1.00  0.00    -0.384 OA
ATOM     34  H   UNL     1     -36.930   7.238  84.207  1.00  0.00     0.211 HD
ENDBRANCH  28  33
BRANCH  30  35
ATOM     35  O   UNL     1     -39.154   6.532  83.279  1.00  0.00    -0.387 OA
ATOM     36  H   UNL     1     -39.307   7.475  83.594  1.00  0.00     0.211 HD
ENDBRANCH  30  35
BRANCH  31  37
ATOM     37  C   UNL     1     -39.820   2.557  83.187  1.00  0.00     0.191 C 
BRANCH  37  38
ATOM     38  O   UNL     1     -38.996   1.697  82.407  1.00  0.00    -0.394 OA
ATOM     39  H   UNL     1     -39.640   1.074  81.839  1.00  0.00     0.210 HD
ENDBRANCH  37  38
ENDBRANCH  31  37
BRANCH  32  40
ATOM     40  O   UNL     1     -41.062   4.781  84.275  1.00  0.00    -0.387 OA
ATOM     41  H   UNL     1     -41.684   4.726  85.024  1.00  0.00     0.211 HD
ENDBRANCH  32  40
ENDBRANCH   1  27
TORSDOF 12
ENDMDL
MODEL 3
REMARK VINA RESULT:    -6.757      2.476      5.998
REMARK INTER + INTRA:         -11.919
REMARK INTER:                  -9.999
REMARK INTRA:                  -1.921
REMARK UNBOUND:                -2.002
REMARK SMILES O=c1c(O[C@@H]2O[C@H](CO)[C@H](O)[C@H](O)[C@@H]2O)c(-c2ccc(O)c(O)c2)oc2cc(O)cc(O)c12
REMARK SMILES IDX 4 1 3 2 16 3 25 4 2 5 26 6 1 7 33 8 27 9 31 10 28 11 30 12
REMARK SMILES IDX 17 13 18 14 19 15 20 16 24 17 22 18 21 19 23 21 32 23 29 25
REMARK SMILES IDX 5 27 14 28 6 29 12 30 7 31 10 32 15 33 13 35 8 37 9 38 11 40
REMARK H PARENT 21 20 23 22 32 24 29 26 15 34 13 36 9 39 11 41
REMARK Flexibility Score: inf
ROOT
ATOM      1  O   UNL     1     -38.456   6.847  79.526  1.00  0.00    -0.454 OA
ENDROOT
BRANCH   1   2
ATOM      2  C   UNL     1     -38.656   6.046  80.696  1.00  0.00     0.214 A 
ATOM      3  C   UNL     1     -38.594   4.621  80.463  1.00  0.00     0.180 A 
ATOM      4  O   UNL     1     -37.713   3.895  81.111  1.00  0.00    -0.452 OA
ATOM      5  C   UNL     1     -38.545   6.381  82.102  1.00  0.00     0.239 A 
ATOM      6  C   UNL     1     -37.251   4.376  82.274  1.00  0.00     0.146 A 
ATOM      7  O   UNL     1     -39.100   7.432  82.542  1.00  0.00    -0.285 OA
ATOM      8  C   UNL     1     -37.886   5.422  82.908  1.00  0.00     0.111 A 
ATOM      9  C   UNL     1     -36.119   3.876  82.899  1.00  0.00     0.094 A 
ATOM     10  C   UNL     1     -37.778   5.539  84.321  1.00  0.00     0.134 A 
ATOM     11  C   UNL     1     -35.766   4.256  84.129  1.00  0.00     0.123 A 
ATOM     12  C   UNL     1     -36.758   4.918  84.919  1.00  0.00     0.093 A 
BRANCH   3  13
ATOM     13  C   UNL     1     -39.589   3.937  79.638  1.00  0.00     0.025 A 
ATOM     14  C   UNL     1     -39.184   3.182  78.514  1.00  0.00     0.016 A 
ATOM     15  C   UNL     1     -40.248   2.906  77.583  1.00  0.00     0.051 A 
ATOM     16  C   UNL     1     -41.622   2.867  77.998  1.00  0.00     0.157 A 
ATOM     17  C   UNL     1     -40.937   3.955  80.105  1.00  0.00     0.062 A 
ATOM     18  C   UNL     1     -41.923   3.285  79.346  1.00  0.00     0.158 A 
BRANCH  16  19
ATOM     19  O   UNL     1     -42.527   2.495  77.043  1.00  0.00    -0.504 OA
ATOM     20  H   UNL     1     -42.280   1.937  76.306  1.00  0.00     0.293 HD
ENDBRANCH  16  19
BRANCH  18  21
ATOM     21  O   UNL     1     -43.197   3.018  79.854  1.00  0.00    -0.504 OA
ATOM     22  H   UNL     1     -43.971   2.851  79.168  1.00  0.00     0.293 HD
ENDBRANCH  18  21
ENDBRANCH   3  13
BRANCH  10  23
ATOM     23  O   UNL     1     -38.764   6.227  85.044  1.00  0.00    -0.507 OA
ATOM     24  H   UNL     1     -39.775   6.153  84.727  1.00  0.00     0.293 HD
ENDBRANCH  10  23
BRANCH  11  25
ATOM     25  O   UNL     1     -34.435   3.978  84.736  1.00  0.00    -0.508 OA
ATOM     26  H   UNL     1     -34.152   4.496  85.568  1.00  0.00     0.293 HD
ENDBRANCH  11  25
ENDBRANCH   1   2
BRANCH   1  27
ATOM     27  C   UNL     1     -37.442   7.758  79.074  1.00  0.00     0.339 C 
ATOM     28  C   UNL     1     -37.062   7.512  77.601  1.00  0.00     0.214 C 
ATOM     29  O   UNL     1     -37.873   9.119  79.167  1.00  0.00    -0.332 OA
ATOM     30  C   UNL     1     -38.316   7.479  76.652  1.00  0.00     0.180 C 
ATOM     31  C   UNL     1     -39.031   9.414  78.416  1.00  0.00     0.179 C 
ATOM     32  C   UNL     1     -39.130   8.746  76.949  1.00  0.00     0.177 C 
BRANCH  28  33
ATOM     33  O   UNL     1     -36.133   6.419  77.478  1.00  0.00    -0.384 OA
ATOM     34  H   UNL     1     -35.352   6.801  77.015  1.00  0.00     0.211 HD
ENDBRANCH  28  33
BRANCH  30  35
ATOM     35  O   UNL     1     -39.017   6.221  76.790  1.00  0.00    -0.387 OA
ATOM     36  H   UNL     1     -39.231   6.209  77.773  1.00  0.00     0.211 HD
ENDBRANCH  30  35
BRANCH  31  37
ATOM     37  C   UNL     1     -40.320   9.177  79.201  1.00  0.00     0.191 C 
BRANCH  37  38
ATOM     38  O   UNL     1     -40.895   7.887  79.013  1.00  0.00    -0.394 OA
ATOM     39  H   UNL     1     -41.207   7.540  79.966  1.00  0.00     0.210 HD
ENDBRANCH  37  38
ENDBRANCH  31  37
BRANCH  32  40
ATOM     40  O   UNL     1     -40.469   8.568  76.503  1.00  0.00    -0.387 OA
ATOM     41  H   UNL     1     -40.889   9.447  76.466  1.00  0.00     0.211 HD
ENDBRANCH  32  40
ENDBRANCH   1  27
TORSDOF 12
ENDMDL
MODEL 4
REMARK VINA RESULT:    -6.617      2.560      5.706
REMARK INTER + INTRA:         -11.714
REMARK INTER:                  -9.489
REMARK INTRA:                  -2.224
REMARK UNBOUND:                -2.002
REMARK SMILES O=c1c(O[C@@H]2O[C@H](CO)[C@H](O)[C@H](O)[C@@H]2O)c(-c2ccc(O)c(O)c2)oc2cc(O)cc(O)c12
REMARK SMILES IDX 4 1 3 2 16 3 25 4 2 5 26 6 1 7 33 8 27 9 31 10 28 11 30 12
REMARK SMILES IDX 17 13 18 14 19 15 20 16 24 17 22 18 21 19 23 21 32 23 29 25
REMARK SMILES IDX 5 27 14 28 6 29 12 30 7 31 10 32 15 33 13 35 8 37 9 38 11 40
REMARK H PARENT 21 20 23 22 32 24 29 26 15 34 13 36 9 39 11 41
REMARK Flexibility Score: inf
ROOT
ATOM      1  O   UNL     1     -39.033   6.827  79.915  1.00  0.00    -0.454 OA
ENDROOT
BRANCH   1   2
ATOM      2  C   UNL     1     -38.832   5.783  80.875  1.00  0.00     0.214 A 
ATOM      3  C   UNL     1     -38.605   4.477  80.298  1.00  0.00     0.180 A 
ATOM      4  O   UNL     1     -37.498   3.829  80.574  1.00  0.00    -0.452 OA
ATOM      5  C   UNL     1     -38.454   5.843  82.272  1.00  0.00     0.239 A 
ATOM      6  C   UNL     1     -36.860   4.150  81.709  1.00  0.00     0.146 A 
ATOM      7  O   UNL     1     -39.049   6.648  83.049  1.00  0.00    -0.285 OA
ATOM      8  C   UNL     1     -37.487   4.895  82.684  1.00  0.00     0.111 A 
ATOM      9  C   UNL     1     -35.552   3.774  81.970  1.00  0.00     0.094 A 
ATOM     10  C   UNL     1     -37.077   4.744  84.038  1.00  0.00     0.134 A 
ATOM     11  C   UNL     1     -34.988   3.961  83.165  1.00  0.00     0.123 A 
ATOM     12  C   UNL     1     -35.863   4.235  84.264  1.00  0.00     0.093 A 
BRANCH   3  13
ATOM     13  C   UNL     1     -39.646   3.787  79.536  1.00  0.00     0.025 A 
ATOM     14  C   UNL     1     -39.298   2.970  78.436  1.00  0.00     0.016 A 
ATOM     15  C   UNL     1     -40.399   2.684  77.552  1.00  0.00     0.051 A 
ATOM     16  C   UNL     1     -41.759   2.704  78.011  1.00  0.00     0.157 A 
ATOM     17  C   UNL     1     -40.976   3.864  80.043  1.00  0.00     0.062 A 
ATOM     18  C   UNL     1     -42.004   3.191  79.347  1.00  0.00     0.158 A 
BRANCH  16  19
ATOM     19  O   UNL     1     -42.704   2.317  77.102  1.00  0.00    -0.504 OA
ATOM     20  H   UNL     1     -42.869   1.394  76.909  1.00  0.00     0.293 HD
ENDBRANCH  16  19
BRANCH  18  21
ATOM     21  O   UNL     1     -43.268   2.984  79.905  1.00  0.00    -0.504 OA
ATOM     22  H   UNL     1     -43.317   2.546  80.856  1.00  0.00     0.293 HD
ENDBRANCH  18  21
ENDBRANCH   3  13
BRANCH  10  23
ATOM     23  O   UNL     1     -37.964   5.057  85.078  1.00  0.00    -0.507 OA
ATOM     24  H   UNL     1     -38.489   5.979  85.042  1.00  0.00     0.293 HD
ENDBRANCH  10  23
BRANCH  11  25
ATOM     25  O   UNL     1     -33.527   3.842  83.425  1.00  0.00    -0.508 OA
ATOM     26  H   UNL     1     -33.205   3.681  84.379  1.00  0.00     0.293 HD
ENDBRANCH  11  25
ENDBRANCH   1   2
BRANCH   1  27
ATOM     27  C   UNL     1     -39.914   7.956  79.805  1.00  0.00     0.339 C 
ATOM     28  C   UNL     1     -39.225   9.267  80.231  1.00  0.00     0.214 C 
ATOM     29  O   UNL     1     -40.366   8.147  78.462  1.00  0.00    -0.332 OA
ATOM     30  C   UNL     1     -37.851   9.493  79.497  1.00  0.00     0.180 C 
ATOM     31  C   UNL     1     -39.332   8.361  77.524  1.00  0.00     0.179 C 
ATOM     32  C   UNL     1     -38.116   9.313  77.997  1.00  0.00     0.177 C 
BRANCH  28  33
ATOM     33  O   UNL     1     -39.220   9.412  81.664  1.00  0.00    -0.384 OA
ATOM     34  H   UNL     1     -38.487   8.831  81.974  1.00  0.00     0.211 HD
ENDBRANCH  28  33
BRANCH  30  35
ATOM     35  O   UNL     1     -36.829   8.646  80.073  1.00  0.00    -0.387 OA
ATOM     36  H   UNL     1     -36.609   8.036  79.305  1.00  0.00     0.211 HD
ENDBRANCH  30  35
BRANCH  31  37
ATOM     37  C   UNL     1     -38.794   7.059  76.932  1.00  0.00     0.191 C 
BRANCH  37  38
ATOM     38  O   UNL     1     -37.661   6.527  77.610  1.00  0.00    -0.394 OA
ATOM     39  H   UNL     1     -38.023   5.882  78.371  1.00  0.00     0.210 HD
ENDBRANCH  37  38
ENDBRANCH  31  37
BRANCH  32  40
ATOM     40  O   UNL     1     -36.893   9.035  77.327  1.00  0.00    -0.387 OA
ATOM     41  H   UNL     1     -36.199   9.587  77.732  1.00  0.00     0.211 HD
ENDBRANCH  32  40
ENDBRANCH   1  27
TORSDOF 12
ENDMDL
MODEL 5
REMARK VINA RESULT:    -6.528      2.152      5.633
REMARK INTER + INTRA:         -11.584
REMARK INTER:                 -10.079
REMARK INTRA:                  -1.504
REMARK UNBOUND:                -2.002
REMARK SMILES O=c1c(O[C@@H]2O[C@H](CO)[C@H](O)[C@H](O)[C@@H]2O)c(-c2ccc(O)c(O)c2)oc2cc(O)cc(O)c12
REMARK SMILES IDX 4 1 3 2 16 3 25 4 2 5 26 6 1 7 33 8 27 9 31 10 28 11 30 12
REMARK SMILES IDX 17 13 18 14 19 15 20 16 24 17 22 18 21 19 23 21 32 23 29 25
REMARK SMILES IDX 5 27 14 28 6 29 12 30 7 31 10 32 15 33 13 35 8 37 9 38 11 40
REMARK H PARENT 21 20 23 22 32 24 29 26 15 34 13 36 9 39 11 41
REMARK Flexibility Score: inf
ROOT
ATOM      1  O   UNL     1     -37.734   6.723  78.990  1.00  0.00    -0.454 OA
ENDROOT
BRANCH   1   2
ATOM      2  C   UNL     1     -37.791   6.038  80.247  1.00  0.00     0.214 A 
ATOM      3  C   UNL     1     -37.908   4.601  80.139  1.00  0.00     0.180 A 
ATOM      4  O   UNL     1     -36.996   3.833  80.688  1.00  0.00    -0.452 OA
ATOM      5  C   UNL     1     -37.392   6.461  81.574  1.00  0.00     0.239 A 
ATOM      6  C   UNL     1     -36.284   4.345  81.701  1.00  0.00     0.146 A 
ATOM      7  O   UNL     1     -37.754   7.597  82.006  1.00  0.00    -0.285 OA
ATOM      8  C   UNL     1     -36.689   5.498  82.337  1.00  0.00     0.111 A 
ATOM      9  C   UNL     1     -35.109   3.771  82.162  1.00  0.00     0.094 A 
ATOM     10  C   UNL     1     -36.313   5.707  83.693  1.00  0.00     0.134 A 
ATOM     11  C   UNL     1     -34.501   4.200  83.270  1.00  0.00     0.123 A 
ATOM     12  C   UNL     1     -35.264   5.024  84.157  1.00  0.00     0.093 A 
BRANCH   3  13
ATOM     13  C   UNL     1     -39.099   3.972  79.569  1.00  0.00     0.025 A 
ATOM     14  C   UNL     1     -38.989   3.147  78.426  1.00  0.00     0.016 A 
ATOM     15  C   UNL     1     -40.239   2.926  77.745  1.00  0.00     0.051 A 
ATOM     16  C   UNL     1     -41.497   3.014  78.431  1.00  0.00     0.157 A 
ATOM     17  C   UNL     1     -40.317   4.115  80.297  1.00  0.00     0.062 A 
ATOM     18  C   UNL     1     -41.483   3.502  79.788  1.00  0.00     0.158 A 
BRANCH  16  19
ATOM     19  O   UNL     1     -42.603   2.683  77.699  1.00  0.00    -0.504 OA
ATOM     20  H   UNL     1     -42.968   1.799  77.708  1.00  0.00     0.293 HD
ENDBRANCH  16  19
BRANCH  18  21
ATOM     21  O   UNL     1     -42.642   3.356  80.556  1.00  0.00    -0.504 OA
ATOM     22  H   UNL     1     -43.557   3.597  80.109  1.00  0.00     0.293 HD
ENDBRANCH  18  21
ENDBRANCH   3  13
BRANCH  10  23
ATOM     23  O   UNL     1     -37.079   6.551  84.510  1.00  0.00    -0.507 OA
ATOM     24  H   UNL     1     -37.916   6.145  85.022  1.00  0.00     0.293 HD
ENDBRANCH  10  23
BRANCH  11  25
ATOM     25  O   UNL     1     -33.114   3.823  83.657  1.00  0.00    -0.508 OA
ATOM     26  H   UNL     1     -32.935   2.879  84.001  1.00  0.00     0.293 HD
ENDBRANCH  11  25
ENDBRANCH   1   2
BRANCH   1  27
ATOM     27  C   UNL     1     -37.307   6.384  77.662  1.00  0.00     0.339 C 
ATOM     28  C   UNL     1     -37.826   7.390  76.616  1.00  0.00     0.214 C 
ATOM     29  O   UNL     1     -35.881   6.373  77.550  1.00  0.00    -0.332 OA
ATOM     30  C   UNL     1     -37.499   8.881  76.999  1.00  0.00     0.180 C 
ATOM     31  C   UNL     1     -35.264   7.605  77.861  1.00  0.00     0.179 C 
ATOM     32  C   UNL     1     -36.000   8.937  77.320  1.00  0.00     0.177 C 
BRANCH  28  33
ATOM     33  O   UNL     1     -39.189   7.105  76.250  1.00  0.00    -0.384 OA
ATOM     34  H   UNL     1     -39.732   7.481  76.981  1.00  0.00     0.211 HD
ENDBRANCH  28  33
BRANCH  30  35
ATOM     35  O   UNL     1     -38.394   9.340  78.039  1.00  0.00    -0.387 OA
ATOM     36  H   UNL     1     -37.809   9.288  78.855  1.00  0.00     0.211 HD
ENDBRANCH  30  35
BRANCH  31  37
ATOM     37  C   UNL     1     -34.933   7.740  79.346  1.00  0.00     0.191 C 
BRANCH  37  38
ATOM     38  O   UNL     1     -34.212   6.640  79.892  1.00  0.00    -0.394 OA
ATOM     39  H   UNL     1     -33.599   7.020  80.670  1.00  0.00     0.210 HD
ENDBRANCH  37  38
ENDBRANCH  31  37
BRANCH  32  40
ATOM     40  O   UNL     1     -35.723  10.089  78.108  1.00  0.00    -0.387 OA
ATOM     41  H   UNL     1     -36.525  10.296  78.623  1.00  0.00     0.211 HD
ENDBRANCH  32  40
ENDBRANCH   1  27
TORSDOF 12
ENDMDL
MODEL 6
REMARK VINA RESULT:    -6.315      2.447      6.293
REMARK INTER + INTRA:         -11.270
REMARK INTER:                  -9.048
REMARK INTRA:                  -2.222
REMARK UNBOUND:                -2.002
REMARK SMILES O=c1c(O[C@@H]2O[C@H](CO)[C@H](O)[C@H](O)[C@@H]2O)c(-c2ccc(O)c(O)c2)oc2cc(O)cc(O)c12
REMARK SMILES IDX 4 1 3 2 16 3 25 4 2 5 26 6 1 7 33 8 27 9 31 10 28 11 30 12
REMARK SMILES IDX 17 13 18 14 19 15 20 16 24 17 22 18 21 19 23 21 32 23 29 25
REMARK SMILES IDX 5 27 14 28 6 29 12 30 7 31 10 32 15 33 13 35 8 37 9 38 11 40
REMARK H PARENT 21 20 23 22 32 24 29 26 15 34 13 36 9 39 11 41
REMARK Flexibility Score: inf
ROOT
ATOM      1  O   UNL     1     -36.758   6.493  80.587  1.00  0.00    -0.454 OA
ENDROOT
BRANCH   1   2
ATOM      2  C   UNL     1     -38.055   6.274  81.154  1.00  0.00     0.214 A 
ATOM      3  C   UNL     1     -39.081   5.952  80.189  1.00  0.00     0.180 A 
ATOM      4  O   UNL     1     -39.741   4.823  80.295  1.00  0.00    -0.452 OA
ATOM      5  C   UNL     1     -38.453   5.957  82.510  1.00  0.00     0.239 A 
ATOM      6  C   UNL     1     -39.796   4.251  81.506  1.00  0.00     0.146 A 
ATOM      7  O   UNL     1     -37.979   6.626  83.477  1.00  0.00    -0.285 OA
ATOM      8  C   UNL     1     -39.446   4.956  82.637  1.00  0.00     0.111 A 
ATOM      9  C   UNL     1     -40.187   2.935  81.702  1.00  0.00     0.094 A 
ATOM     10  C   UNL     1     -40.027   4.594  83.884  1.00  0.00     0.134 A 
ATOM     11  C   UNL     1     -40.390   2.432  82.921  1.00  0.00     0.123 A 
ATOM     12  C   UNL     1     -40.535   3.364  83.997  1.00  0.00     0.093 A 
BRANCH   3  13
ATOM     13  C   UNL     1     -39.516   6.921  79.182  1.00  0.00     0.025 A 
ATOM     14  C   UNL     1     -40.241   8.071  79.569  1.00  0.00     0.016 A 
ATOM     15  C   UNL     1     -40.938   8.713  78.484  1.00  0.00     0.051 A 
ATOM     16  C   UNL     1     -40.496   8.584  77.124  1.00  0.00     0.157 A 
ATOM     17  C   UNL     1     -39.051   6.720  77.849  1.00  0.00     0.062 A 
ATOM     18  C   UNL     1     -39.431   7.648  76.855  1.00  0.00     0.158 A 
BRANCH  16  19
ATOM     19  O   UNL     1     -41.180   9.322  76.199  1.00  0.00    -0.504 OA
ATOM     20  H   UNL     1     -41.447  10.224  76.372  1.00  0.00     0.293 HD
ENDBRANCH  16  19
BRANCH  18  21
ATOM     21  O   UNL     1     -38.814   7.689  75.602  1.00  0.00    -0.504 OA
ATOM     22  H   UNL     1     -38.856   6.828  75.008  1.00  0.00     0.293 HD
ENDBRANCH  18  21
ENDBRANCH   3  13
BRANCH  10  23
ATOM     23  O   UNL     1     -40.116   5.539  84.917  1.00  0.00    -0.507 OA
ATOM     24  H   UNL     1     -40.171   6.569  84.664  1.00  0.00     0.293 HD
ENDBRANCH  10  23
BRANCH  11  25
ATOM     25  O   UNL     1     -40.533   0.978  83.208  1.00  0.00    -0.508 OA
ATOM     26  H   UNL     1     -41.194   0.427  82.660  1.00  0.00     0.293 HD
ENDBRANCH  11  25
ENDBRANCH   1   2
BRANCH   1  27
ATOM     27  C   UNL     1     -35.645   7.350  80.886  1.00  0.00     0.339 C 
ATOM     28  C   UNL     1     -34.625   6.665  81.817  1.00  0.00     0.214 C 
ATOM     29  O   UNL     1     -34.934   7.729  79.705  1.00  0.00    -0.332 OA
ATOM     30  C   UNL     1     -34.180   5.252  81.287  1.00  0.00     0.180 C 
ATOM     31  C   UNL     1     -34.409   6.645  78.969  1.00  0.00     0.179 C 
ATOM     32  C   UNL     1     -33.755   5.441  79.825  1.00  0.00     0.177 C 
BRANCH  28  33
ATOM     33  O   UNL     1     -35.046   6.732  83.192  1.00  0.00    -0.384 OA
ATOM     34  H   UNL     1     -35.258   5.802  83.438  1.00  0.00     0.211 HD
ENDBRANCH  28  33
BRANCH  30  35
ATOM     35  O   UNL     1     -35.217   4.274  81.532  1.00  0.00    -0.387 OA
ATOM     36  H   UNL     1     -35.486   4.490  82.477  1.00  0.00     0.211 HD
ENDBRANCH  30  35
BRANCH  31  37
ATOM     37  C   UNL     1     -35.398   6.096  77.941  1.00  0.00     0.191 C 
BRANCH  37  38
ATOM     38  O   UNL     1     -36.186   5.006  78.406  1.00  0.00    -0.394 OA
ATOM     39  H   UNL     1     -36.528   5.256  79.379  1.00  0.00     0.210 HD
ENDBRANCH  37  38
ENDBRANCH  31  37
BRANCH  32  40
ATOM     40  O   UNL     1     -33.794   4.189  79.151  1.00  0.00    -0.387 OA
ATOM     41  H   UNL     1     -34.001   4.362  78.214  1.00  0.00     0.211 HD
ENDBRANCH  32  40
ENDBRANCH   1  27
TORSDOF 12
ENDMDL
MODEL 7
REMARK VINA RESULT:    -6.247      9.387     13.104
REMARK INTER + INTRA:         -11.171
REMARK INTER:                  -8.915
REMARK INTRA:                  -2.256
REMARK UNBOUND:                -2.002
REMARK SMILES O=c1c(O[C@@H]2O[C@H](CO)[C@H](O)[C@H](O)[C@@H]2O)c(-c2ccc(O)c(O)c2)oc2cc(O)cc(O)c12
REMARK SMILES IDX 4 1 3 2 16 3 25 4 2 5 26 6 1 7 33 8 27 9 31 10 28 11 30 12
REMARK SMILES IDX 17 13 18 14 19 15 20 16 24 17 22 18 21 19 23 21 32 23 29 25
REMARK SMILES IDX 5 27 14 28 6 29 12 30 7 31 10 32 15 33 13 35 8 37 9 38 11 40
REMARK H PARENT 21 20 23 22 32 24 29 26 15 34 13 36 9 39 11 41
REMARK Flexibility Score: inf
ROOT
ATOM      1  O   UNL     1     -40.925  -7.049  83.253  1.00  0.00    -0.454 OA
ENDROOT
BRANCH   1   2
ATOM      2  C   UNL     1     -41.912  -6.246  82.596  1.00  0.00     0.214 A 
ATOM      3  C   UNL     1     -41.378  -5.113  81.876  1.00  0.00     0.180 A 
ATOM      4  O   UNL     1     -41.605  -4.996  80.589  1.00  0.00    -0.452 OA
ATOM      5  C   UNL     1     -43.277  -6.550  82.214  1.00  0.00     0.239 A 
ATOM      6  C   UNL     1     -42.679  -5.625  80.091  1.00  0.00     0.146 A 
ATOM      7  O   UNL     1     -44.058  -7.092  83.053  1.00  0.00    -0.285 OA
ATOM      8  C   UNL     1     -43.662  -6.112  80.925  1.00  0.00     0.111 A 
ATOM      9  C   UNL     1     -42.865  -5.837  78.734  1.00  0.00     0.094 A 
ATOM     10  C   UNL     1     -44.989  -6.234  80.428  1.00  0.00     0.134 A 
ATOM     11  C   UNL     1     -44.009  -6.319  78.245  1.00  0.00     0.123 A 
ATOM     12  C   UNL     1     -45.153  -6.284  79.104  1.00  0.00     0.093 A 
BRANCH   3  13
ATOM     13  C   UNL     1     -40.720  -4.007  82.572  1.00  0.00     0.025 A 
ATOM     14  C   UNL     1     -41.490  -3.038  83.256  1.00  0.00     0.016 A 
ATOM     15  C   UNL     1     -40.774  -1.822  83.543  1.00  0.00     0.051 A 
ATOM     16  C   UNL     1     -39.344  -1.801  83.669  1.00  0.00     0.157 A 
ATOM     17  C   UNL     1     -39.296  -4.044  82.642  1.00  0.00     0.062 A 
ATOM     18  C   UNL     1     -38.627  -3.005  83.326  1.00  0.00     0.158 A 
BRANCH  16  19
ATOM     19  O   UNL     1     -38.793  -0.607  84.043  1.00  0.00    -0.504 OA
ATOM     20  H   UNL     1     -38.197  -0.539  84.788  1.00  0.00     0.293 HD
ENDBRANCH  16  19
BRANCH  18  21
ATOM     21  O   UNL     1     -37.278  -3.095  83.679  1.00  0.00    -0.504 OA
ATOM     22  H   UNL     1     -36.997  -2.755  84.628  1.00  0.00     0.293 HD
ENDBRANCH  18  21
ENDBRANCH   3  13
BRANCH  10  23
ATOM     23  O   UNL     1     -46.073  -6.225  81.318  1.00  0.00    -0.507 OA
ATOM     24  H   UNL     1     -47.059  -6.228  80.924  1.00  0.00     0.293 HD
ENDBRANCH  10  23
BRANCH  11  25
ATOM     25  O   UNL     1     -44.173  -6.827  76.855  1.00  0.00    -0.508 OA
ATOM     26  H   UNL     1     -43.754  -7.721  76.602  1.00  0.00     0.293 HD
ENDBRANCH  11  25
ENDBRANCH   1   2
BRANCH   1  27
ATOM     27  C   UNL     1     -40.791  -7.640  84.555  1.00  0.00     0.339 C 
ATOM     28  C   UNL     1     -41.279  -9.101  84.577  1.00  0.00     0.214 C 
ATOM     29  O   UNL     1     -39.430  -7.654  84.995  1.00  0.00    -0.332 OA
ATOM     30  C   UNL     1     -40.623  -9.973  83.444  1.00  0.00     0.180 C 
ATOM     31  C   UNL     1     -38.553  -8.366  84.147  1.00  0.00     0.179 C 
ATOM     32  C   UNL     1     -39.108  -9.755  83.538  1.00  0.00     0.177 C 
BRANCH  28  33
ATOM     33  O   UNL     1     -42.713  -9.171  84.693  1.00  0.00    -0.384 OA
ATOM     34  H   UNL     1     -43.033  -9.346  83.778  1.00  0.00     0.211 HD
ENDBRANCH  28  33
BRANCH  30  35
ATOM     35  O   UNL     1     -41.235  -9.679  82.167  1.00  0.00    -0.387 OA
ATOM     36  H   UNL     1     -40.728 -10.289  81.548  1.00  0.00     0.211 HD
ENDBRANCH  30  35
BRANCH  31  37
ATOM     37  C   UNL     1     -37.963  -7.492  83.041  1.00  0.00     0.191 C 
BRANCH  37  38
ATOM     38  O   UNL     1     -38.691  -7.521  81.818  1.00  0.00    -0.394 OA
ATOM     39  H   UNL     1     -39.611  -7.018  81.986  1.00  0.00     0.210 HD
ENDBRANCH  37  38
ENDBRANCH  31  37
BRANCH  32  40
ATOM     40  O   UNL     1     -38.497 -10.108  82.303  1.00  0.00    -0.387 OA
ATOM     41  H   UNL     1     -38.045  -9.316  81.957  1.00  0.00     0.211 HD
ENDBRANCH  32  40
ENDBRANCH   1  27
TORSDOF 12
ENDMDL
MODEL 8
REMARK VINA RESULT:    -6.227      2.730      4.470
REMARK INTER + INTRA:         -11.141
REMARK INTER:                  -9.443
REMARK INTRA:                  -1.698
REMARK UNBOUND:                -2.002
REMARK SMILES O=c1c(O[C@@H]2O[C@H](CO)[C@H](O)[C@H](O)[C@@H]2O)c(-c2ccc(O)c(O)c2)oc2cc(O)cc(O)c12
REMARK SMILES IDX 4 1 3 2 16 3 25 4 2 5 26 6 1 7 33 8 27 9 31 10 28 11 30 12
REMARK SMILES IDX 17 13 18 14 19 15 20 16 24 17 22 18 21 19 23 21 32 23 29 25
REMARK SMILES IDX 5 27 14 28 6 29 12 30 7 31 10 32 15 33 13 35 8 37 9 38 11 40
REMARK H PARENT 21 20 23 22 32 24 29 26 15 34 13 36 9 39 11 41
REMARK Flexibility Score: inf
ROOT
ATOM      1  O   UNL     1     -37.773   5.674  79.907  1.00  0.00    -0.454 OA
ENDROOT
BRANCH   1   2
ATOM      2  C   UNL     1     -36.778   6.511  79.306  1.00  0.00     0.214 A 
ATOM      3  C   UNL     1     -37.192   7.881  79.106  1.00  0.00     0.180 A 
ATOM      4  O   UNL     1     -36.507   8.854  79.660  1.00  0.00    -0.452 OA
ATOM      5  C   UNL     1     -35.342   6.348  79.201  1.00  0.00     0.239 A 
ATOM      6  C   UNL     1     -35.227   8.610  79.972  1.00  0.00     0.146 A 
ATOM      7  O   UNL     1     -34.863   5.242  78.808  1.00  0.00    -0.285 OA
ATOM      8  C   UNL     1     -34.574   7.508  79.462  1.00  0.00     0.111 A 
ATOM      9  C   UNL     1     -34.489   9.421  80.819  1.00  0.00     0.094 A 
ATOM     10  C   UNL     1     -33.161   7.554  79.305  1.00  0.00     0.134 A 
ATOM     11  C   UNL     1     -33.176   9.255  80.990  1.00  0.00     0.123 A 
ATOM     12  C   UNL     1     -32.487   8.454  80.025  1.00  0.00     0.093 A 
BRANCH   3  13
ATOM     13  C   UNL     1     -38.265   8.227  78.175  1.00  0.00     0.025 A 
ATOM     14  C   UNL     1     -38.256   7.714  76.857  1.00  0.00     0.016 A 
ATOM     15  C   UNL     1     -39.115   8.429  75.948  1.00  0.00     0.051 A 
ATOM     16  C   UNL     1     -40.261   9.158  76.410  1.00  0.00     0.157 A 
ATOM     17  C   UNL     1     -39.364   8.968  78.701  1.00  0.00     0.062 A 
ATOM     18  C   UNL     1     -40.430   9.300  77.836  1.00  0.00     0.158 A 
BRANCH  16  19
ATOM     19  O   UNL     1     -41.053   9.708  75.441  1.00  0.00    -0.504 OA
ATOM     20  H   UNL     1     -41.999   9.570  75.425  1.00  0.00     0.293 HD
ENDBRANCH  16  19
BRANCH  18  21
ATOM     21  O   UNL     1     -41.655   9.776  78.314  1.00  0.00    -0.504 OA
ATOM     22  H   UNL     1     -41.647  10.646  78.895  1.00  0.00     0.293 HD
ENDBRANCH  18  21
ENDBRANCH   3  13
BRANCH  10  23
ATOM     23  O   UNL     1     -32.534   6.724  78.365  1.00  0.00    -0.507 OA
ATOM     24  H   UNL     1     -32.930   6.674  77.381  1.00  0.00     0.293 HD
ENDBRANCH  10  23
BRANCH  11  25
ATOM     25  O   UNL     1     -32.390   9.898  82.079  1.00  0.00    -0.508 OA
ATOM     26  H   UNL     1     -32.303   9.420  82.976  1.00  0.00     0.293 HD
ENDBRANCH  11  25
ENDBRANCH   1   2
BRANCH   1  27
ATOM     27  C   UNL     1     -37.931   5.029  81.180  1.00  0.00     0.339 C 
ATOM     28  C   UNL     1     -39.351   5.219  81.748  1.00  0.00     0.214 C 
ATOM     29  O   UNL     1     -37.707   3.620  81.093  1.00  0.00    -0.332 OA
ATOM     30  C   UNL     1     -40.471   4.815  80.719  1.00  0.00     0.180 C 
ATOM     31  C   UNL     1     -38.571   2.947  80.201  1.00  0.00     0.179 C 
ATOM     32  C   UNL     1     -40.118   3.413  80.208  1.00  0.00     0.177 C 
BRANCH  28  33
ATOM     33  O   UNL     1     -39.493   6.504  82.381  1.00  0.00    -0.384 OA
ATOM     34  H   UNL     1     -40.431   6.761  82.226  1.00  0.00     0.211 HD
ENDBRANCH  28  33
BRANCH  30  35
ATOM     35  O   UNL     1     -40.623   5.845  79.714  1.00  0.00    -0.387 OA
ATOM     36  H   UNL     1     -41.432   6.342  80.047  1.00  0.00     0.211 HD
ENDBRANCH  30  35
BRANCH  31  37
ATOM     37  C   UNL     1     -38.029   2.906  78.773  1.00  0.00     0.191 C 
BRANCH  37  38
ATOM     38  O   UNL     1     -38.316   1.702  78.070  1.00  0.00    -0.394 OA
ATOM     39  H   UNL     1     -39.295   1.795  77.671  1.00  0.00     0.210 HD
ENDBRANCH  37  38
ENDBRANCH  31  37
BRANCH  32  40
ATOM     40  O   UNL     1     -40.779   3.176  78.971  1.00  0.00    -0.387 OA
ATOM     41  H   UNL     1     -41.361   3.938  78.794  1.00  0.00     0.211 HD
ENDBRANCH  32  40
ENDBRANCH   1  27
TORSDOF 12
ENDMDL
MODEL 9
REMARK VINA RESULT:    -6.002      2.382      6.354
REMARK INTER + INTRA:         -10.812
REMARK INTER:                  -9.104
REMARK INTRA:                  -1.708
REMARK UNBOUND:                -2.002
REMARK SMILES O=c1c(O[C@@H]2O[C@H](CO)[C@H](O)[C@H](O)[C@@H]2O)c(-c2ccc(O)c(O)c2)oc2cc(O)cc(O)c12
REMARK SMILES IDX 4 1 3 2 16 3 25 4 2 5 26 6 1 7 33 8 27 9 31 10 28 11 30 12
REMARK SMILES IDX 17 13 18 14 19 15 20 16 24 17 22 18 21 19 23 21 32 23 29 25
REMARK SMILES IDX 5 27 14 28 6 29 12 30 7 31 10 32 15 33 13 35 8 37 9 38 11 40
REMARK H PARENT 21 20 23 22 32 24 29 26 15 34 13 36 9 39 11 41
REMARK Flexibility Score: inf
ROOT
ATOM      1  O   UNL     1     -36.616   6.135  79.908  1.00  0.00    -0.454 OA
ENDROOT
BRANCH   1   2
ATOM      2  C   UNL     1     -37.813   6.095  80.695  1.00  0.00     0.214 A 
ATOM      3  C   UNL     1     -39.025   5.916  79.930  1.00  0.00     0.180 A 
ATOM      4  O   UNL     1     -39.802   4.887  80.176  1.00  0.00    -0.452 OA
ATOM      5  C   UNL     1     -38.007   5.836  82.107  1.00  0.00     0.239 A 
ATOM      6  C   UNL     1     -39.721   4.328  81.392  1.00  0.00     0.146 A 
ATOM      7  O   UNL     1     -37.286   6.435  82.961  1.00  0.00    -0.285 OA
ATOM      8  C   UNL     1     -39.088   4.980  82.428  1.00  0.00     0.111 A 
ATOM      9  C   UNL     1     -40.245   3.078  81.684  1.00  0.00     0.094 A 
ATOM     10  C   UNL     1     -39.485   4.701  83.765  1.00  0.00     0.134 A 
ATOM     11  C   UNL     1     -40.297   2.608  82.931  1.00  0.00     0.123 A 
ATOM     12  C   UNL     1     -40.126   3.552  83.993  1.00  0.00     0.093 A 
BRANCH   3  13
ATOM     13  C   UNL     1     -39.494   6.934  78.991  1.00  0.00     0.025 A 
ATOM     14  C   UNL     1     -40.131   8.103  79.468  1.00  0.00     0.016 A 
ATOM     15  C   UNL     1     -40.883   8.809  78.463  1.00  0.00     0.051 A 
ATOM     16  C   UNL     1     -40.561   8.703  77.068  1.00  0.00     0.157 A 
ATOM     17  C   UNL     1     -39.151   6.754  77.618  1.00  0.00     0.062 A 
ATOM     18  C   UNL     1     -39.567   7.730  76.685  1.00  0.00     0.158 A 
BRANCH  16  19
ATOM     19  O   UNL     1     -41.283   9.500  76.224  1.00  0.00    -0.504 OA
ATOM     20  H   UNL     1     -41.824  10.218  76.550  1.00  0.00     0.293 HD
ENDBRANCH  16  19
BRANCH  18  21
ATOM     21  O   UNL     1     -39.054   7.783  75.386  1.00  0.00    -0.504 OA
ATOM     22  H   UNL     1     -38.108   8.210  75.252  1.00  0.00     0.293 HD
ENDBRANCH  18  21
ENDBRANCH   3  13
BRANCH  10  23
ATOM     23  O   UNL     1     -39.265   5.650  84.774  1.00  0.00    -0.507 OA
ATOM     24  H   UNL     1     -38.278   6.006  84.933  1.00  0.00     0.293 HD
ENDBRANCH  10  23
BRANCH  11  25
ATOM     25  O   UNL     1     -40.582   1.187  83.275  1.00  0.00    -0.508 OA
ATOM     26  H   UNL     1     -39.985   0.455  82.889  1.00  0.00     0.293 HD
ENDBRANCH  11  25
ENDBRANCH   1   2
BRANCH   1  27
ATOM     27  C   UNL     1     -36.078   5.355  78.830  1.00  0.00     0.339 C 
ATOM     28  C   UNL     1     -35.377   6.235  77.776  1.00  0.00     0.214 C 
ATOM     29  O   UNL     1     -35.107   4.411  79.290  1.00  0.00    -0.332 OA
ATOM     30  C   UNL     1     -34.315   7.206  78.413  1.00  0.00     0.180 C 
ATOM     31  C   UNL     1     -34.000   4.990  79.948  1.00  0.00     0.179 C 
ATOM     32  C   UNL     1     -33.408   6.348  79.305  1.00  0.00     0.177 C 
BRANCH  28  33
ATOM     33  O   UNL     1     -36.329   6.826  76.873  1.00  0.00    -0.384 OA
ATOM     34  H   UNL     1     -35.859   6.878  76.008  1.00  0.00     0.211 HD
ENDBRANCH  28  33
BRANCH  30  35
ATOM     35  O   UNL     1     -34.977   8.321  79.056  1.00  0.00    -0.387 OA
ATOM     36  H   UNL     1     -34.212   8.957  79.207  1.00  0.00     0.211 HD
ENDBRANCH  30  35
BRANCH  31  37
ATOM     37  C   UNL     1     -34.231   5.164  81.449  1.00  0.00     0.191 C 
BRANCH  37  38
ATOM     38  O   UNL     1     -34.639   6.472  81.834  1.00  0.00    -0.394 OA
ATOM     39  H   UNL     1     -35.011   6.955  80.966  1.00  0.00     0.210 HD
ENDBRANCH  37  38
ENDBRANCH  31  37
BRANCH  32  40
ATOM     40  O   UNL     1     -32.750   7.178  80.255  1.00  0.00    -0.387 OA
ATOM     41  H   UNL     1     -33.215   8.035  80.273  1.00  0.00     0.211 HD
ENDBRANCH  32  40
ENDBRANCH   1  27
TORSDOF 12
ENDMDL
