MODEL 1
REMARK VINA RESULT:    -4.328      0.000      0.000
REMARK INTER + INTRA:          -5.919
REMARK INTER:                  -5.720
REMARK INTRA:                  -0.199
REMARK UNBOUND:                -0.199
REMARK SMILES C=CCC[C@H](O)CCC
REMARK SMILES IDX 4 1 5 2 7 3 8 4 9 5 6 6 3 8 2 9 1 10
REMARK H PARENT 6 7
REMARK Flexibility Score: inf
ROOT
ATOM      1  C   UNL     1      40.741   8.401  -1.763  1.00  0.00     0.036 C 
ENDROOT
BRANCH   1   2
ATOM      2  C   UNL     1      41.126   9.490  -0.746  1.00  0.00     0.114 C 
BRANCH   2   3
ATOM      3  C   UNL     1      41.504   8.846   0.602  1.00  0.00     0.031 C 
BRANCH   3   4
ATOM      4  C   UNL     1      41.122   7.359   0.699  1.00  0.00    -0.001 C 
ATOM      5  C   UNL     1      40.569   6.975   2.071  1.00  0.00     0.004 C 
ENDBRANCH   3   4
ENDBRANCH   2   3
BRANCH   2   6
ATOM      6  O   UNL     1      42.220  10.227  -1.232  1.00  0.00    -0.393 OA
ATOM      7  H   UNL     1      42.381   9.933  -2.166  1.00  0.00     0.210 HD
ENDBRANCH   2   6
ENDBRANCH   1   2
BRANCH   1   8
ATOM      8  C   UNL     1      40.952   8.868  -3.210  1.00  0.00     0.029 C 
BRANCH   8   9
ATOM      9  C   UNL     1      39.639   9.114  -3.901  1.00  0.00    -0.035 C 
ATOM     10  C   UNL     1      39.381   8.622  -5.117  1.00  0.00     0.004 C 
ENDBRANCH   8   9
ENDBRANCH   1   8
TORSDOF 6
ENDMDL
MODEL 2
REMARK VINA RESULT:    -4.158      1.415      4.546
REMARK INTER + INTRA:          -5.694
REMARK INTER:                  -5.356
REMARK INTRA:                  -0.337
REMARK UNBOUND:                -0.199
REMARK SMILES C=CCC[C@H](O)CCC
REMARK SMILES IDX 4 1 5 2 7 3 8 4 9 5 6 6 3 8 2 9 1 10
REMARK H PARENT 6 7
REMARK Flexibility Score: inf
ROOT
ATOM      1  C   UNL     1      41.209   9.038   0.591  1.00  0.00     0.036 C 
ENDROOT
BRANCH   1   2
ATOM      2  C   UNL     1      41.390   9.702  -0.786  1.00  0.00     0.114 C 
BRANCH   2   3
ATOM      3  C   UNL     1      40.819   8.794  -1.891  1.00  0.00     0.031 C 
BRANCH   3   4
ATOM      4  C   UNL     1      41.673   8.777  -3.171  1.00  0.00    -0.001 C 
ATOM      5  C   UNL     1      43.173   8.711  -2.883  1.00  0.00     0.004 C 
ENDBRANCH   3   4
ENDBRANCH   2   3
BRANCH   2   6
ATOM      6  O   UNL     1      40.720  10.939  -0.807  1.00  0.00    -0.393 OA
ATOM      7  H   UNL     1      39.747  10.747  -0.760  1.00  0.00     0.210 HD
ENDBRANCH   2   6
ENDBRANCH   1   2
BRANCH   1   8
ATOM      8  C   UNL     1      41.329   7.509   0.510  1.00  0.00     0.029 C 
BRANCH   8   9
ATOM      9  C   UNL     1      40.659   6.847   1.683  1.00  0.00    -0.035 C 
ATOM     10  C   UNL     1      40.418   7.507   2.820  1.00  0.00     0.004 C 
ENDBRANCH   8   9
ENDBRANCH   1   8
TORSDOF 6
ENDMDL
MODEL 3
REMARK VINA RESULT:    -3.954      1.308      4.543
REMARK INTER + INTRA:          -5.425
REMARK INTER:                  -5.123
REMARK INTRA:                  -0.302
REMARK UNBOUND:                -0.199
REMARK SMILES C=CCC[C@H](O)CCC
REMARK SMILES IDX 4 1 5 2 7 3 8 4 9 5 6 6 3 8 2 9 1 10
REMARK H PARENT 6 7
REMARK Flexibility Score: inf
ROOT
ATOM      1  C   UNL     1      40.957   8.988  -1.437  1.00  0.00     0.036 C 
ENDROOT
BRANCH   1   2
ATOM      2  C   UNL     1      42.037   8.716  -2.499  1.00  0.00     0.114 C 
BRANCH   2   3
ATOM      3  C   UNL     1      41.440   8.862  -3.912  1.00  0.00     0.031 C 
BRANCH   3   4
ATOM      4  C   UNL     1      39.914   9.052  -3.914  1.00  0.00    -0.001 C 
ATOM      5  C   UNL     1      39.246   8.493  -5.171  1.00  0.00     0.004 C 
ENDBRANCH   3   4
ENDBRANCH   2   3
BRANCH   2   6
ATOM      6  O   UNL     1      43.095   9.630  -2.344  1.00  0.00    -0.393 OA
ATOM      7  H   UNL     1      42.712  10.541  -2.440  1.00  0.00     0.210 HD
ENDBRANCH   2   6
ENDBRANCH   1   2
BRANCH   1   8
ATOM      8  C   UNL     1      41.463   8.695  -0.017  1.00  0.00     0.029 C 
BRANCH   8   9
ATOM      9  C   UNL     1      41.440   9.934   0.836  1.00  0.00    -0.035 C 
ATOM     10  C   UNL     1      41.143  11.133   0.327  1.00  0.00     0.004 C 
ENDBRANCH   8   9
ENDBRANCH   1   8
TORSDOF 6
ENDMDL
MODEL 4
REMARK VINA RESULT:    -3.877      8.164      9.341
REMARK INTER + INTRA:          -5.323
REMARK INTER:                  -4.684
REMARK INTRA:                  -0.639
REMARK UNBOUND:                -0.199
REMARK SMILES C=CCC[C@H](O)CCC
REMARK SMILES IDX 4 1 5 2 7 3 8 4 9 5 6 6 3 8 2 9 1 10
REMARK H PARENT 6 7
REMARK Flexibility Score: inf
ROOT
ATOM      1  C   UNL     1      35.537  10.786   4.398  1.00  0.00     0.036 C 
ENDROOT
BRANCH   1   2
ATOM      2  C   UNL     1      34.637  12.007   4.659  1.00  0.00     0.114 C 
BRANCH   2   3
ATOM      3  C   UNL     1      33.571  12.125   3.553  1.00  0.00     0.031 C 
BRANCH   3   4
ATOM      4  C   UNL     1      34.016  11.527   2.208  1.00  0.00    -0.001 C 
ATOM      5  C   UNL     1      32.967  10.600   1.593  1.00  0.00     0.004 C 
ENDBRANCH   3   4
ENDBRANCH   2   3
BRANCH   2   6
ATOM      6  O   UNL     1      34.001  11.869   5.906  1.00  0.00    -0.393 OA
ATOM      7  H   UNL     1      33.188  11.318   5.762  1.00  0.00     0.210 HD
ENDBRANCH   2   6
ENDBRANCH   1   2
BRANCH   1   8
ATOM      8  C   UNL     1      35.138   9.584   5.265  1.00  0.00     0.029 C 
BRANCH   8   9
ATOM      9  C   UNL     1      34.521   8.493   4.433  1.00  0.00    -0.035 C 
ATOM     10  C   UNL     1      35.111   8.035   3.325  1.00  0.00     0.004 C 
ENDBRANCH   8   9
ENDBRANCH   1   8
TORSDOF 6
ENDMDL
MODEL 5
REMARK VINA RESULT:    -3.865      8.444      9.908
REMARK INTER + INTRA:          -5.307
REMARK INTER:                  -4.642
REMARK INTRA:                  -0.665
REMARK UNBOUND:                -0.199
REMARK SMILES C=CCC[C@H](O)CCC
REMARK SMILES IDX 4 1 5 2 7 3 8 4 9 5 6 6 3 8 2 9 1 10
REMARK H PARENT 6 7
REMARK Flexibility Score: inf
ROOT
ATOM      1  C   UNL     1      41.703   2.083  -5.794  1.00  0.00     0.036 C 
ENDROOT
BRANCH   1   2
ATOM      2  C   UNL     1      40.971   2.491  -7.084  1.00  0.00     0.114 C 
BRANCH   2   3
ATOM      3  C   UNL     1      41.851   3.446  -7.913  1.00  0.00     0.031 C 
BRANCH   3   4
ATOM      4  C   UNL     1      42.111   2.951  -9.346  1.00  0.00    -0.001 C 
ATOM      5  C   UNL     1      43.592   2.695  -9.627  1.00  0.00     0.004 C 
ENDBRANCH   3   4
ENDBRANCH   2   3
BRANCH   2   6
ATOM      6  O   UNL     1      40.681   1.346  -7.847  1.00  0.00    -0.393 OA
ATOM      7  H   UNL     1      41.471   1.165  -8.419  1.00  0.00     0.210 HD
ENDBRANCH   2   6
ENDBRANCH   1   2
BRANCH   1   8
ATOM      8  C   UNL     1      43.157   2.578  -5.778  1.00  0.00     0.029 C 
BRANCH   8   9
ATOM      9  C   UNL     1      44.125   1.427  -5.811  1.00  0.00    -0.035 C 
ATOM     10  C   UNL     1      43.957   0.390  -6.637  1.00  0.00     0.004 C 
ENDBRANCH   8   9
ENDBRANCH   1   8
TORSDOF 6
ENDMDL
MODEL 6
REMARK VINA RESULT:    -3.850      2.193      4.278
REMARK INTER + INTRA:          -5.287
REMARK INTER:                  -4.774
REMARK INTRA:                  -0.512
REMARK UNBOUND:                -0.199
REMARK SMILES C=CCC[C@H](O)CCC
REMARK SMILES IDX 4 1 5 2 7 3 8 4 9 5 6 6 3 8 2 9 1 10
REMARK H PARENT 6 7
REMARK Flexibility Score: inf
ROOT
ATOM      1  C   UNL     1      41.873   8.140   0.114  1.00  0.00     0.036 C 
ENDROOT
BRANCH   1   2
ATOM      2  C   UNL     1      41.427   9.153  -0.956  1.00  0.00     0.114 C 
BRANCH   2   3
ATOM      3  C   UNL     1      41.011  10.478  -0.290  1.00  0.00     0.031 C 
BRANCH   3   4
ATOM      4  C   UNL     1      41.707  10.730   1.058  1.00  0.00    -0.001 C 
ATOM      5  C   UNL     1      40.853  11.552   2.024  1.00  0.00     0.004 C 
ENDBRANCH   3   4
ENDBRANCH   2   3
BRANCH   2   6
ATOM      6  O   UNL     1      42.485   9.393  -1.851  1.00  0.00    -0.393 OA
ATOM      7  H   UNL     1      43.298   9.561  -1.307  1.00  0.00     0.210 HD
ENDBRANCH   2   6
ENDBRANCH   1   2
BRANCH   1   8
ATOM      8  C   UNL     1      40.755   7.147   0.464  1.00  0.00     0.029 C 
BRANCH   8   9
ATOM      9  C   UNL     1      40.742   6.838   1.936  1.00  0.00    -0.035 C 
ATOM     10  C   UNL     1      40.317   7.728   2.837  1.00  0.00     0.004 C 
ENDBRANCH   8   9
ENDBRANCH   1   8
TORSDOF 6
ENDMDL
MODEL 7
REMARK VINA RESULT:    -3.811      8.001      8.805
REMARK INTER + INTRA:          -5.235
REMARK INTER:                  -4.656
REMARK INTRA:                  -0.579
REMARK UNBOUND:                -0.199
REMARK SMILES C=CCC[C@H](O)CCC
REMARK SMILES IDX 4 1 5 2 7 3 8 4 9 5 6 6 3 8 2 9 1 10
REMARK H PARENT 6 7
REMARK Flexibility Score: inf
ROOT
ATOM      1  C   UNL     1      34.124   9.598   2.238  1.00  0.00     0.036 C 
ENDROOT
BRANCH   1   2
ATOM      2  C   UNL     1      34.671   8.901   3.496  1.00  0.00     0.114 C 
BRANCH   2   3
ATOM      3  C   UNL     1      35.564   9.870   4.294  1.00  0.00     0.031 C 
BRANCH   3   4
ATOM      4  C   UNL     1      35.032  10.172   5.705  1.00  0.00    -0.001 C 
ATOM      5  C   UNL     1      35.391  11.578   6.187  1.00  0.00     0.004 C 
ENDBRANCH   3   4
ENDBRANCH   2   3
BRANCH   2   6
ATOM      6  O   UNL     1      33.601   8.480   4.307  1.00  0.00    -0.393 OA
ATOM      7  H   UNL     1      32.840   8.271   3.704  1.00  0.00     0.210 HD
ENDBRANCH   2   6
ENDBRANCH   1   2
BRANCH   1   8
ATOM      8  C   UNL     1      34.644  11.037   2.108  1.00  0.00     0.029 C 
BRANCH   8   9
ATOM      9  C   UNL     1      33.525  12.034   2.228  1.00  0.00    -0.035 C 
ATOM     10  C   UNL     1      32.779  12.125   3.333  1.00  0.00     0.004 C 
ENDBRANCH   8   9
ENDBRANCH   1   8
TORSDOF 6
ENDMDL
MODEL 8
REMARK VINA RESULT:    -3.769      7.925      9.252
REMARK INTER + INTRA:          -5.180
REMARK INTER:                  -4.940
REMARK INTRA:                  -0.240
REMARK UNBOUND:                -0.199
REMARK SMILES C=CCC[C@H](O)CCC
REMARK SMILES IDX 4 1 5 2 7 3 8 4 9 5 6 6 3 8 2 9 1 10
REMARK H PARENT 6 7
REMARK Flexibility Score: inf
ROOT
ATOM      1  C   UNL     1      41.802   3.226  -7.741  1.00  0.00     0.036 C 
ENDROOT
BRANCH   1   2
ATOM      2  C   UNL     1      40.483   2.508  -7.405  1.00  0.00     0.114 C 
BRANCH   2   3
ATOM      3  C   UNL     1      39.290   3.294  -7.981  1.00  0.00     0.031 C 
BRANCH   3   4
ATOM      4  C   UNL     1      38.872   4.494  -7.114  1.00  0.00    -0.001 C 
ATOM      5  C   UNL     1      39.190   5.839  -7.768  1.00  0.00     0.004 C 
ENDBRANCH   3   4
ENDBRANCH   2   3
BRANCH   2   6
ATOM      6  O   UNL     1      40.495   1.212  -7.952  1.00  0.00    -0.393 OA
ATOM      7  H   UNL     1      41.354   0.790  -7.687  1.00  0.00     0.210 HD
ENDBRANCH   2   6
ENDBRANCH   1   2
BRANCH   1   8
ATOM      8  C   UNL     1      43.027   2.385  -7.353  1.00  0.00     0.029 C 
BRANCH   8   9
ATOM      9  C   UNL     1      43.094   2.175  -5.865  1.00  0.00    -0.035 C 
ATOM     10  C   UNL     1      43.097   0.951  -5.327  1.00  0.00     0.004 C 
ENDBRANCH   8   9
ENDBRANCH   1   8
TORSDOF 6
ENDMDL
MODEL 9
REMARK VINA RESULT:    -3.723      7.854      8.582
REMARK INTER + INTRA:          -5.119
REMARK INTER:                  -4.882
REMARK INTRA:                  -0.237
REMARK UNBOUND:                -0.199
REMARK SMILES C=CCC[C@H](O)CCC
REMARK SMILES IDX 4 1 5 2 7 3 8 4 9 5 6 6 3 8 2 9 1 10
REMARK H PARENT 6 7
REMARK Flexibility Score: inf
ROOT
ATOM      1  C   UNL     1      40.524   2.853  -7.106  1.00  0.00     0.036 C 
ENDROOT
BRANCH   1   2
ATOM      2  C   UNL     1      41.818   3.007  -7.924  1.00  0.00     0.114 C 
BRANCH   2   3
ATOM      3  C   UNL     1      43.010   2.418  -7.147  1.00  0.00     0.031 C 
BRANCH   3   4
ATOM      4  C   UNL     1      42.692   2.121  -5.672  1.00  0.00    -0.001 C 
ATOM      5  C   UNL     1      42.938   0.661  -5.292  1.00  0.00     0.004 C 
ENDBRANCH   3   4
ENDBRANCH   2   3
BRANCH   2   6
ATOM      6  O   UNL     1      41.685   2.336  -9.153  1.00  0.00    -0.393 OA
ATOM      7  H   UNL     1      40.864   2.683  -9.590  1.00  0.00     0.210 HD
ENDBRANCH   2   6
ENDBRANCH   1   2
BRANCH   1   8
ATOM      8  C   UNL     1      39.273   3.129  -7.953  1.00  0.00     0.029 C 
BRANCH   8   9
ATOM      9  C   UNL     1      38.545   4.352  -7.467  1.00  0.00    -0.035 C 
ATOM     10  C   UNL     1      39.059   5.578  -7.605  1.00  0.00     0.004 C 
ENDBRANCH   8   9
ENDBRANCH   1   8
TORSDOF 6
ENDMDL
