MODEL 1
REMARK VINA RESULT:    -4.867      0.000      0.000
REMARK INTER + INTRA:         -11.023
REMARK INTER:                  -9.135
REMARK INTRA:                  -1.888
REMARK UNBOUND:                -1.888
REMARK SMILES O=C([O-])CCCCCCCCCCCCCCC(=O)[O-]
REMARK SMILES IDX 10 1 9 2 8 3 7 4 6 5 5 6 4 7 2 8 1 9 3 10 11 11 12 12 13 13
REMARK SMILES IDX 14 14 15 15 16 16 17 17 18 18 19 19 20 20
REMARK H PARENT
REMARK Flexibility Score: inf
ROOT
ATOM      1  C   UNL     1     -22.708  45.551  87.226  1.00  0.00     0.000 C 
ENDROOT
BRANCH   1   2
ATOM      2  C   UNL     1     -23.858  46.517  87.558  1.00  0.00     0.000 C 
BRANCH   2   3
ATOM      3  C   UNL     1     -25.202  46.060  86.965  1.00  0.00     0.000 C 
BRANCH   3   4
ATOM      4  C   UNL     1     -26.172  45.531  88.034  1.00  0.00     0.000 C 
BRANCH   4   5
ATOM      5  C   UNL     1     -25.531  45.458  89.431  1.00  0.00     0.000 C 
BRANCH   5   6
ATOM      6  C   UNL     1     -25.896  44.166  90.180  1.00  0.00     0.006 C 
BRANCH   6   7
ATOM      7  C   UNL     1     -27.259  44.252  90.879  1.00  0.00     0.053 C 
BRANCH   7   8
ATOM      8  C   UNL     1     -28.155  43.149  90.411  1.00  0.00     0.041 C 
ATOM      9  O   UNL     1     -29.015  42.658  91.189  1.00  0.00    -0.550 OA
ATOM     10  O   UNL     1     -28.074  42.695  89.101  1.00  0.00    -0.550 OA
ENDBRANCH   7   8
ENDBRANCH   6   7
ENDBRANCH   5   6
ENDBRANCH   4   5
ENDBRANCH   3   4
ENDBRANCH   2   3
ENDBRANCH   1   2
BRANCH   1  11
ATOM     11  C   UNL     1     -21.912  45.125  88.471  1.00  0.00     0.000 C 
BRANCH  11  12
ATOM     12  C   UNL     1     -22.206  43.675  88.890  1.00  0.00     0.000 C 
BRANCH  12  13
ATOM     13  C   UNL     1     -22.690  42.808  87.714  1.00  0.00     0.000 C 
BRANCH  13  14
ATOM     14  C   UNL     1     -21.700  41.688  87.360  1.00  0.00     0.000 C 
BRANCH  14  15
ATOM     15  C   UNL     1     -20.312  42.224  86.981  1.00  0.00     0.000 C 
BRANCH  15  16
ATOM     16  C   UNL     1     -20.375  43.048  85.689  1.00  0.00     0.006 C 
BRANCH  16  17
ATOM     17  C   UNL     1     -19.300  44.139  85.679  1.00  0.00     0.053 C 
BRANCH  17  18
ATOM     18  C   UNL     1     -19.647  45.207  84.691  1.00  0.00     0.041 C 
ATOM     19  O   UNL     1     -18.780  46.047  84.334  1.00  0.00    -0.550 OA
ATOM     20  O   UNL     1     -20.916  45.244  84.125  1.00  0.00    -0.550 OA
ENDBRANCH  17  18
ENDBRANCH  16  17
ENDBRANCH  15  16
ENDBRANCH  14  15
ENDBRANCH  13  14
ENDBRANCH  12  13
ENDBRANCH  11  12
ENDBRANCH   1  11
TORSDOF 15
ENDMDL
MODEL 2
REMARK VINA RESULT:    -4.864      0.909      7.586
REMARK INTER + INTRA:         -11.018
REMARK INTER:                  -9.094
REMARK INTRA:                  -1.924
REMARK UNBOUND:                -1.888
REMARK SMILES O=C([O-])CCCCCCCCCCCCCCC(=O)[O-]
REMARK SMILES IDX 10 1 9 2 8 3 7 4 6 5 5 6 4 7 2 8 1 9 3 10 11 11 12 12 13 13
REMARK SMILES IDX 14 14 15 15 16 16 17 17 18 18 19 19 20 20
REMARK H PARENT
REMARK Flexibility Score: inf
ROOT
ATOM      1  C   UNL     1     -23.424  45.582  87.068  1.00  0.00     0.000 C 
ENDROOT
BRANCH   1   2
ATOM      2  C   UNL     1     -22.591  45.545  88.360  1.00  0.00     0.000 C 
BRANCH   2   3
ATOM      3  C   UNL     1     -22.431  44.120  88.917  1.00  0.00     0.000 C 
BRANCH   3   4
ATOM      4  C   UNL     1     -22.993  43.047  87.971  1.00  0.00     0.000 C 
BRANCH   4   5
ATOM      5  C   UNL     1     -21.948  41.979  87.599  1.00  0.00     0.000 C 
BRANCH   5   6
ATOM      6  C   UNL     1     -20.522  42.549  87.527  1.00  0.00     0.006 C 
BRANCH   6   7
ATOM      7  C   UNL     1     -19.887  42.380  86.141  1.00  0.00     0.053 C 
BRANCH   7   8
ATOM      8  C   UNL     1     -19.746  43.709  85.467  1.00  0.00     0.041 C 
ATOM      9  O   UNL     1     -20.769  44.364  85.138  1.00  0.00    -0.550 OA
ATOM     10  O   UNL     1     -18.484  44.246  85.246  1.00  0.00    -0.550 OA
ENDBRANCH   7   8
ENDBRANCH   6   7
ENDBRANCH   5   6
ENDBRANCH   4   5
ENDBRANCH   3   4
ENDBRANCH   2   3
ENDBRANCH   1   2
BRANCH   1  11
ATOM     11  C   UNL     1     -23.932  46.994  86.730  1.00  0.00     0.000 C 
BRANCH  11  12
ATOM     12  C   UNL     1     -25.448  47.030  86.482  1.00  0.00     0.000 C 
BRANCH  12  13
ATOM     13  C   UNL     1     -26.217  46.047  87.383  1.00  0.00     0.000 C 
BRANCH  13  14
ATOM     14  C   UNL     1     -26.540  46.640  88.763  1.00  0.00     0.000 C 
BRANCH  14  15
ATOM     15  C   UNL     1     -25.909  45.841  89.912  1.00  0.00     0.000 C 
BRANCH  15  16
ATOM     16  C   UNL     1     -26.113  44.334  89.710  1.00  0.00     0.006 C 
BRANCH  16  17
ATOM     17  C   UNL     1     -26.917  43.727  90.864  1.00  0.00     0.053 C 
BRANCH  17  18
ATOM     18  C   UNL     1     -28.133  43.028  90.345  1.00  0.00     0.041 C 
ATOM     19  O   UNL     1     -28.209  42.706  89.130  1.00  0.00    -0.550 OA
ATOM     20  O   UNL     1     -29.162  42.688  91.214  1.00  0.00    -0.550 OA
ENDBRANCH  17  18
ENDBRANCH  16  17
ENDBRANCH  15  16
ENDBRANCH  14  15
ENDBRANCH  13  14
ENDBRANCH  12  13
ENDBRANCH  11  12
ENDBRANCH   1  11
TORSDOF 15
ENDMDL
MODEL 3
REMARK VINA RESULT:    -4.858      4.939      8.699
REMARK INTER + INTRA:         -11.006
REMARK INTER:                  -9.706
REMARK INTRA:                  -1.300
REMARK UNBOUND:                -1.888
REMARK SMILES O=C([O-])CCCCCCCCCCCCCCC(=O)[O-]
REMARK SMILES IDX 10 1 9 2 8 3 7 4 6 5 5 6 4 7 2 8 1 9 3 10 11 11 12 12 13 13
REMARK SMILES IDX 14 14 15 15 16 16 17 17 18 18 19 19 20 20
REMARK H PARENT
REMARK Flexibility Score: inf
ROOT
ATOM      1  C   UNL     1     -20.278  38.613  89.838  1.00  0.00     0.000 C 
ENDROOT
BRANCH   1   2
ATOM      2  C   UNL     1     -20.179  37.758  88.564  1.00  0.00     0.000 C 
BRANCH   2   3
ATOM      3  C   UNL     1     -21.001  38.339  87.399  1.00  0.00     0.000 C 
BRANCH   3   4
ATOM      4  C   UNL     1     -20.119  38.858  86.252  1.00  0.00     0.000 C 
BRANCH   4   5
ATOM      5  C   UNL     1     -20.109  37.911  85.038  1.00  0.00     0.000 C 
BRANCH   5   6
ATOM      6  C   UNL     1     -18.737  37.856  84.345  1.00  0.00     0.006 C 
BRANCH   6   7
ATOM      7  C   UNL     1     -18.598  36.651  83.406  1.00  0.00     0.053 C 
BRANCH   7   8
ATOM      8  C   UNL     1     -17.163  36.246  83.288  1.00  0.00     0.041 C 
ATOM      9  O   UNL     1     -16.854  35.030  83.184  1.00  0.00    -0.550 OA
ATOM     10  O   UNL     1     -16.168  37.214  83.244  1.00  0.00    -0.550 OA
ENDBRANCH   7   8
ENDBRANCH   6   7
ENDBRANCH   5   6
ENDBRANCH   4   5
ENDBRANCH   3   4
ENDBRANCH   2   3
ENDBRANCH   1   2
BRANCH   1  11
ATOM     11  C   UNL     1     -19.057  39.527  90.037  1.00  0.00     0.000 C 
BRANCH  11  12
ATOM     12  C   UNL     1     -19.381  41.006  89.773  1.00  0.00     0.000 C 
BRANCH  12  13
ATOM     13  C   UNL     1     -20.895  41.278  89.720  1.00  0.00     0.000 C 
BRANCH  13  14
ATOM     14  C   UNL     1     -21.257  42.413  88.749  1.00  0.00     0.000 C 
BRANCH  14  15
ATOM     15  C   UNL     1     -20.650  42.211  87.353  1.00  0.00     0.000 C 
BRANCH  15  16
ATOM     16  C   UNL     1     -20.453  43.555  86.640  1.00  0.00     0.006 C 
BRANCH  16  17
ATOM     17  C   UNL     1     -19.400  43.443  85.534  1.00  0.00     0.053 C 
BRANCH  17  18
ATOM     18  C   UNL     1     -19.064  44.796  84.992  1.00  0.00     0.041 C 
ATOM     19  O   UNL     1     -19.956  45.680  84.895  1.00  0.00    -0.550 OA
ATOM     20  O   UNL     1     -17.753  45.097  84.641  1.00  0.00    -0.550 OA
ENDBRANCH  17  18
ENDBRANCH  16  17
ENDBRANCH  15  16
ENDBRANCH  14  15
ENDBRANCH  13  14
ENDBRANCH  12  13
ENDBRANCH  11  12
ENDBRANCH   1  11
TORSDOF 15
ENDMDL
MODEL 4
REMARK VINA RESULT:    -4.819      2.486      3.337
REMARK INTER + INTRA:         -10.933
REMARK INTER:                  -9.792
REMARK INTRA:                  -1.141
REMARK UNBOUND:                -1.888
REMARK SMILES O=C([O-])CCCCCCCCCCCCCCC(=O)[O-]
REMARK SMILES IDX 10 1 9 2 8 3 7 4 6 5 5 6 4 7 2 8 1 9 3 10 11 11 12 12 13 13
REMARK SMILES IDX 14 14 15 15 16 16 17 17 18 18 19 19 20 20
REMARK H PARENT
REMARK Flexibility Score: inf
ROOT
ATOM      1  C   UNL     1     -23.283  45.408  87.033  1.00  0.00     0.000 C 
ENDROOT
BRANCH   1   2
ATOM      2  C   UNL     1     -24.437  46.374  86.718  1.00  0.00     0.000 C 
BRANCH   2   3
ATOM      3  C   UNL     1     -25.780  45.899  87.302  1.00  0.00     0.000 C 
BRANCH   3   4
ATOM      4  C   UNL     1     -26.328  46.851  88.377  1.00  0.00     0.000 C 
BRANCH   4   5
ATOM      5  C   UNL     1     -26.380  46.202  89.772  1.00  0.00     0.000 C 
BRANCH   5   6
ATOM      6  C   UNL     1     -26.449  44.667  89.706  1.00  0.00     0.006 C 
BRANCH   6   7
ATOM      7  C   UNL     1     -27.189  44.056  90.902  1.00  0.00     0.053 C 
BRANCH   7   8
ATOM      8  C   UNL     1     -28.201  43.058  90.434  1.00  0.00     0.041 C 
ATOM      9  O   UNL     1     -29.060  42.604  91.234  1.00  0.00    -0.550 OA
ATOM     10  O   UNL     1     -28.227  42.666  89.102  1.00  0.00    -0.550 OA
ENDBRANCH   7   8
ENDBRANCH   6   7
ENDBRANCH   5   6
ENDBRANCH   4   5
ENDBRANCH   3   4
ENDBRANCH   2   3
ENDBRANCH   1   2
BRANCH   1  11
ATOM     11  C   UNL     1     -21.913  45.961  86.607  1.00  0.00     0.000 C 
BRANCH  11  12
ATOM     12  C   UNL     1     -21.739  45.992  85.080  1.00  0.00     0.000 C 
BRANCH  12  13
ATOM     13  C   UNL     1     -20.594  45.084  84.598  1.00  0.00     0.000 C 
BRANCH  13  14
ATOM     14  C   UNL     1     -19.785  44.488  85.761  1.00  0.00     0.000 C 
BRANCH  14  15
ATOM     15  C   UNL     1     -19.907  42.959  85.843  1.00  0.00     0.000 C 
BRANCH  15  16
ATOM     16  C   UNL     1     -20.513  42.528  87.184  1.00  0.00     0.006 C 
BRANCH  16  17
ATOM     17  C   UNL     1     -21.521  41.392  86.993  1.00  0.00     0.053 C 
BRANCH  17  18
ATOM     18  C   UNL     1     -20.999  40.123  87.587  1.00  0.00     0.041 C 
ATOM     19  O   UNL     1     -20.268  40.156  88.612  1.00  0.00    -0.550 OA
ATOM     20  O   UNL     1     -21.362  38.898  87.039  1.00  0.00    -0.550 OA
ENDBRANCH  17  18
ENDBRANCH  16  17
ENDBRANCH  15  16
ENDBRANCH  14  15
ENDBRANCH  13  14
ENDBRANCH  12  13
ENDBRANCH  11  12
ENDBRANCH   1  11
TORSDOF 15
ENDMDL
MODEL 5
REMARK VINA RESULT:    -4.798      1.028      8.432
REMARK INTER + INTRA:         -10.894
REMARK INTER:                  -9.618
REMARK INTRA:                  -1.276
REMARK UNBOUND:                -1.888
REMARK SMILES O=C([O-])CCCCCCCCCCCCCCC(=O)[O-]
REMARK SMILES IDX 10 1 9 2 8 3 7 4 6 5 5 6 4 7 2 8 1 9 3 10 11 11 12 12 13 13
REMARK SMILES IDX 14 14 15 15 16 16 17 17 18 18 19 19 20 20
REMARK H PARENT
REMARK Flexibility Score: inf
ROOT
ATOM      1  C   UNL     1     -22.966  44.792  87.309  1.00  0.00     0.000 C 
ENDROOT
BRANCH   1   2
ATOM      2  C   UNL     1     -21.767  44.693  88.267  1.00  0.00     0.000 C 
BRANCH   2   3
ATOM      3  C   UNL     1     -20.966  43.393  88.075  1.00  0.00     0.000 C 
BRANCH   3   4
ATOM      4  C   UNL     1     -21.030  42.865  86.633  1.00  0.00     0.000 C 
BRANCH   4   5
ATOM      5  C   UNL     1     -19.697  43.031  85.882  1.00  0.00     0.000 C 
BRANCH   5   6
ATOM      6  C   UNL     1     -19.616  44.361  85.113  1.00  0.00     0.006 C 
BRANCH   6   7
ATOM      7  C   UNL     1     -18.175  44.861  84.949  1.00  0.00     0.053 C 
BRANCH   7   8
ATOM      8  C   UNL     1     -18.150  46.118  84.138  1.00  0.00     0.041 C 
ATOM      9  O   UNL     1     -17.269  46.992  84.351  1.00  0.00    -0.550 OA
ATOM     10  O   UNL     1     -19.069  46.304  83.114  1.00  0.00    -0.550 OA
ENDBRANCH   7   8
ENDBRANCH   6   7
ENDBRANCH   5   6
ENDBRANCH   4   5
ENDBRANCH   3   4
ENDBRANCH   2   3
ENDBRANCH   1   2
BRANCH   1  11
ATOM     11  C   UNL     1     -22.980  46.106  86.509  1.00  0.00     0.000 C 
BRANCH  11  12
ATOM     12  C   UNL     1     -24.311  46.863  86.644  1.00  0.00     0.000 C 
BRANCH  12  13
ATOM     13  C   UNL     1     -25.489  45.930  86.976  1.00  0.00     0.000 C 
BRANCH  13  14
ATOM     14  C   UNL     1     -26.272  46.386  88.217  1.00  0.00     0.000 C 
BRANCH  14  15
ATOM     15  C   UNL     1     -25.655  45.872  89.526  1.00  0.00     0.000 C 
BRANCH  15  16
ATOM     16  C   UNL     1     -26.127  44.445  89.832  1.00  0.00     0.006 C 
BRANCH  16  17
ATOM     17  C   UNL     1     -27.463  44.456  90.581  1.00  0.00     0.053 C 
BRANCH  17  18
ATOM     18  C   UNL     1     -28.245  43.218  90.275  1.00  0.00     0.041 C 
ATOM     19  O   UNL     1     -28.174  42.689  89.135  1.00  0.00    -0.550 OA
ATOM     20  O   UNL     1     -29.014  42.620  91.266  1.00  0.00    -0.550 OA
ENDBRANCH  17  18
ENDBRANCH  16  17
ENDBRANCH  15  16
ENDBRANCH  14  15
ENDBRANCH  13  14
ENDBRANCH  12  13
ENDBRANCH  11  12
ENDBRANCH   1  11
TORSDOF 15
ENDMDL
MODEL 6
REMARK VINA RESULT:    -4.762      2.097      3.057
REMARK INTER + INTRA:         -10.826
REMARK INTER:                  -9.595
REMARK INTRA:                  -1.231
REMARK UNBOUND:                -1.888
REMARK SMILES O=C([O-])CCCCCCCCCCCCCCC(=O)[O-]
REMARK SMILES IDX 10 1 9 2 8 3 7 4 6 5 5 6 4 7 2 8 1 9 3 10 11 11 12 12 13 13
REMARK SMILES IDX 14 14 15 15 16 16 17 17 18 18 19 19 20 20
REMARK H PARENT
REMARK Flexibility Score: inf
ROOT
ATOM      1  C   UNL     1     -23.930  46.894  86.156  1.00  0.00     0.000 C 
ENDROOT
BRANCH   1   2
ATOM      2  C   UNL     1     -25.175  46.174  86.702  1.00  0.00     0.000 C 
BRANCH   2   3
ATOM      3  C   UNL     1     -26.010  47.069  87.635  1.00  0.00     0.000 C 
BRANCH   3   4
ATOM      4  C   UNL     1     -26.519  46.318  88.876  1.00  0.00     0.000 C 
BRANCH   4   5
ATOM      5  C   UNL     1     -25.595  45.157  89.286  1.00  0.00     0.000 C 
BRANCH   5   6
ATOM      6  C   UNL     1     -26.153  44.350  90.470  1.00  0.00     0.006 C 
BRANCH   6   7
ATOM      7  C   UNL     1     -27.670  44.510  90.632  1.00  0.00     0.053 C 
BRANCH   7   8
ATOM      8  C   UNL     1     -28.365  43.218  90.336  1.00  0.00     0.041 C 
ATOM      9  O   UNL     1     -28.246  42.680  89.204  1.00  0.00    -0.550 OA
ATOM     10  O   UNL     1     -29.105  42.584  91.325  1.00  0.00    -0.550 OA
ENDBRANCH   7   8
ENDBRANCH   6   7
ENDBRANCH   5   6
ENDBRANCH   4   5
ENDBRANCH   3   4
ENDBRANCH   2   3
ENDBRANCH   1   2
BRANCH   1  11
ATOM     11  C   UNL     1     -22.652  46.543  86.935  1.00  0.00     0.000 C 
BRANCH  11  12
ATOM     12  C   UNL     1     -21.374  46.854  86.140  1.00  0.00     0.000 C 
BRANCH  12  13
ATOM     13  C   UNL     1     -21.537  46.586  84.633  1.00  0.00     0.000 C 
BRANCH  13  14
ATOM     14  C   UNL     1     -20.902  45.257  84.197  1.00  0.00     0.000 C 
BRANCH  14  15
ATOM     15  C   UNL     1     -19.629  44.923  84.989  1.00  0.00     0.000 C 
BRANCH  15  16
ATOM     16  C   UNL     1     -19.589  43.435  85.361  1.00  0.00     0.006 C 
BRANCH  16  17
ATOM     17  C   UNL     1     -20.549  43.130  86.515  1.00  0.00     0.053 C 
BRANCH  17  18
ATOM     18  C   UNL     1     -20.527  41.671  86.842  1.00  0.00     0.041 C 
ATOM     19  O   UNL     1     -19.432  41.051  86.906  1.00  0.00    -0.550 OA
ATOM     20  O   UNL     1     -21.713  41.005  87.127  1.00  0.00    -0.550 OA
ENDBRANCH  17  18
ENDBRANCH  16  17
ENDBRANCH  15  16
ENDBRANCH  14  15
ENDBRANCH  13  14
ENDBRANCH  12  13
ENDBRANCH  11  12
ENDBRANCH   1  11
TORSDOF 15
ENDMDL
MODEL 7
REMARK VINA RESULT:    -4.722      1.403      8.393
REMARK INTER + INTRA:         -10.750
REMARK INTER:                  -9.836
REMARK INTRA:                  -0.914
REMARK UNBOUND:                -1.888
REMARK SMILES O=C([O-])CCCCCCCCCCCCCCC(=O)[O-]
REMARK SMILES IDX 10 1 9 2 8 3 7 4 6 5 5 6 4 7 2 8 1 9 3 10 11 11 12 12 13 13
REMARK SMILES IDX 14 14 15 15 16 16 17 17 18 18 19 19 20 20
REMARK H PARENT
REMARK Flexibility Score: inf
ROOT
ATOM      1  C   UNL     1     -22.097  44.009  87.082  1.00  0.00     0.000 C 
ENDROOT
BRANCH   1   2
ATOM      2  C   UNL     1     -20.569  44.173  87.029  1.00  0.00     0.000 C 
BRANCH   2   3
ATOM      3  C   UNL     1     -19.987  43.826  85.647  1.00  0.00     0.000 C 
BRANCH   3   4
ATOM      4  C   UNL     1     -18.583  44.412  85.432  1.00  0.00     0.000 C 
BRANCH   4   5
ATOM      5  C   UNL     1     -18.395  44.998  84.021  1.00  0.00     0.000 C 
BRANCH   5   6
ATOM      6  C   UNL     1     -18.570  46.525  83.989  1.00  0.00     0.006 C 
BRANCH   6   7
ATOM      7  C   UNL     1     -19.416  46.998  82.800  1.00  0.00     0.053 C 
BRANCH   7   8
ATOM      8  C   UNL     1     -20.868  46.749  83.061  1.00  0.00     0.041 C 
ATOM      9  O   UNL     1     -21.647  46.486  82.108  1.00  0.00    -0.550 OA
ATOM     10  O   UNL     1     -21.352  46.759  84.362  1.00  0.00    -0.550 OA
ENDBRANCH   7   8
ENDBRANCH   6   7
ENDBRANCH   5   6
ENDBRANCH   4   5
ENDBRANCH   3   4
ENDBRANCH   2   3
ENDBRANCH   1   2
BRANCH   1  11
ATOM     11  C   UNL     1     -22.731  44.732  88.282  1.00  0.00     0.000 C 
BRANCH  11  12
ATOM     12  C   UNL     1     -23.644  45.893  87.855  1.00  0.00     0.000 C 
BRANCH  12  13
ATOM     13  C   UNL     1     -25.078  45.430  87.544  1.00  0.00     0.000 C 
BRANCH  13  14
ATOM     14  C   UNL     1     -26.136  46.210  88.340  1.00  0.00     0.000 C 
BRANCH  14  15
ATOM     15  C   UNL     1     -25.955  46.068  89.859  1.00  0.00     0.000 C 
BRANCH  15  16
ATOM     16  C   UNL     1     -27.147  45.335  90.487  1.00  0.00     0.006 C 
BRANCH  16  17
ATOM     17  C   UNL     1     -26.862  43.836  90.623  1.00  0.00     0.053 C 
BRANCH  17  18
ATOM     18  C   UNL     1     -28.061  43.037  90.222  1.00  0.00     0.041 C 
ATOM     19  O   UNL     1     -29.001  42.850  91.040  1.00  0.00    -0.550 OA
ATOM     20  O   UNL     1     -28.163  42.539  88.929  1.00  0.00    -0.550 OA
ENDBRANCH  17  18
ENDBRANCH  16  17
ENDBRANCH  15  16
ENDBRANCH  14  15
ENDBRANCH  13  14
ENDBRANCH  12  13
ENDBRANCH  11  12
ENDBRANCH   1  11
TORSDOF 15
ENDMDL
MODEL 8
REMARK VINA RESULT:    -4.707      2.223      4.022
REMARK INTER + INTRA:         -10.722
REMARK INTER:                  -9.138
REMARK INTRA:                  -1.584
REMARK UNBOUND:                -1.888
REMARK SMILES O=C([O-])CCCCCCCCCCCCCCC(=O)[O-]
REMARK SMILES IDX 10 1 9 2 8 3 7 4 6 5 5 6 4 7 2 8 1 9 3 10 11 11 12 12 13 13
REMARK SMILES IDX 14 14 15 15 16 16 17 17 18 18 19 19 20 20
REMARK H PARENT
REMARK Flexibility Score: inf
ROOT
ATOM      1  C   UNL     1     -21.426  47.117  84.589  1.00  0.00     0.000 C 
ENDROOT
BRANCH   1   2
ATOM      2  C   UNL     1     -22.680  46.692  85.371  1.00  0.00     0.000 C 
BRANCH   2   3
ATOM      3  C   UNL     1     -22.366  46.327  86.833  1.00  0.00     0.000 C 
BRANCH   3   4
ATOM      4  C   UNL     1     -23.242  45.178  87.357  1.00  0.00     0.000 C 
BRANCH   4   5
ATOM      5  C   UNL     1     -24.688  45.619  87.646  1.00  0.00     0.000 C 
BRANCH   5   6
ATOM      6  C   UNL     1     -25.051  45.511  89.136  1.00  0.00     0.006 C 
BRANCH   6   7
ATOM      7  C   UNL     1     -25.288  44.063  89.583  1.00  0.00     0.053 C 
BRANCH   7   8
ATOM      8  C   UNL     1     -26.099  44.031  90.840  1.00  0.00     0.041 C 
ATOM      9  O   UNL     1     -27.223  44.596  90.883  1.00  0.00    -0.550 OA
ATOM     10  O   UNL     1     -25.636  43.337  91.949  1.00  0.00    -0.550 OA
ENDBRANCH   7   8
ENDBRANCH   6   7
ENDBRANCH   5   6
ENDBRANCH   4   5
ENDBRANCH   3   4
ENDBRANCH   2   3
ENDBRANCH   1   2
BRANCH   1  11
ATOM     11  C   UNL     1     -21.308  46.411  83.227  1.00  0.00     0.000 C 
BRANCH  11  12
ATOM     12  C   UNL     1     -19.865  46.386  82.700  1.00  0.00     0.000 C 
BRANCH  12  13
ATOM     13  C   UNL     1     -18.866  47.020  83.685  1.00  0.00     0.000 C 
BRANCH  13  14
ATOM     14  C   UNL     1     -17.847  46.006  84.226  1.00  0.00     0.000 C 
BRANCH  14  15
ATOM     15  C   UNL     1     -18.416  44.582  84.307  1.00  0.00     0.000 C 
BRANCH  15  16
ATOM     16  C   UNL     1     -19.055  44.323  85.678  1.00  0.00     0.006 C 
BRANCH  16  17
ATOM     17  C   UNL     1     -20.393  43.593  85.533  1.00  0.00     0.053 C 
BRANCH  17  18
ATOM     18  C   UNL     1     -20.430  42.386  86.416  1.00  0.00     0.041 C 
ATOM     19  O   UNL     1     -19.390  41.699  86.594  1.00  0.00    -0.550 OA
ATOM     20  O   UNL     1     -21.602  42.049  87.082  1.00  0.00    -0.550 OA
ENDBRANCH  17  18
ENDBRANCH  16  17
ENDBRANCH  15  16
ENDBRANCH  14  15
ENDBRANCH  13  14
ENDBRANCH  12  13
ENDBRANCH  11  12
ENDBRANCH   1  11
TORSDOF 15
ENDMDL
MODEL 9
REMARK VINA RESULT:    -4.672      2.209      7.363
REMARK INTER + INTRA:         -10.657
REMARK INTER:                  -9.266
REMARK INTRA:                  -1.391
REMARK UNBOUND:                -1.888
REMARK SMILES O=C([O-])CCCCCCCCCCCCCCC(=O)[O-]
REMARK SMILES IDX 10 1 9 2 8 3 7 4 6 5 5 6 4 7 2 8 1 9 3 10 11 11 12 12 13 13
REMARK SMILES IDX 14 14 15 15 16 16 17 17 18 18 19 19 20 20
REMARK H PARENT
REMARK Flexibility Score: inf
ROOT
ATOM      1  C   UNL     1     -22.418  46.354  87.164  1.00  0.00     0.000 C 
ENDROOT
BRANCH   1   2
ATOM      2  C   UNL     1     -22.623  46.510  85.648  1.00  0.00     0.000 C 
BRANCH   2   3
ATOM      3  C   UNL     1     -21.314  46.350  84.857  1.00  0.00     0.000 C 
BRANCH   3   4
ATOM      4  C   UNL     1     -20.283  45.475  85.587  1.00  0.00     0.000 C 
BRANCH   4   5
ATOM      5  C   UNL     1     -20.120  44.087  84.941  1.00  0.00     0.000 C 
BRANCH   5   6
ATOM      6  C   UNL     1     -19.906  42.974  85.980  1.00  0.00     0.006 C 
BRANCH   6   7
ATOM      7  C   UNL     1     -21.079  42.847  86.960  1.00  0.00     0.053 C 
BRANCH   7   8
ATOM      8  C   UNL     1     -21.041  41.520  87.650  1.00  0.00     0.041 C 
ATOM      9  O   UNL     1     -21.619  40.525  87.141  1.00  0.00    -0.550 OA
ATOM     10  O   UNL     1     -20.326  41.371  88.831  1.00  0.00    -0.550 OA
ENDBRANCH   7   8
ENDBRANCH   6   7
ENDBRANCH   5   6
ENDBRANCH   4   5
ENDBRANCH   3   4
ENDBRANCH   2   3
ENDBRANCH   1   2
BRANCH   1  11
ATOM     11  C   UNL     1     -23.693  45.895  87.892  1.00  0.00     0.000 C 
BRANCH  11  12
ATOM     12  C   UNL     1     -24.933  45.930  86.985  1.00  0.00     0.000 C 
BRANCH  12  13
ATOM     13  C   UNL     1     -26.248  45.873  87.781  1.00  0.00     0.000 C 
BRANCH  13  14
ATOM     14  C   UNL     1     -26.159  46.616  89.123  1.00  0.00     0.000 C 
BRANCH  14  15
ATOM     15  C   UNL     1     -26.738  45.802  90.289  1.00  0.00     0.000 C 
BRANCH  15  16
ATOM     16  C   UNL     1     -26.075  44.422  90.378  1.00  0.00     0.006 C 
BRANCH  16  17
ATOM     17  C   UNL     1     -26.880  43.481  91.280  1.00  0.00     0.053 C 
BRANCH  17  18
ATOM     18  C   UNL     1     -28.072  42.948  90.550  1.00  0.00     0.041 C 
ATOM     19  O   UNL     1     -29.189  42.878  91.126  1.00  0.00    -0.550 OA
ATOM     20  O   UNL     1     -27.959  42.575  89.216  1.00  0.00    -0.550 OA
ENDBRANCH  17  18
ENDBRANCH  16  17
ENDBRANCH  15  16
ENDBRANCH  14  15
ENDBRANCH  13  14
ENDBRANCH  12  13
ENDBRANCH  11  12
ENDBRANCH   1  11
TORSDOF 15
ENDMDL
