MODEL 1
REMARK VINA RESULT:    -1.965      0.000      0.000
REMARK INTER + INTRA:          -2.103
REMARK INTER:                  -2.080
REMARK INTRA:                  -0.023
REMARK UNBOUND:                -0.023
REMARK SMILES O=C([O-])c1cccnc1
REMARK SMILES IDX 4 1 5 2 9 3 6 4 8 5 7 6 2 7 1 8 3 9
REMARK H PARENT
REMARK Flexibility Score: inf
ROOT
ATOM      1  C   UNL     1      17.370  20.099  51.307  1.00  0.00     0.016 A 
ATOM      2  C   UNL     1      18.490  19.883  52.127  1.00  0.00     0.013 A 
ATOM      3  C   UNL     1      17.580  20.336  49.937  1.00  0.00     0.120 A 
ATOM      4  C   UNL     1      19.774  19.906  51.580  1.00  0.00     0.021 A 
ATOM      5  N   UNL     1      18.842  20.353  49.430  1.00  0.00    -0.264 NA
ATOM      6  C   UNL     1      19.932  20.145  50.214  1.00  0.00     0.111 A 
ENDROOT
BRANCH   1   7
ATOM      7  C   UNL     1      16.004  20.077  51.875  1.00  0.00     0.073 C 
ATOM      8  O   UNL     1      15.823  20.239  53.111  1.00  0.00    -0.545 OA
ATOM      9  O   UNL     1      14.903  19.877  51.053  1.00  0.00    -0.545 OA
ENDBRANCH   1   7
TORSDOF 1
ENDMDL
MODEL 2
REMARK VINA RESULT:    -1.286      2.831      3.935
REMARK INTER + INTRA:          -1.384
REMARK INTER:                  -1.360
REMARK INTRA:                  -0.024
REMARK UNBOUND:                -0.023
REMARK SMILES O=C([O-])c1cccnc1
REMARK SMILES IDX 4 1 5 2 9 3 6 4 8 5 7 6 2 7 1 8 3 9
REMARK H PARENT
REMARK Flexibility Score: inf
ROOT
ATOM      1  C   UNL     1      18.087  19.903  50.717  1.00  0.00     0.016 A 
ATOM      2  C   UNL     1      16.700  19.904  50.499  1.00  0.00     0.013 A 
ATOM      3  C   UNL     1      18.556  19.888  52.042  1.00  0.00     0.120 A 
ATOM      4  C   UNL     1      15.820  19.891  51.583  1.00  0.00     0.021 A 
ATOM      5  N   UNL     1      17.677  19.875  53.080  1.00  0.00    -0.264 NA
ATOM      6  C   UNL     1      16.333  19.876  52.880  1.00  0.00     0.111 A 
ENDROOT
BRANCH   1   7
ATOM      7  C   UNL     1      19.029  19.917  49.576  1.00  0.00     0.073 C 
ATOM      8  O   UNL     1      18.600  19.943  48.392  1.00  0.00    -0.545 OA
ATOM      9  O   UNL     1      20.401  19.904  49.796  1.00  0.00    -0.545 OA
ENDBRANCH   1   7
TORSDOF 1
ENDMDL
MODEL 3
REMARK VINA RESULT:    -0.878      2.859      3.635
REMARK INTER + INTRA:          -0.952
REMARK INTER:                  -0.928
REMARK INTRA:                  -0.024
REMARK UNBOUND:                -0.023
REMARK SMILES O=C([O-])c1cccnc1
REMARK SMILES IDX 4 1 5 2 9 3 6 4 8 5 7 6 2 7 1 8 3 9
REMARK H PARENT
REMARK Flexibility Score: inf
ROOT
ATOM      1  C   UNL     1      18.758  19.911  51.476  1.00  0.00     0.016 A 
ATOM      2  C   UNL     1      18.113  19.944  52.722  1.00  0.00     0.013 A 
ATOM      3  C   UNL     1      17.967  19.878  50.314  1.00  0.00     0.120 A 
ATOM      4  C   UNL     1      16.718  19.944  52.790  1.00  0.00     0.021 A 
ATOM      5  N   UNL     1      16.610  19.879  50.409  1.00  0.00    -0.264 NA
ATOM      6  C   UNL     1      15.976  19.910  51.609  1.00  0.00     0.111 A 
ENDROOT
BRANCH   1   7
ATOM      7  C   UNL     1      20.235  19.911  51.391  1.00  0.00     0.073 C 
ATOM      8  O   UNL     1      20.936  19.890  52.438  1.00  0.00    -0.545 OA
ATOM      9  O   UNL     1      20.869  19.935  50.155  1.00  0.00    -0.545 OA
ENDBRANCH   1   7
TORSDOF 1
ENDMDL
MODEL 4
REMARK VINA RESULT:    -0.162     18.733     19.263
REMARK INTER + INTRA:          -0.194
REMARK INTER:                  -0.177
REMARK INTRA:                  -0.017
REMARK UNBOUND:                -0.023
REMARK SMILES O=C([O-])c1cccnc1
REMARK SMILES IDX 4 1 5 2 9 3 6 4 8 5 7 6 2 7 1 8 3 9
REMARK H PARENT
REMARK Flexibility Score: inf
ROOT
ATOM      1  C   UNL     1      16.481  38.345  46.767  1.00  0.00     0.016 A 
ATOM      2  C   UNL     1      15.769  39.268  45.984  1.00  0.00     0.013 A 
ATOM      3  C   UNL     1      15.772  37.582  47.712  1.00  0.00     0.120 A 
ATOM      4  C   UNL     1      14.391  39.412  46.150  1.00  0.00     0.021 A 
ATOM      5  N   UNL     1      14.429  37.743  47.853  1.00  0.00    -0.264 NA
ATOM      6  C   UNL     1      13.731  38.632  47.100  1.00  0.00     0.111 A 
ENDROOT
BRANCH   1   7
ATOM      7  C   UNL     1      17.942  38.183  46.600  1.00  0.00     0.073 C 
ATOM      8  O   UNL     1      18.422  37.095  46.186  1.00  0.00    -0.545 OA
ATOM      9  O   UNL     1      18.805  39.231  46.897  1.00  0.00    -0.545 OA
ENDBRANCH   1   7
TORSDOF 1
ENDMDL
MODEL 5
REMARK VINA RESULT:    -0.049      2.967      4.069
REMARK INTER + INTRA:          -0.075
REMARK INTER:                  -0.059
REMARK INTRA:                  -0.017
REMARK UNBOUND:                -0.023
REMARK SMILES O=C([O-])c1cccnc1
REMARK SMILES IDX 4 1 5 2 9 3 6 4 8 5 7 6 2 7 1 8 3 9
REMARK H PARENT
REMARK Flexibility Score: inf
ROOT
ATOM      1  C   UNL     1      17.653  20.703  50.135  1.00  0.00     0.016 A 
ATOM      2  C   UNL     1      17.121  21.988  49.938  1.00  0.00     0.013 A 
ATOM      3  C   UNL     1      17.060  19.875  51.104  1.00  0.00     0.120 A 
ATOM      4  C   UNL     1      16.029  22.418  50.693  1.00  0.00     0.021 A 
ATOM      5  N   UNL     1      15.996  20.319  51.826  1.00  0.00    -0.264 NA
ATOM      6  C   UNL     1      15.474  21.560  51.644  1.00  0.00     0.111 A 
ENDROOT
BRANCH   1   7
ATOM      7  C   UNL     1      18.810  20.236  49.340  1.00  0.00     0.073 C 
ATOM      8  O   UNL     1      18.673  19.941  48.123  1.00  0.00    -0.545 OA
ATOM      9  O   UNL     1      20.065  20.118  49.926  1.00  0.00    -0.545 OA
ENDBRANCH   1   7
TORSDOF 1
ENDMDL
