MODEL 1
REMARK VINA RESULT:    -4.086      0.000      0.000
REMARK INTER + INTRA:          -4.723
REMARK INTER:                  -4.683
REMARK INTRA:                  -0.040
REMARK UNBOUND:                -0.040
REMARK SMILES CC(C)[C@@H]([NH3+])C(=O)[O-]
REMARK SMILES IDX 4 1 5 2 6 6 7 7 8 8 2 9 1 10 3 11
REMARK H PARENT 5 3 5 4 5 5
REMARK Flexibility Score: inf
ROOT
ATOM      1  C   UNL     1     185.334 207.973  94.404  1.00  0.00     0.230 C 
ENDROOT
BRANCH   1   2
ATOM      2  N   UNL     1     186.428 208.957  94.353  1.00  0.00    -0.350 N 
ATOM      3  H   UNL     1     187.159 208.726  95.061  1.00  0.00     0.345 HD
ATOM      4  H   UNL     1     186.863 208.996  93.404  1.00  0.00     0.345 HD
ATOM      5  H   UNL     1     186.053 209.905  94.583  1.00  0.00     0.345 HD
ENDBRANCH   1   2
BRANCH   1   6
ATOM      6  C   UNL     1     184.588 207.926  93.093  1.00  0.00     0.099 C 
ATOM      7  O   UNL     1     184.217 206.828  92.598  1.00  0.00    -0.544 OA
ATOM      8  O   UNL     1     184.261 209.111  92.445  1.00  0.00    -0.544 OA
ENDBRANCH   1   6
BRANCH   1   9
ATOM      9  C   UNL     1     185.812 206.550  94.822  1.00  0.00     0.047 C 
ATOM     10  C   UNL     1     184.893 205.928  95.885  1.00  0.00     0.014 C 
ATOM     11  C   UNL     1     187.274 206.504  95.294  1.00  0.00     0.014 C 
ENDBRANCH   1   9
TORSDOF 3
ENDMDL
MODEL 2
REMARK VINA RESULT:    -4.012      1.677      2.167
REMARK INTER + INTRA:          -4.639
REMARK INTER:                  -4.588
REMARK INTRA:                  -0.051
REMARK UNBOUND:                -0.040
REMARK SMILES CC(C)[C@@H]([NH3+])C(=O)[O-]
REMARK SMILES IDX 4 1 5 2 6 6 7 7 8 8 2 9 1 10 3 11
REMARK H PARENT 5 3 5 4 5 5
REMARK Flexibility Score: inf
ROOT
ATOM      1  C   UNL     1     185.337 207.457  93.329  1.00  0.00     0.230 C 
ENDROOT
BRANCH   1   2
ATOM      2  N   UNL     1     184.524 206.331  92.840  1.00  0.00    -0.350 N 
ATOM      3  H   UNL     1     184.705 205.475  93.410  1.00  0.00     0.345 HD
ATOM      4  H   UNL     1     183.503 206.556  92.866  1.00  0.00     0.345 HD
ATOM      5  H   UNL     1     184.789 206.115  91.852  1.00  0.00     0.345 HD
ENDBRANCH   1   2
BRANCH   1   6
ATOM      6  C   UNL     1     184.838 208.766  92.769  1.00  0.00     0.099 C 
ATOM      7  O   UNL     1     183.653 208.884  92.356  1.00  0.00    -0.544 OA
ATOM      8  O   UNL     1     185.679 209.872  92.752  1.00  0.00    -0.544 OA
ENDBRANCH   1   6
BRANCH   1   9
ATOM      9  C   UNL     1     185.427 207.515  94.883  1.00  0.00     0.047 C 
ATOM     10  C   UNL     1     186.656 206.761  95.413  1.00  0.00     0.014 C 
ATOM     11  C   UNL     1     184.156 207.022  95.594  1.00  0.00     0.014 C 
ENDBRANCH   1   9
TORSDOF 3
ENDMDL
MODEL 3
REMARK VINA RESULT:    -3.979      2.525      3.372
REMARK INTER + INTRA:          -4.601
REMARK INTER:                  -4.562
REMARK INTRA:                  -0.039
REMARK UNBOUND:                -0.040
REMARK SMILES CC(C)[C@@H]([NH3+])C(=O)[O-]
REMARK SMILES IDX 4 1 5 2 6 6 7 7 8 8 2 9 1 10 3 11
REMARK H PARENT 5 3 5 4 5 5
REMARK Flexibility Score: inf
ROOT
ATOM      1  C   UNL     1     184.528 207.634  93.575  1.00  0.00     0.230 C 
ENDROOT
BRANCH   1   2
ATOM      2  N   UNL     1     184.779 206.371  92.861  1.00  0.00    -0.350 N 
ATOM      3  H   UNL     1     184.802 205.571  93.531  1.00  0.00     0.345 HD
ATOM      4  H   UNL     1     184.052 206.193  92.131  1.00  0.00     0.345 HD
ATOM      5  H   UNL     1     185.713 206.417  92.392  1.00  0.00     0.345 HD
ENDBRANCH   1   2
BRANCH   1   6
ATOM      6  C   UNL     1     184.649 207.444  95.067  1.00  0.00     0.099 C 
ATOM      7  O   UNL     1     183.724 206.900  95.727  1.00  0.00    -0.544 OA
ATOM      8  O   UNL     1     185.816 207.829  95.717  1.00  0.00    -0.544 OA
ENDBRANCH   1   6
BRANCH   1   9
ATOM      9  C   UNL     1     185.436 208.803  93.087  1.00  0.00     0.047 C 
ATOM     10  C   UNL     1     184.670 209.785  92.188  1.00  0.00     0.014 C 
ATOM     11  C   UNL     1     186.721 208.334  92.385  1.00  0.00     0.014 C 
ENDBRANCH   1   9
TORSDOF 3
ENDMDL
MODEL 4
REMARK VINA RESULT:    -3.951      2.505      3.184
REMARK INTER + INTRA:          -4.569
REMARK INTER:                  -4.542
REMARK INTRA:                  -0.027
REMARK UNBOUND:                -0.040
REMARK SMILES CC(C)[C@@H]([NH3+])C(=O)[O-]
REMARK SMILES IDX 4 1 5 2 6 6 7 7 8 8 2 9 1 10 3 11
REMARK H PARENT 5 3 5 4 5 5
REMARK Flexibility Score: inf
ROOT
ATOM      1  C   UNL     1     186.434 207.916  93.892  1.00  0.00     0.230 C 
ENDROOT
BRANCH   1   2
ATOM      2  N   UNL     1     186.354 209.385  93.819  1.00  0.00    -0.350 N 
ATOM      3  H   UNL     1     187.144 209.819  94.346  1.00  0.00     0.345 HD
ATOM      4  H   UNL     1     186.370 209.720  92.829  1.00  0.00     0.345 HD
ATOM      5  H   UNL     1     185.464 209.706  94.263  1.00  0.00     0.345 HD
ENDBRANCH   1   2
BRANCH   1   6
ATOM      6  C   UNL     1     187.216 207.477  95.106  1.00  0.00     0.099 C 
ATOM      7  O   UNL     1     187.679 206.308  95.189  1.00  0.00    -0.544 OA
ATOM      8  O   UNL     1     187.472 208.386  96.124  1.00  0.00    -0.544 OA
ENDBRANCH   1   6
BRANCH   1   9
ATOM      9  C   UNL     1     185.038 207.226  93.850  1.00  0.00     0.047 C 
ATOM     10  C   UNL     1     184.093 207.908  92.849  1.00  0.00     0.014 C 
ATOM     11  C   UNL     1     184.362 207.117  95.226  1.00  0.00     0.014 C 
ENDBRANCH   1   9
TORSDOF 3
ENDMDL
MODEL 5
REMARK VINA RESULT:    -3.931      1.903      3.045
REMARK INTER + INTRA:          -4.546
REMARK INTER:                  -4.496
REMARK INTRA:                  -0.049
REMARK UNBOUND:                -0.040
REMARK SMILES CC(C)[C@@H]([NH3+])C(=O)[O-]
REMARK SMILES IDX 4 1 5 2 6 6 7 7 8 8 2 9 1 10 3 11
REMARK H PARENT 5 3 5 4 5 5
REMARK Flexibility Score: inf
ROOT
ATOM      1  C   UNL     1     186.043 207.769  93.883  1.00  0.00     0.230 C 
ENDROOT
BRANCH   1   2
ATOM      2  N   UNL     1     186.224 208.616  95.073  1.00  0.00    -0.350 N 
ATOM      3  H   UNL     1     186.776 209.469  94.832  1.00  0.00     0.345 HD
ATOM      4  H   UNL     1     185.306 208.901  95.483  1.00  0.00     0.345 HD
ATOM      5  H   UNL     1     186.759 208.087  95.798  1.00  0.00     0.345 HD
ENDBRANCH   1   2
BRANCH   1   6
ATOM      6  C   UNL     1     184.658 207.171  93.851  1.00  0.00     0.099 C 
ATOM      7  O   UNL     1     184.185 206.687  92.788  1.00  0.00    -0.544 OA
ATOM      8  O   UNL     1     183.910 207.105  95.021  1.00  0.00    -0.544 OA
ENDBRANCH   1   6
BRANCH   1   9
ATOM      9  C   UNL     1     186.358 208.512  92.550  1.00  0.00     0.047 C 
ATOM     10  C   UNL     1     187.868 208.705  92.346  1.00  0.00     0.014 C 
ATOM     11  C   UNL     1     185.627 209.857  92.407  1.00  0.00     0.014 C 
ENDBRANCH   1   9
TORSDOF 3
ENDMDL
MODEL 6
REMARK VINA RESULT:    -3.811     17.518     17.907
REMARK INTER + INTRA:          -4.408
REMARK INTER:                  -4.475
REMARK INTRA:                   0.067
REMARK UNBOUND:                -0.040
REMARK SMILES CC(C)[C@@H]([NH3+])C(=O)[O-]
REMARK SMILES IDX 4 1 5 2 6 6 7 7 8 8 2 9 1 10 3 11
REMARK H PARENT 5 3 5 4 5 5
REMARK Flexibility Score: inf
ROOT
ATOM      1  C   UNL     1     190.456 194.782  82.736  1.00  0.00     0.230 C 
ENDROOT
BRANCH   1   2
ATOM      2  N   UNL     1     189.705 195.872  83.381  1.00  0.00    -0.350 N 
ATOM      3  H   UNL     1     189.366 195.574  84.323  1.00  0.00     0.345 HD
ATOM      4  H   UNL     1     190.288 196.734  83.478  1.00  0.00     0.345 HD
ATOM      5  H   UNL     1     188.865 196.105  82.802  1.00  0.00     0.345 HD
ENDBRANCH   1   2
BRANCH   1   6
ATOM      6  C   UNL     1     191.838 195.241  82.340  1.00  0.00     0.099 C 
ATOM      7  O   UNL     1     192.476 194.654  81.425  1.00  0.00    -0.544 OA
ATOM      8  O   UNL     1     192.397 196.354  82.955  1.00  0.00    -0.544 OA
ENDBRANCH   1   6
BRANCH   1   9
ATOM      9  C   UNL     1     190.527 193.491  83.606  1.00  0.00     0.047 C 
ATOM     10  C   UNL     1     189.344 193.394  84.582  1.00  0.00     0.014 C 
ATOM     11  C   UNL     1     191.854 193.331  84.364  1.00  0.00     0.014 C 
ENDBRANCH   1   9
TORSDOF 3
ENDMDL
MODEL 7
REMARK VINA RESULT:    -3.790      2.023      2.620
REMARK INTER + INTRA:          -4.384
REMARK INTER:                  -4.311
REMARK INTRA:                  -0.073
REMARK UNBOUND:                -0.040
REMARK SMILES CC(C)[C@@H]([NH3+])C(=O)[O-]
REMARK SMILES IDX 4 1 5 2 6 6 7 7 8 8 2 9 1 10 3 11
REMARK H PARENT 5 3 5 4 5 5
REMARK Flexibility Score: inf
ROOT
ATOM      1  C   UNL     1     186.306 208.015  94.640  1.00  0.00     0.230 C 
ENDROOT
BRANCH   1   2
ATOM      2  N   UNL     1     187.213 206.894  94.937  1.00  0.00    -0.350 N 
ATOM      3  H   UNL     1     187.535 206.937  95.929  1.00  0.00     0.345 HD
ATOM      4  H   UNL     1     186.751 205.972  94.761  1.00  0.00     0.345 HD
ATOM      5  H   UNL     1     188.059 206.960  94.326  1.00  0.00     0.345 HD
ENDBRANCH   1   2
BRANCH   1   6
ATOM      6  C   UNL     1     186.800 208.810  93.456  1.00  0.00     0.099 C 
ATOM      7  O   UNL     1     186.245 209.892  93.126  1.00  0.00    -0.544 OA
ATOM      8  O   UNL     1     187.912 208.371  92.748  1.00  0.00    -0.544 OA
ENDBRANCH   1   6
BRANCH   1   9
ATOM      9  C   UNL     1     184.829 207.567  94.432  1.00  0.00     0.047 C 
ATOM     10  C   UNL     1     184.290 206.792  95.643  1.00  0.00     0.014 C 
ATOM     11  C   UNL     1     184.605 206.759  93.143  1.00  0.00     0.014 C 
ENDBRANCH   1   9
TORSDOF 3
ENDMDL
MODEL 8
REMARK VINA RESULT:    -3.673      2.021      2.652
REMARK INTER + INTRA:          -4.251
REMARK INTER:                  -4.185
REMARK INTRA:                  -0.065
REMARK UNBOUND:                -0.040
REMARK SMILES CC(C)[C@@H]([NH3+])C(=O)[O-]
REMARK SMILES IDX 4 1 5 2 6 6 7 7 8 8 2 9 1 10 3 11
REMARK H PARENT 5 3 5 4 5 5
REMARK Flexibility Score: inf
ROOT
ATOM      1  C   UNL     1     185.592 208.666  93.504  1.00  0.00     0.230 C 
ENDROOT
BRANCH   1   2
ATOM      2  N   UNL     1     185.012 209.503  92.440  1.00  0.00    -0.350 N 
ATOM      3  H   UNL     1     185.220 209.096  91.502  1.00  0.00     0.345 HD
ATOM      4  H   UNL     1     183.978 209.605  92.554  1.00  0.00     0.345 HD
ATOM      5  H   UNL     1     185.443 210.455  92.474  1.00  0.00     0.345 HD
ENDBRANCH   1   2
BRANCH   1   6
ATOM      6  C   UNL     1     184.698 207.490  93.813  1.00  0.00     0.099 C 
ATOM      7  O   UNL     1     184.235 207.317  94.972  1.00  0.00    -0.544 OA
ATOM      8  O   UNL     1     184.338 206.613  92.797  1.00  0.00    -0.544 OA
ENDBRANCH   1   6
BRANCH   1   9
ATOM      9  C   UNL     1     187.042 208.193  93.187  1.00  0.00     0.047 C 
ATOM     10  C   UNL     1     187.756 207.658  94.438  1.00  0.00     0.014 C 
ATOM     11  C   UNL     1     187.905 209.267  92.503  1.00  0.00     0.014 C 
ENDBRANCH   1   9
TORSDOF 3
ENDMDL
MODEL 9
REMARK VINA RESULT:    -3.643      2.764      3.608
REMARK INTER + INTRA:          -4.216
REMARK INTER:                  -4.155
REMARK INTRA:                  -0.061
REMARK UNBOUND:                -0.040
REMARK SMILES CC(C)[C@@H]([NH3+])C(=O)[O-]
REMARK SMILES IDX 4 1 5 2 6 6 7 7 8 8 2 9 1 10 3 11
REMARK H PARENT 5 3 5 4 5 5
REMARK Flexibility Score: inf
ROOT
ATOM      1  C   UNL     1     186.096 207.817  94.335  1.00  0.00     0.230 C 
ENDROOT
BRANCH   1   2
ATOM      2  N   UNL     1     185.035 207.497  93.366  1.00  0.00    -0.350 N 
ATOM      3  H   UNL     1     185.389 207.600  92.390  1.00  0.00     0.345 HD
ATOM      4  H   UNL     1     184.672 206.526  93.503  1.00  0.00     0.345 HD
ATOM      5  H   UNL     1     184.240 208.166  93.487  1.00  0.00     0.345 HD
ENDBRANCH   1   2
BRANCH   1   6
ATOM      6  C   UNL     1     186.403 206.627  95.212  1.00  0.00     0.099 C 
ATOM      7  O   UNL     1     187.593 206.288  95.448  1.00  0.00    -0.544 OA
ATOM      8  O   UNL     1     185.363 205.925  95.808  1.00  0.00    -0.544 OA
ENDBRANCH   1   6
BRANCH   1   9
ATOM      9  C   UNL     1     187.392 208.362  93.664  1.00  0.00     0.047 C 
ATOM     10  C   UNL     1     187.843 209.691  94.288  1.00  0.00     0.014 C 
ATOM     11  C   UNL     1     187.282 208.504  92.137  1.00  0.00     0.014 C 
ENDBRANCH   1   9
TORSDOF 3
ENDMDL
