MODEL 1
REMARK VINA RESULT:    -2.773      0.000      0.000
REMARK INTER + INTRA:          -3.626
REMARK INTER:                  -3.421
REMARK INTRA:                  -0.205
REMARK UNBOUND:                -0.205
REMARK SMILES CCCCCC(=O)[O-]
REMARK SMILES IDX 4 1 5 2 6 3 7 4 8 5 3 6 2 7 1 8
REMARK H PARENT
REMARK Flexibility Score: inf
ROOT
ATOM      1  C   UNL     1      22.217  22.821  20.172  1.00  0.00     0.006 C 
ENDROOT
BRANCH   1   2
ATOM      2  C   UNL     1      22.731  21.376  20.119  1.00  0.00     0.053 C 
BRANCH   2   3
ATOM      3  C   UNL     1      21.913  20.531  19.191  1.00  0.00     0.041 C 
ATOM      4  O   UNL     1      20.690  20.339  19.419  1.00  0.00    -0.550 OA
ATOM      5  O   UNL     1      22.496  19.981  18.055  1.00  0.00    -0.550 OA
ENDBRANCH   2   3
ENDBRANCH   1   2
BRANCH   1   6
ATOM      6  C   UNL     1      22.956  23.737  19.188  1.00  0.00     0.000 C 
BRANCH   6   7
ATOM      7  C   UNL     1      21.973  24.650  18.445  1.00  0.00    -0.003 C 
ATOM      8  C   UNL     1      20.679  23.913  18.111  1.00  0.00     0.004 C 
ENDBRANCH   6   7
ENDBRANCH   1   6
TORSDOF 4
ENDMDL
MODEL 2
REMARK VINA RESULT:    -2.575      2.268      3.602
REMARK INTER + INTRA:          -3.382
REMARK INTER:                  -3.152
REMARK INTRA:                  -0.229
REMARK UNBOUND:                -0.205
REMARK SMILES CCCCCC(=O)[O-]
REMARK SMILES IDX 4 1 5 2 6 3 7 4 8 5 3 6 2 7 1 8
REMARK H PARENT
REMARK Flexibility Score: inf
ROOT
ATOM      1  C   UNL     1      22.233  22.520  19.860  1.00  0.00     0.006 C 
ENDROOT
BRANCH   1   2
ATOM      2  C   UNL     1      22.361  23.743  18.944  1.00  0.00     0.053 C 
BRANCH   2   3
ATOM      3  C   UNL     1      21.074  24.042  18.237  1.00  0.00     0.041 C 
ATOM      4  O   UNL     1      20.047  23.352  18.469  1.00  0.00    -0.550 OA
ATOM      5  O   UNL     1      21.000  25.105  17.345  1.00  0.00    -0.550 OA
ENDBRANCH   2   3
ENDBRANCH   1   2
BRANCH   1   6
ATOM      6  C   UNL     1      22.947  21.288  19.287  1.00  0.00     0.000 C 
BRANCH   6   7
ATOM      7  C   UNL     1      21.936  20.218  18.857  1.00  0.00    -0.003 C 
ATOM      8  C   UNL     1      20.776  20.127  19.845  1.00  0.00     0.004 C 
ENDBRANCH   6   7
ENDBRANCH   1   6
TORSDOF 4
ENDMDL
MODEL 3
REMARK VINA RESULT:    -2.372      2.901      4.001
REMARK INTER + INTRA:          -3.131
REMARK INTER:                  -3.028
REMARK INTRA:                  -0.104
REMARK UNBOUND:                -0.205
REMARK SMILES CCCCCC(=O)[O-]
REMARK SMILES IDX 4 1 5 2 6 3 7 4 8 5 3 6 2 7 1 8
REMARK H PARENT
REMARK Flexibility Score: inf
ROOT
ATOM      1  C   UNL     1      20.636  22.499  19.886  1.00  0.00     0.006 C 
ENDROOT
BRANCH   1   2
ATOM      2  C   UNL     1      19.324  22.639  19.103  1.00  0.00     0.053 C 
BRANCH   2   3
ATOM      3  C   UNL     1      19.069  24.059  18.698  1.00  0.00     0.041 C 
ATOM      4  O   UNL     1      18.417  24.826  19.454  1.00  0.00    -0.550 OA
ATOM      5  O   UNL     1      19.579  24.544  17.501  1.00  0.00    -0.550 OA
ENDBRANCH   2   3
ENDBRANCH   1   2
BRANCH   1   6
ATOM      6  C   UNL     1      21.854  22.369  18.961  1.00  0.00     0.000 C 
BRANCH   6   7
ATOM      7  C   UNL     1      22.713  21.160  19.350  1.00  0.00    -0.003 C 
ATOM      8  C   UNL     1      22.512  20.004  18.374  1.00  0.00     0.004 C 
ENDBRANCH   6   7
ENDBRANCH   1   6
TORSDOF 4
ENDMDL
MODEL 4
REMARK VINA RESULT:    -2.297      2.302      3.636
REMARK INTER + INTRA:          -3.038
REMARK INTER:                  -2.825
REMARK INTRA:                  -0.213
REMARK UNBOUND:                -0.205
REMARK SMILES CCCCCC(=O)[O-]
REMARK SMILES IDX 4 1 5 2 6 3 7 4 8 5 3 6 2 7 1 8
REMARK H PARENT
REMARK Flexibility Score: inf
ROOT
ATOM      1  C   UNL     1      22.274  20.415  18.749  1.00  0.00     0.006 C 
ENDROOT
BRANCH   1   2
ATOM      2  C   UNL     1      22.718  21.595  19.624  1.00  0.00     0.053 C 
BRANCH   2   3
ATOM      3  C   UNL     1      22.290  22.908  19.043  1.00  0.00     0.041 C 
ATOM      4  O   UNL     1      21.241  22.984  18.350  1.00  0.00    -0.550 OA
ATOM      5  O   UNL     1      23.033  24.055  19.293  1.00  0.00    -0.550 OA
ENDBRANCH   2   3
ENDBRANCH   1   2
BRANCH   1   6
ATOM      6  C   UNL     1      21.391  19.422  19.516  1.00  0.00     0.000 C 
BRANCH   6   7
ATOM      7  C   UNL     1      20.446  20.155  20.476  1.00  0.00    -0.003 C 
ATOM      8  C   UNL     1      19.114  20.474  19.803  1.00  0.00     0.004 C 
ENDBRANCH   6   7
ENDBRANCH   1   6
TORSDOF 4
ENDMDL
MODEL 5
REMARK VINA RESULT:    -2.288     10.394     12.256
REMARK INTER + INTRA:          -3.028
REMARK INTER:                  -2.842
REMARK INTRA:                  -0.186
REMARK UNBOUND:                -0.205
REMARK SMILES CCCCCC(=O)[O-]
REMARK SMILES IDX 4 1 5 2 6 3 7 4 8 5 3 6 2 7 1 8
REMARK H PARENT
REMARK Flexibility Score: inf
ROOT
ATOM      1  C   UNL     1      18.537  11.519  16.685  1.00  0.00     0.006 C 
ENDROOT
BRANCH   1   2
ATOM      2  C   UNL     1      19.623  12.165  17.555  1.00  0.00     0.053 C 
BRANCH   2   3
ATOM      3  C   UNL     1      20.979  12.050  16.925  1.00  0.00     0.041 C 
ATOM      4  O   UNL     1      21.570  10.939  16.891  1.00  0.00    -0.550 OA
ATOM      5  O   UNL     1      21.574  13.165  16.348  1.00  0.00    -0.550 OA
ENDBRANCH   2   3
ENDBRANCH   1   2
BRANCH   1   6
ATOM      6  C   UNL     1      18.130  10.131  17.197  1.00  0.00     0.000 C 
BRANCH   6   7
ATOM      7  C   UNL     1      18.179   9.093  16.069  1.00  0.00    -0.003 C 
ATOM      8  C   UNL     1      19.484   8.304  16.101  1.00  0.00     0.004 C 
ENDBRANCH   6   7
ENDBRANCH   1   6
TORSDOF 4
ENDMDL
MODEL 6
REMARK VINA RESULT:    -2.285     15.179     16.337
REMARK INTER + INTRA:          -3.024
REMARK INTER:                  -2.971
REMARK INTRA:                  -0.053
REMARK UNBOUND:                -0.205
REMARK SMILES CCCCCC(=O)[O-]
REMARK SMILES IDX 4 1 5 2 6 3 7 4 8 5 3 6 2 7 1 8
REMARK H PARENT
REMARK Flexibility Score: inf
ROOT
ATOM      1  C   UNL     1      24.882   7.192  16.265  1.00  0.00     0.006 C 
ENDROOT
BRANCH   1   2
ATOM      2  C   UNL     1      25.043   6.305  15.024  1.00  0.00     0.053 C 
BRANCH   2   3
ATOM      3  C   UNL     1      23.739   5.701  14.601  1.00  0.00     0.041 C 
ATOM      4  O   UNL     1      23.688   4.941  13.598  1.00  0.00    -0.550 OA
ATOM      5  O   UNL     1      22.586   5.950  15.335  1.00  0.00    -0.550 OA
ENDBRANCH   2   3
ENDBRANCH   1   2
BRANCH   1   6
ATOM      6  C   UNL     1      26.018   6.990  17.277  1.00  0.00     0.000 C 
BRANCH   6   7
ATOM      7  C   UNL     1      26.119   8.183  18.235  1.00  0.00    -0.003 C 
ATOM      8  C   UNL     1      26.880   7.808  19.504  1.00  0.00     0.004 C 
ENDBRANCH   6   7
ENDBRANCH   1   6
TORSDOF 4
ENDMDL
MODEL 7
REMARK VINA RESULT:    -2.218     14.853     15.744
REMARK INTER + INTRA:          -2.941
REMARK INTER:                  -2.813
REMARK INTRA:                  -0.129
REMARK UNBOUND:                -0.205
REMARK SMILES CCCCCC(=O)[O-]
REMARK SMILES IDX 4 1 5 2 6 3 7 4 8 5 3 6 2 7 1 8
REMARK H PARENT
REMARK Flexibility Score: inf
ROOT
ATOM      1  C   UNL     1      25.994   8.228  17.614  1.00  0.00     0.006 C 
ENDROOT
BRANCH   1   2
ATOM      2  C   UNL     1      25.999   6.837  16.968  1.00  0.00     0.053 C 
BRANCH   2   3
ATOM      3  C   UNL     1      24.891   6.686  15.970  1.00  0.00     0.041 C 
ATOM      4  O   UNL     1      23.708   6.978  16.286  1.00  0.00    -0.550 OA
ATOM      5  O   UNL     1      25.171   6.253  14.680  1.00  0.00    -0.550 OA
ENDBRANCH   2   3
ENDBRANCH   1   2
BRANCH   1   6
ATOM      6  C   UNL     1      25.806   8.162  19.136  1.00  0.00     0.000 C 
BRANCH   6   7
ATOM      7  C   UNL     1      27.157   8.054  19.852  1.00  0.00    -0.003 C 
ATOM      8  C   UNL     1      27.337   6.679  20.487  1.00  0.00     0.004 C 
ENDBRANCH   6   7
ENDBRANCH   1   6
TORSDOF 4
ENDMDL
MODEL 8
REMARK VINA RESULT:    -2.088     15.581     16.557
REMARK INTER + INTRA:          -2.781
REMARK INTER:                  -2.519
REMARK INTRA:                  -0.261
REMARK UNBOUND:                -0.205
REMARK SMILES CCCCCC(=O)[O-]
REMARK SMILES IDX 4 1 5 2 6 3 7 4 8 5 3 6 2 7 1 8
REMARK H PARENT
REMARK Flexibility Score: inf
ROOT
ATOM      1  C   UNL     1      23.558   5.811  14.872  1.00  0.00     0.006 C 
ENDROOT
BRANCH   1   2
ATOM      2  C   UNL     1      25.010   6.282  15.024  1.00  0.00     0.053 C 
BRANCH   2   3
ATOM      3  C   UNL     1      25.214   7.049  16.294  1.00  0.00     0.041 C 
ATOM      4  O   UNL     1      26.155   6.746  17.074  1.00  0.00    -0.550 OA
ATOM      5  O   UNL     1      24.385   8.121  16.600  1.00  0.00    -0.550 OA
ENDBRANCH   2   3
ENDBRANCH   1   2
BRANCH   1   6
ATOM      6  C   UNL     1      23.128   4.876  16.010  1.00  0.00     0.000 C 
BRANCH   6   7
ATOM      7  C   UNL     1      21.919   5.445  16.762  1.00  0.00    -0.003 C 
ATOM      8  C   UNL     1      21.162   6.456  15.905  1.00  0.00     0.004 C 
ENDBRANCH   6   7
ENDBRANCH   1   6
TORSDOF 4
ENDMDL
