MODEL 1
REMARK VINA RESULT:    -4.629      0.000      0.000
REMARK INTER + INTRA:          -9.805
REMARK INTER:                  -7.064
REMARK INTRA:                  -2.741
REMARK UNBOUND:                -2.741
REMARK SMILES CC(=O)CCC=C(C)CCC=C(C)CCC=C(C)C
REMARK SMILES IDX 10 1 11 2 12 3 13 4 14 5 15 6 16 7 18 8 17 9 19 10 9 11 7 12
REMARK SMILES IDX 6 13 8 14 5 15 4 16 2 17 3 18 1 19
REMARK H PARENT
REMARK Flexibility Score: inf
ROOT
ATOM      1  C   UNL     1       3.602  14.904  23.521  1.00  0.00     0.032 C 
ENDROOT
BRANCH   1   2
ATOM      2  C   UNL     1       3.216  13.899  24.581  1.00  0.00    -0.028 C 
ATOM      3  C   UNL     1       2.241  12.972  24.451  1.00  0.00    -0.077 C 
ATOM      4  C   UNL     1       1.961  12.063  25.620  1.00  0.00     0.039 C 
BRANCH   3   5
ATOM      5  C   UNL     1       1.469  12.757  23.165  1.00  0.00     0.034 C 
BRANCH   5   6
ATOM      6  C   UNL     1       2.037  11.565  22.388  1.00  0.00     0.032 C 
BRANCH   6   7
ATOM      7  C   UNL     1       2.885  12.035  21.233  1.00  0.00    -0.028 C 
ATOM      8  C   UNL     1       5.042  11.513  22.396  1.00  0.00     0.039 C 
ATOM      9  C   UNL     1       4.236  11.994  21.212  1.00  0.00    -0.080 C 
ATOM     10  C   UNL     1       4.949  12.461  19.969  1.00  0.00     0.039 C 
ENDBRANCH   6   7
ENDBRANCH   5   6
ENDBRANCH   3   5
ENDBRANCH   1   2
BRANCH   1  11
ATOM     11  C   UNL     1       2.668  16.122  23.527  1.00  0.00     0.034 C 
BRANCH  11  12
ATOM     12  C   UNL     1       2.005  16.331  22.181  1.00  0.00    -0.077 C 
ATOM     13  C   UNL     1       2.713  16.082  21.055  1.00  0.00    -0.028 C 
ATOM     14  C   UNL     1       0.581  16.831  22.134  1.00  0.00     0.039 C 
BRANCH  13  15
ATOM     15  C   UNL     1       2.166  16.208  19.652  1.00  0.00     0.035 C 
BRANCH  15  16
ATOM     16  C   UNL     1       2.236  14.876  18.894  1.00  0.00     0.079 C 
BRANCH  16  17
ATOM     17  C   UNL     1       0.865  14.283  18.686  1.00  0.00     0.130 C 
ATOM     18  O   UNL     1       0.452  14.107  17.549  1.00  0.00    -0.300 OA
ATOM     19  C   UNL     1      -0.006  13.907  19.847  1.00  0.00     0.087 C 
ENDBRANCH  16  17
ENDBRANCH  15  16
ENDBRANCH  13  15
ENDBRANCH  11  12
ENDBRANCH   1  11
TORSDOF 9
ENDMDL
MODEL 2
REMARK VINA RESULT:    -4.604      1.241      2.278
REMARK INTER + INTRA:          -9.767
REMARK INTER:                  -6.723
REMARK INTRA:                  -3.044
REMARK UNBOUND:                -2.741
REMARK SMILES CC(=O)CCC=C(C)CCC=C(C)CCC=C(C)C
REMARK SMILES IDX 10 1 11 2 12 3 13 4 14 5 15 6 16 7 18 8 17 9 19 10 9 11 7 12
REMARK SMILES IDX 6 13 8 14 5 15 4 16 2 17 3 18 1 19
REMARK H PARENT
REMARK Flexibility Score: inf
ROOT
ATOM      1  C   UNL     1       3.608  15.433  23.409  1.00  0.00     0.032 C 
ENDROOT
BRANCH   1   2
ATOM      2  C   UNL     1       3.686  14.213  24.297  1.00  0.00    -0.028 C 
ATOM      3  C   UNL     1       3.817  12.941  23.857  1.00  0.00    -0.077 C 
ATOM      4  C   UNL     1       3.848  11.833  24.878  1.00  0.00     0.039 C 
BRANCH   3   5
ATOM      5  C   UNL     1       4.005  12.586  22.396  1.00  0.00     0.034 C 
BRANCH   5   6
ATOM      6  C   UNL     1       2.862  11.688  21.910  1.00  0.00     0.032 C 
BRANCH   6   7
ATOM      7  C   UNL     1       1.672  12.517  21.494  1.00  0.00    -0.028 C 
ATOM      8  C   UNL     1       0.354  11.945  23.546  1.00  0.00     0.039 C 
ATOM      9  C   UNL     1       0.548  12.662  22.230  1.00  0.00    -0.080 C 
ATOM     10  C   UNL     1      -0.544  13.557  21.704  1.00  0.00     0.039 C 
ENDBRANCH   6   7
ENDBRANCH   5   6
ENDBRANCH   3   5
ENDBRANCH   1   2
BRANCH   1  11
ATOM     11  C   UNL     1       2.198  16.041  23.404  1.00  0.00     0.034 C 
BRANCH  11  12
ATOM     12  C   UNL     1       1.756  16.427  22.008  1.00  0.00    -0.077 C 
ATOM     13  C   UNL     1       2.562  16.138  20.960  1.00  0.00    -0.028 C 
ATOM     14  C   UNL     1       0.438  17.143  21.827  1.00  0.00     0.039 C 
BRANCH  13  15
ATOM     15  C   UNL     1       2.228  16.427  19.515  1.00  0.00     0.035 C 
BRANCH  15  16
ATOM     16  C   UNL     1       2.174  15.143  18.677  1.00  0.00     0.079 C 
BRANCH  16  17
ATOM     17  C   UNL     1       0.754  14.687  18.453  1.00  0.00     0.130 C 
ATOM     18  O   UNL     1      -0.164  15.481  18.602  1.00  0.00    -0.300 OA
ATOM     19  C   UNL     1       0.443  13.276  18.052  1.00  0.00     0.087 C 
ENDBRANCH  16  17
ENDBRANCH  15  16
ENDBRANCH  13  15
ENDBRANCH  11  12
ENDBRANCH   1  11
TORSDOF 9
ENDMDL
MODEL 3
REMARK VINA RESULT:    -4.527      2.688      5.309
REMARK INTER + INTRA:          -9.650
REMARK INTER:                  -6.718
REMARK INTRA:                  -2.932
REMARK UNBOUND:                -2.741
REMARK SMILES CC(=O)CCC=C(C)CCC=C(C)CCC=C(C)C
REMARK SMILES IDX 10 1 11 2 12 3 13 4 14 5 15 6 16 7 18 8 17 9 19 10 9 11 7 12
REMARK SMILES IDX 6 13 8 14 5 15 4 16 2 17 3 18 1 19
REMARK H PARENT
REMARK Flexibility Score: inf
ROOT
ATOM      1  C   UNL     1       3.439  15.285  23.597  1.00  0.00     0.032 C 
ENDROOT
BRANCH   1   2
ATOM      2  C   UNL     1       2.159  16.043  23.339  1.00  0.00    -0.028 C 
ATOM      3  C   UNL     1       1.709  16.413  22.119  1.00  0.00    -0.077 C 
ATOM      4  C   UNL     1       0.424  17.195  22.038  1.00  0.00     0.039 C 
BRANCH   3   5
ATOM      5  C   UNL     1       2.398  16.017  20.828  1.00  0.00     0.034 C 
BRANCH   5   6
ATOM      6  C   UNL     1       1.443  15.225  19.929  1.00  0.00     0.032 C 
BRANCH   6   7
ATOM      7  C   UNL     1       1.841  13.772  19.875  1.00  0.00    -0.028 C 
ATOM      8  C   UNL     1       0.268  13.107  21.708  1.00  0.00     0.039 C 
ATOM      9  C   UNL     1       1.304  12.804  20.651  1.00  0.00    -0.080 C 
ATOM     10  C   UNL     1       1.773  11.385  20.457  1.00  0.00     0.039 C 
ENDBRANCH   6   7
ENDBRANCH   5   6
ENDBRANCH   3   5
ENDBRANCH   1   2
BRANCH   1  11
ATOM     11  C   UNL     1       3.165  13.884  24.163  1.00  0.00     0.034 C 
BRANCH  11  12
ATOM     12  C   UNL     1       3.822  12.802  23.332  1.00  0.00    -0.077 C 
ATOM     13  C   UNL     1       4.595  13.159  22.281  1.00  0.00    -0.028 C 
ATOM     14  C   UNL     1       3.576  11.354  23.687  1.00  0.00     0.039 C 
BRANCH  13  15
ATOM     15  C   UNL     1       5.341  12.188  21.395  1.00  0.00     0.035 C 
BRANCH  15  16
ATOM     16  C   UNL     1       6.858  12.286  21.597  1.00  0.00     0.079 C 
BRANCH  16  17
ATOM     17  C   UNL     1       7.288  11.644  22.892  1.00  0.00     0.130 C 
ATOM     18  O   UNL     1       7.764  12.337  23.779  1.00  0.00    -0.300 OA
ATOM     19  C   UNL     1       7.146  10.167  23.115  1.00  0.00     0.087 C 
ENDBRANCH  16  17
ENDBRANCH  15  16
ENDBRANCH  13  15
ENDBRANCH  11  12
ENDBRANCH   1  11
TORSDOF 9
ENDMDL
MODEL 4
REMARK VINA RESULT:    -4.519      2.937      4.917
REMARK INTER + INTRA:          -9.637
REMARK INTER:                  -6.870
REMARK INTRA:                  -2.768
REMARK UNBOUND:                -2.741
REMARK SMILES CC(=O)CCC=C(C)CCC=C(C)CCC=C(C)C
REMARK SMILES IDX 10 1 11 2 12 3 13 4 14 5 15 6 16 7 18 8 17 9 19 10 9 11 7 12
REMARK SMILES IDX 6 13 8 14 5 15 4 16 2 17 3 18 1 19
REMARK H PARENT
REMARK Flexibility Score: inf
ROOT
ATOM      1  C   UNL     1       4.252  12.733  21.194  1.00  0.00     0.032 C 
ENDROOT
BRANCH   1   2
ATOM      2  C   UNL     1       4.086  13.366  22.555  1.00  0.00    -0.028 C 
ATOM      3  C   UNL     1       3.395  14.501  22.803  1.00  0.00    -0.077 C 
ATOM      4  C   UNL     1       3.354  15.017  24.219  1.00  0.00     0.039 C 
BRANCH   3   5
ATOM      5  C   UNL     1       2.605  15.238  21.741  1.00  0.00     0.034 C 
BRANCH   5   6
ATOM      6  C   UNL     1       1.135  15.367  22.156  1.00  0.00     0.032 C 
BRANCH   6   7
ATOM      7  C   UNL     1       0.264  14.455  21.330  1.00  0.00    -0.028 C 
ATOM      8  C   UNL     1       0.303  12.614  23.028  1.00  0.00     0.039 C 
ATOM      9  C   UNL     1      -0.139  13.225  21.719  1.00  0.00    -0.080 C 
ATOM     10  C   UNL     1      -1.045  12.442  20.803  1.00  0.00     0.039 C 
ENDBRANCH   6   7
ENDBRANCH   5   6
ENDBRANCH   3   5
ENDBRANCH   1   2
BRANCH   1  11
ATOM     11  C   UNL     1       3.527  11.383  21.104  1.00  0.00     0.034 C 
BRANCH  11  12
ATOM     12  C   UNL     1       2.551  11.343  19.946  1.00  0.00    -0.077 C 
ATOM     13  C   UNL     1       1.794  10.237  19.764  1.00  0.00    -0.028 C 
ATOM     14  C   UNL     1       2.468  12.530  19.016  1.00  0.00     0.039 C 
BRANCH  13  15
ATOM     15  C   UNL     1       0.754  10.078  18.679  1.00  0.00     0.035 C 
BRANCH  15  16
ATOM     16  C   UNL     1       1.121   8.954  17.702  1.00  0.00     0.079 C 
BRANCH  16  17
ATOM     17  C   UNL     1       2.245   9.363  16.784  1.00  0.00     0.130 C 
ATOM     18  O   UNL     1       3.328   8.801  16.871  1.00  0.00    -0.300 OA
ATOM     19  C   UNL     1       2.065  10.448  15.765  1.00  0.00     0.087 C 
ENDBRANCH  16  17
ENDBRANCH  15  16
ENDBRANCH  13  15
ENDBRANCH  11  12
ENDBRANCH   1  11
TORSDOF 9
ENDMDL
MODEL 5
REMARK VINA RESULT:    -4.510      3.899      7.043
REMARK INTER + INTRA:          -9.624
REMARK INTER:                  -6.524
REMARK INTRA:                  -3.101
REMARK UNBOUND:                -2.741
REMARK SMILES CC(=O)CCC=C(C)CCC=C(C)CCC=C(C)C
REMARK SMILES IDX 10 1 11 2 12 3 13 4 14 5 15 6 16 7 18 8 17 9 19 10 9 11 7 12
REMARK SMILES IDX 6 13 8 14 5 15 4 16 2 17 3 18 1 19
REMARK H PARENT
REMARK Flexibility Score: inf
ROOT
ATOM      1  C   UNL     1       1.471   9.309  16.232  1.00  0.00     0.032 C 
ENDROOT
BRANCH   1   2
ATOM      2  C   UNL     1       2.255  10.363  15.486  1.00  0.00    -0.028 C 
ATOM      3  C   UNL     1       2.051  11.696  15.584  1.00  0.00    -0.077 C 
ATOM      4  C   UNL     1       2.903  12.612  14.745  1.00  0.00     0.039 C 
BRANCH   3   5
ATOM      5  C   UNL     1       1.056  12.312  16.548  1.00  0.00     0.034 C 
BRANCH   5   6
ATOM      6  C   UNL     1       1.777  13.196  17.571  1.00  0.00     0.032 C 
BRANCH   6   7
ATOM      7  C   UNL     1       1.822  12.523  18.920  1.00  0.00    -0.028 C 
ATOM      8  C   UNL     1       4.184  11.741  18.630  1.00  0.00     0.039 C 
ATOM      9  C   UNL     1       2.904  11.887  19.420  1.00  0.00    -0.080 C 
ATOM     10  C   UNL     1       2.815  11.296  20.804  1.00  0.00     0.039 C 
ENDBRANCH   6   7
ENDBRANCH   5   6
ENDBRANCH   3   5
ENDBRANCH   1   2
BRANCH   1  11
ATOM     11  C   UNL     1       2.235   8.794  17.459  1.00  0.00     0.034 C 
BRANCH  11  12
ATOM     12  C   UNL     1       1.326   8.619  18.658  1.00  0.00    -0.077 C 
ATOM     13  C   UNL     1       0.202   9.366  18.744  1.00  0.00    -0.028 C 
ATOM     14  C   UNL     1       1.713   7.631  19.733  1.00  0.00     0.039 C 
BRANCH  13  15
ATOM     15  C   UNL     1      -0.812   9.266  19.859  1.00  0.00     0.035 C 
BRANCH  15  16
ATOM     16  C   UNL     1      -1.006  10.610  20.573  1.00  0.00     0.079 C 
BRANCH  16  17
ATOM     17  C   UNL     1      -2.129  11.407  19.958  1.00  0.00     0.130 C 
ATOM     18  O   UNL     1      -3.280  11.010  20.068  1.00  0.00    -0.300 OA
ATOM     19  C   UNL     1      -1.864  12.679  19.210  1.00  0.00     0.087 C 
ENDBRANCH  16  17
ENDBRANCH  15  16
ENDBRANCH  13  15
ENDBRANCH  11  12
ENDBRANCH   1  11
TORSDOF 9
ENDMDL
MODEL 6
REMARK VINA RESULT:    -4.480      4.013      6.172
REMARK INTER + INTRA:          -9.578
REMARK INTER:                  -6.730
REMARK INTRA:                  -2.847
REMARK UNBOUND:                -2.741
REMARK SMILES CC(=O)CCC=C(C)CCC=C(C)CCC=C(C)C
REMARK SMILES IDX 10 1 11 2 12 3 13 4 14 5 15 6 16 7 18 8 17 9 19 10 9 11 7 12
REMARK SMILES IDX 6 13 8 14 5 15 4 16 2 17 3 18 1 19
REMARK H PARENT
REMARK Flexibility Score: inf
ROOT
ATOM      1  C   UNL     1       1.727   9.246  16.735  1.00  0.00     0.032 C 
ENDROOT
BRANCH   1   2
ATOM      2  C   UNL     1       1.613   8.493  18.039  1.00  0.00    -0.028 C 
ATOM      3  C   UNL     1       0.853   8.874  19.090  1.00  0.00    -0.077 C 
ATOM      4  C   UNL     1       0.877   8.023  20.334  1.00  0.00     0.039 C 
BRANCH   3   5
ATOM      5  C   UNL     1      -0.074  10.072  19.050  1.00  0.00     0.034 C 
BRANCH   5   6
ATOM      6  C   UNL     1       0.204  11.008  20.232  1.00  0.00     0.032 C 
BRANCH   6   7
ATOM      7  C   UNL     1       0.801  12.307  19.754  1.00  0.00    -0.028 C 
ATOM      8  C   UNL     1       3.157  11.561  20.164  1.00  0.00     0.039 C 
ATOM      9  C   UNL     1       2.128  12.562  19.695  1.00  0.00    -0.080 C 
ATOM     10  C   UNL     1       2.580  13.895  19.155  1.00  0.00     0.039 C 
ENDBRANCH   6   7
ENDBRANCH   5   6
ENDBRANCH   3   5
ENDBRANCH   1   2
BRANCH   1  11
ATOM     11  C   UNL     1       2.995  10.109  16.686  1.00  0.00     0.034 C 
BRANCH  11  12
ATOM     12  C   UNL     1       2.699  11.522  16.229  1.00  0.00    -0.077 C 
ATOM     13  C   UNL     1       1.411  11.915  16.102  1.00  0.00    -0.028 C 
ATOM     14  C   UNL     1       3.850  12.445  15.906  1.00  0.00     0.039 C 
BRANCH  13  15
ATOM     15  C   UNL     1       0.972  13.303  15.697  1.00  0.00     0.035 C 
BRANCH  15  16
ATOM     16  C   UNL     1       0.219  13.292  14.361  1.00  0.00     0.079 C 
BRANCH  16  17
ATOM     17  C   UNL     1       0.946  14.090  13.307  1.00  0.00     0.130 C 
ATOM     18  O   UNL     1       0.546  14.067  12.152  1.00  0.00    -0.300 OA
ATOM     19  C   UNL     1       2.155  14.910  13.647  1.00  0.00     0.087 C 
ENDBRANCH  16  17
ENDBRANCH  15  16
ENDBRANCH  13  15
ENDBRANCH  11  12
ENDBRANCH   1  11
TORSDOF 9
ENDMDL
MODEL 7
REMARK VINA RESULT:    -4.476      4.600      7.145
REMARK INTER + INTRA:          -9.572
REMARK INTER:                  -7.023
REMARK INTRA:                  -2.549
REMARK UNBOUND:                -2.741
REMARK SMILES CC(=O)CCC=C(C)CCC=C(C)CCC=C(C)C
REMARK SMILES IDX 10 1 11 2 12 3 13 4 14 5 15 6 16 7 18 8 17 9 19 10 9 11 7 12
REMARK SMILES IDX 6 13 8 14 5 15 4 16 2 17 3 18 1 19
REMARK H PARENT
REMARK Flexibility Score: inf
ROOT
ATOM      1  C   UNL     1       2.367   9.244  16.748  1.00  0.00     0.032 C 
ENDROOT
BRANCH   1   2
ATOM      2  C   UNL     1       1.137   8.874  17.543  1.00  0.00    -0.028 C 
ATOM      3  C   UNL     1       0.759   9.458  18.703  1.00  0.00    -0.077 C 
ATOM      4  C   UNL     1      -0.482   8.946  19.387  1.00  0.00     0.039 C 
BRANCH   3   5
ATOM      5  C   UNL     1       1.482  10.645  19.305  1.00  0.00     0.034 C 
BRANCH   5   6
ATOM      6  C   UNL     1       0.518  11.822  19.497  1.00  0.00     0.032 C 
BRANCH   6   7
ATOM      7  C   UNL     1      -0.088  12.234  18.180  1.00  0.00    -0.028 C 
ATOM      8  C   UNL     1       1.480  14.165  17.879  1.00  0.00     0.039 C 
ATOM      9  C   UNL     1       0.349  13.270  17.429  1.00  0.00    -0.080 C 
ATOM     10  C   UNL     1      -0.331  13.539  16.111  1.00  0.00     0.039 C 
ENDBRANCH   6   7
ENDBRANCH   5   6
ENDBRANCH   3   5
ENDBRANCH   1   2
BRANCH   1  11
ATOM     11  C   UNL     1       2.040  10.243  15.630  1.00  0.00     0.034 C 
BRANCH  11  12
ATOM     12  C   UNL     1       2.938  11.463  15.684  1.00  0.00    -0.077 C 
ATOM     13  C   UNL     1       2.825  12.403  14.718  1.00  0.00    -0.028 C 
ATOM     14  C   UNL     1       3.948  11.582  16.801  1.00  0.00     0.039 C 
BRANCH  13  15
ATOM     15  C   UNL     1       3.625  13.684  14.671  1.00  0.00     0.035 C 
BRANCH  15  16
ATOM     16  C   UNL     1       4.573  13.717  13.465  1.00  0.00     0.079 C 
BRANCH  16  17
ATOM     17  C   UNL     1       5.911  13.105  13.794  1.00  0.00     0.130 C 
ATOM     18  O   UNL     1       6.326  13.147  14.943  1.00  0.00    -0.300 OA
ATOM     19  C   UNL     1       6.746  12.444  12.739  1.00  0.00     0.087 C 
ENDBRANCH  16  17
ENDBRANCH  15  16
ENDBRANCH  13  15
ENDBRANCH  11  12
ENDBRANCH   1  11
TORSDOF 9
ENDMDL
MODEL 8
REMARK VINA RESULT:    -4.472      4.599      6.905
REMARK INTER + INTRA:          -9.566
REMARK INTER:                  -6.924
REMARK INTRA:                  -2.642
REMARK UNBOUND:                -2.741
REMARK SMILES CC(=O)CCC=C(C)CCC=C(C)CCC=C(C)C
REMARK SMILES IDX 10 1 11 2 12 3 13 4 14 5 15 6 16 7 18 8 17 9 19 10 9 11 7 12
REMARK SMILES IDX 6 13 8 14 5 15 4 16 2 17 3 18 1 19
REMARK H PARENT
REMARK Flexibility Score: inf
ROOT
ATOM      1  C   UNL     1       2.577   9.950  16.161  1.00  0.00     0.032 C 
ENDROOT
BRANCH   1   2
ATOM      2  C   UNL     1       1.539   9.081  16.830  1.00  0.00    -0.028 C 
ATOM      3  C   UNL     1       1.121   9.217  18.109  1.00  0.00    -0.077 C 
ATOM      4  C   UNL     1       0.097   8.242  18.633  1.00  0.00     0.039 C 
BRANCH   3   5
ATOM      5  C   UNL     1       1.578  10.343  19.014  1.00  0.00     0.034 C 
BRANCH   5   6
ATOM      6  C   UNL     1       0.573  11.500  18.983  1.00  0.00     0.032 C 
BRANCH   6   7
ATOM      7  C   UNL     1       1.262  12.797  18.643  1.00  0.00    -0.028 C 
ATOM      8  C   UNL     1      -0.387  13.389  16.853  1.00  0.00     0.039 C 
ATOM      9  C   UNL     1       0.829  13.669  17.705  1.00  0.00    -0.080 C 
ATOM     10  C   UNL     1       1.599  14.948  17.503  1.00  0.00     0.039 C 
ENDBRANCH   6   7
ENDBRANCH   5   6
ENDBRANCH   3   5
ENDBRANCH   1   2
BRANCH   1  11
ATOM     11  C   UNL     1       1.932  11.011  15.258  1.00  0.00     0.034 C 
BRANCH  11  12
ATOM     12  C   UNL     1       2.844  12.201  15.045  1.00  0.00    -0.077 C 
ATOM     13  C   UNL     1       2.629  13.011  13.983  1.00  0.00    -0.028 C 
ATOM     14  C   UNL     1       3.982  12.435  16.011  1.00  0.00     0.039 C 
BRANCH  13  15
ATOM     15  C   UNL     1       3.434  14.252  13.673  1.00  0.00     0.035 C 
BRANCH  15  16
ATOM     16  C   UNL     1       2.694  15.528  14.096  1.00  0.00     0.079 C 
BRANCH  16  17
ATOM     17  C   UNL     1       1.395  15.689  13.348  1.00  0.00     0.130 C 
ATOM     18  O   UNL     1       1.405  15.733  12.126  1.00  0.00    -0.300 OA
ATOM     19  C   UNL     1       0.087  15.800  14.073  1.00  0.00     0.087 C 
ENDBRANCH  16  17
ENDBRANCH  15  16
ENDBRANCH  13  15
ENDBRANCH  11  12
ENDBRANCH   1  11
TORSDOF 9
ENDMDL
MODEL 9
REMARK VINA RESULT:    -4.429      3.428      6.729
REMARK INTER + INTRA:          -9.500
REMARK INTER:                  -6.415
REMARK INTRA:                  -3.085
REMARK UNBOUND:                -2.741
REMARK SMILES CC(=O)CCC=C(C)CCC=C(C)CCC=C(C)C
REMARK SMILES IDX 10 1 11 2 12 3 13 4 14 5 15 6 16 7 18 8 17 9 19 10 9 11 7 12
REMARK SMILES IDX 6 13 8 14 5 15 4 16 2 17 3 18 1 19
REMARK H PARENT
REMARK Flexibility Score: inf
ROOT
ATOM      1  C   UNL     1       1.653   8.642  18.009  1.00  0.00     0.032 C 
ENDROOT
BRANCH   1   2
ATOM      2  C   UNL     1       1.786   9.247  16.631  1.00  0.00    -0.028 C 
ATOM      3  C   UNL     1       2.475  10.374  16.342  1.00  0.00    -0.077 C 
ATOM      4  C   UNL     1       2.482  10.860  14.916  1.00  0.00     0.039 C 
BRANCH   3   5
ATOM      5  C   UNL     1       3.296  11.128  17.369  1.00  0.00     0.034 C 
BRANCH   5   6
ATOM      6  C   UNL     1       3.037  12.635  17.263  1.00  0.00     0.032 C 
BRANCH   6   7
ATOM      7  C   UNL     1       2.301  13.138  18.478  1.00  0.00    -0.028 C 
ATOM      8  C   UNL     1       0.043  12.806  17.445  1.00  0.00     0.039 C 
ATOM      9  C   UNL     1       0.954  13.197  18.585  1.00  0.00    -0.080 C 
ATOM     10  C   UNL     1       0.357  13.684  19.880  1.00  0.00     0.039 C 
ENDBRANCH   6   7
ENDBRANCH   5   6
ENDBRANCH   3   5
ENDBRANCH   1   2
BRANCH   1  11
ATOM     11  C   UNL     1       0.267   8.907  18.613  1.00  0.00     0.034 C 
BRANCH  11  12
ATOM     12  C   UNL     1       0.352   9.737  19.877  1.00  0.00    -0.077 C 
ATOM     13  C   UNL     1       1.565   9.978  20.424  1.00  0.00    -0.028 C 
ATOM     14  C   UNL     1      -0.923  10.253  20.503  1.00  0.00     0.039 C 
BRANCH  13  15
ATOM     15  C   UNL     1       1.799  10.821  21.656  1.00  0.00     0.035 C 
BRANCH  15  16
ATOM     16  C   UNL     1       3.195  11.459  21.650  1.00  0.00     0.079 C 
BRANCH  16  17
ATOM     17  C   UNL     1       3.167  12.859  22.209  1.00  0.00     0.130 C 
ATOM     18  O   UNL     1       3.796  13.744  21.646  1.00  0.00    -0.300 OA
ATOM     19  C   UNL     1       2.386  13.190  23.446  1.00  0.00     0.087 C 
ENDBRANCH  16  17
ENDBRANCH  15  16
ENDBRANCH  13  15
ENDBRANCH  11  12
ENDBRANCH   1  11
TORSDOF 9
ENDMDL
