MODEL 1
REMARK VINA RESULT:    -3.307      0.000      0.000
REMARK INTER + INTRA:          -3.702
REMARK INTER:                  -3.694
REMARK INTRA:                  -0.008
REMARK UNBOUND:                -0.008
REMARK SMILES CCCC(=O)[O-]
REMARK SMILES IDX 3 1 4 2 5 3 6 4 2 5 1 6
REMARK H PARENT
REMARK Flexibility Score: inf
ROOT
ATOM      1  C   UNL     1     -10.802 -16.880  28.880  1.00  0.00     0.052 C 
ENDROOT
BRANCH   1   2
ATOM      2  C   UNL     1     -11.150 -18.277  29.297  1.00  0.00     0.041 C 
ATOM      3  O   UNL     1     -10.242 -19.094  29.597  1.00  0.00    -0.550 OA
ATOM      4  O   UNL     1     -12.482 -18.663  29.384  1.00  0.00    -0.550 OA
ENDBRANCH   1   2
BRANCH   1   5
ATOM      5  C   UNL     1     -11.722 -16.377  27.759  1.00  0.00     0.003 C 
ATOM      6  C   UNL     1     -10.953 -15.644  26.661  1.00  0.00     0.004 C 
ENDBRANCH   1   5
TORSDOF 2
ENDMDL
MODEL 2
REMARK VINA RESULT:    -3.284      2.874      3.704
REMARK INTER + INTRA:          -3.676
REMARK INTER:                  -3.639
REMARK INTRA:                  -0.037
REMARK UNBOUND:                -0.008
REMARK SMILES CCCC(=O)[O-]
REMARK SMILES IDX 3 1 4 2 5 3 6 4 2 5 1 6
REMARK H PARENT
REMARK Flexibility Score: inf
ROOT
ATOM      1  C   UNL     1     -11.481 -16.773  28.348  1.00  0.00     0.052 C 
ENDROOT
BRANCH   1   2
ATOM      2  C   UNL     1     -11.643 -16.038  27.053  1.00  0.00     0.041 C 
ATOM      3  O   UNL     1     -12.783 -15.912  26.534  1.00  0.00    -0.550 OA
ATOM      4  O   UNL     1     -10.538 -15.464  26.438  1.00  0.00    -0.550 OA
ENDBRANCH   1   2
BRANCH   1   5
ATOM      5  C   UNL     1     -12.421 -16.228  29.432  1.00  0.00     0.003 C 
ATOM      6  C   UNL     1     -13.433 -17.271  29.903  1.00  0.00     0.004 C 
ENDBRANCH   1   5
TORSDOF 2
ENDMDL
MODEL 3
REMARK VINA RESULT:    -3.263      1.601      2.162
REMARK INTER + INTRA:          -3.653
REMARK INTER:                  -3.643
REMARK INTRA:                  -0.010
REMARK UNBOUND:                -0.008
REMARK SMILES CCCC(=O)[O-]
REMARK SMILES IDX 3 1 4 2 5 3 6 4 2 5 1 6
REMARK H PARENT
REMARK Flexibility Score: inf
ROOT
ATOM      1  C   UNL     1     -12.689 -16.354  29.035  1.00  0.00     0.052 C 
ENDROOT
BRANCH   1   2
ATOM      2  C   UNL     1     -13.153 -17.434  29.965  1.00  0.00     0.041 C 
ATOM      3  O   UNL     1     -13.714 -17.137  31.052  1.00  0.00    -0.550 OA
ATOM      4  O   UNL     1     -12.994 -18.768  29.613  1.00  0.00    -0.550 OA
ENDBRANCH   1   2
BRANCH   1   5
ATOM      5  C   UNL     1     -11.732 -16.899  27.966  1.00  0.00     0.003 C 
ATOM      6  C   UNL     1     -11.472 -15.890  26.849  1.00  0.00     0.004 C 
ENDBRANCH   1   5
TORSDOF 2
ENDMDL
MODEL 4
REMARK VINA RESULT:    -3.245      1.596      1.975
REMARK INTER + INTRA:          -3.632
REMARK INTER:                  -3.595
REMARK INTRA:                  -0.038
REMARK UNBOUND:                -0.008
REMARK SMILES CCCC(=O)[O-]
REMARK SMILES IDX 3 1 4 2 5 3 6 4 2 5 1 6
REMARK H PARENT
REMARK Flexibility Score: inf
ROOT
ATOM      1  C   UNL     1     -11.512 -18.305  28.802  1.00  0.00     0.052 C 
ENDROOT
BRANCH   1   2
ATOM      2  C   UNL     1     -10.506 -18.129  29.899  1.00  0.00     0.041 C 
ATOM      3  O   UNL     1     -10.072 -19.130  30.527  1.00  0.00    -0.550 OA
ATOM      4  O   UNL     1     -10.026 -16.862  30.203  1.00  0.00    -0.550 OA
ENDBRANCH   1   2
BRANCH   1   5
ATOM      5  C   UNL     1     -11.807 -16.981  28.085  1.00  0.00     0.003 C 
ATOM      6  C   UNL     1     -13.136 -16.366  28.520  1.00  0.00     0.004 C 
ENDBRANCH   1   5
TORSDOF 2
ENDMDL
MODEL 5
REMARK VINA RESULT:    -3.243      2.186      3.245
REMARK INTER + INTRA:          -3.630
REMARK INTER:                  -3.592
REMARK INTRA:                  -0.038
REMARK UNBOUND:                -0.008
REMARK SMILES CCCC(=O)[O-]
REMARK SMILES IDX 3 1 4 2 5 3 6 4 2 5 1 6
REMARK H PARENT
REMARK Flexibility Score: inf
ROOT
ATOM      1  C   UNL     1     -11.631 -17.275  28.543  1.00  0.00     0.052 C 
ENDROOT
BRANCH   1   2
ATOM      2  C   UNL     1     -13.006 -16.789  28.886  1.00  0.00     0.041 C 
ATOM      3  O   UNL     1     -13.662 -16.105  28.058  1.00  0.00    -0.550 OA
ATOM      4  O   UNL     1     -13.573 -17.120  30.110  1.00  0.00    -0.550 OA
ENDBRANCH   1   2
BRANCH   1   5
ATOM      5  C   UNL     1     -11.380 -18.692  29.076  1.00  0.00     0.003 C 
ATOM      6  C   UNL     1     -10.291 -18.727  30.146  1.00  0.00     0.004 C 
ENDBRANCH   1   5
TORSDOF 2
ENDMDL
MODEL 6
REMARK VINA RESULT:    -3.217      2.276      3.513
REMARK INTER + INTRA:          -3.601
REMARK INTER:                  -3.565
REMARK INTRA:                  -0.036
REMARK UNBOUND:                -0.008
REMARK SMILES CCCC(=O)[O-]
REMARK SMILES IDX 3 1 4 2 5 3 6 4 2 5 1 6
REMARK H PARENT
REMARK Flexibility Score: inf
ROOT
ATOM      1  C   UNL     1     -10.121 -18.699  30.525  1.00  0.00     0.052 C 
ENDROOT
BRANCH   1   2
ATOM      2  C   UNL     1     -10.828 -18.062  29.368  1.00  0.00     0.041 C 
ATOM      3  O   UNL     1     -11.790 -18.652  28.811  1.00  0.00    -0.550 OA
ATOM      4  O   UNL     1     -10.443 -16.802  28.929  1.00  0.00    -0.550 OA
ENDBRANCH   1   2
BRANCH   1   5
ATOM      5  C   UNL     1     -10.065 -17.764  31.741  1.00  0.00     0.003 C 
ATOM      6  C   UNL     1      -8.667 -17.193  31.972  1.00  0.00     0.004 C 
ENDBRANCH   1   5
TORSDOF 2
ENDMDL
MODEL 7
REMARK VINA RESULT:    -3.216      2.213      3.201
REMARK INTER + INTRA:          -3.600
REMARK INTER:                  -3.547
REMARK INTRA:                  -0.054
REMARK UNBOUND:                -0.008
REMARK SMILES CCCC(=O)[O-]
REMARK SMILES IDX 3 1 4 2 5 3 6 4 2 5 1 6
REMARK H PARENT
REMARK Flexibility Score: inf
ROOT
ATOM      1  C   UNL     1     -10.392 -18.958  29.583  1.00  0.00     0.052 C 
ENDROOT
BRANCH   1   2
ATOM      2  C   UNL     1     -11.665 -18.290  29.161  1.00  0.00     0.041 C 
ATOM      3  O   UNL     1     -11.662 -17.457  28.217  1.00  0.00    -0.550 OA
ATOM      4  O   UNL     1     -12.860 -18.614  29.791  1.00  0.00    -0.550 OA
ENDBRANCH   1   2
BRANCH   1   5
ATOM      5  C   UNL     1     -10.195 -18.895  31.103  1.00  0.00     0.003 C 
ATOM      6  C   UNL     1      -9.622 -17.554  31.561  1.00  0.00     0.004 C 
ENDBRANCH   1   5
TORSDOF 2
ENDMDL
MODEL 8
REMARK VINA RESULT:    -3.190      3.414      4.037
REMARK INTER + INTRA:          -3.571
REMARK INTER:                  -3.517
REMARK INTRA:                  -0.054
REMARK UNBOUND:                -0.008
REMARK SMILES CCCC(=O)[O-]
REMARK SMILES IDX 3 1 4 2 5 3 6 4 2 5 1 6
REMARK H PARENT
REMARK Flexibility Score: inf
ROOT
ATOM      1  C   UNL     1      -9.458 -17.526  31.769  1.00  0.00     0.052 C 
ENDROOT
BRANCH   1   2
ATOM      2  C   UNL     1     -10.566 -16.622  32.215  1.00  0.00     0.041 C 
ATOM      3  O   UNL     1     -10.597 -15.421  31.839  1.00  0.00    -0.550 OA
ATOM      4  O   UNL     1     -11.583 -17.117  33.022  1.00  0.00    -0.550 OA
ENDBRANCH   1   2
BRANCH   1   5
ATOM      5  C   UNL     1      -9.996 -18.853  31.217  1.00  0.00     0.003 C 
ATOM      6  C   UNL     1     -10.422 -18.745  29.753  1.00  0.00     0.004 C 
ENDBRANCH   1   5
TORSDOF 2
ENDMDL
MODEL 9
REMARK VINA RESULT:    -3.188      2.980      3.704
REMARK INTER + INTRA:          -3.568
REMARK INTER:                  -3.496
REMARK INTRA:                  -0.072
REMARK UNBOUND:                -0.008
REMARK SMILES CCCC(=O)[O-]
REMARK SMILES IDX 3 1 4 2 5 3 6 4 2 5 1 6
REMARK H PARENT
REMARK Flexibility Score: inf
ROOT
ATOM      1  C   UNL     1      -9.868 -18.177  31.577  1.00  0.00     0.052 C 
ENDROOT
BRANCH   1   2
ATOM      2  C   UNL     1     -11.028 -18.265  32.522  1.00  0.00     0.041 C 
ATOM      3  O   UNL     1     -11.604 -17.218  32.917  1.00  0.00    -0.550 OA
ATOM      4  O   UNL     1     -11.491 -19.506  32.938  1.00  0.00    -0.550 OA
ENDBRANCH   1   2
BRANCH   1   5
ATOM      5  C   UNL     1     -10.131 -18.960  30.283  1.00  0.00     0.003 C 
ATOM      6  C   UNL     1     -11.314 -18.401  29.494  1.00  0.00     0.004 C 
ENDBRANCH   1   5
TORSDOF 2
ENDMDL
