MODEL 1
REMARK VINA RESULT:    -3.864      0.000      0.000
REMARK INTER + INTRA:          -4.916
REMARK INTER:                  -4.768
REMARK INTRA:                  -0.149
REMARK UNBOUND:                -0.149
REMARK SMILES CCCCCC(=O)[O-]
REMARK SMILES IDX 4 1 5 2 6 3 7 4 8 5 3 6 2 7 1 8
REMARK H PARENT
REMARK Flexibility Score: inf
ROOT
ATOM      1  C   UNL     1     -27.404  45.384  90.570  1.00  0.00     0.006 C 
ENDROOT
BRANCH   1   2
ATOM      2  C   UNL     1     -27.030  43.912  90.771  1.00  0.00     0.053 C 
BRANCH   2   3
ATOM      3  C   UNL     1     -28.157  43.022  90.351  1.00  0.00     0.041 C 
ATOM      4  O   UNL     1     -29.020  42.655  91.190  1.00  0.00    -0.550 OA
ATOM      5  O   UNL     1     -28.281  42.638  89.022  1.00  0.00    -0.550 OA
ENDBRANCH   2   3
ENDBRANCH   1   2
BRANCH   1   6
ATOM      6  C   UNL     1     -26.324  46.121  89.765  1.00  0.00     0.000 C 
BRANCH   6   7
ATOM      7  C   UNL     1     -25.844  45.318  88.547  1.00  0.00    -0.003 C 
ATOM      8  C   UNL     1     -26.009  46.082  87.234  1.00  0.00     0.004 C 
ENDBRANCH   6   7
ENDBRANCH   1   6
TORSDOF 4
ENDMDL
MODEL 2
REMARK VINA RESULT:    -3.644      8.621      9.601
REMARK INTER + INTRA:          -4.644
REMARK INTER:                  -4.432
REMARK INTRA:                  -0.212
REMARK UNBOUND:                -0.149
REMARK SMILES CCCCCC(=O)[O-]
REMARK SMILES IDX 4 1 5 2 6 3 7 4 8 5 3 6 2 7 1 8
REMARK H PARENT
REMARK Flexibility Score: inf
ROOT
ATOM      1  C   UNL     1     -18.369  45.105  83.859  1.00  0.00     0.006 C 
ENDROOT
BRANCH   1   2
ATOM      2  C   UNL     1     -18.384  44.607  85.307  1.00  0.00     0.053 C 
BRANCH   2   3
ATOM      3  C   UNL     1     -19.708  43.994  85.638  1.00  0.00     0.041 C 
ATOM      4  O   UNL     1     -20.734  44.716  85.735  1.00  0.00    -0.550 OA
ATOM      5  O   UNL     1     -19.817  42.617  85.790  1.00  0.00    -0.550 OA
ENDBRANCH   2   3
ENDBRANCH   1   2
BRANCH   1   6
ATOM      6  C   UNL     1     -18.469  46.636  83.803  1.00  0.00     0.000 C 
BRANCH   6   7
ATOM      7  C   UNL     1     -19.490  47.125  82.765  1.00  0.00    -0.003 C 
ATOM      8  C   UNL     1     -20.597  46.105  82.499  1.00  0.00     0.004 C 
ENDBRANCH   6   7
ENDBRANCH   1   6
TORSDOF 4
ENDMDL
MODEL 3
REMARK VINA RESULT:    -3.545     11.982     12.932
REMARK INTER + INTRA:          -4.522
REMARK INTER:                  -4.471
REMARK INTRA:                  -0.051
REMARK UNBOUND:                -0.149
REMARK SMILES CCCCCC(=O)[O-]
REMARK SMILES IDX 4 1 5 2 6 3 7 4 8 5 3 6 2 7 1 8
REMARK H PARENT
REMARK Flexibility Score: inf
ROOT
ATOM      1  C   UNL     1     -18.893  37.211  84.845  1.00  0.00     0.006 C 
ENDROOT
BRANCH   1   2
ATOM      2  C   UNL     1     -18.530  36.985  83.375  1.00  0.00     0.053 C 
BRANCH   2   3
ATOM      3  C   UNL     1     -17.197  36.315  83.261  1.00  0.00     0.041 C 
ATOM      4  O   UNL     1     -17.126  35.065  83.127  1.00  0.00    -0.550 OA
ATOM      5  O   UNL     1     -16.035  37.076  83.251  1.00  0.00    -0.550 OA
ENDBRANCH   2   3
ENDBRANCH   1   2
BRANCH   1   6
ATOM      6  C   UNL     1     -20.226  37.963  84.973  1.00  0.00     0.000 C 
BRANCH   6   7
ATOM      7  C   UNL     1     -20.288  38.848  86.227  1.00  0.00    -0.003 C 
ATOM      8  C   UNL     1     -20.696  38.072  87.478  1.00  0.00     0.004 C 
ENDBRANCH   6   7
ENDBRANCH   1   6
TORSDOF 4
ENDMDL
MODEL 4
REMARK VINA RESULT:    -3.542      7.824      9.200
REMARK INTER + INTRA:          -4.519
REMARK INTER:                  -4.295
REMARK INTRA:                  -0.224
REMARK UNBOUND:                -0.149
REMARK SMILES CCCCCC(=O)[O-]
REMARK SMILES IDX 4 1 5 2 6 3 7 4 8 5 3 6 2 7 1 8
REMARK H PARENT
REMARK Flexibility Score: inf
ROOT
ATOM      1  C   UNL     1     -18.227  44.645  85.319  1.00  0.00     0.006 C 
ENDROOT
BRANCH   1   2
ATOM      2  C   UNL     1     -19.416  43.680  85.347  1.00  0.00     0.053 C 
BRANCH   2   3
ATOM      3  C   UNL     1     -20.618  44.345  85.938  1.00  0.00     0.041 C 
ATOM      4  O   UNL     1     -20.868  44.229  87.166  1.00  0.00    -0.550 OA
ATOM      5  O   UNL     1     -21.437  45.136  85.141  1.00  0.00    -0.550 OA
ENDBRANCH   2   3
ENDBRANCH   1   2
BRANCH   1   6
ATOM      6  C   UNL     1     -18.030  45.233  83.914  1.00  0.00     0.000 C 
BRANCH   6   7
ATOM      7  C   UNL     1     -18.485  46.697  83.817  1.00  0.00    -0.003 C 
ATOM      8  C   UNL     1     -19.497  46.929  82.696  1.00  0.00     0.004 C 
ENDBRANCH   6   7
ENDBRANCH   1   6
TORSDOF 4
ENDMDL
MODEL 5
REMARK VINA RESULT:    -3.507      7.733      8.922
REMARK INTER + INTRA:          -4.475
REMARK INTER:                  -4.425
REMARK INTRA:                  -0.050
REMARK UNBOUND:                -0.149
REMARK SMILES CCCCCC(=O)[O-]
REMARK SMILES IDX 4 1 5 2 6 3 7 4 8 5 3 6 2 7 1 8
REMARK H PARENT
REMARK Flexibility Score: inf
ROOT
ATOM      1  C   UNL     1     -19.169  43.743  85.375  1.00  0.00     0.006 C 
ENDROOT
BRANCH   1   2
ATOM      2  C   UNL     1     -20.576  43.470  85.913  1.00  0.00     0.053 C 
BRANCH   2   3
ATOM      3  C   UNL     1     -20.623  42.148  86.613  1.00  0.00     0.041 C 
ATOM      4  O   UNL     1     -19.585  41.442  86.705  1.00  0.00    -0.550 OA
ATOM      5  O   UNL     1     -21.802  41.719  87.209  1.00  0.00    -0.550 OA
ENDBRANCH   2   3
ENDBRANCH   1   2
BRANCH   1   6
ATOM      6  C   UNL     1     -19.118  45.084  84.627  1.00  0.00     0.000 C 
BRANCH   6   7
ATOM      7  C   UNL     1     -17.682  45.531  84.313  1.00  0.00    -0.003 C 
ATOM      8  C   UNL     1     -17.534  47.051  84.263  1.00  0.00     0.004 C 
ENDBRANCH   6   7
ENDBRANCH   1   6
TORSDOF 4
ENDMDL
MODEL 6
REMARK VINA RESULT:    -3.448      2.442      3.700
REMARK INTER + INTRA:          -4.403
REMARK INTER:                  -4.165
REMARK INTRA:                  -0.238
REMARK UNBOUND:                -0.149
REMARK SMILES CCCCCC(=O)[O-]
REMARK SMILES IDX 4 1 5 2 6 3 7 4 8 5 3 6 2 7 1 8
REMARK H PARENT
REMARK Flexibility Score: inf
ROOT
ATOM      1  C   UNL     1     -27.398  45.611  90.423  1.00  0.00     0.006 C 
ENDROOT
BRANCH   1   2
ATOM      2  C   UNL     1     -26.061  46.142  89.898  1.00  0.00     0.053 C 
BRANCH   2   3
ATOM      3  C   UNL     1     -25.655  45.409  88.658  1.00  0.00     0.041 C 
ATOM      4  O   UNL     1     -26.249  45.627  87.570  1.00  0.00    -0.550 OA
ATOM      5  O   UNL     1     -24.587  44.523  88.694  1.00  0.00    -0.550 OA
ENDBRANCH   2   3
ENDBRANCH   1   2
BRANCH   1   6
ATOM      6  C   UNL     1     -27.240  44.196  90.998  1.00  0.00     0.000 C 
BRANCH   6   7
ATOM      7  C   UNL     1     -28.370  43.251  90.561  1.00  0.00    -0.003 C 
ATOM      8  C   UNL     1     -28.119  42.624  89.190  1.00  0.00     0.004 C 
ENDBRANCH   6   7
ENDBRANCH   1   6
TORSDOF 4
ENDMDL
MODEL 7
REMARK VINA RESULT:    -3.399      1.297      2.060
REMARK INTER + INTRA:          -4.343
REMARK INTER:                  -4.273
REMARK INTRA:                  -0.070
REMARK UNBOUND:                -0.149
REMARK SMILES CCCCCC(=O)[O-]
REMARK SMILES IDX 4 1 5 2 6 3 7 4 8 5 3 6 2 7 1 8
REMARK H PARENT
REMARK Flexibility Score: inf
ROOT
ATOM      1  C   UNL     1     -26.141  44.293  89.776  1.00  0.00     0.006 C 
ENDROOT
BRANCH   1   2
ATOM      2  C   UNL     1     -27.337  43.338  89.719  1.00  0.00     0.053 C 
BRANCH   2   3
ATOM      3  C   UNL     1     -27.857  43.065  91.094  1.00  0.00     0.041 C 
ATOM      4  O   UNL     1     -27.122  43.249  92.099  1.00  0.00    -0.550 OA
ATOM      5  O   UNL     1     -29.173  42.656  91.270  1.00  0.00    -0.550 OA
ENDBRANCH   2   3
ENDBRANCH   1   2
BRANCH   1   6
ATOM      6  C   UNL     1     -26.245  45.370  88.687  1.00  0.00     0.000 C 
BRANCH   6   7
ATOM      7  C   UNL     1     -26.525  46.767  89.262  1.00  0.00    -0.003 C 
ATOM      8  C   UNL     1     -27.509  46.738  90.431  1.00  0.00     0.004 C 
ENDBRANCH   6   7
ENDBRANCH   1   6
TORSDOF 4
ENDMDL
MODEL 8
REMARK VINA RESULT:    -3.377      7.360      9.046
REMARK INTER + INTRA:          -4.316
REMARK INTER:                  -4.095
REMARK INTRA:                  -0.221
REMARK UNBOUND:                -0.149
REMARK SMILES CCCCCC(=O)[O-]
REMARK SMILES IDX 4 1 5 2 6 3 7 4 8 5 3 6 2 7 1 8
REMARK H PARENT
REMARK Flexibility Score: inf
ROOT
ATOM      1  C   UNL     1     -20.671  45.834  83.165  1.00  0.00     0.006 C 
ENDROOT
BRANCH   1   2
ATOM      2  C   UNL     1     -21.330  46.333  84.454  1.00  0.00     0.053 C 
BRANCH   2   3
ATOM      3  C   UNL     1     -21.420  45.229  85.459  1.00  0.00     0.041 C 
ATOM      4  O   UNL     1     -22.224  45.313  86.424  1.00  0.00    -0.550 OA
ATOM      5  O   UNL     1     -20.651  44.082  85.302  1.00  0.00    -0.550 OA
ENDBRANCH   2   3
ENDBRANCH   1   2
BRANCH   1   6
ATOM      6  C   UNL     1     -19.468  46.712  82.788  1.00  0.00     0.000 C 
BRANCH   6   7
ATOM      7  C   UNL     1     -18.504  46.929  83.964  1.00  0.00    -0.003 C 
ATOM      8  C   UNL     1     -17.677  45.686  84.288  1.00  0.00     0.004 C 
ENDBRANCH   6   7
ENDBRANCH   1   6
TORSDOF 4
ENDMDL
MODEL 9
REMARK VINA RESULT:    -3.362      8.172      8.602
REMARK INTER + INTRA:          -4.297
REMARK INTER:                  -4.250
REMARK INTRA:                  -0.046
REMARK UNBOUND:                -0.149
REMARK SMILES CCCCCC(=O)[O-]
REMARK SMILES IDX 4 1 5 2 6 3 7 4 8 5 3 6 2 7 1 8
REMARK H PARENT
REMARK Flexibility Score: inf
ROOT
ATOM      1  C   UNL     1     -19.946  40.952  86.814  1.00  0.00     0.006 C 
ENDROOT
BRANCH   1   2
ATOM      2  C   UNL     1     -21.044  39.967  87.226  1.00  0.00     0.053 C 
BRANCH   2   3
ATOM      3  C   UNL     1     -20.592  38.557  87.012  1.00  0.00     0.041 C 
ATOM      4  O   UNL     1     -20.537  37.755  87.981  1.00  0.00    -0.550 OA
ATOM      5  O   UNL     1     -20.281  38.114  85.733  1.00  0.00    -0.550 OA
ENDBRANCH   2   3
ENDBRANCH   1   2
BRANCH   1   6
ATOM      6  C   UNL     1     -20.528  42.350  86.563  1.00  0.00     0.000 C 
BRANCH   6   7
ATOM      7  C   UNL     1     -19.639  43.204  85.647  1.00  0.00    -0.003 C 
ATOM      8  C   UNL     1     -20.386  44.388  85.034  1.00  0.00     0.004 C 
ENDBRANCH   6   7
ENDBRANCH   1   6
TORSDOF 4
ENDMDL
