MODEL 1
REMARK VINA RESULT:    -4.166      0.000      0.000
REMARK INTER + INTRA:          -4.433
REMARK INTER:                  -4.410
REMARK INTRA:                  -0.024
REMARK UNBOUND:                -0.024
REMARK SMILES O=C([O-])c1cccnc1
REMARK SMILES IDX 4 1 5 2 9 3 6 4 8 5 7 6 2 7 1 8 3 9
REMARK H PARENT
REMARK Flexibility Score: inf
ROOT
ATOM      1  C   UNL     1      -6.352 -23.009  47.495  1.00  0.00     0.016 A 
ATOM      2  C   UNL     1      -6.647 -21.707  47.055  1.00  0.00     0.013 A 
ATOM      3  C   UNL     1      -7.418 -23.847  47.864  1.00  0.00     0.120 A 
ATOM      4  C   UNL     1      -7.972 -21.272  46.994  1.00  0.00     0.021 A 
ATOM      5  N   UNL     1      -8.701 -23.399  47.795  1.00  0.00    -0.264 NA
ATOM      6  C   UNL     1      -8.997 -22.142  47.372  1.00  0.00     0.111 A 
ENDROOT
BRANCH   1   7
ATOM      7  C   UNL     1      -4.953 -23.480  47.564  1.00  0.00     0.073 C 
ATOM      8  O   UNL     1      -4.676 -24.586  48.100  1.00  0.00    -0.545 OA
ATOM      9  O   UNL     1      -3.923 -22.709  47.037  1.00  0.00    -0.545 OA
ENDBRANCH   1   7
TORSDOF 1
ENDMDL
MODEL 2
REMARK VINA RESULT:    -4.104      1.660      2.222
REMARK INTER + INTRA:          -4.367
REMARK INTER:                  -4.344
REMARK INTRA:                  -0.023
REMARK UNBOUND:                -0.024
REMARK SMILES O=C([O-])c1cccnc1
REMARK SMILES IDX 4 1 5 2 9 3 6 4 8 5 7 6 2 7 1 8 3 9
REMARK H PARENT
REMARK Flexibility Score: inf
ROOT
ATOM      1  C   UNL     1      -8.071 -22.473  47.567  1.00  0.00     0.016 A 
ATOM      2  C   UNL     1      -9.170 -21.663  47.235  1.00  0.00     0.013 A 
ATOM      3  C   UNL     1      -8.309 -23.668  48.266  1.00  0.00     0.120 A 
ATOM      4  C   UNL     1     -10.461 -22.051  47.600  1.00  0.00     0.021 A 
ATOM      5  N   UNL     1      -9.576 -24.023  48.610  1.00  0.00    -0.264 NA
ATOM      6  C   UNL     1     -10.647 -23.247  48.295  1.00  0.00     0.111 A 
ENDROOT
BRANCH   1   7
ATOM      7  C   UNL     1      -6.700 -22.073  47.186  1.00  0.00     0.073 C 
ATOM      8  O   UNL     1      -5.746 -22.891  47.275  1.00  0.00    -0.545 OA
ATOM      9  O   UNL     1      -6.445 -20.787  46.721  1.00  0.00    -0.545 OA
ENDBRANCH   1   7
TORSDOF 1
ENDMDL
MODEL 3
REMARK VINA RESULT:    -4.091      0.985      1.943
REMARK INTER + INTRA:          -4.354
REMARK INTER:                  -4.330
REMARK INTRA:                  -0.024
REMARK UNBOUND:                -0.024
REMARK SMILES O=C([O-])c1cccnc1
REMARK SMILES IDX 4 1 5 2 9 3 6 4 8 5 7 6 2 7 1 8 3 9
REMARK H PARENT
REMARK Flexibility Score: inf
ROOT
ATOM      1  C   UNL     1      -6.342 -22.860  47.437  1.00  0.00     0.016 A 
ATOM      2  C   UNL     1      -7.470 -23.620  47.790  1.00  0.00     0.013 A 
ATOM      3  C   UNL     1      -6.538 -21.541  46.991  1.00  0.00     0.120 A 
ATOM      4  C   UNL     1      -8.747 -23.065  47.693  1.00  0.00     0.021 A 
ATOM      5  N   UNL     1      -7.793 -21.024  46.906  1.00  0.00    -0.264 NA
ATOM      6  C   UNL     1      -8.891 -21.751  47.244  1.00  0.00     0.111 A 
ENDROOT
BRANCH   1   7
ATOM      7  C   UNL     1      -4.985 -23.437  47.536  1.00  0.00     0.073 C 
ATOM      8  O   UNL     1      -3.989 -22.811  47.084  1.00  0.00    -0.545 OA
ATOM      9  O   UNL     1      -4.789 -24.678  48.130  1.00  0.00    -0.545 OA
ENDBRANCH   1   7
TORSDOF 1
ENDMDL
MODEL 4
REMARK VINA RESULT:    -4.058      3.476      4.224
REMARK INTER + INTRA:          -4.319
REMARK INTER:                  -4.298
REMARK INTRA:                  -0.021
REMARK UNBOUND:                -0.024
REMARK SMILES O=C([O-])c1cccnc1
REMARK SMILES IDX 4 1 5 2 9 3 6 4 8 5 7 6 2 7 1 8 3 9
REMARK H PARENT
REMARK Flexibility Score: inf
ROOT
ATOM      1  C   UNL     1      -9.273 -22.580  47.603  1.00  0.00     0.016 A 
ATOM      2  C   UNL     1      -8.812 -21.361  47.079  1.00  0.00     0.013 A 
ATOM      3  C   UNL     1      -8.327 -23.567  47.930  1.00  0.00     0.120 A 
ATOM      4  C   UNL     1      -7.445 -21.150  46.893  1.00  0.00     0.021 A 
ATOM      5  N   UNL     1      -7.000 -23.336  47.740  1.00  0.00    -0.264 NA
ATOM      6  C   UNL     1      -6.544 -22.161  47.233  1.00  0.00     0.111 A 
ENDROOT
BRANCH   1   7
ATOM      7  C   UNL     1     -10.719 -22.814  47.804  1.00  0.00     0.073 C 
ATOM      8  O   UNL     1     -11.127 -23.496  48.782  1.00  0.00    -0.545 OA
ATOM      9  O   UNL     1     -11.648 -22.284  46.916  1.00  0.00    -0.545 OA
ENDBRANCH   1   7
TORSDOF 1
ENDMDL
MODEL 5
REMARK VINA RESULT:    -4.018      2.523      3.532
REMARK INTER + INTRA:          -4.277
REMARK INTER:                  -4.253
REMARK INTRA:                  -0.024
REMARK UNBOUND:                -0.024
REMARK SMILES O=C([O-])c1cccnc1
REMARK SMILES IDX 4 1 5 2 9 3 6 4 8 5 7 6 2 7 1 8 3 9
REMARK H PARENT
REMARK Flexibility Score: inf
ROOT
ATOM      1  C   UNL     1      -6.602 -22.621  47.351  1.00  0.00     0.016 A 
ATOM      2  C   UNL     1      -7.479 -23.660  47.703  1.00  0.00     0.013 A 
ATOM      3  C   UNL     1      -5.220 -22.881  47.358  1.00  0.00     0.120 A 
ATOM      4  C   UNL     1      -6.975 -24.915  48.049  1.00  0.00     0.021 A 
ATOM      5  N   UNL     1      -4.755 -24.113  47.700  1.00  0.00    -0.264 NA
ATOM      6  C   UNL     1      -5.595 -25.125  48.043  1.00  0.00     0.111 A 
ENDROOT
BRANCH   1   7
ATOM      7  C   UNL     1      -7.124 -21.288  46.982  1.00  0.00     0.073 C 
ATOM      8  O   UNL     1      -8.365 -21.071  46.957  1.00  0.00    -0.545 OA
ATOM      9  O   UNL     1      -6.252 -20.254  46.659  1.00  0.00    -0.545 OA
ENDBRANCH   1   7
TORSDOF 1
ENDMDL
MODEL 6
REMARK VINA RESULT:    -3.841      2.862      3.831
REMARK INTER + INTRA:          -4.089
REMARK INTER:                  -4.065
REMARK INTRA:                  -0.024
REMARK UNBOUND:                -0.024
REMARK SMILES O=C([O-])c1cccnc1
REMARK SMILES IDX 4 1 5 2 9 3 6 4 8 5 7 6 2 7 1 8 3 9
REMARK H PARENT
REMARK Flexibility Score: inf
ROOT
ATOM      1  C   UNL     1      -7.802 -23.166  47.669  1.00  0.00     0.016 A 
ATOM      2  C   UNL     1      -6.560 -22.541  47.470  1.00  0.00     0.013 A 
ATOM      3  C   UNL     1      -7.818 -24.534  47.991  1.00  0.00     0.120 A 
ATOM      4  C   UNL     1      -5.379 -23.275  47.592  1.00  0.00     0.021 A 
ATOM      5  N   UNL     1      -6.652 -25.226  48.104  1.00  0.00    -0.264 NA
ATOM      6  C   UNL     1      -5.445 -24.632  47.913  1.00  0.00     0.111 A 
ENDROOT
BRANCH   1   7
ATOM      7  C   UNL     1      -9.060 -22.399  47.542  1.00  0.00     0.073 C 
ATOM      8  O   UNL     1      -9.042 -21.199  47.157  1.00  0.00    -0.545 OA
ATOM      9  O   UNL     1     -10.280 -22.991  47.846  1.00  0.00    -0.545 OA
ENDBRANCH   1   7
TORSDOF 1
ENDMDL
MODEL 7
REMARK VINA RESULT:    -3.783     10.061     11.685
REMARK INTER + INTRA:          -4.027
REMARK INTER:                  -4.009
REMARK INTRA:                  -0.019
REMARK UNBOUND:                -0.024
REMARK SMILES O=C([O-])c1cccnc1
REMARK SMILES IDX 4 1 5 2 9 3 6 4 8 5 7 6 2 7 1 8 3 9
REMARK H PARENT
REMARK Flexibility Score: inf
ROOT
ATOM      1  C   UNL     1       3.930 -21.149  46.511  1.00  0.00     0.016 A 
ATOM      2  C   UNL     1       4.305 -22.500  46.424  1.00  0.00     0.013 A 
ATOM      3  C   UNL     1       4.876 -20.223  46.984  1.00  0.00     0.120 A 
ATOM      4  C   UNL     1       5.589 -22.897  46.801  1.00  0.00     0.021 A 
ATOM      5  N   UNL     1       6.121 -20.636  47.345  1.00  0.00    -0.264 NA
ATOM      6  C   UNL     1       6.493 -21.940  47.265  1.00  0.00     0.111 A 
ENDROOT
BRANCH   1   7
ATOM      7  C   UNL     1       2.573 -20.717  46.115  1.00  0.00     0.073 C 
ATOM      8  O   UNL     1       2.415 -19.762  45.309  1.00  0.00    -0.545 OA
ATOM      9  O   UNL     1       1.451 -21.362  46.625  1.00  0.00    -0.545 OA
ENDBRANCH   1   7
TORSDOF 1
ENDMDL
MODEL 8
REMARK VINA RESULT:    -3.559     11.983     12.713
REMARK INTER + INTRA:          -3.791
REMARK INTER:                  -3.775
REMARK INTRA:                  -0.016
REMARK UNBOUND:                -0.024
REMARK SMILES O=C([O-])c1cccnc1
REMARK SMILES IDX 4 1 5 2 9 3 6 4 8 5 7 6 2 7 1 8 3 9
REMARK H PARENT
REMARK Flexibility Score: inf
ROOT
ATOM      1  C   UNL     1      -5.481 -35.347  46.700  1.00  0.00     0.016 A 
ATOM      2  C   UNL     1      -6.260 -34.264  46.259  1.00  0.00     0.013 A 
ATOM      3  C   UNL     1      -4.840 -36.145  45.737  1.00  0.00     0.120 A 
ATOM      4  C   UNL     1      -6.383 -34.000  44.894  1.00  0.00     0.021 A 
ATOM      5  N   UNL     1      -4.976 -35.866  44.412  1.00  0.00    -0.264 NA
ATOM      6  C   UNL     1      -5.728 -34.821  43.975  1.00  0.00     0.111 A 
ENDROOT
BRANCH   1   7
ATOM      7  C   UNL     1      -5.343 -35.636  48.143  1.00  0.00     0.073 C 
ATOM      8  O   UNL     1      -6.243 -36.268  48.758  1.00  0.00    -0.545 OA
ATOM      9  O   UNL     1      -4.216 -35.217  48.841  1.00  0.00    -0.545 OA
ENDBRANCH   1   7
TORSDOF 1
ENDMDL
MODEL 9
REMARK VINA RESULT:    -3.519     11.310     12.052
REMARK INTER + INTRA:          -3.748
REMARK INTER:                  -3.728
REMARK INTRA:                  -0.020
REMARK UNBOUND:                -0.024
REMARK SMILES O=C([O-])c1cccnc1
REMARK SMILES IDX 4 1 5 2 9 3 6 4 8 5 7 6 2 7 1 8 3 9
REMARK H PARENT
REMARK Flexibility Score: inf
ROOT
ATOM      1  C   UNL     1      -4.972 -34.484  46.612  1.00  0.00     0.016 A 
ATOM      2  C   UNL     1      -6.091 -33.889  46.006  1.00  0.00     0.013 A 
ATOM      3  C   UNL     1      -4.260 -35.457  45.890  1.00  0.00     0.120 A 
ATOM      4  C   UNL     1      -6.474 -34.267  44.717  1.00  0.00     0.021 A 
ATOM      5  N   UNL     1      -4.653 -35.807  44.636  1.00  0.00    -0.264 NA
ATOM      6  C   UNL     1      -5.734 -35.238  44.041  1.00  0.00     0.111 A 
ENDROOT
BRANCH   1   7
ATOM      7  C   UNL     1      -4.558 -34.092  47.976  1.00  0.00     0.073 C 
ATOM      8  O   UNL     1      -4.143 -34.957  48.792  1.00  0.00    -0.545 OA
ATOM      9  O   UNL     1      -4.620 -32.761  48.376  1.00  0.00    -0.545 OA
ENDBRANCH   1   7
TORSDOF 1
ENDMDL
