MODEL 1
REMARK VINA RESULT:    -6.229      0.000      0.000
REMARK INTER + INTRA:          -7.637
REMARK INTER:                  -7.322
REMARK INTRA:                  -0.315
REMARK UNBOUND:                -0.315
REMARK SMILES Oc1ccc(-c2[o+]c3cc(O)cc(O)c3cc2O)cc1
REMARK SMILES IDX 6 1 7 2 8 3 9 4 10 5 12 6 13 7 15 8 16 9 17 10 5 11 4 12
REMARK SMILES IDX 3 13 2 14 19 15 20 16 1 17 18 19 11 21 14 23
REMARK H PARENT 1 18 18 20 11 22 14 24
REMARK Flexibility Score: inf
ROOT
ATOM      1  C   UNL     1      12.319 -11.123 -44.222  1.00  0.00     0.401 A 
ATOM      2  O   UNL     1      13.643 -11.060 -44.089  1.00  0.00    -0.202 OA
ATOM      3  C   UNL     1      14.461 -12.029 -44.485  1.00  0.00     0.368 A 
ATOM      4  C   UNL     1      15.840 -11.889 -44.305  1.00  0.00     0.162 A 
ATOM      5  C   UNL     1      16.713 -12.905 -44.715  1.00  0.00     0.128 A 
ATOM      6  C   UNL     1      16.202 -14.065 -45.309  1.00  0.00     0.093 A 
ATOM      7  C   UNL     1      14.821 -14.219 -45.499  1.00  0.00     0.136 A 
ATOM      8  C   UNL     1      13.944 -13.197 -45.086  1.00  0.00     0.125 A 
ATOM      9  C   UNL     1      12.559 -13.294 -45.256  1.00  0.00     0.078 A 
ATOM     10  C   UNL     1      11.732 -12.249 -44.834  1.00  0.00     0.223 A 
ENDROOT
BRANCH   1  11
ATOM     11  C   UNL     1      11.511  -9.983 -43.732  1.00  0.00     0.084 A 
ATOM     12  C   UNL     1      11.196  -8.931 -44.610  1.00  0.00     0.022 A 
ATOM     13  C   UNL     1      10.453  -7.834 -44.164  1.00  0.00     0.047 A 
ATOM     14  C   UNL     1      10.028  -7.768 -42.830  1.00  0.00     0.115 A 
ATOM     15  C   UNL     1      11.097  -9.900 -42.390  1.00  0.00     0.022 A 
ATOM     16  C   UNL     1      10.354  -8.801 -41.946  1.00  0.00     0.047 A 
BRANCH  14  17
ATOM     17  O   UNL     1       9.286  -6.680 -42.374  1.00  0.00    -0.508 OA
ATOM     18  H   UNL     1       8.693  -6.750 -41.555  1.00  0.00     0.293 HD
ENDBRANCH  14  17
ENDBRANCH   1  11
BRANCH  10  19
ATOM     19  O   UNL     1      10.355 -12.316 -45.048  1.00  0.00    -0.500 OA
ATOM     20  H   UNL     1       9.737 -11.563 -44.769  1.00  0.00     0.294 HD
ENDBRANCH  10  19
BRANCH   5  21
ATOM     21  O   UNL     1      18.088 -12.773 -44.538  1.00  0.00    -0.507 OA
ATOM     22  H   UNL     1      18.474 -12.159 -43.830  1.00  0.00     0.293 HD
ENDBRANCH   5  21
BRANCH   7  23
ATOM     23  O   UNL     1      14.325 -15.379 -46.093  1.00  0.00    -0.507 OA
ATOM     24  H   UNL     1      13.879 -15.361 -47.003  1.00  0.00     0.293 HD
ENDBRANCH   7  23
TORSDOF 5
ENDMDL
MODEL 2
REMARK VINA RESULT:    -5.906      1.375      6.422
REMARK INTER + INTRA:          -7.257
REMARK INTER:                  -7.299
REMARK INTRA:                   0.042
REMARK UNBOUND:                -0.315
REMARK SMILES Oc1ccc(-c2[o+]c3cc(O)cc(O)c3cc2O)cc1
REMARK SMILES IDX 6 1 7 2 8 3 9 4 10 5 12 6 13 7 15 8 16 9 17 10 5 11 4 12
REMARK SMILES IDX 3 13 2 14 19 15 20 16 1 17 18 19 11 21 14 23
REMARK H PARENT 1 18 18 20 11 22 14 24
REMARK Flexibility Score: inf
ROOT
ATOM      1  C   UNL     1      13.581 -11.936 -44.319  1.00  0.00     0.401 A 
ATOM      2  O   UNL     1      13.121 -10.714 -44.057  1.00  0.00    -0.202 OA
ATOM      3  C   UNL     1      11.851 -10.362 -44.228  1.00  0.00     0.368 A 
ATOM      4  C   UNL     1      11.448  -9.056 -43.934  1.00  0.00     0.162 A 
ATOM      5  C   UNL     1      10.112  -8.672 -44.113  1.00  0.00     0.128 A 
ATOM      6  C   UNL     1       9.178  -9.599 -44.588  1.00  0.00     0.093 A 
ATOM      7  C   UNL     1       9.567 -10.914 -44.885  1.00  0.00     0.136 A 
ATOM      8  C   UNL     1      10.909 -11.299 -44.705  1.00  0.00     0.125 A 
ATOM      9  C   UNL     1      11.352 -12.598 -44.978  1.00  0.00     0.078 A 
ATOM     10  C   UNL     1      12.694 -12.932 -44.777  1.00  0.00     0.223 A 
ENDROOT
BRANCH   1  11
ATOM     11  C   UNL     1      15.020 -12.205 -44.098  1.00  0.00     0.084 A 
ATOM     12  C   UNL     1      15.654 -11.678 -42.959  1.00  0.00     0.022 A 
ATOM     13  C   UNL     1      17.017 -11.901 -42.741  1.00  0.00     0.047 A 
ATOM     14  C   UNL     1      17.767 -12.641 -43.666  1.00  0.00     0.115 A 
ATOM     15  C   UNL     1      15.783 -12.930 -45.031  1.00  0.00     0.022 A 
ATOM     16  C   UNL     1      17.147 -13.151 -44.810  1.00  0.00     0.047 A 
BRANCH  14  17
ATOM     17  O   UNL     1      19.125 -12.870 -43.458  1.00  0.00    -0.508 OA
ATOM     18  H   UNL     1      19.449 -13.585 -42.816  1.00  0.00     0.293 HD
ENDBRANCH  14  17
ENDBRANCH   1  11
BRANCH  10  19
ATOM     19  O   UNL     1      13.131 -14.238 -44.998  1.00  0.00    -0.500 OA
ATOM     20  H   UNL     1      12.555 -14.916 -45.484  1.00  0.00     0.294 HD
ENDBRANCH  10  19
BRANCH   5  21
ATOM     21  O   UNL     1       9.703  -7.373 -43.823  1.00  0.00    -0.507 OA
ATOM     22  H   UNL     1       9.583  -6.680 -44.554  1.00  0.00     0.293 HD
ENDBRANCH   5  21
BRANCH   7  23
ATOM     23  O   UNL     1       8.625 -11.829 -45.356  1.00  0.00    -0.507 OA
ATOM     24  H   UNL     1       8.194 -11.726 -46.268  1.00  0.00     0.293 HD
ENDBRANCH   7  23
TORSDOF 5
ENDMDL
MODEL 3
REMARK VINA RESULT:    -5.870      2.479      3.985
REMARK INTER + INTRA:          -7.215
REMARK INTER:                  -6.921
REMARK INTRA:                  -0.294
REMARK UNBOUND:                -0.315
REMARK SMILES Oc1ccc(-c2[o+]c3cc(O)cc(O)c3cc2O)cc1
REMARK SMILES IDX 6 1 7 2 8 3 9 4 10 5 12 6 13 7 15 8 16 9 17 10 5 11 4 12
REMARK SMILES IDX 3 13 2 14 19 15 20 16 1 17 18 19 11 21 14 23
REMARK H PARENT 1 18 18 20 11 22 14 24
REMARK Flexibility Score: inf
ROOT
ATOM      1  C   UNL     1      11.580 -12.484 -44.440  1.00  0.00     0.401 A 
ATOM      2  O   UNL     1      12.507 -13.140 -45.137  1.00  0.00    -0.202 OA
ATOM      3  C   UNL     1      13.799 -13.118 -44.829  1.00  0.00     0.368 A 
ATOM      4  C   UNL     1      14.710 -13.830 -45.616  1.00  0.00     0.162 A 
ATOM      5  C   UNL     1      16.076 -13.812 -45.303  1.00  0.00     0.128 A 
ATOM      6  C   UNL     1      16.530 -13.080 -44.202  1.00  0.00     0.093 A 
ATOM      7  C   UNL     1      15.627 -12.362 -43.402  1.00  0.00     0.136 A 
ATOM      8  C   UNL     1      14.255 -12.380 -43.716  1.00  0.00     0.125 A 
ATOM      9  C   UNL     1      13.309 -11.689 -42.950  1.00  0.00     0.078 A 
ATOM     10  C   UNL     1      11.957 -11.744 -43.301  1.00  0.00     0.223 A 
ENDROOT
BRANCH   1  11
ATOM     11  C   UNL     1      10.171 -12.577 -44.887  1.00  0.00     0.084 A 
ATOM     12  C   UNL     1       9.449 -13.761 -44.655  1.00  0.00     0.022 A 
ATOM     13  C   UNL     1       8.125 -13.879 -45.088  1.00  0.00     0.047 A 
ATOM     14  C   UNL     1       7.511 -12.821 -45.771  1.00  0.00     0.115 A 
ATOM     15  C   UNL     1       9.554 -11.527 -45.591  1.00  0.00     0.022 A 
ATOM     16  C   UNL     1       8.229 -11.648 -46.023  1.00  0.00     0.047 A 
BRANCH  14  17
ATOM     17  O   UNL     1       6.191 -12.927 -46.206  1.00  0.00    -0.508 OA
ATOM     18  H   UNL     1       5.797 -12.267 -46.867  1.00  0.00     0.293 HD
ENDBRANCH  14  17
ENDBRANCH   1  11
BRANCH  10  19
ATOM     19  O   UNL     1      11.003 -11.101 -42.513  1.00  0.00    -0.500 OA
ATOM     20  H   UNL     1      11.084 -11.066 -41.503  1.00  0.00     0.294 HD
ENDBRANCH  10  19
BRANCH   5  21
ATOM     21  O   UNL     1      16.991 -14.518 -46.082  1.00  0.00    -0.507 OA
ATOM     22  H   UNL     1      17.372 -15.406 -45.776  1.00  0.00     0.293 HD
ENDBRANCH   5  21
BRANCH   7  23
ATOM     23  O   UNL     1      16.093 -11.637 -42.305  1.00  0.00    -0.507 OA
ATOM     24  H   UNL     1      16.175 -12.058 -41.387  1.00  0.00     0.293 HD
ENDBRANCH   7  23
TORSDOF 5
ENDMDL
MODEL 4
REMARK VINA RESULT:    -5.832      4.017      6.442
REMARK INTER + INTRA:          -7.170
REMARK INTER:                  -6.899
REMARK INTRA:                  -0.271
REMARK UNBOUND:                -0.315
REMARK SMILES Oc1ccc(-c2[o+]c3cc(O)cc(O)c3cc2O)cc1
REMARK SMILES IDX 6 1 7 2 8 3 9 4 10 5 12 6 13 7 15 8 16 9 17 10 5 11 4 12
REMARK SMILES IDX 3 13 2 14 19 15 20 16 1 17 18 19 11 21 14 23
REMARK H PARENT 1 18 18 20 11 22 14 24
REMARK Flexibility Score: inf
ROOT
ATOM      1  C   UNL     1       8.551 -12.504 -45.627  1.00  0.00     0.401 A 
ATOM      2  O   UNL     1       9.810 -12.766 -45.279  1.00  0.00    -0.202 OA
ATOM      3  C   UNL     1      10.673 -11.826 -44.909  1.00  0.00     0.368 A 
ATOM      4  C   UNL     1      11.980 -12.183 -44.563  1.00  0.00     0.162 A 
ATOM      5  C   UNL     1      12.901 -11.201 -44.175  1.00  0.00     0.128 A 
ATOM      6  C   UNL     1      12.511  -9.858 -44.132  1.00  0.00     0.093 A 
ATOM      7  C   UNL     1      11.203  -9.485 -44.474  1.00  0.00     0.136 A 
ATOM      8  C   UNL     1      10.278 -10.472 -44.864  1.00  0.00     0.125 A 
ATOM      9  C   UNL     1       8.958 -10.158 -45.209  1.00  0.00     0.078 A 
ATOM     10  C   UNL     1       8.078 -11.177 -45.584  1.00  0.00     0.223 A 
ENDROOT
BRANCH   1  11
ATOM     11  C   UNL     1       7.686 -13.636 -46.030  1.00  0.00     0.084 A 
ATOM     12  C   UNL     1       7.796 -14.160 -47.330  1.00  0.00     0.022 A 
ATOM     13  C   UNL     1       6.974 -15.215 -47.740  1.00  0.00     0.047 A 
ATOM     14  C   UNL     1       6.022 -15.748 -46.861  1.00  0.00     0.115 A 
ATOM     15  C   UNL     1       6.715 -14.164 -45.161  1.00  0.00     0.022 A 
ATOM     16  C   UNL     1       5.893 -15.218 -45.573  1.00  0.00     0.047 A 
BRANCH  14  17
ATOM     17  O   UNL     1       5.198 -16.799 -47.258  1.00  0.00    -0.508 OA
ATOM     18  H   UNL     1       4.439 -16.658 -47.914  1.00  0.00     0.293 HD
ENDBRANCH  14  17
ENDBRANCH   1  11
BRANCH  10  19
ATOM     19  O   UNL     1       6.747 -10.878 -45.879  1.00  0.00    -0.500 OA
ATOM     20  H   UNL     1       6.064 -11.606 -46.051  1.00  0.00     0.294 HD
ENDBRANCH  10  19
BRANCH   5  21
ATOM     21  O   UNL     1      14.205 -11.548 -43.830  1.00  0.00    -0.507 OA
ATOM     22  H   UNL     1      14.988 -11.335 -44.438  1.00  0.00     0.293 HD
ENDBRANCH   5  21
BRANCH   7  23
ATOM     23  O   UNL     1      10.826  -8.142 -44.425  1.00  0.00    -0.507 OA
ATOM     24  H   UNL     1      10.338  -7.756 -43.625  1.00  0.00     0.293 HD
ENDBRANCH   7  23
TORSDOF 5
ENDMDL
MODEL 5
REMARK VINA RESULT:    -5.748      1.922      3.385
REMARK INTER + INTRA:          -7.071
REMARK INTER:                  -6.832
REMARK INTRA:                  -0.239
REMARK UNBOUND:                -0.315
REMARK SMILES Oc1ccc(-c2[o+]c3cc(O)cc(O)c3cc2O)cc1
REMARK SMILES IDX 6 1 7 2 8 3 9 4 10 5 12 6 13 7 15 8 16 9 17 10 5 11 4 12
REMARK SMILES IDX 3 13 2 14 19 15 20 16 1 17 18 19 11 21 14 23
REMARK H PARENT 1 18 18 20 11 22 14 24
REMARK Flexibility Score: inf
ROOT
ATOM      1  C   UNL     1      12.036 -11.444 -43.697  1.00  0.00     0.401 A 
ATOM      2  O   UNL     1      11.432 -12.577 -43.345  1.00  0.00    -0.202 OA
ATOM      3  C   UNL     1      11.967 -13.778 -43.539  1.00  0.00     0.368 A 
ATOM      4  C   UNL     1      11.265 -14.921 -43.144  1.00  0.00     0.162 A 
ATOM      5  C   UNL     1      11.818 -16.193 -43.347  1.00  0.00     0.128 A 
ATOM      6  C   UNL     1      13.076 -16.319 -43.946  1.00  0.00     0.093 A 
ATOM      7  C   UNL     1      13.792 -15.181 -44.344  1.00  0.00     0.136 A 
ATOM      8  C   UNL     1      13.237 -13.903 -44.141  1.00  0.00     0.125 A 
ATOM      9  C   UNL     1      13.910 -12.734 -44.513  1.00  0.00     0.078 A 
ATOM     10  C   UNL     1      13.317 -11.489 -44.283  1.00  0.00     0.223 A 
ENDROOT
BRANCH   1  11
ATOM     11  C   UNL     1      11.334 -10.166 -43.438  1.00  0.00     0.084 A 
ATOM     12  C   UNL     1      11.103  -9.761 -42.112  1.00  0.00     0.022 A 
ATOM     13  C   UNL     1      10.423  -8.569 -41.843  1.00  0.00     0.047 A 
ATOM     14  C   UNL     1       9.952  -7.774 -42.897  1.00  0.00     0.115 A 
ATOM     15  C   UNL     1      10.842  -9.372 -44.490  1.00  0.00     0.022 A 
ATOM     16  C   UNL     1      10.162  -8.180 -44.218  1.00  0.00     0.047 A 
BRANCH  14  17
ATOM     17  O   UNL     1       9.275  -6.584 -42.642  1.00  0.00    -0.508 OA
ATOM     18  H   UNL     1       9.658  -5.879 -42.022  1.00  0.00     0.293 HD
ENDBRANCH  14  17
ENDBRANCH   1  11
BRANCH  10  19
ATOM     19  O   UNL     1      14.004 -10.318 -44.604  1.00  0.00    -0.500 OA
ATOM     20  H   UNL     1      15.016 -10.270 -44.572  1.00  0.00     0.294 HD
ENDBRANCH  10  19
BRANCH   5  21
ATOM     21  O   UNL     1      11.124 -17.337 -42.958  1.00  0.00    -0.507 OA
ATOM     22  H   UNL     1      11.519 -18.262 -43.080  1.00  0.00     0.293 HD
ENDBRANCH   5  21
BRANCH   7  23
ATOM     23  O   UNL     1      15.047 -15.321 -44.939  1.00  0.00    -0.507 OA
ATOM     24  H   UNL     1      15.613 -16.150 -44.797  1.00  0.00     0.293 HD
ENDBRANCH   7  23
TORSDOF 5
ENDMDL
MODEL 6
REMARK VINA RESULT:    -5.698     12.220     14.551
REMARK INTER + INTRA:          -7.013
REMARK INTER:                  -6.932
REMARK INTRA:                  -0.081
REMARK UNBOUND:                -0.315
REMARK SMILES Oc1ccc(-c2[o+]c3cc(O)cc(O)c3cc2O)cc1
REMARK SMILES IDX 6 1 7 2 8 3 9 4 10 5 12 6 13 7 15 8 16 9 17 10 5 11 4 12
REMARK SMILES IDX 3 13 2 14 19 15 20 16 1 17 18 19 11 21 14 23
REMARK H PARENT 1 18 18 20 11 22 14 24
REMARK Flexibility Score: inf
ROOT
ATOM      1  C   UNL     1       6.845 -19.427 -36.301  1.00  0.00     0.401 A 
ATOM      2  O   UNL     1       6.394 -18.743 -35.251  1.00  0.00    -0.202 OA
ATOM      3  C   UNL     1       5.744 -17.589 -35.359  1.00  0.00     0.368 A 
ATOM      4  C   UNL     1       5.307 -16.930 -34.205  1.00  0.00     0.162 A 
ATOM      5  C   UNL     1       4.624 -15.710 -34.306  1.00  0.00     0.128 A 
ATOM      6  C   UNL     1       4.379 -15.150 -35.564  1.00  0.00     0.093 A 
ATOM      7  C   UNL     1       4.809 -15.801 -36.729  1.00  0.00     0.136 A 
ATOM      8  C   UNL     1       5.495 -17.027 -36.629  1.00  0.00     0.125 A 
ATOM      9  C   UNL     1       5.941 -17.722 -37.758  1.00  0.00     0.078 A 
ATOM     10  C   UNL     1       6.613 -18.939 -37.603  1.00  0.00     0.223 A 
ENDROOT
BRANCH   1  11
ATOM     11  C   UNL     1       7.563 -20.698 -36.054  1.00  0.00     0.084 A 
ATOM     12  C   UNL     1       8.742 -20.687 -35.288  1.00  0.00     0.022 A 
ATOM     13  C   UNL     1       9.449 -21.871 -35.059  1.00  0.00     0.047 A 
ATOM     14  C   UNL     1       8.995 -23.079 -35.606  1.00  0.00     0.115 A 
ATOM     15  C   UNL     1       7.124 -21.911 -36.615  1.00  0.00     0.022 A 
ATOM     16  C   UNL     1       7.834 -23.094 -36.385  1.00  0.00     0.047 A 
BRANCH  14  17
ATOM     17  O   UNL     1       9.690 -24.266 -35.385  1.00  0.00    -0.508 OA
ATOM     18  H   UNL     1       9.506 -25.098 -35.933  1.00  0.00     0.293 HD
ENDBRANCH  14  17
ENDBRANCH   1  11
BRANCH  10  19
ATOM     19  O   UNL     1       7.014 -19.663 -38.726  1.00  0.00    -0.500 OA
ATOM     20  H   UNL     1       6.341 -20.071 -39.364  1.00  0.00     0.294 HD
ENDBRANCH  10  19
BRANCH   5  21
ATOM     21  O   UNL     1       4.187 -15.047 -33.161  1.00  0.00    -0.507 OA
ATOM     22  H   UNL     1       3.212 -15.058 -32.884  1.00  0.00     0.293 HD
ENDBRANCH   5  21
BRANCH   7  23
ATOM     23  O   UNL     1       4.555 -15.233 -37.978  1.00  0.00    -0.507 OA
ATOM     24  H   UNL     1       3.868 -15.625 -38.611  1.00  0.00     0.293 HD
ENDBRANCH   7  23
TORSDOF 5
ENDMDL
MODEL 7
REMARK VINA RESULT:    -5.695      2.639      6.301
REMARK INTER + INTRA:          -7.009
REMARK INTER:                  -6.706
REMARK INTRA:                  -0.303
REMARK UNBOUND:                -0.315
REMARK SMILES Oc1ccc(-c2[o+]c3cc(O)cc(O)c3cc2O)cc1
REMARK SMILES IDX 6 1 7 2 8 3 9 4 10 5 12 6 13 7 15 8 16 9 17 10 5 11 4 12
REMARK SMILES IDX 3 13 2 14 19 15 20 16 1 17 18 19 11 21 14 23
REMARK H PARENT 1 18 18 20 11 22 14 24
REMARK Flexibility Score: inf
ROOT
ATOM      1  C   UNL     1      12.658 -12.962 -44.481  1.00  0.00     0.401 A 
ATOM      2  O   UNL     1      11.819 -12.006 -44.878  1.00  0.00    -0.202 OA
ATOM      3  C   UNL     1      10.522 -12.215 -45.080  1.00  0.00     0.368 A 
ATOM      4  C   UNL     1       9.708 -11.159 -45.501  1.00  0.00     0.162 A 
ATOM      5  C   UNL     1       8.340 -11.367 -45.720  1.00  0.00     0.128 A 
ATOM      6  C   UNL     1       7.786 -12.636 -45.517  1.00  0.00     0.093 A 
ATOM      7  C   UNL     1       8.590 -13.704 -45.092  1.00  0.00     0.136 A 
ATOM      8  C   UNL     1       9.965 -13.495 -44.872  1.00  0.00     0.125 A 
ATOM      9  C   UNL     1      10.812 -14.522 -44.441  1.00  0.00     0.078 A 
ATOM     10  C   UNL     1      12.169 -14.260 -44.231  1.00  0.00     0.223 A 
ENDROOT
BRANCH   1  11
ATOM     11  C   UNL     1      14.085 -12.609 -44.300  1.00  0.00     0.084 A 
ATOM     12  C   UNL     1      14.480 -11.897 -43.155  1.00  0.00     0.022 A 
ATOM     13  C   UNL     1      15.819 -11.535 -42.973  1.00  0.00     0.047 A 
ATOM     14  C   UNL     1      16.776 -11.867 -43.941  1.00  0.00     0.115 A 
ATOM     15  C   UNL     1      15.048 -12.923 -45.276  1.00  0.00     0.022 A 
ATOM     16  C   UNL     1      16.386 -12.559 -45.092  1.00  0.00     0.047 A 
BRANCH  14  17
ATOM     17  O   UNL     1      18.112 -11.512 -43.770  1.00  0.00    -0.508 OA
ATOM     18  H   UNL     1      18.864 -12.125 -44.065  1.00  0.00     0.293 HD
ENDBRANCH  14  17
ENDBRANCH   1  11
BRANCH  10  19
ATOM     19  O   UNL     1      13.009 -15.265 -43.753  1.00  0.00    -0.500 OA
ATOM     20  H   UNL     1      13.970 -15.350 -44.066  1.00  0.00     0.294 HD
ENDBRANCH  10  19
BRANCH   5  21
ATOM     21  O   UNL     1       7.522 -10.321 -46.141  1.00  0.00    -0.507 OA
ATOM     22  H   UNL     1       6.636 -10.127 -45.689  1.00  0.00     0.293 HD
ENDBRANCH   5  21
BRANCH   7  23
ATOM     23  O   UNL     1       8.025 -14.963 -44.891  1.00  0.00    -0.507 OA
ATOM     24  H   UNL     1       7.787 -15.569 -45.668  1.00  0.00     0.293 HD
ENDBRANCH   7  23
TORSDOF 5
ENDMDL
MODEL 8
REMARK VINA RESULT:    -5.662     10.336     12.841
REMARK INTER + INTRA:          -6.970
REMARK INTER:                  -6.701
REMARK INTRA:                  -0.269
REMARK UNBOUND:                -0.315
REMARK SMILES Oc1ccc(-c2[o+]c3cc(O)cc(O)c3cc2O)cc1
REMARK SMILES IDX 6 1 7 2 8 3 9 4 10 5 12 6 13 7 15 8 16 9 17 10 5 11 4 12
REMARK SMILES IDX 3 13 2 14 19 15 20 16 1 17 18 19 11 21 14 23
REMARK H PARENT 1 18 18 20 11 22 14 24
REMARK Flexibility Score: inf
ROOT
ATOM      1  C   UNL     1      15.068 -21.740 -40.024  1.00  0.00     0.401 A 
ATOM      2  O   UNL     1      14.169 -20.889 -39.531  1.00  0.00    -0.202 OA
ATOM      3  C   UNL     1      13.172 -21.264 -38.737  1.00  0.00     0.368 A 
ATOM      4  C   UNL     1      12.266 -20.308 -38.264  1.00  0.00     0.162 A 
ATOM      5  C   UNL     1      11.209 -20.692 -37.429  1.00  0.00     0.128 A 
ATOM      6  C   UNL     1      11.059 -22.034 -37.065  1.00  0.00     0.093 A 
ATOM      7  C   UNL     1      11.961 -23.003 -37.529  1.00  0.00     0.136 A 
ATOM      8  C   UNL     1      13.024 -22.618 -38.369  1.00  0.00     0.125 A 
ATOM      9  C   UNL     1      13.957 -23.540 -38.855  1.00  0.00     0.078 A 
ATOM     10  C   UNL     1      14.997 -23.105 -39.682  1.00  0.00     0.223 A 
ENDROOT
BRANCH   1  11
ATOM     11  C   UNL     1      16.129 -21.204 -40.907  1.00  0.00     0.084 A 
ATOM     12  C   UNL     1      15.839 -20.949 -42.259  1.00  0.00     0.022 A 
ATOM     13  C   UNL     1      16.831 -20.463 -43.116  1.00  0.00     0.047 A 
ATOM     14  C   UNL     1      18.129 -20.240 -42.637  1.00  0.00     0.115 A 
ATOM     15  C   UNL     1      17.439 -20.995 -40.438  1.00  0.00     0.022 A 
ATOM     16  C   UNL     1      18.429 -20.510 -41.298  1.00  0.00     0.047 A 
BRANCH  14  17
ATOM     17  O   UNL     1      19.125 -19.756 -43.482  1.00  0.00    -0.508 OA
ATOM     18  H   UNL     1      19.948 -19.290 -43.117  1.00  0.00     0.293 HD
ENDBRANCH  14  17
ENDBRANCH   1  11
BRANCH  10  19
ATOM     19  O   UNL     1      15.960 -24.010 -40.128  1.00  0.00    -0.500 OA
ATOM     20  H   UNL     1      16.404 -24.669 -39.498  1.00  0.00     0.294 HD
ENDBRANCH  10  19
BRANCH   5  21
ATOM     21  O   UNL     1      10.302 -19.747 -36.955  1.00  0.00    -0.507 OA
ATOM     22  H   UNL     1      10.529 -19.138 -36.177  1.00  0.00     0.293 HD
ENDBRANCH   5  21
BRANCH   7  23
ATOM     23  O   UNL     1      11.801 -24.338 -37.158  1.00  0.00    -0.507 OA
ATOM     24  H   UNL     1      11.749 -25.079 -37.847  1.00  0.00     0.293 HD
ENDBRANCH   7  23
TORSDOF 5
ENDMDL
MODEL 9
REMARK VINA RESULT:    -5.593     11.969     12.817
REMARK INTER + INTRA:          -6.890
REMARK INTER:                  -6.611
REMARK INTRA:                  -0.279
REMARK UNBOUND:                -0.315
REMARK SMILES Oc1ccc(-c2[o+]c3cc(O)cc(O)c3cc2O)cc1
REMARK SMILES IDX 6 1 7 2 8 3 9 4 10 5 12 6 13 7 15 8 16 9 17 10 5 11 4 12
REMARK SMILES IDX 3 13 2 14 19 15 20 16 1 17 18 19 11 21 14 23
REMARK H PARENT 1 18 18 20 11 22 14 24
REMARK Flexibility Score: inf
ROOT
ATOM      1  C   UNL     1       6.850 -18.781 -36.718  1.00  0.00     0.401 A 
ATOM      2  O   UNL     1       7.097 -19.775 -35.867  1.00  0.00    -0.202 OA
ATOM      3  C   UNL     1       8.178 -20.544 -35.941  1.00  0.00     0.368 A 
ATOM      4  C   UNL     1       8.362 -21.572 -35.010  1.00  0.00     0.162 A 
ATOM      5  C   UNL     1       9.496 -22.392 -35.080  1.00  0.00     0.128 A 
ATOM      6  C   UNL     1      10.449 -22.181 -36.083  1.00  0.00     0.093 A 
ATOM      7  C   UNL     1      10.279 -21.153 -37.022  1.00  0.00     0.136 A 
ATOM      8  C   UNL     1       9.139 -20.329 -36.952  1.00  0.00     0.125 A 
ATOM      9  C   UNL     1       8.922 -19.284 -37.857  1.00  0.00     0.078 A 
ATOM     10  C   UNL     1       7.776 -18.492 -37.741  1.00  0.00     0.223 A 
ENDROOT
BRANCH   1  11
ATOM     11  C   UNL     1       5.605 -17.999 -36.540  1.00  0.00     0.084 A 
ATOM     12  C   UNL     1       5.497 -17.109 -35.458  1.00  0.00     0.022 A 
ATOM     13  C   UNL     1       4.323 -16.377 -35.257  1.00  0.00     0.047 A 
ATOM     14  C   UNL     1       3.236 -16.537 -36.127  1.00  0.00     0.115 A 
ATOM     15  C   UNL     1       4.503 -18.169 -37.398  1.00  0.00     0.022 A 
ATOM     16  C   UNL     1       3.329 -17.435 -37.195  1.00  0.00     0.047 A 
BRANCH  14  17
ATOM     17  O   UNL     1       2.062 -15.812 -35.938  1.00  0.00    -0.508 OA
ATOM     18  H   UNL     1       1.619 -15.749 -35.028  1.00  0.00     0.293 HD
ENDBRANCH  14  17
ENDBRANCH   1  11
BRANCH  10  19
ATOM     19  O   UNL     1       7.579 -17.416 -38.607  1.00  0.00    -0.500 OA
ATOM     20  H   UNL     1       8.029 -16.521 -38.454  1.00  0.00     0.294 HD
ENDBRANCH  10  19
BRANCH   5  21
ATOM     21  O   UNL     1       9.686 -23.419 -34.158  1.00  0.00    -0.507 OA
ATOM     22  H   UNL     1       9.090 -23.516 -33.344  1.00  0.00     0.293 HD
ENDBRANCH   5  21
BRANCH   7  23
ATOM     23  O   UNL     1      11.237 -20.952 -38.016  1.00  0.00    -0.507 OA
ATOM     24  H   UNL     1      11.467 -21.677 -38.686  1.00  0.00     0.293 HD
ENDBRANCH   7  23
TORSDOF 5
ENDMDL
