MODEL 1
REMARK VINA RESULT:    -2.475      0.000      0.000
REMARK INTER + INTRA:          -2.475
REMARK INTER:                  -2.475
REMARK INTRA:                   0.000
REMARK UNBOUND:                 0.000
REMARK SMILES c1cc[nH]c1
REMARK SMILES IDX 1 1 5 2 4 3 3 4 2 5
REMARK H PARENT 4 6
REMARK Flexibility Score: inf
ROOT
ATOM      1  C   UNL     1      15.455  31.813  30.327  1.00  0.00     0.019 A 
ATOM      2  C   UNL     1      16.716  32.031  30.843  1.00  0.00     0.082 A 
ATOM      3  N   UNL     1      16.632  32.308  32.156  1.00  0.00    -0.368 N 
ATOM      4  C   UNL     1      15.329  32.268  32.487  1.00  0.00     0.082 A 
ATOM      5  C   UNL     1      14.571  31.963  31.376  1.00  0.00     0.019 A 
ATOM      6  H   UNL     1      17.429  32.515  32.799  1.00  0.00     0.165 HD
ENDROOT
TORSDOF 0
ENDMDL
MODEL 2
REMARK VINA RESULT:    -2.403     18.740     19.259
REMARK INTER + INTRA:          -2.403
REMARK INTER:                  -2.403
REMARK INTRA:                   0.000
REMARK UNBOUND:                 0.000
REMARK SMILES c1cc[nH]c1
REMARK SMILES IDX 1 1 5 2 4 3 3 4 2 5
REMARK H PARENT 4 6
REMARK Flexibility Score: inf
ROOT
ATOM      1  C   UNL     1       6.049  19.818  22.462  1.00  0.00     0.019 A 
ATOM      2  C   UNL     1       5.902  18.449  22.363  1.00  0.00     0.082 A 
ATOM      3  N   UNL     1       4.878  18.157  21.542  1.00  0.00    -0.368 N 
ATOM      4  C   UNL     1       4.368  19.325  21.113  1.00  0.00     0.082 A 
ATOM      5  C   UNL     1       5.071  20.376  21.664  1.00  0.00     0.019 A 
ATOM      6  H   UNL     1       4.543  17.201  21.285  1.00  0.00     0.165 HD
ENDROOT
TORSDOF 0
ENDMDL
MODEL 3
REMARK VINA RESULT:    -2.399     17.211     17.698
REMARK INTER + INTRA:          -2.399
REMARK INTER:                  -2.399
REMARK INTRA:                   0.000
REMARK UNBOUND:                 0.000
REMARK SMILES c1cc[nH]c1
REMARK SMILES IDX 1 1 5 2 4 3 3 4 2 5
REMARK H PARENT 4 6
REMARK Flexibility Score: inf
ROOT
ATOM      1  C   UNL     1       8.552  19.423  23.667  1.00  0.00     0.019 A 
ATOM      2  C   UNL     1       8.993  18.947  22.450  1.00  0.00     0.082 A 
ATOM      3  N   UNL     1       8.010  18.258  21.843  1.00  0.00    -0.368 N 
ATOM      4  C   UNL     1       6.942  18.291  22.660  1.00  0.00     0.082 A 
ATOM      5  C   UNL     1       7.243  19.005  23.801  1.00  0.00     0.019 A 
ATOM      6  H   UNL     1       8.066  17.788  20.912  1.00  0.00     0.165 HD
ENDROOT
TORSDOF 0
ENDMDL
MODEL 4
REMARK VINA RESULT:    -2.393     17.166     17.699
REMARK INTER + INTRA:          -2.393
REMARK INTER:                  -2.393
REMARK INTRA:                   0.000
REMARK UNBOUND:                 0.000
REMARK SMILES c1cc[nH]c1
REMARK SMILES IDX 1 1 5 2 4 3 3 4 2 5
REMARK H PARENT 4 6
REMARK Flexibility Score: inf
ROOT
ATOM      1  C   UNL     1       7.238  18.974  23.821  1.00  0.00     0.019 A 
ATOM      2  C   UNL     1       6.991  18.303  22.641  1.00  0.00     0.082 A 
ATOM      3  N   UNL     1       8.090  18.318  21.867  1.00  0.00    -0.368 N 
ATOM      4  C   UNL     1       9.040  18.990  22.540  1.00  0.00     0.082 A 
ATOM      5  C   UNL     1       8.546  19.412  23.757  1.00  0.00     0.019 A 
ATOM      6  H   UNL     1       8.188  17.886  20.920  1.00  0.00     0.165 HD
ENDROOT
TORSDOF 0
ENDMDL
MODEL 5
REMARK VINA RESULT:    -2.390     18.719     19.242
REMARK INTER + INTRA:          -2.390
REMARK INTER:                  -2.390
REMARK INTRA:                   0.000
REMARK UNBOUND:                 0.000
REMARK SMILES c1cc[nH]c1
REMARK SMILES IDX 1 1 5 2 4 3 3 4 2 5
REMARK H PARENT 4 6
REMARK Flexibility Score: inf
ROOT
ATOM      1  C   UNL     1       5.071  20.433  21.735  1.00  0.00     0.019 A 
ATOM      2  C   UNL     1       4.335  19.426  21.144  1.00  0.00     0.082 A 
ATOM      3  N   UNL     1       4.826  18.227  21.505  1.00  0.00    -0.368 N 
ATOM      4  C   UNL     1       5.868  18.456  22.324  1.00  0.00     0.082 A 
ATOM      5  C   UNL     1       6.048  19.814  22.489  1.00  0.00     0.019 A 
ATOM      6  H   UNL     1       4.464  17.294  21.207  1.00  0.00     0.165 HD
ENDROOT
TORSDOF 0
ENDMDL
MODEL 6
REMARK VINA RESULT:    -2.356     17.797     18.289
REMARK INTER + INTRA:          -2.356
REMARK INTER:                  -2.356
REMARK INTRA:                   0.000
REMARK UNBOUND:                 0.000
REMARK SMILES c1cc[nH]c1
REMARK SMILES IDX 1 1 5 2 4 3 3 4 2 5
REMARK H PARENT 4 6
REMARK Flexibility Score: inf
ROOT
ATOM      1  C   UNL     1       7.165  17.803  22.689  1.00  0.00     0.019 A 
ATOM      2  C   UNL     1       8.092  18.778  22.384  1.00  0.00     0.082 A 
ATOM      3  N   UNL     1       7.464  19.917  22.043  1.00  0.00    -0.368 N 
ATOM      4  C   UNL     1       6.143  19.682  22.128  1.00  0.00     0.082 A 
ATOM      5  C   UNL     1       5.921  18.379  22.526  1.00  0.00     0.019 A 
ATOM      6  H   UNL     1       7.918  20.817  21.766  1.00  0.00     0.165 HD
ENDROOT
TORSDOF 0
ENDMDL
MODEL 7
REMARK VINA RESULT:    -2.270     19.396     19.599
REMARK INTER + INTRA:          -2.270
REMARK INTER:                  -2.270
REMARK INTRA:                   0.000
REMARK UNBOUND:                 0.000
REMARK SMILES c1cc[nH]c1
REMARK SMILES IDX 1 1 5 2 4 3 3 4 2 5
REMARK H PARENT 4 6
REMARK Flexibility Score: inf
ROOT
ATOM      1  C   UNL     1      12.941  14.039  37.558  1.00  0.00     0.019 A 
ATOM      2  C   UNL     1      12.050  13.287  36.819  1.00  0.00     0.082 A 
ATOM      3  N   UNL     1      10.795  13.516  37.244  1.00  0.00    -0.368 N 
ATOM      4  C   UNL     1      10.872  14.409  38.247  1.00  0.00     0.082 A 
ATOM      5  C   UNL     1      12.189  14.755  38.468  1.00  0.00     0.019 A 
ATOM      6  H   UNL     1       9.923  13.082  36.865  1.00  0.00     0.165 HD
ENDROOT
TORSDOF 0
ENDMDL
MODEL 8
REMARK VINA RESULT:    -2.231     18.283     18.481
REMARK INTER + INTRA:          -2.231
REMARK INTER:                  -2.231
REMARK INTRA:                   0.000
REMARK UNBOUND:                 0.000
REMARK SMILES c1cc[nH]c1
REMARK SMILES IDX 1 1 5 2 4 3 3 4 2 5
REMARK H PARENT 4 6
REMARK Flexibility Score: inf
ROOT
ATOM      1  C   UNL     1      13.537  13.798  37.164  1.00  0.00     0.019 A 
ATOM      2  C   UNL     1      12.170  13.972  37.232  1.00  0.00     0.082 A 
ATOM      3  N   UNL     1      11.859  15.257  36.989  1.00  0.00    -0.368 N 
ATOM      4  C   UNL     1      13.014  15.909  36.765  1.00  0.00     0.082 A 
ATOM      5  C   UNL     1      14.075  15.034  36.866  1.00  0.00     0.019 A 
ATOM      6  H   UNL     1      10.900  15.672  36.976  1.00  0.00     0.165 HD
ENDROOT
TORSDOF 0
ENDMDL
MODEL 9
REMARK VINA RESULT:    -2.182     18.315     18.833
REMARK INTER + INTRA:          -2.182
REMARK INTER:                  -2.182
REMARK INTRA:                   0.000
REMARK UNBOUND:                 0.000
REMARK SMILES c1cc[nH]c1
REMARK SMILES IDX 1 1 5 2 4 3 3 4 2 5
REMARK H PARENT 4 6
REMARK Flexibility Score: inf
ROOT
ATOM      1  C   UNL     1       4.399  19.232  21.724  1.00  0.00     0.019 A 
ATOM      2  C   UNL     1       5.021  20.450  21.540  1.00  0.00     0.082 A 
ATOM      3  N   UNL     1       6.312  20.366  21.909  1.00  0.00    -0.368 N 
ATOM      4  C   UNL     1       6.523  19.105  22.327  1.00  0.00     0.082 A 
ATOM      5  C   UNL     1       5.358  18.374  22.226  1.00  0.00     0.019 A 
ATOM      6  H   UNL     1       7.018  21.136  21.876  1.00  0.00     0.165 HD
ENDROOT
TORSDOF 0
ENDMDL
