MODEL 1
REMARK VINA RESULT:    -4.603      0.000      0.000
REMARK INTER + INTRA:          -9.157
REMARK INTER:                  -7.025
REMARK INTRA:                  -2.131
REMARK UNBOUND:                -2.131
REMARK SMILES OC[C@@H]1O[C@](CO)(O[C@@H]2O[C@@H](CO)[C@@H](O)[C@H](O)[C@H]2O)[C@H](O)[C@@H]1O
REMARK SMILES IDX 8 1 9 2 11 3 14 4 10 5 16 6 18 7 12 8 13 9 15 11 17 13 19 15
REMARK SMILES IDX 5 17 20 18 4 19 22 20 3 21 6 22 7 23 21 25 23 27 2 29 1 30
REMARK H PARENT 13 10 15 12 17 14 19 16 7 24 21 26 23 28 1 31
REMARK Flexibility Score: inf
ROOT
ATOM      1  O   UNL     1      12.176   3.995 -23.092  1.00  0.00    -0.313 OA
ENDROOT
BRANCH   1   2
ATOM      2  C   UNL     1      12.383   4.548 -21.798  1.00  0.00     0.285 C 
ATOM      3  C   UNL     1      13.237   2.556 -20.874  1.00  0.00     0.178 C 
ATOM      4  C   UNL     1      11.994   2.324 -19.975  1.00  0.00     0.177 C 
ATOM      5  O   UNL     1      13.464   3.938 -21.104  1.00  0.00    -0.341 OA
ATOM      6  C   UNL     1      10.756   3.007 -20.582  1.00  0.00     0.179 C 
ATOM      7  C   UNL     1      11.069   4.462 -20.992  1.00  0.00     0.202 C 
BRANCH   3   8
ATOM      8  C   UNL     1      14.490   1.941 -20.236  1.00  0.00     0.191 C 
BRANCH   8   9
ATOM      9  O   UNL     1      15.638   2.483 -20.825  1.00  0.00    -0.394 OA
ATOM     10  H   UNL     1      15.547   2.328 -21.801  1.00  0.00     0.210 HD
ENDBRANCH   8   9
ENDBRANCH   3   8
BRANCH   4  11
ATOM     11  O   UNL     1      12.199   2.749 -18.648  1.00  0.00    -0.387 OA
ATOM     12  H   UNL     1      11.318   2.958 -18.246  1.00  0.00     0.211 HD
ENDBRANCH   4  11
BRANCH   6  13
ATOM     13  O   UNL     1      10.331   2.274 -21.704  1.00  0.00    -0.387 OA
ATOM     14  H   UNL     1       9.353   2.131 -21.603  1.00  0.00     0.211 HD
ENDBRANCH   6  13
BRANCH   7  15
ATOM     15  O   UNL     1      11.165   5.282 -19.855  1.00  0.00    -0.385 OA
ATOM     16  H   UNL     1      10.991   4.705 -19.067  1.00  0.00     0.211 HD
ENDBRANCH   7  15
ENDBRANCH   1   2
BRANCH   1  17
ATOM     17  C   UNL     1      12.703   4.746 -24.190  1.00  0.00     0.224 C 
ATOM     18  C   UNL     1      13.361   3.723 -25.153  1.00  0.00     0.208 C 
ATOM     19  O   UNL     1      13.721   5.620 -23.727  1.00  0.00    -0.337 OA
ATOM     20  C   UNL     1      14.811   3.779 -24.755  1.00  0.00     0.180 C 
ATOM     21  C   UNL     1      14.930   5.240 -24.348  1.00  0.00     0.179 C 
BRANCH  17  22
ATOM     22  C   UNL     1      11.620   5.570 -24.948  1.00  0.00     0.225 C 
BRANCH  22  23
ATOM     23  O   UNL     1      11.220   4.938 -26.136  1.00  0.00    -0.391 OA
ATOM     24  H   UNL     1      11.263   5.621 -26.855  1.00  0.00     0.210 HD
ENDBRANCH  22  23
ENDBRANCH  17  22
BRANCH  18  25
ATOM     25  O   UNL     1      12.838   2.427 -25.013  1.00  0.00    -0.385 OA
ATOM     26  H   UNL     1      13.515   1.906 -24.508  1.00  0.00     0.211 HD
ENDBRANCH  18  25
BRANCH  20  27
ATOM     27  O   UNL     1      15.060   2.934 -23.658  1.00  0.00    -0.387 OA
ATOM     28  H   UNL     1      15.597   3.459 -23.009  1.00  0.00     0.211 HD
ENDBRANCH  20  27
BRANCH  21  29
ATOM     29  C   UNL     1      16.128   5.536 -23.433  1.00  0.00     0.191 C 
BRANCH  29  30
ATOM     30  O   UNL     1      15.881   5.074 -22.132  1.00  0.00    -0.394 OA
ATOM     31  H   UNL     1      16.572   5.480 -21.546  1.00  0.00     0.210 HD
ENDBRANCH  29  30
ENDBRANCH  21  29
ENDBRANCH   1  17
TORSDOF 13
ENDMDL
MODEL 2
REMARK VINA RESULT:    -4.560      1.809      2.776
REMARK INTER + INTRA:          -9.090
REMARK INTER:                  -7.196
REMARK INTRA:                  -1.895
REMARK UNBOUND:                -2.131
REMARK SMILES OC[C@@H]1O[C@](CO)(O[C@@H]2O[C@@H](CO)[C@@H](O)[C@H](O)[C@H]2O)[C@H](O)[C@@H]1O
REMARK SMILES IDX 8 1 9 2 11 3 14 4 10 5 16 6 18 7 12 8 13 9 15 11 17 13 19 15
REMARK SMILES IDX 5 17 20 18 4 19 22 20 3 21 6 22 7 23 21 25 23 27 2 29 1 30
REMARK H PARENT 13 10 15 12 17 14 19 16 7 24 21 26 23 28 1 31
REMARK Flexibility Score: inf
ROOT
ATOM      1  O   UNL     1      13.266   3.110 -22.127  1.00  0.00    -0.313 OA
ENDROOT
BRANCH   1   2
ATOM      2  C   UNL     1      12.495   4.303 -22.204  1.00  0.00     0.285 C 
ATOM      3  C   UNL     1      13.462   5.279 -20.290  1.00  0.00     0.178 C 
ATOM      4  C   UNL     1      12.167   5.147 -19.448  1.00  0.00     0.177 C 
ATOM      5  O   UNL     1      13.173   5.434 -21.671  1.00  0.00    -0.341 OA
ATOM      6  C   UNL     1      11.296   3.994 -19.975  1.00  0.00     0.179 C 
ATOM      7  C   UNL     1      11.136   4.075 -21.509  1.00  0.00     0.202 C 
BRANCH   3   8
ATOM      8  C   UNL     1      14.299   6.474 -19.816  1.00  0.00     0.191 C 
BRANCH   8   9
ATOM      9  O   UNL     1      15.479   6.555 -20.563  1.00  0.00    -0.394 OA
ATOM     10  H   UNL     1      15.829   7.474 -20.428  1.00  0.00     0.210 HD
ENDBRANCH   8   9
ENDBRANCH   3   8
BRANCH   4  11
ATOM     11  O   UNL     1      11.430   6.347 -19.397  1.00  0.00    -0.387 OA
ATOM     12  H   UNL     1      10.472   6.121 -19.275  1.00  0.00     0.211 HD
ENDBRANCH   4  11
BRANCH   6  13
ATOM     13  O   UNL     1      11.891   2.770 -19.620  1.00  0.00    -0.387 OA
ATOM     14  H   UNL     1      12.205   2.347 -20.462  1.00  0.00     0.211 HD
ENDBRANCH   6  13
BRANCH   7  15
ATOM     15  O   UNL     1      10.255   5.114 -21.856  1.00  0.00    -0.385 OA
ATOM     16  H   UNL     1       9.595   5.190 -21.118  1.00  0.00     0.211 HD
ENDBRANCH   7  15
ENDBRANCH   1   2
BRANCH   1  17
ATOM     17  C   UNL     1      13.950   2.723 -23.323  1.00  0.00     0.224 C 
ATOM     18  C   UNL     1      15.339   2.188 -22.889  1.00  0.00     0.208 C 
ATOM     19  O   UNL     1      14.162   3.863 -24.143  1.00  0.00    -0.337 OA
ATOM     20  C   UNL     1      16.229   3.386 -23.077  1.00  0.00     0.180 C 
ATOM     21  C   UNL     1      15.556   4.047 -24.271  1.00  0.00     0.179 C 
BRANCH  17  22
ATOM     22  C   UNL     1      13.191   1.634 -24.140  1.00  0.00     0.225 C 
BRANCH  22  23
ATOM     23  O   UNL     1      13.212   1.906 -25.517  1.00  0.00    -0.391 OA
ATOM     24  H   UNL     1      13.396   2.876 -25.616  1.00  0.00     0.210 HD
ENDBRANCH  22  23
ENDBRANCH  17  22
BRANCH  18  25
ATOM     25  O   UNL     1      15.358   1.735 -21.558  1.00  0.00    -0.385 OA
ATOM     26  H   UNL     1      14.409   1.635 -21.285  1.00  0.00     0.211 HD
ENDBRANCH  18  25
BRANCH  20  27
ATOM     27  O   UNL     1      16.180   4.226 -21.949  1.00  0.00    -0.387 OA
ATOM     28  H   UNL     1      15.430   3.903 -21.384  1.00  0.00     0.211 HD
ENDBRANCH  20  27
BRANCH  21  29
ATOM     29  C   UNL     1      15.896   5.535 -24.432  1.00  0.00     0.191 C 
BRANCH  29  30
ATOM     30  O   UNL     1      15.148   6.312 -23.536  1.00  0.00    -0.394 OA
ATOM     31  H   UNL     1      15.736   6.501 -22.758  1.00  0.00     0.210 HD
ENDBRANCH  29  30
ENDBRANCH  21  29
ENDBRANCH   1  17
TORSDOF 13
ENDMDL
MODEL 3
REMARK VINA RESULT:    -4.557      1.848      4.925
REMARK INTER + INTRA:          -9.086
REMARK INTER:                  -7.668
REMARK INTRA:                  -1.418
REMARK UNBOUND:                -2.131
REMARK SMILES OC[C@@H]1O[C@](CO)(O[C@@H]2O[C@@H](CO)[C@@H](O)[C@H](O)[C@H]2O)[C@H](O)[C@@H]1O
REMARK SMILES IDX 8 1 9 2 11 3 14 4 10 5 16 6 18 7 12 8 13 9 15 11 17 13 19 15
REMARK SMILES IDX 5 17 20 18 4 19 22 20 3 21 6 22 7 23 21 25 23 27 2 29 1 30
REMARK H PARENT 13 10 15 12 17 14 19 16 7 24 21 26 23 28 1 31
REMARK Flexibility Score: inf
ROOT
ATOM      1  O   UNL     1      13.627   3.713 -22.156  1.00  0.00    -0.313 OA
ENDROOT
BRANCH   1   2
ATOM      2  C   UNL     1      14.106   3.135 -23.366  1.00  0.00     0.285 C 
ATOM      3  C   UNL     1      15.863   1.956 -22.329  1.00  0.00     0.178 C 
ATOM      4  C   UNL     1      16.965   2.847 -22.960  1.00  0.00     0.177 C 
ATOM      5  O   UNL     1      14.720   1.868 -23.166  1.00  0.00    -0.341 OA
ATOM      6  C   UNL     1      16.404   4.239 -23.299  1.00  0.00     0.179 C 
ATOM      7  C   UNL     1      15.064   4.128 -24.058  1.00  0.00     0.202 C 
BRANCH   3   8
ATOM      8  C   UNL     1      16.397   0.543 -22.058  1.00  0.00     0.191 C 
BRANCH   8   9
ATOM      9  O   UNL     1      16.289  -0.236 -23.216  1.00  0.00    -0.394 OA
ATOM     10  H   UNL     1      16.601  -1.145 -22.968  1.00  0.00     0.210 HD
ENDBRANCH   8   9
ENDBRANCH   3   8
BRANCH   4  11
ATOM     11  O   UNL     1      17.554   2.256 -24.095  1.00  0.00    -0.387 OA
ATOM     12  H   UNL     1      18.476   1.979 -23.861  1.00  0.00     0.211 HD
ENDBRANCH   4  11
BRANCH   6  13
ATOM     13  O   UNL     1      16.221   4.962 -22.106  1.00  0.00    -0.387 OA
ATOM     14  H   UNL     1      16.326   5.923 -22.333  1.00  0.00     0.211 HD
ENDBRANCH   6  13
BRANCH   7  15
ATOM     15  O   UNL     1      15.284   3.717 -25.383  1.00  0.00    -0.385 OA
ATOM     16  H   UNL     1      15.457   4.537 -25.915  1.00  0.00     0.211 HD
ENDBRANCH   7  15
ENDBRANCH   1   2
BRANCH   1  17
ATOM     17  C   UNL     1      12.228   4.010 -22.112  1.00  0.00     0.224 C 
ATOM     18  C   UNL     1      12.100   5.476 -21.623  1.00  0.00     0.208 C 
ATOM     19  O   UNL     1      11.593   3.177 -21.152  1.00  0.00    -0.337 OA
ATOM     20  C   UNL     1      11.848   5.314 -20.149  1.00  0.00     0.180 C 
ATOM     21  C   UNL     1      11.063   4.011 -20.144  1.00  0.00     0.179 C 
BRANCH  17  22
ATOM     22  C   UNL     1      11.520   3.843 -23.489  1.00  0.00     0.225 C 
BRANCH  22  23
ATOM     23  O   UNL     1      10.295   4.528 -23.532  1.00  0.00    -0.391 OA
ATOM     24  H   UNL     1       9.579   3.842 -23.479  1.00  0.00     0.210 HD
ENDBRANCH  22  23
ENDBRANCH  17  22
BRANCH  18  25
ATOM     25  O   UNL     1      13.256   6.236 -21.869  1.00  0.00    -0.385 OA
ATOM     26  H   UNL     1      13.907   5.621 -22.297  1.00  0.00     0.211 HD
ENDBRANCH  18  25
BRANCH  20  27
ATOM     27  O   UNL     1      13.060   5.168 -19.449  1.00  0.00    -0.387 OA
ATOM     28  H   UNL     1      12.866   4.605 -18.655  1.00  0.00     0.211 HD
ENDBRANCH  20  27
BRANCH  21  29
ATOM     29  C   UNL     1      11.061   3.290 -18.788  1.00  0.00     0.191 C 
BRANCH  29  30
ATOM     30  O   UNL     1      12.204   2.489 -18.653  1.00  0.00    -0.394 OA
ATOM     31  H   UNL     1      12.963   3.003 -19.033  1.00  0.00     0.210 HD
ENDBRANCH  29  30
ENDBRANCH  21  29
ENDBRANCH   1  17
TORSDOF 13
ENDMDL
MODEL 4
REMARK VINA RESULT:    -4.468      1.946      4.669
REMARK INTER + INTRA:          -8.951
REMARK INTER:                  -7.063
REMARK INTRA:                  -1.887
REMARK UNBOUND:                -2.131
REMARK SMILES OC[C@@H]1O[C@](CO)(O[C@@H]2O[C@@H](CO)[C@@H](O)[C@H](O)[C@H]2O)[C@H](O)[C@@H]1O
REMARK SMILES IDX 8 1 9 2 11 3 14 4 10 5 16 6 18 7 12 8 13 9 15 11 17 13 19 15
REMARK SMILES IDX 5 17 20 18 4 19 22 20 3 21 6 22 7 23 21 25 23 27 2 29 1 30
REMARK H PARENT 13 10 15 12 17 14 19 16 7 24 21 26 23 28 1 31
REMARK Flexibility Score: inf
ROOT
ATOM      1  O   UNL     1      12.929   3.078 -21.784  1.00  0.00    -0.313 OA
ENDROOT
BRANCH   1   2
ATOM      2  C   UNL     1      14.059   3.130 -20.920  1.00  0.00     0.285 C 
ATOM      3  C   UNL     1      15.341   4.481 -22.364  1.00  0.00     0.178 C 
ATOM      4  C   UNL     1      16.340   3.344 -22.700  1.00  0.00     0.177 C 
ATOM      5  O   UNL     1      14.803   4.334 -21.058  1.00  0.00    -0.341 OA
ATOM      6  C   UNL     1      15.674   1.970 -22.515  1.00  0.00     0.179 C 
ATOM      7  C   UNL     1      14.940   1.886 -21.159  1.00  0.00     0.202 C 
BRANCH   3   8
ATOM      8  C   UNL     1      16.021   5.852 -22.474  1.00  0.00     0.191 C 
BRANCH   8   9
ATOM      9  O   UNL     1      15.669   6.648 -21.378  1.00  0.00    -0.394 OA
ATOM     10  H   UNL     1      16.315   7.401 -21.364  1.00  0.00     0.210 HD
ENDBRANCH   8   9
ENDBRANCH   3   8
BRANCH   4  11
ATOM     11  O   UNL     1      17.529   3.429 -21.950  1.00  0.00    -0.387 OA
ATOM     12  H   UNL     1      18.019   2.572 -22.041  1.00  0.00     0.211 HD
ENDBRANCH   4  11
BRANCH   6  13
ATOM     13  O   UNL     1      14.765   1.755 -23.566  1.00  0.00    -0.387 OA
ATOM     14  H   UNL     1      14.619   0.774 -23.626  1.00  0.00     0.211 HD
ENDBRANCH   6  13
BRANCH   7  15
ATOM     15  O   UNL     1      15.864   1.760 -20.108  1.00  0.00    -0.385 OA
ATOM     16  H   UNL     1      15.372   1.381 -19.335  1.00  0.00     0.211 HD
ENDBRANCH   7  15
ENDBRANCH   1   2
BRANCH   1  17
ATOM     17  C   UNL     1      11.664   3.374 -21.186  1.00  0.00     0.224 C 
ATOM     18  C   UNL     1      10.961   4.396 -22.116  1.00  0.00     0.208 C 
ATOM     19  O   UNL     1      11.865   4.001 -19.928  1.00  0.00    -0.337 OA
ATOM     20  C   UNL     1      11.284   5.713 -21.465  1.00  0.00     0.180 C 
ATOM     21  C   UNL     1      11.316   5.299 -20.002  1.00  0.00     0.179 C 
BRANCH  17  22
ATOM     22  C   UNL     1      10.763   2.116 -20.999  1.00  0.00     0.225 C 
BRANCH  22  23
ATOM     23  O   UNL     1      10.196   2.068 -19.716  1.00  0.00    -0.391 OA
ATOM     24  H   UNL     1       9.636   1.249 -19.679  1.00  0.00     0.210 HD
ENDBRANCH  22  23
ENDBRANCH  17  22
BRANCH  18  25
ATOM     25  O   UNL     1      11.432   4.345 -23.439  1.00  0.00    -0.385 OA
ATOM     26  H   UNL     1      12.401   4.555 -23.398  1.00  0.00     0.211 HD
ENDBRANCH  18  25
BRANCH  20  27
ATOM     27  O   UNL     1      12.546   6.178 -21.880  1.00  0.00    -0.387 OA
ATOM     28  H   UNL     1      13.101   5.375 -22.060  1.00  0.00     0.211 HD
ENDBRANCH  20  27
BRANCH  21  29
ATOM     29  C   UNL     1      12.090   6.269 -19.097  1.00  0.00     0.191 C 
BRANCH  29  30
ATOM     30  O   UNL     1      13.469   6.161 -19.323  1.00  0.00    -0.394 OA
ATOM     31  H   UNL     1      13.897   6.937 -18.876  1.00  0.00     0.210 HD
ENDBRANCH  29  30
ENDBRANCH  21  29
ENDBRANCH   1  17
TORSDOF 13
ENDMDL
MODEL 5
REMARK VINA RESULT:    -4.438      1.568      2.730
REMARK INTER + INTRA:          -8.904
REMARK INTER:                  -7.400
REMARK INTRA:                  -1.504
REMARK UNBOUND:                -2.131
REMARK SMILES OC[C@@H]1O[C@](CO)(O[C@@H]2O[C@@H](CO)[C@@H](O)[C@H](O)[C@H]2O)[C@H](O)[C@@H]1O
REMARK SMILES IDX 8 1 9 2 11 3 14 4 10 5 16 6 18 7 12 8 13 9 15 11 17 13 19 15
REMARK SMILES IDX 5 17 20 18 4 19 22 20 3 21 6 22 7 23 21 25 23 27 2 29 1 30
REMARK H PARENT 13 10 15 12 17 14 19 16 7 24 21 26 23 28 1 31
REMARK Flexibility Score: inf
ROOT
ATOM      1  O   UNL     1      12.992   4.234 -21.550  1.00  0.00    -0.313 OA
ENDROOT
BRANCH   1   2
ATOM      2  C   UNL     1      11.610   4.008 -21.299  1.00  0.00     0.285 C 
ATOM      3  C   UNL     1      11.748   4.514 -19.002  1.00  0.00     0.178 C 
ATOM      4  C   UNL     1      11.505   3.046 -18.563  1.00  0.00     0.177 C 
ATOM      5  O   UNL     1      11.105   4.804 -20.234  1.00  0.00    -0.341 OA
ATOM      6  C   UNL     1      11.944   2.073 -19.671  1.00  0.00     0.179 C 
ATOM      7  C   UNL     1      11.380   2.503 -21.043  1.00  0.00     0.202 C 
BRANCH   3   8
ATOM      8  C   UNL     1      11.242   5.491 -17.931  1.00  0.00     0.191 C 
BRANCH   8   9
ATOM      9  O   UNL     1      11.486   4.967 -16.657  1.00  0.00    -0.394 OA
ATOM     10  H   UNL     1      10.930   5.498 -16.029  1.00  0.00     0.210 HD
ENDBRANCH   8   9
ENDBRANCH   3   8
BRANCH   4  11
ATOM     11  O   UNL     1      10.168   2.807 -18.189  1.00  0.00    -0.387 OA
ATOM     12  H   UNL     1      10.156   2.076 -17.520  1.00  0.00     0.211 HD
ENDBRANCH   4  11
BRANCH   6  13
ATOM     13  O   UNL     1      13.349   2.038 -19.721  1.00  0.00    -0.387 OA
ATOM     14  H   UNL     1      13.663   2.979 -19.676  1.00  0.00     0.211 HD
ENDBRANCH   6  13
BRANCH   7  15
ATOM     15  O   UNL     1      10.005   2.223 -21.118  1.00  0.00    -0.385 OA
ATOM     16  H   UNL     1       9.559   2.781 -20.429  1.00  0.00     0.211 HD
ENDBRANCH   7  15
ENDBRANCH   1   2
BRANCH   1  17
ATOM     17  C   UNL     1      13.343   4.565 -22.897  1.00  0.00     0.224 C 
ATOM     18  C   UNL     1      14.434   3.553 -23.333  1.00  0.00     0.208 C 
ATOM     19  O   UNL     1      13.916   5.864 -22.936  1.00  0.00    -0.337 OA
ATOM     20  C   UNL     1      15.708   4.314 -23.090  1.00  0.00     0.180 C 
ATOM     21  C   UNL     1      15.247   5.732 -23.390  1.00  0.00     0.179 C 
BRANCH  17  22
ATOM     22  C   UNL     1      12.135   4.504 -23.879  1.00  0.00     0.225 C 
BRANCH  22  23
ATOM     23  O   UNL     1      12.231   3.412 -24.756  1.00  0.00    -0.391 OA
ATOM     24  H   UNL     1      12.650   2.670 -24.247  1.00  0.00     0.210 HD
ENDBRANCH  22  23
ENDBRANCH  17  22
BRANCH  18  25
ATOM     25  O   UNL     1      14.397   2.358 -22.595  1.00  0.00    -0.385 OA
ATOM     26  H   UNL     1      13.475   2.282 -22.235  1.00  0.00     0.211 HD
ENDBRANCH  18  25
BRANCH  20  27
ATOM     27  O   UNL     1      16.111   4.195 -21.747  1.00  0.00    -0.387 OA
ATOM     28  H   UNL     1      15.389   4.596 -21.195  1.00  0.00     0.211 HD
ENDBRANCH  20  27
BRANCH  21  29
ATOM     29  C   UNL     1      16.140   6.821 -22.779  1.00  0.00     0.191 C 
BRANCH  29  30
ATOM     30  O   UNL     1      17.483   6.416 -22.780  1.00  0.00    -0.394 OA
ATOM     31  H   UNL     1      17.929   6.897 -23.525  1.00  0.00     0.210 HD
ENDBRANCH  29  30
ENDBRANCH  21  29
ENDBRANCH   1  17
TORSDOF 13
ENDMDL
MODEL 6
REMARK VINA RESULT:    -4.419      1.612      3.667
REMARK INTER + INTRA:          -8.876
REMARK INTER:                  -7.582
REMARK INTRA:                  -1.294
REMARK UNBOUND:                -2.131
REMARK SMILES OC[C@@H]1O[C@](CO)(O[C@@H]2O[C@@H](CO)[C@@H](O)[C@H](O)[C@H]2O)[C@H](O)[C@@H]1O
REMARK SMILES IDX 8 1 9 2 11 3 14 4 10 5 16 6 18 7 12 8 13 9 15 11 17 13 19 15
REMARK SMILES IDX 5 17 20 18 4 19 22 20 3 21 6 22 7 23 21 25 23 27 2 29 1 30
REMARK H PARENT 13 10 15 12 17 14 19 16 7 24 21 26 23 28 1 31
REMARK Flexibility Score: inf
ROOT
ATOM      1  O   UNL     1      12.445   3.776 -22.532  1.00  0.00    -0.313 OA
ENDROOT
BRANCH   1   2
ATOM      2  C   UNL     1      11.212   3.551 -21.859  1.00  0.00     0.285 C 
ATOM      3  C   UNL     1      11.805   4.802 -19.952  1.00  0.00     0.178 C 
ATOM      4  C   UNL     1      11.900   3.551 -19.040  1.00  0.00     0.177 C 
ATOM      5  O   UNL     1      10.855   4.620 -20.991  1.00  0.00    -0.341 OA
ATOM      6  C   UNL     1      12.211   2.297 -19.876  1.00  0.00     0.179 C 
ATOM      7  C   UNL     1      11.281   2.206 -21.106  1.00  0.00     0.202 C 
BRANCH   3   8
ATOM      8  C   UNL     1      11.422   6.042 -19.133  1.00  0.00     0.191 C 
BRANCH   8   9
ATOM      9  O   UNL     1      11.935   5.933 -17.836  1.00  0.00    -0.394 OA
ATOM     10  H   UNL     1      11.983   6.858 -17.479  1.00  0.00     0.210 HD
ENDBRANCH   8   9
ENDBRANCH   3   8
BRANCH   4  11
ATOM     11  O   UNL     1      10.742   3.358 -18.262  1.00  0.00    -0.387 OA
ATOM     12  H   UNL     1       9.977   3.784 -18.728  1.00  0.00     0.211 HD
ENDBRANCH   4  11
BRANCH   6  13
ATOM     13  O   UNL     1      13.553   2.344 -20.293  1.00  0.00    -0.387 OA
ATOM     14  H   UNL     1      13.548   2.315 -21.285  1.00  0.00     0.211 HD
ENDBRANCH   6  13
BRANCH   7  15
ATOM     15  O   UNL     1       9.987   1.822 -20.715  1.00  0.00    -0.385 OA
ATOM     16  H   UNL     1       9.502   1.562 -21.541  1.00  0.00     0.211 HD
ENDBRANCH   7  15
ENDBRANCH   1   2
BRANCH   1  17
ATOM     17  C   UNL     1      12.423   3.625 -23.955  1.00  0.00     0.224 C 
ATOM     18  C   UNL     1      13.375   4.705 -24.531  1.00  0.00     0.208 C 
ATOM     19  O   UNL     1      11.117   3.893 -24.444  1.00  0.00    -0.337 OA
ATOM     20  C   UNL     1      12.431   5.818 -24.895  1.00  0.00     0.180 C 
ATOM     21  C   UNL     1      11.199   5.019 -25.292  1.00  0.00     0.179 C 
BRANCH  17  22
ATOM     22  C   UNL     1      12.873   2.211 -24.429  1.00  0.00     0.225 C 
BRANCH  22  23
ATOM     23  O   UNL     1      13.277   2.217 -25.774  1.00  0.00    -0.391 OA
ATOM     24  H   UNL     1      13.666   1.323 -25.961  1.00  0.00     0.210 HD
ENDBRANCH  22  23
ENDBRANCH  17  22
BRANCH  18  25
ATOM     25  O   UNL     1      14.342   5.131 -23.605  1.00  0.00    -0.385 OA
ATOM     26  H   UNL     1      13.843   5.452 -22.809  1.00  0.00     0.211 HD
ENDBRANCH  18  25
BRANCH  20  27
ATOM     27  O   UNL     1      12.160   6.628 -23.776  1.00  0.00    -0.387 OA
ATOM     28  H   UNL     1      11.597   6.089 -23.163  1.00  0.00     0.211 HD
ENDBRANCH  20  27
BRANCH  21  29
ATOM     29  C   UNL     1       9.893   5.826 -25.252  1.00  0.00     0.191 C 
BRANCH  29  30
ATOM     30  O   UNL     1      10.089   7.108 -25.784  1.00  0.00    -0.394 OA
ATOM     31  H   UNL     1      10.354   7.696 -25.029  1.00  0.00     0.210 HD
ENDBRANCH  29  30
ENDBRANCH  21  29
ENDBRANCH   1  17
TORSDOF 13
ENDMDL
MODEL 7
REMARK VINA RESULT:    -4.398      1.803      4.946
REMARK INTER + INTRA:          -8.844
REMARK INTER:                  -6.973
REMARK INTRA:                  -1.870
REMARK UNBOUND:                -2.131
REMARK SMILES OC[C@@H]1O[C@](CO)(O[C@@H]2O[C@@H](CO)[C@@H](O)[C@H](O)[C@H]2O)[C@H](O)[C@@H]1O
REMARK SMILES IDX 8 1 9 2 11 3 14 4 10 5 16 6 18 7 12 8 13 9 15 11 17 13 19 15
REMARK SMILES IDX 5 17 20 18 4 19 22 20 3 21 6 22 7 23 21 25 23 27 2 29 1 30
REMARK H PARENT 13 10 15 12 17 14 19 16 7 24 21 26 23 28 1 31
REMARK Flexibility Score: inf
ROOT
ATOM      1  O   UNL     1      12.384   3.807 -21.979  1.00  0.00    -0.313 OA
ENDROOT
BRANCH   1   2
ATOM      2  C   UNL     1      13.746   3.455 -22.195  1.00  0.00     0.285 C 
ATOM      3  C   UNL     1      14.122   5.131 -23.809  1.00  0.00     0.178 C 
ATOM      4  C   UNL     1      14.246   4.117 -24.976  1.00  0.00     0.177 C 
ATOM      5  O   UNL     1      14.548   4.565 -22.578  1.00  0.00    -0.341 OA
ATOM      6  C   UNL     1      13.476   2.825 -24.651  1.00  0.00     0.179 C 
ATOM      7  C   UNL     1      13.818   2.316 -23.234  1.00  0.00     0.202 C 
BRANCH   3   8
ATOM      8  C   UNL     1      14.949   6.391 -24.095  1.00  0.00     0.191 C 
BRANCH   8   9
ATOM      9  O   UNL     1      15.105   7.135 -22.920  1.00  0.00    -0.394 OA
ATOM     10  H   UNL     1      14.600   7.978 -23.058  1.00  0.00     0.210 HD
ENDBRANCH   8   9
ENDBRANCH   3   8
BRANCH   4  11
ATOM     11  O   UNL     1      15.585   3.830 -25.305  1.00  0.00    -0.387 OA
ATOM     12  H   UNL     1      16.091   3.688 -24.464  1.00  0.00     0.211 HD
ENDBRANCH   4  11
BRANCH   6  13
ATOM     13  O   UNL     1      12.096   3.076 -24.749  1.00  0.00    -0.387 OA
ATOM     14  H   UNL     1      11.728   2.417 -25.395  1.00  0.00     0.211 HD
ENDBRANCH   6  13
BRANCH   7  15
ATOM     15  O   UNL     1      15.103   1.747 -23.213  1.00  0.00    -0.385 OA
ATOM     16  H   UNL     1      14.989   0.773 -23.366  1.00  0.00     0.211 HD
ENDBRANCH   7  15
ENDBRANCH   1   2
BRANCH   1  17
ATOM     17  C   UNL     1      12.010   4.074 -20.624  1.00  0.00     0.224 C 
ATOM     18  C   UNL     1      10.997   5.248 -20.666  1.00  0.00     0.208 C 
ATOM     19  O   UNL     1      13.145   4.509 -19.891  1.00  0.00    -0.337 OA
ATOM     20  C   UNL     1      11.864   6.445 -20.388  1.00  0.00     0.180 C 
ATOM     21  C   UNL     1      12.897   5.829 -19.456  1.00  0.00     0.179 C 
BRANCH  17  22
ATOM     22  C   UNL     1      11.373   2.845 -19.909  1.00  0.00     0.225 C 
BRANCH  22  23
ATOM     23  O   UNL     1      12.081   2.491 -18.750  1.00  0.00    -0.391 OA
ATOM     24  H   UNL     1      11.543   2.805 -17.977  1.00  0.00     0.210 HD
ENDBRANCH  22  23
ENDBRANCH  17  22
BRANCH  18  25
ATOM     25  O   UNL     1      10.343   5.361 -21.904  1.00  0.00    -0.385 OA
ATOM     26  H   UNL     1      10.897   4.861 -22.559  1.00  0.00     0.211 HD
ENDBRANCH  18  25
BRANCH  20  27
ATOM     27  O   UNL     1      12.472   6.905 -21.571  1.00  0.00    -0.387 OA
ATOM     28  H   UNL     1      12.775   7.833 -21.395  1.00  0.00     0.211 HD
ENDBRANCH  20  27
BRANCH  21  29
ATOM     29  C   UNL     1      14.206   6.626 -19.362  1.00  0.00     0.191 C 
BRANCH  29  30
ATOM     30  O   UNL     1      15.160   6.114 -20.253  1.00  0.00    -0.394 OA
ATOM     31  H   UNL     1      16.034   6.135 -19.783  1.00  0.00     0.210 HD
ENDBRANCH  29  30
ENDBRANCH  21  29
ENDBRANCH   1  17
TORSDOF 13
ENDMDL
MODEL 8
REMARK VINA RESULT:    -4.390      2.268      3.351
REMARK INTER + INTRA:          -8.831
REMARK INTER:                  -7.438
REMARK INTRA:                  -1.393
REMARK UNBOUND:                -2.131
REMARK SMILES OC[C@@H]1O[C@](CO)(O[C@@H]2O[C@@H](CO)[C@@H](O)[C@H](O)[C@H]2O)[C@H](O)[C@@H]1O
REMARK SMILES IDX 8 1 9 2 11 3 14 4 10 5 16 6 18 7 12 8 13 9 15 11 17 13 19 15
REMARK SMILES IDX 5 17 20 18 4 19 22 20 3 21 6 22 7 23 21 25 23 27 2 29 1 30
REMARK H PARENT 13 10 15 12 17 14 19 16 7 24 21 26 23 28 1 31
REMARK Flexibility Score: inf
ROOT
ATOM      1  O   UNL     1      12.775   5.265 -21.244  1.00  0.00    -0.313 OA
ENDROOT
BRANCH   1   2
ATOM      2  C   UNL     1      11.425   4.857 -21.055  1.00  0.00     0.285 C 
ATOM      3  C   UNL     1      11.733   4.212 -18.810  1.00  0.00     0.178 C 
ATOM      4  C   UNL     1      11.570   2.701 -19.119  1.00  0.00     0.177 C 
ATOM      5  O   UNL     1      10.984   5.013 -19.712  1.00  0.00    -0.341 OA
ATOM      6  C   UNL     1      11.947   2.406 -20.581  1.00  0.00     0.179 C 
ATOM      7  C   UNL     1      11.261   3.402 -21.542  1.00  0.00     0.202 C 
BRANCH   3   8
ATOM      8  C   UNL     1      11.287   4.524 -17.375  1.00  0.00     0.191 C 
BRANCH   8   9
ATOM      9  O   UNL     1      11.644   3.469 -16.527  1.00  0.00    -0.394 OA
ATOM     10  H   UNL     1      10.997   3.490 -15.774  1.00  0.00     0.210 HD
ENDBRANCH   8   9
ENDBRANCH   3   8
BRANCH   4  11
ATOM     11  O   UNL     1      10.276   2.226 -18.831  1.00  0.00    -0.387 OA
ATOM     12  H   UNL     1       9.789   2.106 -19.686  1.00  0.00     0.211 HD
ENDBRANCH   4  11
BRANCH   6  13
ATOM     13  O   UNL     1      13.343   2.490 -20.721  1.00  0.00    -0.387 OA
ATOM     14  H   UNL     1      13.567   2.116 -21.613  1.00  0.00     0.211 HD
ENDBRANCH   6  13
BRANCH   7  15
ATOM     15  O   UNL     1       9.894   3.102 -21.665  1.00  0.00    -0.385 OA
ATOM     16  H   UNL     1       9.397   3.836 -21.218  1.00  0.00     0.211 HD
ENDBRANCH   7  15
ENDBRANCH   1   2
BRANCH   1  17
ATOM     17  C   UNL     1      12.969   6.590 -21.747  1.00  0.00     0.224 C 
ATOM     18  C   UNL     1      14.006   6.482 -22.895  1.00  0.00     0.208 C 
ATOM     19  O   UNL     1      13.530   7.410 -20.733  1.00  0.00    -0.337 OA
ATOM     20  C   UNL     1      15.298   6.834 -22.209  1.00  0.00     0.180 C 
ATOM     21  C   UNL     1      14.800   7.836 -21.178  1.00  0.00     0.179 C 
BRANCH  17  22
ATOM     22  C   UNL     1      11.657   7.245 -22.274  1.00  0.00     0.225 C 
BRANCH  22  23
ATOM     23  O   UNL     1      11.566   7.176 -23.674  1.00  0.00    -0.391 OA
ATOM     24  H   UNL     1      11.075   6.341 -23.889  1.00  0.00     0.210 HD
ENDBRANCH  22  23
ENDBRANCH  17  22
BRANCH  18  25
ATOM     25  O   UNL     1      14.058   5.199 -23.466  1.00  0.00    -0.385 OA
ATOM     26  H   UNL     1      13.686   4.577 -22.787  1.00  0.00     0.211 HD
ENDBRANCH  18  25
BRANCH  20  27
ATOM     27  O   UNL     1      15.851   5.704 -21.579  1.00  0.00    -0.387 OA
ATOM     28  H   UNL     1      15.208   5.425 -20.876  1.00  0.00     0.211 HD
ENDBRANCH  20  27
BRANCH  21  29
ATOM     29  C   UNL     1      15.754   8.034 -19.991  1.00  0.00     0.191 C 
BRANCH  29  30
ATOM     30  O   UNL     1      15.630   6.978 -19.076  1.00  0.00    -0.394 OA
ATOM     31  H   UNL     1      16.126   7.245 -18.259  1.00  0.00     0.210 HD
ENDBRANCH  29  30
ENDBRANCH  21  29
ENDBRANCH   1  17
TORSDOF 13
ENDMDL
MODEL 9
REMARK VINA RESULT:    -4.377      1.847      4.969
REMARK INTER + INTRA:          -8.812
REMARK INTER:                  -7.123
REMARK INTRA:                  -1.689
REMARK UNBOUND:                -2.131
REMARK SMILES OC[C@@H]1O[C@](CO)(O[C@@H]2O[C@@H](CO)[C@@H](O)[C@H](O)[C@H]2O)[C@H](O)[C@@H]1O
REMARK SMILES IDX 8 1 9 2 11 3 14 4 10 5 16 6 18 7 12 8 13 9 15 11 17 13 19 15
REMARK SMILES IDX 5 17 20 18 4 19 22 20 3 21 6 22 7 23 21 25 23 27 2 29 1 30
REMARK H PARENT 13 10 15 12 17 14 19 16 7 24 21 26 23 28 1 31
REMARK Flexibility Score: inf
ROOT
ATOM      1  O   UNL     1      13.790   4.775 -21.812  1.00  0.00    -0.313 OA
ENDROOT
BRANCH   1   2
ATOM      2  C   UNL     1      13.998   3.698 -22.719  1.00  0.00     0.285 C 
ATOM      3  C   UNL     1      15.586   2.609 -21.360  1.00  0.00     0.178 C 
ATOM      4  C   UNL     1      16.764   2.920 -22.318  1.00  0.00     0.177 C 
ATOM      5  O   UNL     1      14.359   2.488 -22.064  1.00  0.00    -0.341 OA
ATOM      6  C   UNL     1      16.464   4.179 -23.151  1.00  0.00     0.179 C 
ATOM      7  C   UNL     1      15.051   4.112 -23.768  1.00  0.00     0.202 C 
BRANCH   3   8
ATOM      8  C   UNL     1      15.847   1.313 -20.581  1.00  0.00     0.191 C 
BRANCH   8   9
ATOM      9  O   UNL     1      14.926   1.193 -19.534  1.00  0.00    -0.394 OA
ATOM     10  H   UNL     1      15.206   1.847 -18.843  1.00  0.00     0.210 HD
ENDBRANCH   8   9
ENDBRANCH   3   8
BRANCH   4  11
ATOM     11  O   UNL     1      17.084   1.833 -23.154  1.00  0.00    -0.387 OA
ATOM     12  H   UNL     1      17.845   1.341 -22.752  1.00  0.00     0.211 HD
ENDBRANCH   4  11
BRANCH   6  13
ATOM     13  O   UNL     1      16.573   5.312 -22.325  1.00  0.00    -0.387 OA
ATOM     14  H   UNL     1      15.746   5.846 -22.458  1.00  0.00     0.211 HD
ENDBRANCH   6  13
BRANCH   7  15
ATOM     15  O   UNL     1      15.026   3.201 -24.838  1.00  0.00    -0.385 OA
ATOM     16  H   UNL     1      15.174   3.727 -25.667  1.00  0.00     0.211 HD
ENDBRANCH   7  15
ENDBRANCH   1   2
BRANCH   1  17
ATOM     17  C   UNL     1      12.435   5.198 -21.636  1.00  0.00     0.224 C 
ATOM     18  C   UNL     1      12.188   5.270 -20.107  1.00  0.00     0.208 C 
ATOM     19  O   UNL     1      11.555   4.220 -22.171  1.00  0.00    -0.337 OA
ATOM     20  C   UNL     1      11.539   3.945 -19.813  1.00  0.00     0.180 C 
ATOM     21  C   UNL     1      10.774   3.717 -21.108  1.00  0.00     0.179 C 
BRANCH  17  22
ATOM     22  C   UNL     1      12.132   6.578 -22.291  1.00  0.00     0.225 C 
BRANCH  22  23
ATOM     23  O   UNL     1      12.280   7.633 -21.376  1.00  0.00    -0.391 OA
ATOM     24  H   UNL     1      12.800   7.278 -20.609  1.00  0.00     0.210 HD
ENDBRANCH  22  23
ENDBRANCH  17  22
BRANCH  18  25
ATOM     25  O   UNL     1      13.371   5.440 -19.369  1.00  0.00    -0.385 OA
ATOM     26  H   UNL     1      14.115   5.410 -20.026  1.00  0.00     0.211 HD
ENDBRANCH  18  25
BRANCH  20  27
ATOM     27  O   UNL     1      12.512   2.945 -19.626  1.00  0.00    -0.387 OA
ATOM     28  H   UNL     1      12.027   2.080 -19.584  1.00  0.00     0.211 HD
ENDBRANCH  20  27
BRANCH  21  29
ATOM     29  C   UNL     1      10.395   2.250 -21.357  1.00  0.00     0.191 C 
BRANCH  29  30
ATOM     30  O   UNL     1       9.931   1.653 -20.176  1.00  0.00    -0.394 OA
ATOM     31  H   UNL     1      10.130   0.683 -20.246  1.00  0.00     0.210 HD
ENDBRANCH  29  30
ENDBRANCH  21  29
ENDBRANCH   1  17
TORSDOF 13
ENDMDL
