MODEL 1
REMARK VINA RESULT:    -4.649      0.000      0.000
REMARK INTER + INTRA:          -8.008
REMARK INTER:                  -7.367
REMARK INTRA:                  -0.641
REMARK UNBOUND:                -0.641
REMARK SMILES CCCCCCCCCCCC(=O)[O-]
REMARK SMILES IDX 7 1 8 2 9 3 10 4 11 5 12 6 13 7 14 8 6 9 5 10 4 11 3 12 2 13
REMARK SMILES IDX 1 14
REMARK H PARENT
REMARK Flexibility Score: inf
ROOT
ATOM      1  C   UNL     1       3.733 -12.747   2.640  1.00  0.00     0.000 C 
ENDROOT
BRANCH   1   2
ATOM      2  C   UNL     1       5.069 -13.023   1.930  1.00  0.00     0.000 C 
BRANCH   2   3
ATOM      3  C   UNL     1       5.191 -12.278   0.591  1.00  0.00     0.000 C 
BRANCH   3   4
ATOM      4  C   UNL     1       6.619 -12.312   0.028  1.00  0.00     0.006 C 
BRANCH   4   5
ATOM      5  C   UNL     1       7.564 -13.058   0.977  1.00  0.00     0.053 C 
BRANCH   5   6
ATOM      6  C   UNL     1       8.277 -14.154   0.252  1.00  0.00     0.041 C 
ATOM      7  O   UNL     1       9.376 -14.589   0.685  1.00  0.00    -0.550 OA
ATOM      8  O   UNL     1       7.753 -14.662  -0.930  1.00  0.00    -0.550 OA
ENDBRANCH   5   6
ENDBRANCH   4   5
ENDBRANCH   3   4
ENDBRANCH   2   3
ENDBRANCH   1   2
BRANCH   1   9
ATOM      9  C   UNL     1       3.893 -12.691   4.175  1.00  0.00     0.000 C 
BRANCH   9  10
ATOM     10  C   UNL     1       4.790 -13.804   4.743  1.00  0.00    -0.000 C 
BRANCH  10  11
ATOM     11  C   UNL     1       5.199 -13.552   6.204  1.00  0.00    -0.000 C 
BRANCH  11  12
ATOM     12  C   UNL     1       4.541 -12.295   6.803  1.00  0.00    -0.000 C 
BRANCH  12  13
ATOM     13  C   UNL     1       5.521 -11.189   7.236  1.00  0.00    -0.003 C 
ATOM     14  C   UNL     1       6.890 -11.730   7.650  1.00  0.00     0.004 C 
ENDBRANCH  12  13
ENDBRANCH  11  12
ENDBRANCH  10  11
ENDBRANCH   9  10
ENDBRANCH   1   9
TORSDOF 10
ENDMDL
MODEL 2
REMARK VINA RESULT:    -4.631      3.476      6.471
REMARK INTER + INTRA:          -7.979
REMARK INTER:                  -7.258
REMARK INTRA:                  -0.721
REMARK UNBOUND:                -0.641
REMARK SMILES CCCCCCCCCCCC(=O)[O-]
REMARK SMILES IDX 7 1 8 2 9 3 10 4 11 5 12 6 13 7 14 8 6 9 5 10 4 11 3 12 2 13
REMARK SMILES IDX 1 14
REMARK H PARENT
REMARK Flexibility Score: inf
ROOT
ATOM      1  C   UNL     1       4.930 -13.792   3.789  1.00  0.00     0.000 C 
ENDROOT
BRANCH   1   2
ATOM      2  C   UNL     1       4.236 -13.683   5.158  1.00  0.00     0.000 C 
BRANCH   2   3
ATOM      3  C   UNL     1       5.237 -13.562   6.319  1.00  0.00     0.000 C 
BRANCH   3   4
ATOM      4  C   UNL     1       5.632 -12.105   6.603  1.00  0.00     0.006 C 
BRANCH   4   5
ATOM      5  C   UNL     1       4.404 -11.268   6.975  1.00  0.00     0.053 C 
BRANCH   5   6
ATOM      6  C   UNL     1       4.381  -9.995   6.190  1.00  0.00     0.041 C 
ATOM      7  O   UNL     1       4.828  -8.931   6.695  1.00  0.00    -0.550 OA
ATOM      8  O   UNL     1       3.822  -9.972   4.919  1.00  0.00    -0.550 OA
ENDBRANCH   5   6
ENDBRANCH   4   5
ENDBRANCH   3   4
ENDBRANCH   2   3
ENDBRANCH   1   2
BRANCH   1   9
ATOM      9  C   UNL     1       4.310 -12.835   2.748  1.00  0.00     0.000 C 
BRANCH   9  10
ATOM     10  C   UNL     1       4.661 -13.194   1.293  1.00  0.00    -0.000 C 
BRANCH  10  11
ATOM     11  C   UNL     1       5.273 -12.015   0.520  1.00  0.00    -0.000 C 
BRANCH  11  12
ATOM     12  C   UNL     1       6.688 -12.316  -0.010  1.00  0.00    -0.000 C 
BRANCH  12  13
ATOM     13  C   UNL     1       7.185 -13.751   0.238  1.00  0.00    -0.003 C 
ATOM     14  C   UNL     1       8.650 -13.813   0.669  1.00  0.00     0.004 C 
ENDBRANCH  12  13
ENDBRANCH  11  12
ENDBRANCH  10  11
ENDBRANCH   9  10
ENDBRANCH   1   9
TORSDOF 10
ENDMDL
MODEL 3
REMARK VINA RESULT:    -4.550      3.427      6.474
REMARK INTER + INTRA:          -7.851
REMARK INTER:                  -7.260
REMARK INTRA:                  -0.591
REMARK UNBOUND:                -0.641
REMARK SMILES CCCCCCCCCCCC(=O)[O-]
REMARK SMILES IDX 7 1 8 2 9 3 10 4 11 5 12 6 13 7 14 8 6 9 5 10 4 11 3 12 2 13
REMARK SMILES IDX 1 14
REMARK H PARENT
REMARK Flexibility Score: inf
ROOT
ATOM      1  C   UNL     1       4.151 -12.814   2.738  1.00  0.00     0.000 C 
ENDROOT
BRANCH   1   2
ATOM      2  C   UNL     1       3.669 -13.983   3.615  1.00  0.00     0.000 C 
BRANCH   2   3
ATOM      3  C   UNL     1       4.473 -14.113   4.919  1.00  0.00     0.000 C 
BRANCH   3   4
ATOM      4  C   UNL     1       4.480 -12.814   5.736  1.00  0.00     0.006 C 
BRANCH   4   5
ATOM      5  C   UNL     1       5.594 -12.835   6.788  1.00  0.00     0.053 C 
BRANCH   5   6
ATOM      6  C   UNL     1       5.897 -11.448   7.258  1.00  0.00     0.041 C 
ATOM      7  O   UNL     1       5.154 -10.488   6.922  1.00  0.00    -0.550 OA
ATOM      8  O   UNL     1       7.028 -11.206   8.027  1.00  0.00    -0.550 OA
ENDBRANCH   5   6
ENDBRANCH   4   5
ENDBRANCH   3   4
ENDBRANCH   2   3
ENDBRANCH   1   2
BRANCH   1   9
ATOM      9  C   UNL     1       5.439 -13.163   1.963  1.00  0.00     0.000 C 
BRANCH   9  10
ATOM     10  C   UNL     1       5.509 -12.529   0.563  1.00  0.00    -0.000 C 
BRANCH  10  11
ATOM     11  C   UNL     1       6.868 -12.744  -0.122  1.00  0.00    -0.000 C 
BRANCH  11  12
ATOM     12  C   UNL     1       8.021 -12.939   0.880  1.00  0.00    -0.000 C 
BRANCH  12  13
ATOM     13  C   UNL     1       8.980 -14.099   0.554  1.00  0.00    -0.003 C 
ATOM     14  C   UNL     1       8.254 -15.380   0.144  1.00  0.00     0.004 C 
ENDBRANCH  12  13
ENDBRANCH  11  12
ENDBRANCH  10  11
ENDBRANCH   9  10
ENDBRANCH   1   9
TORSDOF 10
ENDMDL
MODEL 4
REMARK VINA RESULT:    -4.420      4.677      6.827
REMARK INTER + INTRA:          -7.645
REMARK INTER:                  -7.094
REMARK INTRA:                  -0.551
REMARK UNBOUND:                -0.641
REMARK SMILES CCCCCCCCCCCC(=O)[O-]
REMARK SMILES IDX 7 1 8 2 9 3 10 4 11 5 12 6 13 7 14 8 6 9 5 10 4 11 3 12 2 13
REMARK SMILES IDX 1 14
REMARK H PARENT
REMARK Flexibility Score: inf
ROOT
ATOM      1  C   UNL     1       4.849 -13.787   5.015  1.00  0.00     0.000 C 
ENDROOT
BRANCH   1   2
ATOM      2  C   UNL     1       4.842 -13.351   6.491  1.00  0.00     0.000 C 
BRANCH   2   3
ATOM      3  C   UNL     1       6.077 -12.516   6.866  1.00  0.00     0.000 C 
BRANCH   3   4
ATOM      4  C   UNL     1       5.707 -11.105   7.346  1.00  0.00     0.006 C 
BRANCH   4   5
ATOM      5  C   UNL     1       4.235 -10.795   7.052  1.00  0.00     0.053 C 
BRANCH   5   6
ATOM      6  C   UNL     1       4.085  -9.396   6.547  1.00  0.00     0.041 C 
ATOM      7  O   UNL     1       5.032  -8.575   6.664  1.00  0.00    -0.550 OA
ATOM      8  O   UNL     1       2.881  -8.983   5.990  1.00  0.00    -0.550 OA
ENDBRANCH   5   6
ENDBRANCH   4   5
ENDBRANCH   3   4
ENDBRANCH   2   3
ENDBRANCH   1   2
BRANCH   1   9
ATOM      9  C   UNL     1       3.775 -13.047   4.188  1.00  0.00     0.000 C 
BRANCH   9  10
ATOM     10  C   UNL     1       2.786 -13.987   3.478  1.00  0.00    -0.000 C 
BRANCH  10  11
ATOM     11  C   UNL     1       2.660 -15.354   4.172  1.00  0.00    -0.000 C 
BRANCH  11  12
ATOM     12  C   UNL     1       1.211 -15.691   4.572  1.00  0.00    -0.000 C 
BRANCH  12  13
ATOM     13  C   UNL     1       0.752 -17.116   4.213  1.00  0.00    -0.003 C 
ATOM     14  C   UNL     1       0.421 -17.966   5.440  1.00  0.00     0.004 C 
ENDBRANCH  12  13
ENDBRANCH  11  12
ENDBRANCH  10  11
ENDBRANCH   9  10
ENDBRANCH   1   9
TORSDOF 10
ENDMDL
MODEL 5
REMARK VINA RESULT:    -4.322      2.942      4.677
REMARK INTER + INTRA:          -7.490
REMARK INTER:                  -6.568
REMARK INTRA:                  -0.921
REMARK UNBOUND:                -0.641
REMARK SMILES CCCCCCCCCCCC(=O)[O-]
REMARK SMILES IDX 7 1 8 2 9 3 10 4 11 5 12 6 13 7 14 8 6 9 5 10 4 11 3 12 2 13
REMARK SMILES IDX 1 14
REMARK H PARENT
REMARK Flexibility Score: inf
ROOT
ATOM      1  C   UNL     1       5.860 -12.284   6.394  1.00  0.00     0.000 C 
ENDROOT
BRANCH   1   2
ATOM      2  C   UNL     1       4.913 -13.492   6.503  1.00  0.00     0.000 C 
BRANCH   2   3
ATOM      3  C   UNL     1       4.345 -13.921   5.140  1.00  0.00     0.000 C 
BRANCH   3   4
ATOM      4  C   UNL     1       4.906 -13.085   3.981  1.00  0.00     0.006 C 
BRANCH   4   5
ATOM      5  C   UNL     1       3.775 -12.436   3.176  1.00  0.00     0.053 C 
BRANCH   5   6
ATOM      6  C   UNL     1       4.181 -12.262   1.748  1.00  0.00     0.041 C 
ATOM      7  O   UNL     1       4.056 -11.142   1.186  1.00  0.00    -0.550 OA
ATOM      8  O   UNL     1       4.653 -13.348   1.021  1.00  0.00    -0.550 OA
ENDBRANCH   5   6
ENDBRANCH   4   5
ENDBRANCH   3   4
ENDBRANCH   2   3
ENDBRANCH   1   2
BRANCH   1   9
ATOM      9  C   UNL     1       5.387 -11.098   7.261  1.00  0.00     0.000 C 
BRANCH   9  10
ATOM     10  C   UNL     1       3.984 -10.585   6.893  1.00  0.00    -0.000 C 
BRANCH  10  11
ATOM     11  C   UNL     1       3.988  -9.672   5.656  1.00  0.00    -0.000 C 
BRANCH  11  12
ATOM     12  C   UNL     1       4.475  -8.244   5.966  1.00  0.00    -0.000 C 
BRANCH  12  13
ATOM     13  C   UNL     1       3.359  -7.220   6.242  1.00  0.00    -0.003 C 
ATOM     14  C   UNL     1       3.676  -6.287   7.410  1.00  0.00     0.004 C 
ENDBRANCH  12  13
ENDBRANCH  11  12
ENDBRANCH  10  11
ENDBRANCH   9  10
ENDBRANCH   1   9
TORSDOF 10
ENDMDL
MODEL 6
REMARK VINA RESULT:    -4.312      3.337      5.909
REMARK INTER + INTRA:          -7.473
REMARK INTER:                  -6.240
REMARK INTRA:                  -1.233
REMARK UNBOUND:                -0.641
REMARK SMILES CCCCCCCCCCCC(=O)[O-]
REMARK SMILES IDX 7 1 8 2 9 3 10 4 11 5 12 6 13 7 14 8 6 9 5 10 4 11 3 12 2 13
REMARK SMILES IDX 1 14
REMARK H PARENT
REMARK Flexibility Score: inf
ROOT
ATOM      1  C   UNL     1       3.423 -11.446   3.480  1.00  0.00     0.000 C 
ENDROOT
BRANCH   1   2
ATOM      2  C   UNL     1       2.717 -12.611   4.197  1.00  0.00     0.000 C 
BRANCH   2   3
ATOM      3  C   UNL     1       3.620 -13.846   4.347  1.00  0.00     0.000 C 
BRANCH   3   4
ATOM      4  C   UNL     1       5.014 -13.491   4.884  1.00  0.00     0.006 C 
BRANCH   4   5
ATOM      5  C   UNL     1       5.008 -13.415   6.414  1.00  0.00     0.053 C 
BRANCH   5   6
ATOM      6  C   UNL     1       5.585 -12.115   6.876  1.00  0.00     0.041 C 
ATOM      7  O   UNL     1       6.644 -12.098   7.558  1.00  0.00    -0.550 OA
ATOM      8  O   UNL     1       4.928 -10.924   6.595  1.00  0.00    -0.550 OA
ENDBRANCH   5   6
ENDBRANCH   4   5
ENDBRANCH   3   4
ENDBRANCH   2   3
ENDBRANCH   1   2
BRANCH   1   9
ATOM      9  C   UNL     1       2.878 -11.230   2.052  1.00  0.00     0.000 C 
BRANCH   9  10
ATOM     10  C   UNL     1       3.957 -11.319   0.959  1.00  0.00    -0.000 C 
BRANCH  10  11
ATOM     11  C   UNL     1       3.911 -12.645   0.182  1.00  0.00    -0.000 C 
BRANCH  11  12
ATOM     12  C   UNL     1       4.898 -13.694   0.727  1.00  0.00    -0.000 C 
BRANCH  12  13
ATOM     13  C   UNL     1       6.149 -13.117   1.414  1.00  0.00    -0.003 C 
ATOM     14  C   UNL     1       7.256 -12.744   0.429  1.00  0.00     0.004 C 
ENDBRANCH  12  13
ENDBRANCH  11  12
ENDBRANCH  10  11
ENDBRANCH   9  10
ENDBRANCH   1   9
TORSDOF 10
ENDMDL
MODEL 7
REMARK VINA RESULT:    -4.303      5.659      7.699
REMARK INTER + INTRA:          -7.460
REMARK INTER:                  -6.446
REMARK INTRA:                  -1.014
REMARK UNBOUND:                -0.641
REMARK SMILES CCCCCCCCCCCC(=O)[O-]
REMARK SMILES IDX 7 1 8 2 9 3 10 4 11 5 12 6 13 7 14 8 6 9 5 10 4 11 3 12 2 13
REMARK SMILES IDX 1 14
REMARK H PARENT
REMARK Flexibility Score: inf
ROOT
ATOM      1  C   UNL     1       3.968 -10.695   6.899  1.00  0.00     0.000 C 
ENDROOT
BRANCH   1   2
ATOM      2  C   UNL     1       3.766  -9.728   5.720  1.00  0.00     0.000 C 
BRANCH   2   3
ATOM      3  C   UNL     1       4.566  -8.425   5.881  1.00  0.00     0.000 C 
BRANCH   3   4
ATOM      4  C   UNL     1       3.674  -7.231   6.250  1.00  0.00     0.006 C 
BRANCH   4   5
ATOM      5  C   UNL     1       2.203  -7.652   6.336  1.00  0.00     0.053 C 
BRANCH   5   6
ATOM      6  C   UNL     1       1.685  -7.467   7.727  1.00  0.00     0.041 C 
ATOM      7  O   UNL     1       0.972  -8.357   8.261  1.00  0.00    -0.550 OA
ATOM      8  O   UNL     1       1.951  -6.291   8.417  1.00  0.00    -0.550 OA
ENDBRANCH   5   6
ENDBRANCH   4   5
ENDBRANCH   3   4
ENDBRANCH   2   3
ENDBRANCH   1   2
BRANCH   1   9
ATOM      9  C   UNL     1       5.462 -10.953   7.188  1.00  0.00     0.000 C 
BRANCH   9  10
ATOM     10  C   UNL     1       5.973 -12.299   6.646  1.00  0.00    -0.000 C 
BRANCH  10  11
ATOM     11  C   UNL     1       4.851 -13.334   6.467  1.00  0.00    -0.000 C 
BRANCH  11  12
ATOM     12  C   UNL     1       4.808 -13.933   5.048  1.00  0.00    -0.000 C 
BRANCH  12  13
ATOM     13  C   UNL     1       4.305 -12.976   3.952  1.00  0.00    -0.003 C 
ATOM     14  C   UNL     1       2.782 -12.850   3.918  1.00  0.00     0.004 C 
ENDBRANCH  12  13
ENDBRANCH  11  12
ENDBRANCH  10  11
ENDBRANCH   9  10
ENDBRANCH   1   9
TORSDOF 10
ENDMDL
MODEL 8
REMARK VINA RESULT:    -4.281      5.145      7.139
REMARK INTER + INTRA:          -7.424
REMARK INTER:                  -6.155
REMARK INTRA:                  -1.270
REMARK UNBOUND:                -0.641
REMARK SMILES CCCCCCCCCCCC(=O)[O-]
REMARK SMILES IDX 7 1 8 2 9 3 10 4 11 5 12 6 13 7 14 8 6 9 5 10 4 11 3 12 2 13
REMARK SMILES IDX 1 14
REMARK H PARENT
REMARK Flexibility Score: inf
ROOT
ATOM      1  C   UNL     1       5.890 -12.278   6.476  1.00  0.00     0.000 C 
ENDROOT
BRANCH   1   2
ATOM      2  C   UNL     1       5.333 -11.032   7.186  1.00  0.00     0.000 C 
BRANCH   2   3
ATOM      3  C   UNL     1       3.848 -10.787   6.871  1.00  0.00     0.000 C 
BRANCH   3   4
ATOM      4  C   UNL     1       3.636  -9.579   5.947  1.00  0.00     0.006 C 
BRANCH   4   5
ATOM      5  C   UNL     1       4.346  -8.338   6.497  1.00  0.00     0.053 C 
BRANCH   5   6
ATOM      6  C   UNL     1       3.348  -7.319   6.946  1.00  0.00     0.041 C 
ATOM      7  O   UNL     1       3.711  -6.135   7.176  1.00  0.00    -0.550 OA
ATOM      8  O   UNL     1       2.026  -7.687   7.157  1.00  0.00    -0.550 OA
ENDBRANCH   5   6
ENDBRANCH   4   5
ENDBRANCH   3   4
ENDBRANCH   2   3
ENDBRANCH   1   2
BRANCH   1   9
ATOM      9  C   UNL     1       4.898 -13.461   6.518  1.00  0.00     0.000 C 
BRANCH   9  10
ATOM     10  C   UNL     1       4.473 -13.961   5.127  1.00  0.00    -0.000 C 
BRANCH  10  11
ATOM     11  C   UNL     1       4.899 -13.010   3.996  1.00  0.00    -0.000 C 
BRANCH  11  12
ATOM     12  C   UNL     1       3.708 -12.487   3.172  1.00  0.00    -0.000 C 
BRANCH  12  13
ATOM     13  C   UNL     1       2.320 -12.849   3.731  1.00  0.00    -0.003 C 
ATOM     14  C   UNL     1       1.408 -11.635   3.906  1.00  0.00     0.004 C 
ENDBRANCH  12  13
ENDBRANCH  11  12
ENDBRANCH  10  11
ENDBRANCH   9  10
ENDBRANCH   1   9
TORSDOF 10
ENDMDL
MODEL 9
REMARK VINA RESULT:    -4.271      3.538      4.695
REMARK INTER + INTRA:          -7.409
REMARK INTER:                  -6.105
REMARK INTRA:                  -1.304
REMARK UNBOUND:                -0.641
REMARK SMILES CCCCCCCCCCCC(=O)[O-]
REMARK SMILES IDX 7 1 8 2 9 3 10 4 11 5 12 6 13 7 14 8 6 9 5 10 4 11 3 12 2 13
REMARK SMILES IDX 1 14
REMARK H PARENT
REMARK Flexibility Score: inf
ROOT
ATOM      1  C   UNL     1       4.888 -13.900   4.857  1.00  0.00     0.000 C 
ENDROOT
BRANCH   1   2
ATOM      2  C   UNL     1       4.100 -13.164   3.759  1.00  0.00     0.000 C 
BRANCH   2   3
ATOM      3  C   UNL     1       2.672 -12.801   4.199  1.00  0.00     0.000 C 
BRANCH   3   4
ATOM      4  C   UNL     1       2.337 -11.325   3.943  1.00  0.00     0.006 C 
BRANCH   4   5
ATOM      5  C   UNL     1       3.430 -10.652   3.106  1.00  0.00     0.053 C 
BRANCH   5   6
ATOM      6  C   UNL     1       2.931 -10.368   1.725  1.00  0.00     0.041 C 
ATOM      7  O   UNL     1       3.284 -11.098   0.761  1.00  0.00    -0.550 OA
ATOM      8  O   UNL     1       2.115  -9.269   1.492  1.00  0.00    -0.550 OA
ENDBRANCH   5   6
ENDBRANCH   4   5
ENDBRANCH   3   4
ENDBRANCH   2   3
ENDBRANCH   1   2
BRANCH   1   9
ATOM      9  C   UNL     1       4.675 -13.264   6.248  1.00  0.00     0.000 C 
BRANCH   9  10
ATOM     10  C   UNL     1       5.959 -12.678   6.861  1.00  0.00    -0.000 C 
BRANCH  10  11
ATOM     11  C   UNL     1       5.794 -11.214   7.303  1.00  0.00    -0.000 C 
BRANCH  11  12
ATOM     12  C   UNL     1       4.392 -10.651   7.002  1.00  0.00    -0.000 C 
BRANCH  12  13
ATOM     13  C   UNL     1       4.376  -9.241   6.384  1.00  0.00    -0.003 C 
ATOM     14  C   UNL     1       3.110  -8.453   6.720  1.00  0.00     0.004 C 
ENDBRANCH  12  13
ENDBRANCH  11  12
ENDBRANCH  10  11
ENDBRANCH   9  10
ENDBRANCH   1   9
TORSDOF 10
ENDMDL
