MODEL 1
REMARK VINA RESULT:    -4.863      0.000      0.000
REMARK INTER + INTRA:          -8.250
REMARK INTER:                  -7.706
REMARK INTRA:                  -0.544
REMARK UNBOUND:                -0.544
REMARK SMILES CCCCCCCCCCCC(=O)[O-]
REMARK SMILES IDX 7 1 8 2 9 3 10 4 11 5 12 6 13 7 14 8 6 9 5 10 4 11 3 12 2 13
REMARK SMILES IDX 1 14
REMARK H PARENT
REMARK Flexibility Score: inf
ROOT
ATOM      1  C   UNL     1      27.762   1.961  29.574  1.00  0.00     0.000 C 
ENDROOT
BRANCH   1   2
ATOM      2  C   UNL     1      28.326   1.686  30.974  1.00  0.00     0.000 C 
BRANCH   2   3
ATOM      3  C   UNL     1      29.512   0.713  30.907  1.00  0.00     0.000 C 
BRANCH   3   4
ATOM      4  C   UNL     1      29.315  -0.530  31.794  1.00  0.00     0.006 C 
BRANCH   4   5
ATOM      5  C   UNL     1      27.939  -1.199  31.648  1.00  0.00     0.053 C 
BRANCH   5   6
ATOM      6  C   UNL     1      27.846  -2.025  30.401  1.00  0.00     0.041 C 
ATOM      7  O   UNL     1      28.383  -3.163  30.353  1.00  0.00    -0.550 OA
ATOM      8  O   UNL     1      27.194  -1.523  29.282  1.00  0.00    -0.550 OA
ENDBRANCH   5   6
ENDBRANCH   4   5
ENDBRANCH   3   4
ENDBRANCH   2   3
ENDBRANCH   1   2
BRANCH   1   9
ATOM      9  C   UNL     1      27.723   3.466  29.283  1.00  0.00     0.000 C 
BRANCH   9  10
ATOM     10  C   UNL     1      27.856   4.280  30.578  1.00  0.00    -0.000 C 
BRANCH  10  11
ATOM     11  C   UNL     1      27.252   5.692  30.465  1.00  0.00    -0.000 C 
BRANCH  11  12
ATOM     12  C   UNL     1      28.259   6.804  30.119  1.00  0.00    -0.000 C 
BRANCH  12  13
ATOM     13  C   UNL     1      27.712   8.213  30.387  1.00  0.00    -0.003 C 
ATOM     14  C   UNL     1      28.799   9.268  30.207  1.00  0.00     0.004 C 
ENDBRANCH  12  13
ENDBRANCH  11  12
ENDBRANCH  10  11
ENDBRANCH   9  10
ENDBRANCH   1   9
TORSDOF 10
ENDMDL
MODEL 2
REMARK VINA RESULT:    -4.858      4.531      9.561
REMARK INTER + INTRA:          -8.241
REMARK INTER:                  -7.395
REMARK INTRA:                  -0.847
REMARK UNBOUND:                -0.544
REMARK SMILES CCCCCCCCCCCC(=O)[O-]
REMARK SMILES IDX 7 1 8 2 9 3 10 4 11 5 12 6 13 7 14 8 6 9 5 10 4 11 3 12 2 13
REMARK SMILES IDX 1 14
REMARK H PARENT
REMARK Flexibility Score: inf
ROOT
ATOM      1  C   UNL     1      29.432  -3.395  29.887  1.00  0.00     0.000 C 
ENDROOT
BRANCH   1   2
ATOM      2  C   UNL     1      28.042  -3.118  30.472  1.00  0.00     0.000 C 
BRANCH   2   3
ATOM      3  C   UNL     1      27.531  -1.735  30.042  1.00  0.00     0.000 C 
BRANCH   3   4
ATOM      4  C   UNL     1      28.388  -1.099  28.933  1.00  0.00     0.006 C 
BRANCH   4   5
ATOM      5  C   UNL     1      28.767   0.368  29.190  1.00  0.00     0.053 C 
BRANCH   5   6
ATOM      6  C   UNL     1      29.643   0.518  30.396  1.00  0.00     0.041 C 
ATOM      7  O   UNL     1      29.316   1.306  31.322  1.00  0.00    -0.550 OA
ATOM      8  O   UNL     1      30.836  -0.188  30.481  1.00  0.00    -0.550 OA
ENDBRANCH   5   6
ENDBRANCH   4   5
ENDBRANCH   3   4
ENDBRANCH   2   3
ENDBRANCH   1   2
BRANCH   1   9
ATOM      9  C   UNL     1      29.589  -4.876  29.520  1.00  0.00     0.000 C 
BRANCH   9  10
ATOM     10  C   UNL     1      29.979  -5.708  30.751  1.00  0.00    -0.000 C 
BRANCH  10  11
ATOM     11  C   UNL     1      28.929  -6.776  31.111  1.00  0.00    -0.000 C 
BRANCH  11  12
ATOM     12  C   UNL     1      28.089  -7.287  29.926  1.00  0.00    -0.000 C 
BRANCH  12  13
ATOM     13  C   UNL     1      28.492  -8.696  29.470  1.00  0.00    -0.003 C 
ATOM     14  C   UNL     1      29.248  -8.650  28.145  1.00  0.00     0.004 C 
ENDBRANCH  12  13
ENDBRANCH  11  12
ENDBRANCH  10  11
ENDBRANCH   9  10
ENDBRANCH   1   9
TORSDOF 10
ENDMDL
MODEL 3
REMARK VINA RESULT:    -4.841      5.090      7.157
REMARK INTER + INTRA:          -8.214
REMARK INTER:                  -7.470
REMARK INTRA:                  -0.744
REMARK UNBOUND:                -0.544
REMARK SMILES CCCCCCCCCCCC(=O)[O-]
REMARK SMILES IDX 7 1 8 2 9 3 10 4 11 5 12 6 13 7 14 8 6 9 5 10 4 11 3 12 2 13
REMARK SMILES IDX 1 14
REMARK H PARENT
REMARK Flexibility Score: inf
ROOT
ATOM      1  C   UNL     1      29.426  -3.511  30.010  1.00  0.00     0.000 C 
ENDROOT
BRANCH   1   2
ATOM      2  C   UNL     1      29.541  -4.976  29.570  1.00  0.00     0.000 C 
BRANCH   2   3
ATOM      3  C   UNL     1      29.849  -5.886  30.768  1.00  0.00     0.000 C 
BRANCH   3   4
ATOM      4  C   UNL     1      28.845  -7.043  30.913  1.00  0.00     0.006 C 
BRANCH   4   5
ATOM      5  C   UNL     1      29.407  -8.421  30.527  1.00  0.00     0.053 C 
BRANCH   5   6
ATOM      6  C   UNL     1      28.895  -8.883  29.197  1.00  0.00     0.041 C 
ATOM      7  O   UNL     1      29.216  -8.267  28.146  1.00  0.00    -0.550 OA
ATOM      8  O   UNL     1      28.038  -9.973  29.122  1.00  0.00    -0.550 OA
ENDBRANCH   5   6
ENDBRANCH   4   5
ENDBRANCH   3   4
ENDBRANCH   2   3
ENDBRANCH   1   2
BRANCH   1   9
ATOM      9  C   UNL     1      27.988  -3.172  30.421  1.00  0.00     0.000 C 
BRANCH   9  10
ATOM     10  C   UNL     1      27.574  -1.793  29.885  1.00  0.00    -0.000 C 
BRANCH  10  11
ATOM     11  C   UNL     1      28.627  -1.173  28.948  1.00  0.00    -0.000 C 
BRANCH  11  12
ATOM     12  C   UNL     1      29.176   0.192  29.401  1.00  0.00    -0.000 C 
BRANCH  12  13
ATOM     13  C   UNL     1      30.365   0.069  30.365  1.00  0.00    -0.003 C 
ATOM     14  C   UNL     1      29.901   0.108  31.818  1.00  0.00     0.004 C 
ENDBRANCH  12  13
ENDBRANCH  11  12
ENDBRANCH  10  11
ENDBRANCH   9  10
ENDBRANCH   1   9
TORSDOF 10
ENDMDL
MODEL 4
REMARK VINA RESULT:    -4.805      4.019      5.409
REMARK INTER + INTRA:          -8.158
REMARK INTER:                  -6.936
REMARK INTRA:                  -1.222
REMARK UNBOUND:                -0.544
REMARK SMILES CCCCCCCCCCCC(=O)[O-]
REMARK SMILES IDX 7 1 8 2 9 3 10 4 11 5 12 6 13 7 14 8 6 9 5 10 4 11 3 12 2 13
REMARK SMILES IDX 1 14
REMARK H PARENT
REMARK Flexibility Score: inf
ROOT
ATOM      1  C   UNL     1      26.805  -2.379  30.313  1.00  0.00     0.000 C 
ENDROOT
BRANCH   1   2
ATOM      2  C   UNL     1      28.208  -2.737  30.818  1.00  0.00     0.000 C 
BRANCH   2   3
ATOM      3  C   UNL     1      29.128  -3.132  29.653  1.00  0.00     0.000 C 
BRANCH   3   4
ATOM      4  C   UNL     1      30.060  -4.307  30.000  1.00  0.00     0.006 C 
BRANCH   4   5
ATOM      5  C   UNL     1      29.348  -5.514  30.632  1.00  0.00     0.053 C 
BRANCH   5   6
ATOM      6  C   UNL     1      28.459  -6.218  29.653  1.00  0.00     0.041 C 
ATOM      7  O   UNL     1      27.212  -6.042  29.690  1.00  0.00    -0.550 OA
ATOM      8  O   UNL     1      29.005  -7.092  28.723  1.00  0.00    -0.550 OA
ENDBRANCH   5   6
ENDBRANCH   4   5
ENDBRANCH   3   4
ENDBRANCH   2   3
ENDBRANCH   1   2
BRANCH   1   9
ATOM      9  C   UNL     1      26.490  -0.900  30.568  1.00  0.00     0.000 C 
BRANCH   9  10
ATOM     10  C   UNL     1      26.861  -0.041  29.350  1.00  0.00    -0.000 C 
BRANCH  10  11
ATOM     11  C   UNL     1      28.077   0.868  29.605  1.00  0.00    -0.000 C 
BRANCH  11  12
ATOM     12  C   UNL     1      28.351   1.189  31.085  1.00  0.00    -0.000 C 
BRANCH  12  13
ATOM     13  C   UNL     1      29.709   0.663  31.571  1.00  0.00    -0.003 C 
ATOM     14  C   UNL     1      30.520   0.084  30.415  1.00  0.00     0.004 C 
ENDBRANCH  12  13
ENDBRANCH  11  12
ENDBRANCH  10  11
ENDBRANCH   9  10
ENDBRANCH   1   9
TORSDOF 10
ENDMDL
MODEL 5
REMARK VINA RESULT:    -4.789      5.124      6.793
REMARK INTER + INTRA:          -8.133
REMARK INTER:                  -7.416
REMARK INTRA:                  -0.718
REMARK UNBOUND:                -0.544
REMARK SMILES CCCCCCCCCCCC(=O)[O-]
REMARK SMILES IDX 7 1 8 2 9 3 10 4 11 5 12 6 13 7 14 8 6 9 5 10 4 11 3 12 2 13
REMARK SMILES IDX 1 14
REMARK H PARENT
REMARK Flexibility Score: inf
ROOT
ATOM      1  C   UNL     1      28.949  -3.130  30.189  1.00  0.00     0.000 C 
ENDROOT
BRANCH   1   2
ATOM      2  C   UNL     1      29.875  -4.221  29.638  1.00  0.00     0.000 C 
BRANCH   2   3
ATOM      3  C   UNL     1      30.142  -5.301  30.697  1.00  0.00     0.000 C 
BRANCH   3   4
ATOM      4  C   UNL     1      29.076  -6.412  30.700  1.00  0.00     0.006 C 
BRANCH   4   5
ATOM      5  C   UNL     1      28.627  -6.860  29.300  1.00  0.00     0.053 C 
BRANCH   5   6
ATOM      6  C   UNL     1      28.677  -8.350  29.144  1.00  0.00     0.041 C 
ATOM      7  O   UNL     1      29.143  -8.861  28.092  1.00  0.00    -0.550 OA
ATOM      8  O   UNL     1      28.180  -9.171  30.148  1.00  0.00    -0.550 OA
ENDBRANCH   5   6
ENDBRANCH   4   5
ENDBRANCH   3   4
ENDBRANCH   2   3
ENDBRANCH   1   2
BRANCH   1   9
ATOM      9  C   UNL     1      29.638  -1.760  30.166  1.00  0.00     0.000 C 
BRANCH   9  10
ATOM     10  C   UNL     1      29.379  -0.993  31.471  1.00  0.00    -0.000 C 
BRANCH  10  11
ATOM     11  C   UNL     1      27.882  -0.874  31.810  1.00  0.00    -0.000 C 
BRANCH  11  12
ATOM     12  C   UNL     1      27.125   0.220  31.037  1.00  0.00    -0.000 C 
BRANCH  12  13
ATOM     13  C   UNL     1      26.097  -0.347  30.047  1.00  0.00    -0.003 C 
ATOM     14  C   UNL     1      26.621  -0.286  28.616  1.00  0.00     0.004 C 
ENDBRANCH  12  13
ENDBRANCH  11  12
ENDBRANCH  10  11
ENDBRANCH   9  10
ENDBRANCH   1   9
TORSDOF 10
ENDMDL
MODEL 6
REMARK VINA RESULT:    -4.782      4.626      9.674
REMARK INTER + INTRA:          -8.121
REMARK INTER:                  -7.408
REMARK INTRA:                  -0.713
REMARK UNBOUND:                -0.544
REMARK SMILES CCCCCCCCCCCC(=O)[O-]
REMARK SMILES IDX 7 1 8 2 9 3 10 4 11 5 12 6 13 7 14 8 6 9 5 10 4 11 3 12 2 13
REMARK SMILES IDX 1 14
REMARK H PARENT
REMARK Flexibility Score: inf
ROOT
ATOM      1  C   UNL     1      29.490  -3.335  29.933  1.00  0.00     0.000 C 
ENDROOT
BRANCH   1   2
ATOM      2  C   UNL     1      28.109  -3.022  30.524  1.00  0.00     0.000 C 
BRANCH   2   3
ATOM      3  C   UNL     1      27.625  -1.633  30.084  1.00  0.00     0.000 C 
BRANCH   3   4
ATOM      4  C   UNL     1      28.434  -1.064  28.905  1.00  0.00     0.006 C 
BRANCH   4   5
ATOM      5  C   UNL     1      29.000   0.345  29.148  1.00  0.00     0.053 C 
BRANCH   5   6
ATOM      6  C   UNL     1      29.869   0.398  30.366  1.00  0.00     0.041 C 
ATOM      7  O   UNL     1      30.998  -0.159  30.364  1.00  0.00    -0.550 OA
ATOM      8  O   UNL     1      29.418   1.035  31.515  1.00  0.00    -0.550 OA
ENDBRANCH   5   6
ENDBRANCH   4   5
ENDBRANCH   3   4
ENDBRANCH   2   3
ENDBRANCH   1   2
BRANCH   1   9
ATOM      9  C   UNL     1      29.835  -4.820  30.098  1.00  0.00     0.000 C 
BRANCH   9  10
ATOM     10  C   UNL     1      28.634  -5.606  30.645  1.00  0.00    -0.000 C 
BRANCH  10  11
ATOM     11  C   UNL     1      28.137  -6.695  29.676  1.00  0.00    -0.000 C 
BRANCH  11  12
ATOM     12  C   UNL     1      28.459  -8.139  30.100  1.00  0.00    -0.000 C 
BRANCH  12  13
ATOM     13  C   UNL     1      28.806  -8.262  31.591  1.00  0.00    -0.003 C 
ATOM     14  C   UNL     1      29.360  -9.646  31.914  1.00  0.00     0.004 C 
ENDBRANCH  12  13
ENDBRANCH  11  12
ENDBRANCH  10  11
ENDBRANCH   9  10
ENDBRANCH   1   9
TORSDOF 10
ENDMDL
MODEL 7
REMARK VINA RESULT:    -4.771      4.369      9.996
REMARK INTER + INTRA:          -8.104
REMARK INTER:                  -7.374
REMARK INTRA:                  -0.730
REMARK UNBOUND:                -0.544
REMARK SMILES CCCCCCCCCCCC(=O)[O-]
REMARK SMILES IDX 7 1 8 2 9 3 10 4 11 5 12 6 13 7 14 8 6 9 5 10 4 11 3 12 2 13
REMARK SMILES IDX 1 14
REMARK H PARENT
REMARK Flexibility Score: inf
ROOT
ATOM      1  C   UNL     1      29.671  -4.645  29.999  1.00  0.00     0.000 C 
ENDROOT
BRANCH   1   2
ATOM      2  C   UNL     1      29.503  -3.121  30.001  1.00  0.00     0.000 C 
BRANCH   2   3
ATOM      3  C   UNL     1      28.083  -2.725  30.434  1.00  0.00     0.000 C 
BRANCH   3   4
ATOM      4  C   UNL     1      28.065  -1.521  31.392  1.00  0.00     0.006 C 
BRANCH   4   5
ATOM      5  C   UNL     1      29.378  -0.722  31.429  1.00  0.00     0.053 C 
BRANCH   5   6
ATOM      6  C   UNL     1      29.239   0.617  30.771  1.00  0.00     0.041 C 
ATOM      7  O   UNL     1      29.102   1.655  31.470  1.00  0.00    -0.550 OA
ATOM      8  O   UNL     1      29.228   0.712  29.385  1.00  0.00    -0.550 OA
ENDBRANCH   5   6
ENDBRANCH   4   5
ENDBRANCH   3   4
ENDBRANCH   2   3
ENDBRANCH   1   2
BRANCH   1   9
ATOM      9  C   UNL     1      28.487  -5.330  30.693  1.00  0.00     0.000 C 
BRANCH   9  10
ATOM     10  C   UNL     1      27.820  -6.351  29.760  1.00  0.00    -0.000 C 
BRANCH  10  11
ATOM     11  C   UNL     1      28.783  -7.460  29.296  1.00  0.00    -0.000 C 
BRANCH  11  12
ATOM     12  C   UNL     1      28.424  -8.876  29.779  1.00  0.00    -0.000 C 
BRANCH  12  13
ATOM     13  C   UNL     1      29.305  -9.355  30.941  1.00  0.00    -0.003 C 
ATOM     14  C   UNL     1      28.717  -8.939  32.286  1.00  0.00     0.004 C 
ENDBRANCH  12  13
ENDBRANCH  11  12
ENDBRANCH  10  11
ENDBRANCH   9  10
ENDBRANCH   1   9
TORSDOF 10
ENDMDL
MODEL 8
REMARK VINA RESULT:    -4.747      4.902      9.976
REMARK INTER + INTRA:          -8.066
REMARK INTER:                  -7.505
REMARK INTRA:                  -0.561
REMARK UNBOUND:                -0.544
REMARK SMILES CCCCCCCCCCCC(=O)[O-]
REMARK SMILES IDX 7 1 8 2 9 3 10 4 11 5 12 6 13 7 14 8 6 9 5 10 4 11 3 12 2 13
REMARK SMILES IDX 1 14
REMARK H PARENT
REMARK Flexibility Score: inf
ROOT
ATOM      1  C   UNL     1      30.318  -4.239  30.099  1.00  0.00     0.000 C 
ENDROOT
BRANCH   1   2
ATOM      2  C   UNL     1      29.104  -3.308  29.994  1.00  0.00     0.000 C 
BRANCH   2   3
ATOM      3  C   UNL     1      29.522  -1.839  30.153  1.00  0.00     0.000 C 
BRANCH   3   4
ATOM      4  C   UNL     1      28.969  -0.936  29.036  1.00  0.00     0.006 C 
BRANCH   4   5
ATOM      5  C   UNL     1      27.455  -1.067  28.808  1.00  0.00     0.053 C 
BRANCH   5   6
ATOM      6  C   UNL     1      26.675  -0.107  29.653  1.00  0.00     0.041 C 
ATOM      7  O   UNL     1      27.087   1.072  29.816  1.00  0.00    -0.550 OA
ATOM      8  O   UNL     1      25.512  -0.525  30.286  1.00  0.00    -0.550 OA
ENDBRANCH   5   6
ENDBRANCH   4   5
ENDBRANCH   3   4
ENDBRANCH   2   3
ENDBRANCH   1   2
BRANCH   1   9
ATOM      9  C   UNL     1      29.891  -5.660  30.487  1.00  0.00     0.000 C 
BRANCH   9  10
ATOM     10  C   UNL     1      28.771  -6.167  29.566  1.00  0.00    -0.000 C 
BRANCH  10  11
ATOM     11  C   UNL     1      28.216  -7.538  29.995  1.00  0.00    -0.000 C 
BRANCH  11  12
ATOM     12  C   UNL     1      29.180  -8.721  29.795  1.00  0.00    -0.000 C 
BRANCH  12  13
ATOM     13  C   UNL     1      29.650  -9.342  31.118  1.00  0.00    -0.003 C 
ATOM     14  C   UNL     1      28.713  -8.969  32.264  1.00  0.00     0.004 C 
ENDBRANCH  12  13
ENDBRANCH  11  12
ENDBRANCH  10  11
ENDBRANCH   9  10
ENDBRANCH   1   9
TORSDOF 10
ENDMDL
MODEL 9
REMARK VINA RESULT:    -4.704      4.368      6.057
REMARK INTER + INTRA:          -7.998
REMARK INTER:                  -7.221
REMARK INTRA:                  -0.776
REMARK UNBOUND:                -0.544
REMARK SMILES CCCCCCCCCCCC(=O)[O-]
REMARK SMILES IDX 7 1 8 2 9 3 10 4 11 5 12 6 13 7 14 8 6 9 5 10 4 11 3 12 2 13
REMARK SMILES IDX 1 14
REMARK H PARENT
REMARK Flexibility Score: inf
ROOT
ATOM      1  C   UNL     1      26.944  -1.993  30.450  1.00  0.00     0.000 C 
ENDROOT
BRANCH   1   2
ATOM      2  C   UNL     1      27.873  -3.212  30.390  1.00  0.00     0.000 C 
BRANCH   2   3
ATOM      3  C   UNL     1      27.115  -4.499  30.746  1.00  0.00     0.000 C 
BRANCH   3   4
ATOM      4  C   UNL     1      27.695  -5.745  30.054  1.00  0.00     0.006 C 
BRANCH   4   5
ATOM      5  C   UNL     1      28.616  -6.593  30.947  1.00  0.00     0.053 C 
BRANCH   5   6
ATOM      6  C   UNL     1      29.166  -7.780  30.219  1.00  0.00     0.041 C 
ATOM      7  O   UNL     1      29.820  -8.658  30.842  1.00  0.00    -0.550 OA
ATOM      8  O   UNL     1      28.986  -7.900  28.847  1.00  0.00    -0.550 OA
ENDBRANCH   5   6
ENDBRANCH   4   5
ENDBRANCH   3   4
ENDBRANCH   2   3
ENDBRANCH   1   2
BRANCH   1   9
ATOM      9  C   UNL     1      27.101  -1.120  29.198  1.00  0.00     0.000 C 
BRANCH   9  10
ATOM     10  C   UNL     1      26.870   0.361  29.530  1.00  0.00    -0.000 C 
BRANCH  10  11
ATOM     11  C   UNL     1      28.169   1.106  29.890  1.00  0.00    -0.000 C 
BRANCH  11  12
ATOM     12  C   UNL     1      29.461   0.445  29.378  1.00  0.00    -0.000 C 
BRANCH  12  13
ATOM     13  C   UNL     1      30.418   0.044  30.509  1.00  0.00    -0.003 C 
ATOM     14  C   UNL     1      29.728   0.124  31.868  1.00  0.00     0.004 C 
ENDBRANCH  12  13
ENDBRANCH  11  12
ENDBRANCH  10  11
ENDBRANCH   9  10
ENDBRANCH   1   9
TORSDOF 10
ENDMDL
