MODEL 1
REMARK VINA RESULT:    -6.956      0.000      0.000
REMARK INTER + INTRA:          -7.648
REMARK INTER:                  -7.566
REMARK INTRA:                  -0.083
REMARK UNBOUND:                -0.083
REMARK SMILES C=C1C[C@]2(O)O[C@]3(C[C@@H]2C(C)C)[C@H](C)CC[C@H]13
REMARK SMILES IDX 14 1 13 2 15 3 16 4 17 5 7 6 8 7 9 8 4 9 6 10 3 11 2 12 1 13
REMARK SMILES IDX 10 14 11 15 12 16 5 17
REMARK H PARENT 5 18
REMARK Flexibility Score: inf
ROOT
ATOM      1  C   UNL     1      40.597   1.745  -2.600  1.00  0.00     0.011 C 
ATOM      2  C   UNL     1      39.357   2.144  -1.786  1.00  0.00     0.019 C 
ATOM      3  C   UNL     1      38.077   2.152  -2.635  1.00  0.00     0.007 C 
ATOM      4  C   UNL     1      37.254   3.365  -2.191  1.00  0.00     0.011 C 
ATOM      5  C   UNL     1      37.975   3.960  -0.982  1.00  0.00     0.047 C 
ATOM      6  C   UNL     1      39.445   3.546  -1.168  1.00  0.00     0.081 C 
ATOM      7  C   UNL     1      40.230   3.604   0.155  1.00  0.00     0.046 C 
ATOM      8  C   UNL     1      40.912   4.966   0.075  1.00  0.00     0.054 C 
ATOM      9  C   UNL     1      40.342   5.574  -1.234  1.00  0.00     0.173 C 
ATOM     10  O   UNL     1      40.059   4.463  -2.052  1.00  0.00    -0.342 OA
ATOM     11  C   UNL     1      39.025   6.380  -1.085  1.00  0.00     0.096 C 
ATOM     12  C   UNL     1      37.824   5.472  -0.888  1.00  0.00    -0.066 C 
ATOM     13  C   UNL     1      36.623   6.009  -0.630  1.00  0.00     0.008 C 
ENDROOT
BRANCH   8  14
ATOM     14  C   UNL     1      40.898   5.865   1.358  1.00  0.00    -0.009 C 
ATOM     15  C   UNL     1      41.899   7.022   1.215  1.00  0.00     0.008 C 
ATOM     16  C   UNL     1      41.170   5.134   2.689  1.00  0.00     0.008 C 
ENDBRANCH   8  14
BRANCH   9  17
ATOM     17  O   UNL     1      41.303   6.398  -1.847  1.00  0.00    -0.365 OA
ATOM     18  H   UNL     1      42.166   6.259  -1.376  1.00  0.00     0.214 HD
ENDBRANCH   9  17
TORSDOF 2
ENDMDL
MODEL 2
REMARK VINA RESULT:    -6.897      7.316      8.901
REMARK INTER + INTRA:          -7.585
REMARK INTER:                  -7.285
REMARK INTRA:                  -0.300
REMARK UNBOUND:                -0.083
REMARK SMILES C=C1C[C@]2(O)O[C@]3(C[C@@H]2C(C)C)[C@H](C)CC[C@H]13
REMARK SMILES IDX 14 1 13 2 15 3 16 4 17 5 7 6 8 7 9 8 4 9 6 10 3 11 2 12 1 13
REMARK SMILES IDX 10 14 11 15 12 16 5 17
REMARK H PARENT 5 18
REMARK Flexibility Score: inf
ROOT
ATOM      1  C   UNL     1      39.739  -2.624  -3.741  1.00  0.00     0.011 C 
ATOM      2  C   UNL     1      38.628  -2.441  -2.696  1.00  0.00     0.019 C 
ATOM      3  C   UNL     1      38.502  -3.649  -1.757  1.00  0.00     0.007 C 
ATOM      4  C   UNL     1      37.006  -3.879  -1.522  1.00  0.00     0.011 C 
ATOM      5  C   UNL     1      36.278  -2.712  -2.188  1.00  0.00     0.047 C 
ATOM      6  C   UNL     1      37.231  -2.248  -3.303  1.00  0.00     0.081 C 
ATOM      7  C   UNL     1      36.932  -0.808  -3.753  1.00  0.00     0.046 C 
ATOM      8  C   UNL     1      36.065  -1.021  -4.989  1.00  0.00     0.054 C 
ATOM      9  C   UNL     1      35.876  -2.560  -5.032  1.00  0.00     0.173 C 
ATOM     10  O   UNL     1      37.038  -3.081  -4.430  1.00  0.00    -0.342 OA
ATOM     11  C   UNL     1      34.663  -3.113  -4.238  1.00  0.00     0.096 C 
ATOM     12  C   UNL     1      34.914  -3.103  -2.741  1.00  0.00    -0.066 C 
ATOM     13  C   UNL     1      33.925  -3.442  -1.902  1.00  0.00     0.008 C 
ENDROOT
BRANCH   8  14
ATOM     14  C   UNL     1      34.786  -0.129  -5.147  1.00  0.00    -0.009 C 
ATOM     15  C   UNL     1      34.653   0.370  -6.594  1.00  0.00     0.008 C 
ATOM     16  C   UNL     1      34.692   1.079  -4.193  1.00  0.00     0.008 C 
ENDBRANCH   8  14
BRANCH   9  17
ATOM     17  O   UNL     1      35.777  -3.003  -6.363  1.00  0.00    -0.365 OA
ATOM     18  H   UNL     1      35.224  -3.828  -6.368  1.00  0.00     0.214 HD
ENDBRANCH   9  17
TORSDOF 2
ENDMDL
MODEL 3
REMARK VINA RESULT:    -6.499      1.889      5.167
REMARK INTER + INTRA:          -7.152
REMARK INTER:                  -6.975
REMARK INTRA:                  -0.177
REMARK UNBOUND:                -0.083
REMARK SMILES C=C1C[C@]2(O)O[C@]3(C[C@@H]2C(C)C)[C@H](C)CC[C@H]13
REMARK SMILES IDX 14 1 13 2 15 3 16 4 17 5 7 6 8 7 9 8 4 9 6 10 3 11 2 12 1 13
REMARK SMILES IDX 10 14 11 15 12 16 5 17
REMARK H PARENT 5 18
REMARK Flexibility Score: inf
ROOT
ATOM      1  C   UNL     1      41.368   5.081   3.442  1.00  0.00     0.011 C 
ATOM      2  C   UNL     1      42.466   5.087   2.368  1.00  0.00     0.019 C 
ATOM      3  C   UNL     1      43.486   6.216   2.580  1.00  0.00     0.007 C 
ATOM      4  C   UNL     1      43.827   6.776   1.195  1.00  0.00     0.011 C 
ATOM      5  C   UNL     1      43.135   5.869   0.178  1.00  0.00     0.047 C 
ATOM      6  C   UNL     1      41.936   5.279   0.940  1.00  0.00     0.081 C 
ATOM      7  C   UNL     1      41.415   3.989   0.282  1.00  0.00     0.046 C 
ATOM      8  C   UNL     1      40.251   4.495  -0.562  1.00  0.00     0.054 C 
ATOM      9  C   UNL     1      40.317   6.034  -0.376  1.00  0.00     0.173 C 
ATOM     10  O   UNL     1      40.877   6.217   0.903  1.00  0.00    -0.342 OA
ATOM     11  C   UNL     1      41.218   6.797  -1.383  1.00  0.00     0.096 C 
ATOM     12  C   UNL     1      42.693   6.613  -1.074  1.00  0.00    -0.066 C 
ATOM     13  C   UNL     1      43.612   7.113  -1.914  1.00  0.00     0.008 C 
ENDROOT
BRANCH   8  14
ATOM     14  C   UNL     1      40.116   3.947  -2.025  1.00  0.00    -0.009 C 
ATOM     15  C   UNL     1      38.663   4.058  -2.509  1.00  0.00     0.008 C 
ATOM     16  C   UNL     1      40.605   2.501  -2.243  1.00  0.00     0.008 C 
ENDBRANCH   8  14
BRANCH   9  17
ATOM     17  O   UNL     1      39.025   6.588  -0.425  1.00  0.00    -0.365 OA
ATOM     18  H   UNL     1      38.940   7.227   0.330  1.00  0.00     0.214 HD
ENDBRANCH   9  17
TORSDOF 2
ENDMDL
MODEL 4
REMARK VINA RESULT:    -6.336      2.175      5.213
REMARK INTER + INTRA:          -6.975
REMARK INTER:                  -6.678
REMARK INTRA:                  -0.297
REMARK UNBOUND:                -0.083
REMARK SMILES C=C1C[C@]2(O)O[C@]3(C[C@@H]2C(C)C)[C@H](C)CC[C@H]13
REMARK SMILES IDX 14 1 13 2 15 3 16 4 17 5 7 6 8 7 9 8 4 9 6 10 3 11 2 12 1 13
REMARK SMILES IDX 10 14 11 15 12 16 5 17
REMARK H PARENT 5 18
REMARK Flexibility Score: inf
ROOT
ATOM      1  C   UNL     1      38.641   6.762   0.359  1.00  0.00     0.011 C 
ATOM      2  C   UNL     1      38.638   5.226   0.371  1.00  0.00     0.019 C 
ATOM      3  C   UNL     1      40.042   4.636   0.166  1.00  0.00     0.007 C 
ATOM      4  C   UNL     1      39.885   3.415  -0.745  1.00  0.00     0.011 C 
ATOM      5  C   UNL     1      38.382   3.203  -0.931  1.00  0.00     0.047 C 
ATOM      6  C   UNL     1      37.768   4.598  -0.726  1.00  0.00     0.081 C 
ATOM      7  C   UNL     1      36.271   4.521  -0.376  1.00  0.00     0.046 C 
ATOM      8  C   UNL     1      35.604   4.751  -1.728  1.00  0.00     0.054 C 
ATOM      9  C   UNL     1      36.802   4.817  -2.711  1.00  0.00     0.173 C 
ATOM     10  O   UNL     1      37.871   5.315  -1.941  1.00  0.00    -0.342 OA
ATOM     11  C   UNL     1      37.261   3.460  -3.307  1.00  0.00     0.096 C 
ATOM     12  C   UNL     1      38.031   2.629  -2.296  1.00  0.00    -0.066 C 
ATOM     13  C   UNL     1      38.402   1.380  -2.613  1.00  0.00     0.008 C 
ENDROOT
BRANCH   8  14
ATOM     14  C   UNL     1      34.399   3.825  -2.115  1.00  0.00    -0.009 C 
ATOM     15  C   UNL     1      33.274   4.648  -2.760  1.00  0.00     0.008 C 
ATOM     16  C   UNL     1      33.806   2.987  -0.964  1.00  0.00     0.008 C 
ENDBRANCH   8  14
BRANCH   9  17
ATOM     17  O   UNL     1      36.515   5.696  -3.772  1.00  0.00    -0.365 OA
ATOM     18  H   UNL     1      36.304   6.583  -3.380  1.00  0.00     0.214 HD
ENDBRANCH   9  17
TORSDOF 2
ENDMDL
MODEL 5
REMARK VINA RESULT:    -6.303      2.235      4.518
REMARK INTER + INTRA:          -6.938
REMARK INTER:                  -6.803
REMARK INTRA:                  -0.135
REMARK UNBOUND:                -0.083
REMARK SMILES C=C1C[C@]2(O)O[C@]3(C[C@@H]2C(C)C)[C@H](C)CC[C@H]13
REMARK SMILES IDX 14 1 13 2 15 3 16 4 17 5 7 6 8 7 9 8 4 9 6 10 3 11 2 12 1 13
REMARK SMILES IDX 10 14 11 15 12 16 5 17
REMARK H PARENT 5 18
REMARK Flexibility Score: inf
ROOT
ATOM      1  C   UNL     1      38.449   0.659  -2.283  1.00  0.00     0.011 C 
ATOM      2  C   UNL     1      39.270   1.891  -2.694  1.00  0.00     0.019 C 
ATOM      3  C   UNL     1      40.636   1.945  -1.994  1.00  0.00     0.007 C 
ATOM      4  C   UNL     1      40.894   3.409  -1.627  1.00  0.00     0.011 C 
ATOM      5  C   UNL     1      39.761   4.220  -2.256  1.00  0.00     0.047 C 
ATOM      6  C   UNL     1      38.590   3.227  -2.364  1.00  0.00     0.081 C 
ATOM      7  C   UNL     1      37.548   3.678  -3.402  1.00  0.00     0.046 C 
ATOM      8  C   UNL     1      36.497   4.367  -2.538  1.00  0.00     0.054 C 
ATOM      9  C   UNL     1      37.122   4.330  -1.118  1.00  0.00     0.173 C 
ATOM     10  O   UNL     1      37.931   3.177  -1.113  1.00  0.00    -0.342 OA
ATOM     11  C   UNL     1      38.033   5.530  -0.751  1.00  0.00     0.096 C 
ATOM     12  C   UNL     1      39.385   5.446  -1.436  1.00  0.00    -0.066 C 
ATOM     13  C   UNL     1      40.252   6.462  -1.317  1.00  0.00     0.008 C 
ENDROOT
BRANCH   8  14
ATOM     14  C   UNL     1      35.922   5.736  -3.041  1.00  0.00    -0.009 C 
ATOM     15  C   UNL     1      34.589   6.048  -2.342  1.00  0.00     0.008 C 
ATOM     16  C   UNL     1      35.724   5.857  -4.565  1.00  0.00     0.008 C 
ENDBRANCH   8  14
BRANCH   9  17
ATOM     17  O   UNL     1      36.113   4.221  -0.144  1.00  0.00    -0.365 OA
ATOM     18  H   UNL     1      36.143   3.298   0.221  1.00  0.00     0.214 HD
ENDBRANCH   9  17
TORSDOF 2
ENDMDL
MODEL 6
REMARK VINA RESULT:    -6.267      4.163      7.051
REMARK INTER + INTRA:          -6.899
REMARK INTER:                  -6.542
REMARK INTRA:                  -0.357
REMARK UNBOUND:                -0.083
REMARK SMILES C=C1C[C@]2(O)O[C@]3(C[C@@H]2C(C)C)[C@H](C)CC[C@H]13
REMARK SMILES IDX 14 1 13 2 15 3 16 4 17 5 7 6 8 7 9 8 4 9 6 10 3 11 2 12 1 13
REMARK SMILES IDX 10 14 11 15 12 16 5 17
REMARK H PARENT 5 18
REMARK Flexibility Score: inf
ROOT
ATOM      1  C   UNL     1      31.859   4.571  -2.872  1.00  0.00     0.011 C 
ATOM      2  C   UNL     1      33.169   4.332  -2.106  1.00  0.00     0.019 C 
ATOM      3  C   UNL     1      33.774   5.633  -1.558  1.00  0.00     0.007 C 
ATOM      4  C   UNL     1      35.290   5.536  -1.748  1.00  0.00     0.011 C 
ATOM      5  C   UNL     1      35.575   4.121  -2.252  1.00  0.00     0.047 C 
ATOM      6  C   UNL     1      34.276   3.694  -2.957  1.00  0.00     0.081 C 
ATOM      7  C   UNL     1      34.169   2.164  -3.087  1.00  0.00     0.046 C 
ATOM      8  C   UNL     1      34.672   1.918  -4.506  1.00  0.00     0.054 C 
ATOM      9  C   UNL     1      35.116   3.327  -4.977  1.00  0.00     0.173 C 
ATOM     10  O   UNL     1      34.288   4.220  -4.270  1.00  0.00    -0.342 OA
ATOM     11  C   UNL     1      36.584   3.714  -4.657  1.00  0.00     0.096 C 
ATOM     12  C   UNL     1      36.772   4.056  -3.190  1.00  0.00    -0.066 C 
ATOM     13  C   UNL     1      38.004   4.303  -2.721  1.00  0.00     0.008 C 
ENDROOT
BRANCH   8  14
ATOM     14  C   UNL     1      35.670   0.730  -4.731  1.00  0.00    -0.009 C 
ATOM     15  C   UNL     1      34.953  -0.458  -5.389  1.00  0.00     0.008 C 
ATOM     16  C   UNL     1      36.408   0.231  -3.472  1.00  0.00     0.008 C 
ENDBRANCH   8  14
BRANCH   9  17
ATOM     17  O   UNL     1      34.910   3.466  -6.362  1.00  0.00    -0.365 OA
ATOM     18  H   UNL     1      35.726   3.137  -6.824  1.00  0.00     0.214 HD
ENDBRANCH   9  17
TORSDOF 2
ENDMDL
MODEL 7
REMARK VINA RESULT:    -6.262      1.528      4.400
REMARK INTER + INTRA:          -6.894
REMARK INTER:                  -7.238
REMARK INTRA:                   0.344
REMARK UNBOUND:                -0.083
REMARK SMILES C=C1C[C@]2(O)O[C@]3(C[C@@H]2C(C)C)[C@H](C)CC[C@H]13
REMARK SMILES IDX 14 1 13 2 15 3 16 4 17 5 7 6 8 7 9 8 4 9 6 10 3 11 2 12 1 13
REMARK SMILES IDX 10 14 11 15 12 16 5 17
REMARK H PARENT 5 18
REMARK Flexibility Score: inf
ROOT
ATOM      1  C   UNL     1      42.663   4.888  -0.380  1.00  0.00     0.011 C 
ATOM      2  C   UNL     1      41.413   5.755  -0.595  1.00  0.00     0.019 C 
ATOM      3  C   UNL     1      41.065   6.597   0.641  1.00  0.00     0.007 C 
ATOM      4  C   UNL     1      39.540   6.583   0.778  1.00  0.00     0.011 C 
ATOM      5  C   UNL     1      39.000   5.874  -0.464  1.00  0.00     0.047 C 
ATOM      6  C   UNL     1      40.145   4.948  -0.909  1.00  0.00     0.081 C 
ATOM      7  C   UNL     1      40.010   4.534  -2.384  1.00  0.00     0.046 C 
ATOM      8  C   UNL     1      39.340   3.168  -2.284  1.00  0.00     0.054 C 
ATOM      9  C   UNL     1      39.067   3.015  -0.765  1.00  0.00     0.173 C 
ATOM     10  O   UNL     1      40.084   3.762  -0.140  1.00  0.00    -0.342 OA
ATOM     11  C   UNL     1      37.711   3.579  -0.264  1.00  0.00     0.096 C 
ATOM     12  C   UNL     1      37.721   5.095  -0.192  1.00  0.00    -0.066 C 
ATOM     13  C   UNL     1      36.591   5.750   0.113  1.00  0.00     0.008 C 
ENDROOT
BRANCH   8  14
ATOM     14  C   UNL     1      38.159   2.860  -3.268  1.00  0.00    -0.009 C 
ATOM     15  C   UNL     1      37.256   4.092  -3.427  1.00  0.00     0.008 C 
ATOM     16  C   UNL     1      37.284   1.645  -2.900  1.00  0.00     0.008 C 
ENDBRANCH   8  14
BRANCH   9  17
ATOM     17  O   UNL     1      39.154   1.662  -0.387  1.00  0.00    -0.365 OA
ATOM     18  H   UNL     1      40.116   1.421  -0.347  1.00  0.00     0.214 HD
ENDBRANCH   9  17
TORSDOF 2
ENDMDL
MODEL 8
REMARK VINA RESULT:    -6.170      1.988      3.802
REMARK INTER + INTRA:          -6.794
REMARK INTER:                  -6.507
REMARK INTRA:                  -0.287
REMARK UNBOUND:                -0.083
REMARK SMILES C=C1C[C@]2(O)O[C@]3(C[C@@H]2C(C)C)[C@H](C)CC[C@H]13
REMARK SMILES IDX 14 1 13 2 15 3 16 4 17 5 7 6 8 7 9 8 4 9 6 10 3 11 2 12 1 13
REMARK SMILES IDX 10 14 11 15 12 16 5 17
REMARK H PARENT 5 18
REMARK Flexibility Score: inf
ROOT
ATOM      1  C   UNL     1      35.787   4.449  -4.738  1.00  0.00     0.011 C 
ATOM      2  C   UNL     1      35.575   4.422  -3.217  1.00  0.00     0.019 C 
ATOM      3  C   UNL     1      34.925   5.712  -2.694  1.00  0.00     0.007 C 
ATOM      4  C   UNL     1      35.610   6.052  -1.367  1.00  0.00     0.011 C 
ATOM      5  C   UNL     1      36.534   4.878  -1.043  1.00  0.00     0.047 C 
ATOM      6  C   UNL     1      36.872   4.264  -2.412  1.00  0.00     0.081 C 
ATOM      7  C   UNL     1      37.363   2.811  -2.286  1.00  0.00     0.046 C 
ATOM      8  C   UNL     1      38.879   2.971  -2.313  1.00  0.00     0.054 C 
ATOM      9  C   UNL     1      39.076   4.510  -2.336  1.00  0.00     0.173 C 
ATOM     10  O   UNL     1      37.930   5.008  -2.986  1.00  0.00    -0.342 OA
ATOM     11  C   UNL     1      39.153   5.200  -0.949  1.00  0.00     0.096 C 
ATOM     12  C   UNL     1      37.788   5.303  -0.292  1.00  0.00    -0.066 C 
ATOM     13  C   UNL     1      37.691   5.771   0.961  1.00  0.00     0.008 C 
ENDROOT
BRANCH   8  14
ATOM     14  C   UNL     1      39.719   2.148  -1.277  1.00  0.00    -0.009 C 
ATOM     15  C   UNL     1      40.196   0.826  -1.899  1.00  0.00     0.008 C 
ATOM     16  C   UNL     1      39.015   1.843   0.061  1.00  0.00     0.008 C 
ENDBRANCH   8  14
BRANCH   9  17
ATOM     17  O   UNL     1      40.232   4.842  -3.065  1.00  0.00    -0.365 OA
ATOM     18  H   UNL     1      40.814   4.038  -3.094  1.00  0.00     0.214 HD
ENDBRANCH   9  17
TORSDOF 2
ENDMDL
MODEL 9
REMARK VINA RESULT:    -6.032      6.553      9.180
REMARK INTER + INTRA:          -6.644
REMARK INTER:                  -6.487
REMARK INTRA:                  -0.157
REMARK UNBOUND:                -0.083
REMARK SMILES C=C1C[C@]2(O)O[C@]3(C[C@@H]2C(C)C)[C@H](C)CC[C@H]13
REMARK SMILES IDX 14 1 13 2 15 3 16 4 17 5 7 6 8 7 9 8 4 9 6 10 3 11 2 12 1 13
REMARK SMILES IDX 10 14 11 15 12 16 5 17
REMARK H PARENT 5 18
REMARK Flexibility Score: inf
ROOT
ATOM      1  C   UNL     1      34.222  -4.967  -2.738  1.00  0.00     0.011 C 
ATOM      2  C   UNL     1      35.690  -4.545  -2.910  1.00  0.00     0.019 C 
ATOM      3  C   UNL     1      36.459  -4.543  -1.580  1.00  0.00     0.007 C 
ATOM      4  C   UNL     1      37.376  -3.317  -1.596  1.00  0.00     0.011 C 
ATOM      5  C   UNL     1      37.259  -2.706  -2.992  1.00  0.00     0.047 C 
ATOM      6  C   UNL     1      35.866  -3.134  -3.485  1.00  0.00     0.081 C 
ATOM      7  C   UNL     1      35.751  -3.058  -5.018  1.00  0.00     0.046 C 
ATOM      8  C   UNL     1      35.086  -1.703  -5.233  1.00  0.00     0.054 C 
ATOM      9  C   UNL     1      35.005  -1.113  -3.800  1.00  0.00     0.173 C 
ATOM     10  O   UNL     1      34.910  -2.236  -2.955  1.00  0.00    -0.342 OA
ATOM     11  C   UNL     1      36.239  -0.295  -3.338  1.00  0.00     0.096 C 
ATOM     12  C   UNL     1      37.415  -1.191  -2.991  1.00  0.00    -0.066 C 
ATOM     13  C   UNL     1      38.597  -0.641  -2.681  1.00  0.00     0.008 C 
ENDROOT
BRANCH   8  14
ATOM     14  C   UNL     1      35.656  -0.781  -6.365  1.00  0.00    -0.009 C 
ATOM     15  C   UNL     1      34.604   0.251  -6.800  1.00  0.00     0.008 C 
ATOM     16  C   UNL     1      36.184  -1.510  -7.617  1.00  0.00     0.008 C 
ENDBRANCH   8  14
BRANCH   9  17
ATOM     17  O   UNL     1      33.860  -0.306  -3.669  1.00  0.00    -0.365 OA
ATOM     18  H   UNL     1      34.039   0.551  -4.137  1.00  0.00     0.214 HD
ENDBRANCH   9  17
TORSDOF 2
ENDMDL
