MODEL 1
REMARK VINA RESULT:    -5.588      0.000      0.000
REMARK INTER + INTRA:         -20.054
REMARK INTER:                 -14.735
REMARK INTRA:                  -5.319
REMARK UNBOUND:                -5.319
REMARK SMILES CCCCCCCCCCCCCCCCCCCCCCCCCCCCCC(=O)[O-]
REMARK SMILES IDX 16 1 17 2 18 3 19 4 20 5 21 6 22 7 23 8 24 9 25 10 26 11
REMARK SMILES IDX 27 12 28 13 29 14 30 15 31 16 32 17 15 18 14 19 13 20 12 21
REMARK SMILES IDX 11 22 10 23 9 24 8 25 7 26 6 27 5 28 4 29 3 30 2 31 1 32
REMARK H PARENT
REMARK Flexibility Score: inf
ROOT
ATOM      1  C   UNL     1     -17.009  54.455  -1.234  1.00  0.00     0.000 C 
ENDROOT
BRANCH   1   2
ATOM      2  C   UNL     1     -17.444  54.509  -2.704  1.00  0.00     0.000 C 
BRANCH   2   3
ATOM      3  C   UNL     1     -17.121  55.877  -3.319  1.00  0.00     0.000 C 
BRANCH   3   4
ATOM      4  C   UNL     1     -18.398  56.595  -3.775  1.00  0.00     0.000 C 
BRANCH   4   5
ATOM      5  C   UNL     1     -19.583  56.387  -2.811  1.00  0.00     0.000 C 
BRANCH   5   6
ATOM      6  C   UNL     1     -20.972  56.677  -3.415  1.00  0.00     0.000 C 
BRANCH   6   7
ATOM      7  C   UNL     1     -21.967  55.522  -3.208  1.00  0.00     0.000 C 
BRANCH   7   8
ATOM      8  C   UNL     1     -23.317  55.997  -2.651  1.00  0.00     0.000 C 
BRANCH   8   9
ATOM      9  C   UNL     1     -24.348  54.860  -2.561  1.00  0.00     0.000 C 
BRANCH   9  10
ATOM     10  C   UNL     1     -25.511  55.241  -1.639  1.00  0.00     0.000 C 
BRANCH  10  11
ATOM     11  C   UNL     1     -25.448  56.726  -1.247  1.00  0.00     0.000 C 
BRANCH  11  12
ATOM     12  C   UNL     1     -26.062  56.984   0.147  1.00  0.00     0.000 C 
BRANCH  12  13
ATOM     13  C   UNL     1     -25.797  58.404   0.679  1.00  0.00     0.006 C 
BRANCH  13  14
ATOM     14  C   UNL     1     -24.528  59.037   0.092  1.00  0.00     0.053 C 
BRANCH  14  15
ATOM     15  C   UNL     1     -23.598  59.464   1.184  1.00  0.00     0.041 C 
ATOM     16  O   UNL     1     -22.629  60.230   0.929  1.00  0.00    -0.550 OA
ATOM     17  O   UNL     1     -23.786  58.998   2.478  1.00  0.00    -0.550 OA
ENDBRANCH  14  15
ENDBRANCH  13  14
ENDBRANCH  12  13
ENDBRANCH  11  12
ENDBRANCH  10  11
ENDBRANCH   9  10
ENDBRANCH   8   9
ENDBRANCH   7   8
ENDBRANCH   6   7
ENDBRANCH   5   6
ENDBRANCH   4   5
ENDBRANCH   3   4
ENDBRANCH   2   3
ENDBRANCH   1   2
BRANCH   1  18
ATOM     18  C   UNL     1     -17.993  53.628  -0.397  1.00  0.00     0.000 C 
BRANCH  18  19
ATOM     19  C   UNL     1     -19.261  53.256  -1.179  1.00  0.00     0.000 C 
BRANCH  19  20
ATOM     20  C   UNL     1     -19.986  52.030  -0.592  1.00  0.00     0.000 C 
BRANCH  20  21
ATOM     21  C   UNL     1     -21.104  52.440   0.379  1.00  0.00     0.000 C 
BRANCH  21  22
ATOM     22  C   UNL     1     -21.902  53.659  -0.131  1.00  0.00     0.000 C 
BRANCH  22  23
ATOM     23  C   UNL     1     -23.007  54.092   0.845  1.00  0.00     0.000 C 
BRANCH  23  24
ATOM     24  C   UNL     1     -22.853  55.564   1.271  1.00  0.00    -0.000 C 
BRANCH  24  25
ATOM     25  C   UNL     1     -21.926  56.359   0.336  1.00  0.00    -0.000 C 
BRANCH  25  26
ATOM     26  C   UNL     1     -20.820  57.106   1.102  1.00  0.00    -0.000 C 
BRANCH  26  27
ATOM     27  C   UNL     1     -19.410  56.677   0.657  1.00  0.00    -0.000 C 
BRANCH  27  28
ATOM     28  C   UNL     1     -18.367  57.790   0.862  1.00  0.00    -0.000 C 
BRANCH  28  29
ATOM     29  C   UNL     1     -16.946  57.245   1.099  1.00  0.00    -0.000 C 
BRANCH  29  30
ATOM     30  C   UNL     1     -15.882  57.751   0.109  1.00  0.00    -0.000 C 
BRANCH  30  31
ATOM     31  C   UNL     1     -15.332  59.135   0.481  1.00  0.00    -0.003 C 
ATOM     32  C   UNL     1     -14.004  59.017   1.222  1.00  0.00     0.004 C 
ENDBRANCH  30  31
ENDBRANCH  29  30
ENDBRANCH  28  29
ENDBRANCH  27  28
ENDBRANCH  26  27
ENDBRANCH  25  26
ENDBRANCH  24  25
ENDBRANCH  23  24
ENDBRANCH  22  23
ENDBRANCH  21  22
ENDBRANCH  20  21
ENDBRANCH  19  20
ENDBRANCH  18  19
ENDBRANCH   1  18
TORSDOF 28
ENDMDL
MODEL 2
REMARK VINA RESULT:    -5.312      2.739      4.564
REMARK INTER + INTRA:         -19.327
REMARK INTER:                 -14.342
REMARK INTRA:                  -4.985
REMARK UNBOUND:                -5.319
REMARK SMILES CCCCCCCCCCCCCCCCCCCCCCCCCCCCCC(=O)[O-]
REMARK SMILES IDX 16 1 17 2 18 3 19 4 20 5 21 6 22 7 23 8 24 9 25 10 26 11
REMARK SMILES IDX 27 12 28 13 29 14 30 15 31 16 32 17 15 18 14 19 13 20 12 21
REMARK SMILES IDX 11 22 10 23 9 24 8 25 7 26 6 27 5 28 4 29 3 30 2 31 1 32
REMARK H PARENT
REMARK Flexibility Score: inf
ROOT
ATOM      1  C   UNL     1     -16.250  54.649  -1.415  1.00  0.00     0.000 C 
ENDROOT
BRANCH   1   2
ATOM      2  C   UNL     1     -17.142  54.666  -2.663  1.00  0.00     0.000 C 
BRANCH   2   3
ATOM      3  C   UNL     1     -16.870  55.916  -3.511  1.00  0.00     0.000 C 
BRANCH   3   4
ATOM      4  C   UNL     1     -18.175  56.640  -3.867  1.00  0.00     0.000 C 
BRANCH   4   5
ATOM      5  C   UNL     1     -19.280  56.444  -2.810  1.00  0.00     0.000 C 
BRANCH   5   6
ATOM      6  C   UNL     1     -20.714  56.381  -3.372  1.00  0.00     0.000 C 
BRANCH   6   7
ATOM      7  C   UNL     1     -21.542  55.232  -2.772  1.00  0.00     0.000 C 
BRANCH   7   8
ATOM      8  C   UNL     1     -20.669  54.065  -2.287  1.00  0.00     0.000 C 
BRANCH   8   9
ATOM      9  C   UNL     1     -21.280  53.340  -1.077  1.00  0.00     0.000 C 
BRANCH   9  10
ATOM     10  C   UNL     1     -22.538  54.061  -0.578  1.00  0.00     0.000 C 
BRANCH  10  11
ATOM     11  C   UNL     1     -22.885  53.645   0.861  1.00  0.00     0.000 C 
BRANCH  11  12
ATOM     12  C   UNL     1     -24.074  54.452   1.426  1.00  0.00     0.000 C 
BRANCH  12  13
ATOM     13  C   UNL     1     -24.881  55.192   0.344  1.00  0.00     0.006 C 
BRANCH  13  14
ATOM     14  C   UNL     1     -24.863  56.717   0.518  1.00  0.00     0.053 C 
BRANCH  14  15
ATOM     15  C   UNL     1     -24.730  57.397  -0.808  1.00  0.00     0.041 C 
ATOM     16  O   UNL     1     -24.907  56.748  -1.875  1.00  0.00    -0.550 OA
ATOM     17  O   UNL     1     -24.386  58.741  -0.868  1.00  0.00    -0.550 OA
ENDBRANCH  14  15
ENDBRANCH  13  14
ENDBRANCH  12  13
ENDBRANCH  11  12
ENDBRANCH  10  11
ENDBRANCH   9  10
ENDBRANCH   8   9
ENDBRANCH   7   8
ENDBRANCH   6   7
ENDBRANCH   5   6
ENDBRANCH   4   5
ENDBRANCH   3   4
ENDBRANCH   2   3
ENDBRANCH   1   2
BRANCH   1  18
ATOM     18  C   UNL     1     -16.973  53.998  -0.228  1.00  0.00     0.000 C 
BRANCH  18  19
ATOM     19  C   UNL     1     -18.080  54.894   0.347  1.00  0.00     0.000 C 
BRANCH  19  20
ATOM     20  C   UNL     1     -17.634  56.359   0.517  1.00  0.00     0.000 C 
BRANCH  20  21
ATOM     21  C   UNL     1     -18.828  57.291   0.775  1.00  0.00     0.000 C 
BRANCH  21  22
ATOM     22  C   UNL     1     -20.177  56.545   0.703  1.00  0.00     0.000 C 
BRANCH  22  23
ATOM     23  C   UNL     1     -21.383  57.493   0.794  1.00  0.00     0.000 C 
BRANCH  23  24
ATOM     24  C   UNL     1     -21.535  58.094   2.204  1.00  0.00    -0.000 C 
BRANCH  24  25
ATOM     25  C   UNL     1     -22.173  59.493   2.187  1.00  0.00    -0.000 C 
BRANCH  25  26
ATOM     26  C   UNL     1     -23.590  59.500   2.786  1.00  0.00    -0.000 C 
BRANCH  26  27
ATOM     27  C   UNL     1     -23.707  58.585   4.019  1.00  0.00    -0.000 C 
BRANCH  27  28
ATOM     28  C   UNL     1     -23.996  59.374   5.309  1.00  0.00    -0.000 C 
BRANCH  28  29
ATOM     29  C   UNL     1     -22.755  60.101   5.859  1.00  0.00    -0.000 C 
BRANCH  29  30
ATOM     30  C   UNL     1     -21.575  59.185   6.228  1.00  0.00    -0.000 C 
BRANCH  30  31
ATOM     31  C   UNL     1     -21.459  58.943   7.740  1.00  0.00    -0.003 C 
ATOM     32  C   UNL     1     -20.645  57.686   8.034  1.00  0.00     0.004 C 
ENDBRANCH  30  31
ENDBRANCH  29  30
ENDBRANCH  28  29
ENDBRANCH  27  28
ENDBRANCH  26  27
ENDBRANCH  25  26
ENDBRANCH  24  25
ENDBRANCH  23  24
ENDBRANCH  22  23
ENDBRANCH  21  22
ENDBRANCH  20  21
ENDBRANCH  19  20
ENDBRANCH  18  19
ENDBRANCH   1  18
TORSDOF 28
ENDMDL
MODEL 3
REMARK VINA RESULT:    -5.311      2.432      5.165
REMARK INTER + INTRA:         -19.323
REMARK INTER:                 -14.919
REMARK INTRA:                  -4.404
REMARK UNBOUND:                -5.319
REMARK SMILES CCCCCCCCCCCCCCCCCCCCCCCCCCCCCC(=O)[O-]
REMARK SMILES IDX 16 1 17 2 18 3 19 4 20 5 21 6 22 7 23 8 24 9 25 10 26 11
REMARK SMILES IDX 27 12 28 13 29 14 30 15 31 16 32 17 15 18 14 19 13 20 12 21
REMARK SMILES IDX 11 22 10 23 9 24 8 25 7 26 6 27 5 28 4 29 3 30 2 31 1 32
REMARK H PARENT
REMARK Flexibility Score: inf
ROOT
ATOM      1  C   UNL     1     -22.417  55.681  -2.741  1.00  0.00     0.000 C 
ENDROOT
BRANCH   1   2
ATOM      2  C   UNL     1     -23.772  56.250  -2.301  1.00  0.00     0.000 C 
BRANCH   2   3
ATOM      3  C   UNL     1     -24.830  55.141  -2.223  1.00  0.00     0.000 C 
BRANCH   3   4
ATOM      4  C   UNL     1     -25.981  55.537  -1.289  1.00  0.00     0.000 C 
BRANCH   4   5
ATOM      5  C   UNL     1     -25.520  55.790   0.160  1.00  0.00     0.000 C 
BRANCH   5   6
ATOM      6  C   UNL     1     -24.727  54.635   0.802  1.00  0.00     0.000 C 
BRANCH   6   7
ATOM      7  C   UNL     1     -23.357  55.078   1.342  1.00  0.00     0.000 C 
BRANCH   7   8
ATOM      8  C   UNL     1     -23.203  56.606   1.386  1.00  0.00     0.000 C 
BRANCH   8   9
ATOM      9  C   UNL     1     -21.746  57.054   1.188  1.00  0.00     0.000 C 
BRANCH   9  10
ATOM     10  C   UNL     1     -21.429  58.292   2.035  1.00  0.00     0.000 C 
BRANCH  10  11
ATOM     11  C   UNL     1     -22.713  58.926   2.596  1.00  0.00     0.000 C 
BRANCH  11  12
ATOM     12  C   UNL     1     -22.717  58.954   4.141  1.00  0.00     0.000 C 
BRANCH  12  13
ATOM     13  C   UNL     1     -21.809  60.046   4.736  1.00  0.00     0.006 C 
BRANCH  13  14
ATOM     14  C   UNL     1     -20.840  59.508   5.797  1.00  0.00     0.053 C 
BRANCH  14  15
ATOM     15  C   UNL     1     -21.570  59.193   7.066  1.00  0.00     0.041 C 
ATOM     16  O   UNL     1     -21.314  58.133   7.698  1.00  0.00    -0.550 OA
ATOM     17  O   UNL     1     -22.549  60.057   7.537  1.00  0.00    -0.550 OA
ENDBRANCH  14  15
ENDBRANCH  13  14
ENDBRANCH  12  13
ENDBRANCH  11  12
ENDBRANCH  10  11
ENDBRANCH   9  10
ENDBRANCH   8   9
ENDBRANCH   7   8
ENDBRANCH   6   7
ENDBRANCH   5   6
ENDBRANCH   4   5
ENDBRANCH   3   4
ENDBRANCH   2   3
ENDBRANCH   1   2
BRANCH   1  18
ATOM     18  C   UNL     1     -21.302  56.723  -2.576  1.00  0.00     0.000 C 
BRANCH  18  19
ATOM     19  C   UNL     1     -20.218  56.597  -3.657  1.00  0.00     0.000 C 
BRANCH  19  20
ATOM     20  C   UNL     1     -18.792  56.590  -3.073  1.00  0.00     0.000 C 
BRANCH  20  21
ATOM     21  C   UNL     1     -18.109  55.226  -3.257  1.00  0.00     0.000 C 
BRANCH  21  22
ATOM     22  C   UNL     1     -19.112  54.117  -3.640  1.00  0.00     0.000 C 
BRANCH  22  23
ATOM     23  C   UNL     1     -19.234  53.031  -2.560  1.00  0.00     0.000 C 
BRANCH  23  24
ATOM     24  C   UNL     1     -20.407  53.306  -1.600  1.00  0.00    -0.000 C 
BRANCH  24  25
ATOM     25  C   UNL     1     -19.969  54.039  -0.322  1.00  0.00    -0.000 C 
BRANCH  25  26
ATOM     26  C   UNL     1     -18.561  53.626   0.140  1.00  0.00    -0.000 C 
BRANCH  26  27
ATOM     27  C   UNL     1     -17.760  54.814   0.704  1.00  0.00    -0.000 C 
BRANCH  27  28
ATOM     28  C   UNL     1     -18.403  56.170   0.364  1.00  0.00    -0.000 C 
BRANCH  28  29
ATOM     29  C   UNL     1     -17.516  57.369   0.749  1.00  0.00    -0.000 C 
BRANCH  29  30
ATOM     30  C   UNL     1     -16.007  57.153   0.541  1.00  0.00    -0.000 C 
BRANCH  30  31
ATOM     31  C   UNL     1     -15.313  58.366  -0.094  1.00  0.00    -0.003 C 
ATOM     32  C   UNL     1     -14.663  59.246   0.969  1.00  0.00     0.004 C 
ENDBRANCH  30  31
ENDBRANCH  29  30
ENDBRANCH  28  29
ENDBRANCH  27  28
ENDBRANCH  26  27
ENDBRANCH  25  26
ENDBRANCH  24  25
ENDBRANCH  23  24
ENDBRANCH  22  23
ENDBRANCH  21  22
ENDBRANCH  20  21
ENDBRANCH  19  20
ENDBRANCH  18  19
ENDBRANCH   1  18
TORSDOF 28
ENDMDL
MODEL 4
REMARK VINA RESULT:    -5.194      2.421      5.685
REMARK INTER + INTRA:         -19.014
REMARK INTER:                 -14.275
REMARK INTRA:                  -4.739
REMARK UNBOUND:                -5.319
REMARK SMILES CCCCCCCCCCCCCCCCCCCCCCCCCCCCCC(=O)[O-]
REMARK SMILES IDX 16 1 17 2 18 3 19 4 20 5 21 6 22 7 23 8 24 9 25 10 26 11
REMARK SMILES IDX 27 12 28 13 29 14 30 15 31 16 32 17 15 18 14 19 13 20 12 21
REMARK SMILES IDX 11 22 10 23 9 24 8 25 7 26 6 27 5 28 4 29 3 30 2 31 1 32
REMARK H PARENT
REMARK Flexibility Score: inf
ROOT
ATOM      1  C   UNL     1     -17.294  54.520  -2.753  1.00  0.00     0.000 C 
ENDROOT
BRANCH   1   2
ATOM      2  C   UNL     1     -16.647  54.401  -1.368  1.00  0.00     0.000 C 
BRANCH   2   3
ATOM      3  C   UNL     1     -17.682  53.983  -0.316  1.00  0.00     0.000 C 
BRANCH   3   4
ATOM      4  C   UNL     1     -17.683  54.949   0.876  1.00  0.00     0.000 C 
BRANCH   4   5
ATOM      5  C   UNL     1     -17.496  56.421   0.458  1.00  0.00     0.000 C 
BRANCH   5   6
ATOM      6  C   UNL     1     -18.713  57.330   0.719  1.00  0.00     0.000 C 
BRANCH   6   7
ATOM      7  C   UNL     1     -20.051  56.575   0.651  1.00  0.00     0.000 C 
BRANCH   7   8
ATOM      8  C   UNL     1     -21.255  57.470   0.984  1.00  0.00     0.000 C 
BRANCH   8   9
ATOM      9  C   UNL     1     -20.972  58.417   2.162  1.00  0.00     0.000 C 
BRANCH   9  10
ATOM     10  C   UNL     1     -22.225  59.213   2.542  1.00  0.00     0.000 C 
BRANCH  10  11
ATOM     11  C   UNL     1     -23.314  58.297   3.123  1.00  0.00     0.000 C 
BRANCH  11  12
ATOM     12  C   UNL     1     -23.826  58.800   4.491  1.00  0.00     0.000 C 
BRANCH  12  13
ATOM     13  C   UNL     1     -22.924  59.875   5.124  1.00  0.00     0.006 C 
BRANCH  13  14
ATOM     14  C   UNL     1     -22.140  59.362   6.339  1.00  0.00     0.053 C 
BRANCH  14  15
ATOM     15  C   UNL     1     -20.684  59.680   6.200  1.00  0.00     0.041 C 
ATOM     16  O   UNL     1     -19.826  58.757   6.247  1.00  0.00    -0.550 OA
ATOM     17  O   UNL     1     -20.273  60.996   6.042  1.00  0.00    -0.550 OA
ENDBRANCH  14  15
ENDBRANCH  13  14
ENDBRANCH  12  13
ENDBRANCH  11  12
ENDBRANCH  10  11
ENDBRANCH   9  10
ENDBRANCH   8   9
ENDBRANCH   7   8
ENDBRANCH   6   7
ENDBRANCH   5   6
ENDBRANCH   4   5
ENDBRANCH   3   4
ENDBRANCH   2   3
ENDBRANCH   1   2
BRANCH   1  18
ATOM     18  C   UNL     1     -16.985  55.880  -3.393  1.00  0.00     0.000 C 
BRANCH  18  19
ATOM     19  C   UNL     1     -18.248  56.723  -3.620  1.00  0.00     0.000 C 
BRANCH  19  20
ATOM     20  C   UNL     1     -19.452  56.227  -2.796  1.00  0.00     0.000 C 
BRANCH  20  21
ATOM     21  C   UNL     1     -20.787  56.591  -3.463  1.00  0.00     0.000 C 
BRANCH  21  22
ATOM     22  C   UNL     1     -21.909  55.594  -3.106  1.00  0.00     0.000 C 
BRANCH  22  23
ATOM     23  C   UNL     1     -21.473  54.568  -2.048  1.00  0.00     0.000 C 
BRANCH  23  24
ATOM     24  C   UNL     1     -22.681  53.871  -1.394  1.00  0.00    -0.000 C 
BRANCH  24  25
ATOM     25  C   UNL     1     -22.605  53.867   0.141  1.00  0.00    -0.000 C 
BRANCH  25  26
ATOM     26  C   UNL     1     -23.504  54.941   0.777  1.00  0.00    -0.000 C 
BRANCH  26  27
ATOM     27  C   UNL     1     -24.990  54.538   0.768  1.00  0.00    -0.000 C 
BRANCH  27  28
ATOM     28  C   UNL     1     -25.828  55.406  -0.188  1.00  0.00    -0.000 C 
BRANCH  28  29
ATOM     29  C   UNL     1     -26.067  56.831   0.347  1.00  0.00    -0.000 C 
BRANCH  29  30
ATOM     30  C   UNL     1     -25.005  57.866  -0.063  1.00  0.00    -0.000 C 
BRANCH  30  31
ATOM     31  C   UNL     1     -24.479  57.647  -1.489  1.00  0.00    -0.003 C 
ATOM     32  C   UNL     1     -23.433  58.695  -1.855  1.00  0.00     0.004 C 
ENDBRANCH  30  31
ENDBRANCH  29  30
ENDBRANCH  28  29
ENDBRANCH  27  28
ENDBRANCH  26  27
ENDBRANCH  25  26
ENDBRANCH  24  25
ENDBRANCH  23  24
ENDBRANCH  22  23
ENDBRANCH  21  22
ENDBRANCH  20  21
ENDBRANCH  19  20
ENDBRANCH  18  19
ENDBRANCH   1  18
TORSDOF 28
ENDMDL
MODEL 5
REMARK VINA RESULT:    -5.179      2.763      5.654
REMARK INTER + INTRA:         -18.975
REMARK INTER:                 -14.250
REMARK INTRA:                  -4.726
REMARK UNBOUND:                -5.319
REMARK SMILES CCCCCCCCCCCCCCCCCCCCCCCCCCCCCC(=O)[O-]
REMARK SMILES IDX 16 1 17 2 18 3 19 4 20 5 21 6 22 7 23 8 24 9 25 10 26 11
REMARK SMILES IDX 27 12 28 13 29 14 30 15 31 16 32 17 15 18 14 19 13 20 12 21
REMARK SMILES IDX 11 22 10 23 9 24 8 25 7 26 6 27 5 28 4 29 3 30 2 31 1 32
REMARK H PARENT
REMARK Flexibility Score: inf
ROOT
ATOM      1  C   UNL     1     -22.229  53.555   0.157  1.00  0.00     0.000 C 
ENDROOT
BRANCH   1   2
ATOM      2  C   UNL     1     -23.390  53.877   1.107  1.00  0.00     0.000 C 
BRANCH   2   3
ATOM      3  C   UNL     1     -23.812  55.346   0.972  1.00  0.00     0.000 C 
BRANCH   3   4
ATOM      4  C   UNL     1     -23.089  56.227   1.999  1.00  0.00     0.000 C 
BRANCH   4   5
ATOM      5  C   UNL     1     -22.168  57.278   1.348  1.00  0.00     0.000 C 
BRANCH   5   6
ATOM      6  C   UNL     1     -22.585  57.719  -0.070  1.00  0.00     0.000 C 
BRANCH   6   7
ATOM      7  C   UNL     1     -23.591  58.883  -0.063  1.00  0.00     0.000 C 
BRANCH   7   8
ATOM      8  C   UNL     1     -23.553  59.690   1.243  1.00  0.00     0.000 C 
BRANCH   8   9
ATOM      9  C   UNL     1     -24.949  59.868   1.863  1.00  0.00     0.000 C 
BRANCH   9  10
ATOM     10  C   UNL     1     -24.853  60.159   3.365  1.00  0.00     0.000 C 
BRANCH  10  11
ATOM     11  C   UNL     1     -24.011  59.094   4.086  1.00  0.00     0.000 C 
BRANCH  11  12
ATOM     12  C   UNL     1     -23.632  59.527   5.520  1.00  0.00     0.000 C 
BRANCH  12  13
ATOM     13  C   UNL     1     -22.121  59.443   5.805  1.00  0.00     0.006 C 
BRANCH  13  14
ATOM     14  C   UNL     1     -21.804  59.157   7.279  1.00  0.00     0.053 C 
BRANCH  14  15
ATOM     15  C   UNL     1     -20.585  58.297   7.398  1.00  0.00     0.041 C 
ATOM     16  O   UNL     1     -19.566  58.540   6.696  1.00  0.00    -0.550 OA
ATOM     17  O   UNL     1     -20.582  57.212   8.265  1.00  0.00    -0.550 OA
ENDBRANCH  14  15
ENDBRANCH  13  14
ENDBRANCH  12  13
ENDBRANCH  11  12
ENDBRANCH  10  11
ENDBRANCH   9  10
ENDBRANCH   8   9
ENDBRANCH   7   8
ENDBRANCH   6   7
ENDBRANCH   5   6
ENDBRANCH   4   5
ENDBRANCH   3   4
ENDBRANCH   2   3
ENDBRANCH   1   2
BRANCH   1  18
ATOM     18  C   UNL     1     -22.547  54.001  -1.276  1.00  0.00     0.000 C 
BRANCH  18  19
ATOM     19  C   UNL     1     -21.338  54.642  -1.973  1.00  0.00     0.000 C 
BRANCH  19  20
ATOM     20  C   UNL     1     -21.745  55.633  -3.081  1.00  0.00     0.000 C 
BRANCH  20  21
ATOM     21  C   UNL     1     -20.604  56.603  -3.424  1.00  0.00     0.000 C 
BRANCH  21  22
ATOM     22  C   UNL     1     -19.241  55.888  -3.529  1.00  0.00     0.000 C 
BRANCH  22  23
ATOM     23  C   UNL     1     -18.059  56.869  -3.567  1.00  0.00     0.000 C 
BRANCH  23  24
ATOM     24  C   UNL     1     -16.846  56.337  -2.782  1.00  0.00    -0.000 C 
BRANCH  24  25
ATOM     25  C   UNL     1     -16.836  54.804  -2.672  1.00  0.00    -0.000 C 
BRANCH  25  26
ATOM     26  C   UNL     1     -16.670  54.319  -1.221  1.00  0.00    -0.000 C 
BRANCH  26  27
ATOM     27  C   UNL     1     -18.020  53.989  -0.559  1.00  0.00    -0.000 C 
BRANCH  27  28
ATOM     28  C   UNL     1     -18.344  54.930   0.615  1.00  0.00    -0.000 C 
BRANCH  28  29
ATOM     29  C   UNL     1     -18.874  56.302   0.156  1.00  0.00    -0.000 C 
BRANCH  29  30
ATOM     30  C   UNL     1     -18.121  57.515   0.732  1.00  0.00    -0.000 C 
BRANCH  30  31
ATOM     31  C   UNL     1     -16.607  57.282   0.833  1.00  0.00    -0.003 C 
ATOM     32  C   UNL     1     -15.842  58.599   0.748  1.00  0.00     0.004 C 
ENDBRANCH  30  31
ENDBRANCH  29  30
ENDBRANCH  28  29
ENDBRANCH  27  28
ENDBRANCH  26  27
ENDBRANCH  25  26
ENDBRANCH  24  25
ENDBRANCH  23  24
ENDBRANCH  22  23
ENDBRANCH  21  22
ENDBRANCH  20  21
ENDBRANCH  19  20
ENDBRANCH  18  19
ENDBRANCH   1  18
TORSDOF 28
ENDMDL
MODEL 6
REMARK VINA RESULT:    -5.171      2.333      4.474
REMARK INTER + INTRA:         -18.954
REMARK INTER:                 -14.110
REMARK INTRA:                  -4.845
REMARK UNBOUND:                -5.319
REMARK SMILES CCCCCCCCCCCCCCCCCCCCCCCCCCCCCC(=O)[O-]
REMARK SMILES IDX 16 1 17 2 18 3 19 4 20 5 21 6 22 7 23 8 24 9 25 10 26 11
REMARK SMILES IDX 27 12 28 13 29 14 30 15 31 16 32 17 15 18 14 19 13 20 12 21
REMARK SMILES IDX 11 22 10 23 9 24 8 25 7 26 6 27 5 28 4 29 3 30 2 31 1 32
REMARK H PARENT
REMARK Flexibility Score: inf
ROOT
ATOM      1  C   UNL     1     -17.091  55.843  -3.199  1.00  0.00     0.000 C 
ENDROOT
BRANCH   1   2
ATOM      2  C   UNL     1     -18.388  56.620  -3.459  1.00  0.00     0.000 C 
BRANCH   2   3
ATOM      3  C   UNL     1     -19.605  55.835  -2.950  1.00  0.00     0.000 C 
BRANCH   3   4
ATOM      4  C   UNL     1     -20.913  56.573  -3.268  1.00  0.00     0.000 C 
BRANCH   4   5
ATOM      5  C   UNL     1     -22.007  56.340  -2.208  1.00  0.00     0.000 C 
BRANCH   5   6
ATOM      6  C   UNL     1     -22.900  55.107  -2.453  1.00  0.00     0.000 C 
BRANCH   6   7
ATOM      7  C   UNL     1     -22.417  53.858  -1.696  1.00  0.00     0.000 C 
BRANCH   7   8
ATOM      8  C   UNL     1     -21.968  54.173  -0.261  1.00  0.00     0.000 C 
BRANCH   8   9
ATOM      9  C   UNL     1     -22.973  53.675   0.790  1.00  0.00     0.000 C 
BRANCH   9  10
ATOM     10  C   UNL     1     -23.973  54.776   1.163  1.00  0.00     0.000 C 
BRANCH  10  11
ATOM     11  C   UNL     1     -25.415  54.351   0.842  1.00  0.00     0.000 C 
BRANCH  11  12
ATOM     12  C   UNL     1     -26.228  55.497   0.199  1.00  0.00     0.000 C 
BRANCH  12  13
ATOM     13  C   UNL     1     -25.377  56.734  -0.142  1.00  0.00     0.006 C 
BRANCH  13  14
ATOM     14  C   UNL     1     -26.212  57.915  -0.653  1.00  0.00     0.053 C 
BRANCH  14  15
ATOM     15  C   UNL     1     -25.684  58.406  -1.965  1.00  0.00     0.041 C 
ATOM     16  O   UNL     1     -24.453  58.634  -2.107  1.00  0.00    -0.550 OA
ATOM     17  O   UNL     1     -26.555  58.634  -3.022  1.00  0.00    -0.550 OA
ENDBRANCH  14  15
ENDBRANCH  13  14
ENDBRANCH  12  13
ENDBRANCH  11  12
ENDBRANCH  10  11
ENDBRANCH   9  10
ENDBRANCH   8   9
ENDBRANCH   7   8
ENDBRANCH   6   7
ENDBRANCH   5   6
ENDBRANCH   4   5
ENDBRANCH   3   4
ENDBRANCH   2   3
ENDBRANCH   1   2
BRANCH   1  18
ATOM     18  C   UNL     1     -17.378  54.505  -2.503  1.00  0.00     0.000 C 
BRANCH  18  19
ATOM     19  C   UNL     1     -16.645  54.374  -1.160  1.00  0.00     0.000 C 
BRANCH  19  20
ATOM     20  C   UNL     1     -17.541  54.720   0.045  1.00  0.00     0.000 C 
BRANCH  20  21
ATOM     21  C   UNL     1     -17.094  56.021   0.730  1.00  0.00     0.000 C 
BRANCH  21  22
ATOM     22  C   UNL     1     -18.078  57.183   0.475  1.00  0.00     0.000 C 
BRANCH  22  23
ATOM     23  C   UNL     1     -19.547  56.741   0.556  1.00  0.00     0.000 C 
BRANCH  23  24
ATOM     24  C   UNL     1     -20.378  57.675   1.457  1.00  0.00    -0.000 C 
BRANCH  24  25
ATOM     25  C   UNL     1     -21.891  57.526   1.232  1.00  0.00    -0.000 C 
BRANCH  25  26
ATOM     26  C   UNL     1     -22.582  58.875   0.971  1.00  0.00    -0.000 C 
BRANCH  26  27
ATOM     27  C   UNL     1     -23.212  59.466   2.246  1.00  0.00    -0.000 C 
BRANCH  27  28
ATOM     28  C   UNL     1     -23.598  58.380   3.266  1.00  0.00    -0.000 C 
BRANCH  28  29
ATOM     29  C   UNL     1     -23.780  58.934   4.692  1.00  0.00    -0.000 C 
BRANCH  29  30
ATOM     30  C   UNL     1     -22.832  60.086   5.068  1.00  0.00    -0.000 C 
BRANCH  30  31
ATOM     31  C   UNL     1     -21.446  59.596   5.512  1.00  0.00    -0.003 C 
ATOM     32  C   UNL     1     -21.487  59.052   6.937  1.00  0.00     0.004 C 
ENDBRANCH  30  31
ENDBRANCH  29  30
ENDBRANCH  28  29
ENDBRANCH  27  28
ENDBRANCH  26  27
ENDBRANCH  25  26
ENDBRANCH  24  25
ENDBRANCH  23  24
ENDBRANCH  22  23
ENDBRANCH  21  22
ENDBRANCH  20  21
ENDBRANCH  19  20
ENDBRANCH  18  19
ENDBRANCH   1  18
TORSDOF 28
ENDMDL
MODEL 7
REMARK VINA RESULT:    -5.148      3.079      5.142
REMARK INTER + INTRA:         -18.894
REMARK INTER:                 -13.932
REMARK INTRA:                  -4.962
REMARK UNBOUND:                -5.319
REMARK SMILES CCCCCCCCCCCCCCCCCCCCCCCCCCCCCC(=O)[O-]
REMARK SMILES IDX 16 1 17 2 18 3 19 4 20 5 21 6 22 7 23 8 24 9 25 10 26 11
REMARK SMILES IDX 27 12 28 13 29 14 30 15 31 16 32 17 15 18 14 19 13 20 12 21
REMARK SMILES IDX 11 22 10 23 9 24 8 25 7 26 6 27 5 28 4 29 3 30 2 31 1 32
REMARK H PARENT
REMARK Flexibility Score: inf
ROOT
ATOM      1  C   UNL     1     -16.695  55.512  -2.870  1.00  0.00     0.000 C 
ENDROOT
BRANCH   1   2
ATOM      2  C   UNL     1     -17.807  56.400  -3.444  1.00  0.00     0.000 C 
BRANCH   2   3
ATOM      3  C   UNL     1     -19.152  56.089  -2.774  1.00  0.00     0.000 C 
BRANCH   3   4
ATOM      4  C   UNL     1     -20.323  56.629  -3.605  1.00  0.00     0.000 C 
BRANCH   4   5
ATOM      5  C   UNL     1     -21.696  56.152  -3.091  1.00  0.00     0.000 C 
BRANCH   5   6
ATOM      6  C   UNL     1     -22.220  56.897  -1.848  1.00  0.00     0.000 C 
BRANCH   6   7
ATOM      7  C   UNL     1     -23.583  57.570  -2.084  1.00  0.00     0.000 C 
BRANCH   7   8
ATOM      8  C   UNL     1     -24.765  56.646  -1.750  1.00  0.00     0.000 C 
BRANCH   8   9
ATOM      9  C   UNL     1     -24.995  56.511  -0.236  1.00  0.00     0.000 C 
BRANCH   9  10
ATOM     10  C   UNL     1     -24.963  55.042   0.198  1.00  0.00     0.000 C 
BRANCH  10  11
ATOM     11  C   UNL     1     -23.884  54.799   1.266  1.00  0.00     0.000 C 
BRANCH  11  12
ATOM     12  C   UNL     1     -23.013  53.565   0.941  1.00  0.00     0.000 C 
BRANCH  12  13
ATOM     13  C   UNL     1     -22.297  53.663  -0.419  1.00  0.00     0.006 C 
BRANCH  13  14
ATOM     14  C   UNL     1     -20.772  53.541  -0.304  1.00  0.00     0.053 C 
BRANCH  14  15
ATOM     15  C   UNL     1     -20.249  52.535  -1.281  1.00  0.00     0.041 C 
ATOM     16  O   UNL     1     -20.367  52.733  -2.520  1.00  0.00    -0.550 OA
ATOM     17  O   UNL     1     -19.652  51.367  -0.823  1.00  0.00    -0.550 OA
ENDBRANCH  14  15
ENDBRANCH  13  14
ENDBRANCH  12  13
ENDBRANCH  11  12
ENDBRANCH  10  11
ENDBRANCH   9  10
ENDBRANCH   8   9
ENDBRANCH   7   8
ENDBRANCH   6   7
ENDBRANCH   5   6
ENDBRANCH   4   5
ENDBRANCH   3   4
ENDBRANCH   2   3
ENDBRANCH   1   2
BRANCH   1  18
ATOM     18  C   UNL     1     -17.279  54.369  -2.029  1.00  0.00     0.000 C 
BRANCH  18  19
ATOM     19  C   UNL     1     -16.619  54.262  -0.646  1.00  0.00     0.000 C 
BRANCH  19  20
ATOM     20  C   UNL     1     -17.477  54.883   0.473  1.00  0.00     0.000 C 
BRANCH  20  21
ATOM     21  C   UNL     1     -17.002  56.298   0.836  1.00  0.00     0.000 C 
BRANCH  21  22
ATOM     22  C   UNL     1     -18.064  57.371   0.519  1.00  0.00     0.000 C 
BRANCH  22  23
ATOM     23  C   UNL     1     -19.498  56.871   0.756  1.00  0.00     0.000 C 
BRANCH  23  24
ATOM     24  C   UNL     1     -20.303  57.836   1.646  1.00  0.00    -0.000 C 
BRANCH  24  25
ATOM     25  C   UNL     1     -21.810  57.535   1.638  1.00  0.00    -0.000 C 
BRANCH  25  26
ATOM     26  C   UNL     1     -22.655  58.774   1.295  1.00  0.00    -0.000 C 
BRANCH  26  27
ATOM     27  C   UNL     1     -22.853  59.701   2.508  1.00  0.00    -0.000 C 
BRANCH  27  28
ATOM     28  C   UNL     1     -23.657  59.029   3.636  1.00  0.00    -0.000 C 
BRANCH  28  29
ATOM     29  C   UNL     1     -22.993  59.175   5.018  1.00  0.00    -0.000 C 
BRANCH  29  30
ATOM     30  C   UNL     1     -21.510  59.585   4.985  1.00  0.00    -0.000 C 
BRANCH  30  31
ATOM     31  C   UNL     1     -20.945  59.891   6.379  1.00  0.00    -0.003 C 
ATOM     32  C   UNL     1     -20.999  58.658   7.276  1.00  0.00     0.004 C 
ENDBRANCH  30  31
ENDBRANCH  29  30
ENDBRANCH  28  29
ENDBRANCH  27  28
ENDBRANCH  26  27
ENDBRANCH  25  26
ENDBRANCH  24  25
ENDBRANCH  23  24
ENDBRANCH  22  23
ENDBRANCH  21  22
ENDBRANCH  20  21
ENDBRANCH  19  20
ENDBRANCH  18  19
ENDBRANCH   1  18
TORSDOF 28
ENDMDL
MODEL 8
REMARK VINA RESULT:    -5.139      2.406      6.218
REMARK INTER + INTRA:         -18.871
REMARK INTER:                 -13.251
REMARK INTRA:                  -5.619
REMARK UNBOUND:                -5.319
REMARK SMILES CCCCCCCCCCCCCCCCCCCCCCCCCCCCCC(=O)[O-]
REMARK SMILES IDX 16 1 17 2 18 3 19 4 20 5 21 6 22 7 23 8 24 9 25 10 26 11
REMARK SMILES IDX 27 12 28 13 29 14 30 15 31 16 32 17 15 18 14 19 13 20 12 21
REMARK SMILES IDX 11 22 10 23 9 24 8 25 7 26 6 27 5 28 4 29 3 30 2 31 1 32
REMARK H PARENT
REMARK Flexibility Score: inf
ROOT
ATOM      1  C   UNL     1     -22.715  55.578  -2.546  1.00  0.00     0.000 C 
ENDROOT
BRANCH   1   2
ATOM      2  C   UNL     1     -21.637  56.668  -2.484  1.00  0.00     0.000 C 
BRANCH   2   3
ATOM      3  C   UNL     1     -20.594  56.467  -3.591  1.00  0.00     0.000 C 
BRANCH   3   4
ATOM      4  C   UNL     1     -19.168  56.625  -3.045  1.00  0.00     0.000 C 
BRANCH   4   5
ATOM      5  C   UNL     1     -18.217  55.508  -3.515  1.00  0.00     0.000 C 
BRANCH   5   6
ATOM      6  C   UNL     1     -18.887  54.140  -3.752  1.00  0.00     0.000 C 
BRANCH   6   7
ATOM      7  C   UNL     1     -18.883  53.247  -2.500  1.00  0.00     0.000 C 
BRANCH   7   8
ATOM      8  C   UNL     1     -20.258  53.178  -1.818  1.00  0.00     0.000 C 
BRANCH   8   9
ATOM      9  C   UNL     1     -20.177  53.447  -0.306  1.00  0.00     0.000 C 
BRANCH   9  10
ATOM     10  C   UNL     1     -19.334  54.693  -0.012  1.00  0.00     0.000 C 
BRANCH  10  11
ATOM     11  C   UNL     1     -17.940  54.311   0.512  1.00  0.00     0.000 C 
BRANCH  11  12
ATOM     12  C   UNL     1     -16.876  55.374   0.159  1.00  0.00     0.000 C 
BRANCH  12  13
ATOM     13  C   UNL     1     -17.384  56.820   0.309  1.00  0.00     0.006 C 
BRANCH  13  14
ATOM     14  C   UNL     1     -16.466  57.691   1.178  1.00  0.00     0.053 C 
BRANCH  14  15
ATOM     15  C   UNL     1     -15.591  58.552   0.322  1.00  0.00     0.041 C 
ATOM     16  O   UNL     1     -15.451  58.293  -0.904  1.00  0.00    -0.550 OA
ATOM     17  O   UNL     1     -14.911  59.624   0.883  1.00  0.00    -0.550 OA
ENDBRANCH  14  15
ENDBRANCH  13  14
ENDBRANCH  12  13
ENDBRANCH  11  12
ENDBRANCH  10  11
ENDBRANCH   9  10
ENDBRANCH   8   9
ENDBRANCH   7   8
ENDBRANCH   6   7
ENDBRANCH   5   6
ENDBRANCH   4   5
ENDBRANCH   3   4
ENDBRANCH   2   3
ENDBRANCH   1   2
BRANCH   1  18
ATOM     18  C   UNL     1     -24.113  56.170  -2.327  1.00  0.00     0.000 C 
BRANCH  18  19
ATOM     19  C   UNL     1     -25.193  55.088  -2.182  1.00  0.00     0.000 C 
BRANCH  19  20
ATOM     20  C   UNL     1     -26.239  55.430  -1.104  1.00  0.00     0.000 C 
BRANCH  20  21
ATOM     21  C   UNL     1     -25.578  55.873   0.210  1.00  0.00     0.000 C 
BRANCH  21  22
ATOM     22  C   UNL     1     -24.786  54.730   0.880  1.00  0.00     0.000 C 
BRANCH  22  23
ATOM     23  C   UNL     1     -23.293  55.056   1.033  1.00  0.00     0.000 C 
BRANCH  23  24
ATOM     24  C   UNL     1     -23.066  56.514   1.477  1.00  0.00    -0.000 C 
BRANCH  24  25
ATOM     25  C   UNL     1     -21.625  56.991   1.235  1.00  0.00    -0.000 C 
BRANCH  25  26
ATOM     26  C   UNL     1     -21.388  58.424   1.741  1.00  0.00    -0.000 C 
BRANCH  26  27
ATOM     27  C   UNL     1     -22.430  58.854   2.790  1.00  0.00    -0.000 C 
BRANCH  27  28
ATOM     28  C   UNL     1     -22.812  60.339   2.663  1.00  0.00    -0.000 C 
BRANCH  28  29
ATOM     29  C   UNL     1     -23.450  60.682   1.304  1.00  0.00    -0.000 C 
BRANCH  29  30
ATOM     30  C   UNL     1     -24.711  59.872   0.955  1.00  0.00    -0.000 C 
BRANCH  30  31
ATOM     31  C   UNL     1     -24.649  59.246  -0.445  1.00  0.00    -0.003 C 
ATOM     32  C   UNL     1     -23.375  59.661  -1.175  1.00  0.00     0.004 C 
ENDBRANCH  30  31
ENDBRANCH  29  30
ENDBRANCH  28  29
ENDBRANCH  27  28
ENDBRANCH  26  27
ENDBRANCH  25  26
ENDBRANCH  24  25
ENDBRANCH  23  24
ENDBRANCH  22  23
ENDBRANCH  21  22
ENDBRANCH  20  21
ENDBRANCH  19  20
ENDBRANCH  18  19
ENDBRANCH   1  18
TORSDOF 28
ENDMDL
MODEL 9
REMARK VINA RESULT:    -5.123      2.323      5.457
REMARK INTER + INTRA:         -18.828
REMARK INTER:                 -13.706
REMARK INTRA:                  -5.122
REMARK UNBOUND:                -5.319
REMARK SMILES CCCCCCCCCCCCCCCCCCCCCCCCCCCCCC(=O)[O-]
REMARK SMILES IDX 16 1 17 2 18 3 19 4 20 5 21 6 22 7 23 8 24 9 25 10 26 11
REMARK SMILES IDX 27 12 28 13 29 14 30 15 31 16 32 17 15 18 14 19 13 20 12 21
REMARK SMILES IDX 11 22 10 23 9 24 8 25 7 26 6 27 5 28 4 29 3 30 2 31 1 32
REMARK H PARENT
REMARK Flexibility Score: inf
ROOT
ATOM      1  C   UNL     1     -19.284  56.637  -3.054  1.00  0.00     0.000 C 
ENDROOT
BRANCH   1   2
ATOM      2  C   UNL     1     -18.149  56.227  -4.001  1.00  0.00     0.000 C 
BRANCH   2   3
ATOM      3  C   UNL     1     -16.995  55.582  -3.223  1.00  0.00     0.000 C 
BRANCH   3   4
ATOM      4  C   UNL     1     -16.999  56.027  -1.754  1.00  0.00     0.000 C 
BRANCH   4   5
ATOM      5  C   UNL     1     -17.115  54.848  -0.768  1.00  0.00     0.000 C 
BRANCH   5   6
ATOM      6  C   UNL     1     -18.064  55.086   0.422  1.00  0.00     0.000 C 
BRANCH   6   7
ATOM      7  C   UNL     1     -18.556  56.541   0.514  1.00  0.00     0.000 C 
BRANCH   7   8
ATOM      8  C   UNL     1     -20.089  56.649   0.499  1.00  0.00     0.000 C 
BRANCH   8   9
ATOM      9  C   UNL     1     -20.608  57.741   1.449  1.00  0.00     0.000 C 
BRANCH   9  10
ATOM     10  C   UNL     1     -22.062  57.474   1.854  1.00  0.00     0.000 C 
BRANCH  10  11
ATOM     11  C   UNL     1     -22.755  58.762   2.327  1.00  0.00     0.000 C 
BRANCH  11  12
ATOM     12  C   UNL     1     -23.623  58.526   3.583  1.00  0.00     0.000 C 
BRANCH  12  13
ATOM     13  C   UNL     1     -23.217  59.404   4.781  1.00  0.00     0.006 C 
BRANCH  13  14
ATOM     14  C   UNL     1     -21.698  59.576   4.911  1.00  0.00     0.053 C 
BRANCH  14  15
ATOM     15  C   UNL     1     -21.241  59.208   6.288  1.00  0.00     0.041 C 
ATOM     16  O   UNL     1     -22.070  59.154   7.237  1.00  0.00    -0.550 OA
ATOM     17  O   UNL     1     -19.899  58.950   6.529  1.00  0.00    -0.550 OA
ENDBRANCH  14  15
ENDBRANCH  13  14
ENDBRANCH  12  13
ENDBRANCH  11  12
ENDBRANCH  10  11
ENDBRANCH   9  10
ENDBRANCH   8   9
ENDBRANCH   7   8
ENDBRANCH   6   7
ENDBRANCH   5   6
ENDBRANCH   4   5
ENDBRANCH   3   4
ENDBRANCH   2   3
ENDBRANCH   1   2
BRANCH   1  18
ATOM     18  C   UNL     1     -20.651  56.238  -3.626  1.00  0.00     0.000 C 
BRANCH  18  19
ATOM     19  C   UNL     1     -21.381  55.216  -2.743  1.00  0.00     0.000 C 
BRANCH  19  20
ATOM     20  C   UNL     1     -20.469  54.060  -2.291  1.00  0.00     0.000 C 
BRANCH  20  21
ATOM     21  C   UNL     1     -21.025  53.349  -1.047  1.00  0.00     0.000 C 
BRANCH  21  22
ATOM     22  C   UNL     1     -22.334  53.993  -0.543  1.00  0.00     0.000 C 
BRANCH  22  23
ATOM     23  C   UNL     1     -22.799  53.412   0.801  1.00  0.00     0.000 C 
BRANCH  23  24
ATOM     24  C   UNL     1     -23.830  54.323   1.494  1.00  0.00    -0.000 C 
BRANCH  24  25
ATOM     25  C   UNL     1     -24.453  55.352   0.536  1.00  0.00    -0.000 C 
BRANCH  25  26
ATOM     26  C   UNL     1     -25.898  54.994   0.147  1.00  0.00    -0.000 C 
BRANCH  26  27
ATOM     27  C   UNL     1     -26.843  56.206   0.237  1.00  0.00    -0.000 C 
BRANCH  27  28
ATOM     28  C   UNL     1     -26.108  57.495   0.645  1.00  0.00    -0.000 C 
BRANCH  28  29
ATOM     29  C   UNL     1     -26.473  58.701  -0.240  1.00  0.00    -0.000 C 
BRANCH  29  30
ATOM     30  C   UNL     1     -25.594  58.877  -1.491  1.00  0.00    -0.000 C 
BRANCH  30  31
ATOM     31  C   UNL     1     -24.121  59.147  -1.152  1.00  0.00    -0.003 C 
ATOM     32  C   UNL     1     -23.220  58.049  -1.706  1.00  0.00     0.004 C 
ENDBRANCH  30  31
ENDBRANCH  29  30
ENDBRANCH  28  29
ENDBRANCH  27  28
ENDBRANCH  26  27
ENDBRANCH  25  26
ENDBRANCH  24  25
ENDBRANCH  23  24
ENDBRANCH  22  23
ENDBRANCH  21  22
ENDBRANCH  20  21
ENDBRANCH  19  20
ENDBRANCH  18  19
ENDBRANCH   1  18
TORSDOF 28
ENDMDL
