MODEL 1
REMARK VINA RESULT:    -3.575      0.000      0.000
REMARK INTER + INTRA:          -5.166
REMARK INTER:                  -5.039
REMARK INTRA:                  -0.127
REMARK UNBOUND:                -0.127
REMARK SMILES CC1=CCC(=C(C)C)C(=O)CC(C)=CCC1
REMARK SMILES IDX 12 1 14 2 13 3 15 4 16 5 2 6 1 7 3 8 11 10 9 11 10 12 5 13
REMARK SMILES IDX 6 14 7 15 8 16 4 17
REMARK H PARENT
REMARK Flexibility Score: 60.00
ROOT
ATOM      1  C   UNL     1       5.449  -1.289  -1.023  1.00  0.00    -0.070 C 
ATOM      2  C   UNL     1       6.777  -1.291  -0.762  1.00  0.00    -0.027 C 
ATOM      3  C   UNL     1       4.505  -0.951   0.102  1.00  0.00     0.039 C 
ENDROOT
BRANCH   2   4
ATOM      4  C   UNL     1       7.862  -1.460  -1.795  1.00  0.00     0.032 C 
BRANCH   4   5
ATOM      5  C   UNL     1       8.428  -2.882  -1.726  1.00  0.00     0.034 C 
BRANCH   5   6
ATOM      6  C   UNL     1       8.682  -3.473  -3.099  1.00  0.00    -0.077 C 
ATOM      7  C   UNL     1       9.967  -3.125  -3.808  1.00  0.00     0.039 C 
ATOM      8  C   UNL     1       7.784  -4.243  -3.762  1.00  0.00    -0.023 CG0
ATOM      9  G   UNL     1       6.458  -4.770  -3.242  1.00  0.00     0.000 G0
ENDBRANCH   5   6
ENDBRANCH   4   5
ENDBRANCH   2   4
BRANCH   1  10
ATOM     10  C   UNL     1       4.867  -1.629  -2.380  1.00  0.00     0.111 C 
BRANCH  10  11
ATOM     11  C   UNL     1       4.612  -3.109  -2.530  1.00  0.00     0.163 C 
ATOM     12  O   UNL     1       3.857  -3.650  -1.676  1.00  0.00    -0.294 OA
BRANCH  11  13
ATOM     13  C   UNL     1       5.219  -3.956  -3.609  1.00  0.00    -0.002 C 
ATOM     14  C   UNL     1       4.586  -4.108  -4.814  1.00  0.00    -0.069 C 
ATOM     15  C   UNL     1       3.425  -3.225  -5.211  1.00  0.00     0.039 C 
ATOM     16  C   UNL     1       5.039  -5.127  -5.835  1.00  0.00     0.039 C 
BRANCH  13  17
ATOM     17  C   UNL     1       6.454  -4.778  -3.259  1.00  0.00     0.066 CG0
ATOM     18  G   UNL     1       7.788  -4.234  -3.739  1.00  0.00     0.000 G0
ENDBRANCH  13  17
ENDBRANCH  11  13
ENDBRANCH  10  11
ENDBRANCH   1  10
TORSDOF 0
ENDMDL
MODEL 2
REMARK VINA RESULT:    -3.400      1.832      3.829
REMARK INTER + INTRA:          -4.919
REMARK INTER:                  -5.134
REMARK INTRA:                   0.216
REMARK UNBOUND:                -0.127
REMARK SMILES CC1=CCC(=C(C)C)C(=O)CC(C)=CCC1
REMARK SMILES IDX 12 1 14 2 13 3 15 4 16 5 2 6 1 7 3 8 11 10 9 11 10 12 5 13
REMARK SMILES IDX 6 14 7 15 8 16 4 17
REMARK H PARENT
REMARK Flexibility Score: 60.00
ROOT
ATOM      1  C   UNL     1       5.401  -1.385  -0.831  1.00  0.00    -0.070 C 
ATOM      2  C   UNL     1       4.601  -1.372  -1.922  1.00  0.00    -0.027 C 
ATOM      3  C   UNL     1       4.896  -0.725   0.426  1.00  0.00     0.039 C 
ENDROOT
BRANCH   2   4
ATOM      4  C   UNL     1       4.882  -2.106  -3.209  1.00  0.00     0.032 C 
BRANCH   4   5
ATOM      5  C   UNL     1       4.445  -3.569  -3.079  1.00  0.00     0.034 C 
BRANCH   5   6
ATOM      6  C   UNL     1       5.436  -4.529  -3.709  1.00  0.00    -0.077 C 
ATOM      7  C   UNL     1       5.556  -4.561  -5.211  1.00  0.00     0.039 C 
ATOM      8  C   UNL     1       6.174  -5.417  -2.998  1.00  0.00    -0.023 CG0
ATOM      9  G   UNL     1       6.269  -5.539  -1.487  1.00  0.00     0.000 G0
ENDBRANCH   5   6
ENDBRANCH   4   5
ENDBRANCH   2   4
BRANCH   1  10
ATOM     10  C   UNL     1       6.781  -2.010  -0.816  1.00  0.00     0.111 C 
BRANCH  10  11
ATOM     11  C   UNL     1       6.782  -3.360  -0.141  1.00  0.00     0.163 C 
ATOM     12  O   UNL     1       6.335  -3.412   1.037  1.00  0.00    -0.294 OA
BRANCH  11  13
ATOM     13  C   UNL     1       7.299  -4.614  -0.782  1.00  0.00    -0.002 C 
ATOM     14  C   UNL     1       8.645  -4.844  -0.877  1.00  0.00    -0.069 C 
ATOM     15  C   UNL     1       9.643  -4.010  -0.106  1.00  0.00     0.039 C 
ATOM     16  C   UNL     1       9.210  -5.971  -1.712  1.00  0.00     0.039 C 
BRANCH  13  17
ATOM     17  C   UNL     1       6.293  -5.525  -1.477  1.00  0.00     0.066 CG0
ATOM     18  G   UNL     1       6.194  -5.397  -2.987  1.00  0.00     0.000 G0
ENDBRANCH  13  17
ENDBRANCH  11  13
ENDBRANCH  10  11
ENDBRANCH   1  10
TORSDOF 0
ENDMDL
MODEL 3
REMARK VINA RESULT:    -3.343      2.261      4.033
REMARK INTER + INTRA:          -4.839
REMARK INTER:                  -4.945
REMARK INTRA:                   0.106
REMARK UNBOUND:                -0.127
REMARK SMILES CC1=CCC(=C(C)C)C(=O)CC(C)=CCC1
REMARK SMILES IDX 12 1 14 2 13 3 15 4 16 5 2 6 1 7 3 8 11 10 9 11 10 12 5 13
REMARK SMILES IDX 6 14 7 15 8 16 4 17
REMARK H PARENT
REMARK Flexibility Score: 60.00
ROOT
ATOM      1  C   UNL     1       4.851  -4.376  -3.041  1.00  0.00    -0.070 C 
ATOM      2  C   UNL     1       5.465  -5.564  -2.838  1.00  0.00    -0.027 C 
ATOM      3  C   UNL     1       3.393  -4.259  -2.679  1.00  0.00     0.039 C 
ENDROOT
BRANCH   2   4
ATOM      4  C   UNL     1       6.942  -5.815  -3.004  1.00  0.00     0.032 C 
BRANCH   4   5
ATOM      5  C   UNL     1       7.582  -6.077  -1.636  1.00  0.00     0.034 C 
BRANCH   5   6
ATOM      6  C   UNL     1       8.532  -4.972  -1.218  1.00  0.00    -0.077 C 
ATOM      7  C   UNL     1      10.007  -5.154  -1.472  1.00  0.00     0.039 C 
ATOM      8  C   UNL     1       8.138  -3.854  -0.559  1.00  0.00    -0.023 CG0
ATOM      9  G   UNL     1       6.717  -3.423  -0.241  1.00  0.00     0.000 G0
ENDBRANCH   5   6
ENDBRANCH   4   5
ENDBRANCH   2   4
BRANCH   1  10
ATOM     10  C   UNL     1       5.550  -3.167  -3.631  1.00  0.00     0.111 C 
BRANCH  10  11
ATOM     11  C   UNL     1       6.394  -2.449  -2.606  1.00  0.00     0.163 C 
ATOM     12  O   UNL     1       7.446  -1.888  -3.021  1.00  0.00    -0.294 OA
BRANCH  11  13
ATOM     13  C   UNL     1       6.063  -2.389  -1.144  1.00  0.00    -0.002 C 
ATOM     14  C   UNL     1       5.330  -1.349  -0.638  1.00  0.00    -0.069 C 
ATOM     15  C   UNL     1       4.593  -0.390  -1.545  1.00  0.00     0.039 C 
ATOM     16  C   UNL     1       5.172  -1.128   0.849  1.00  0.00     0.039 C 
BRANCH  13  17
ATOM     17  C   UNL     1       6.716  -3.414  -0.224  1.00  0.00     0.066 CG0
ATOM     18  G   UNL     1       8.127  -3.844  -0.582  1.00  0.00     0.000 G0
ENDBRANCH  13  17
ENDBRANCH  11  13
ENDBRANCH  10  11
ENDBRANCH   1  10
TORSDOF 0
ENDMDL
MODEL 4
REMARK VINA RESULT:    -3.320      2.193      4.206
REMARK INTER + INTRA:          -4.806
REMARK INTER:                  -5.096
REMARK INTRA:                   0.290
REMARK UNBOUND:                -0.127
REMARK SMILES CC1=CCC(=C(C)C)C(=O)CC(C)=CCC1
REMARK SMILES IDX 12 1 14 2 13 3 15 4 16 5 2 6 1 7 3 8 11 10 9 11 10 12 5 13
REMARK SMILES IDX 6 14 7 15 8 16 4 17
REMARK H PARENT
REMARK Flexibility Score: 60.00
ROOT
ATOM      1  C   UNL     1       7.572  -1.493  -2.078  1.00  0.00    -0.070 C 
ATOM      2  C   UNL     1       6.664  -0.809  -1.344  1.00  0.00    -0.027 C 
ATOM      3  C   UNL     1       9.011  -1.466  -1.632  1.00  0.00     0.039 C 
ENDROOT
BRANCH   2   4
ATOM      4  C   UNL     1       5.173  -0.846  -1.558  1.00  0.00     0.032 C 
BRANCH   4   5
ATOM      5  C   UNL     1       4.591  -2.124  -0.943  1.00  0.00     0.034 C 
BRANCH   5   6
ATOM      6  C   UNL     1       5.340  -2.564   0.300  1.00  0.00    -0.077 C 
ATOM      7  C   UNL     1       5.301  -1.675   1.518  1.00  0.00     0.039 C 
ATOM      8  C   UNL     1       6.106  -3.681   0.357  1.00  0.00    -0.023 CG0
ATOM      9  G   UNL     1       6.259  -4.752  -0.708  1.00  0.00     0.000 G0
ENDBRANCH   5   6
ENDBRANCH   4   5
ENDBRANCH   2   4
BRANCH   1  10
ATOM     10  C   UNL     1       7.217  -2.266  -3.332  1.00  0.00     0.111 C 
BRANCH  10  11
ATOM     11  C   UNL     1       6.733  -3.660  -3.018  1.00  0.00     0.163 C 
ATOM     12  O   UNL     1       5.847  -4.144  -3.773  1.00  0.00    -0.294 OA
BRANCH  11  13
ATOM     13  C   UNL     1       7.229  -4.475  -1.859  1.00  0.00    -0.002 C 
ATOM     14  C   UNL     1       8.459  -5.074  -1.905  1.00  0.00    -0.069 C 
ATOM     15  C   UNL     1       9.470  -4.718  -2.971  1.00  0.00     0.039 C 
ATOM     16  C   UNL     1       8.898  -6.084  -0.869  1.00  0.00     0.039 C 
BRANCH  13  17
ATOM     17  C   UNL     1       6.255  -4.761  -0.721  1.00  0.00     0.066 CG0
ATOM     18  G   UNL     1       6.109  -3.679   0.333  1.00  0.00     0.000 G0
ENDBRANCH  13  17
ENDBRANCH  11  13
ENDBRANCH  10  11
ENDBRANCH   1  10
TORSDOF 0
ENDMDL
MODEL 5
REMARK VINA RESULT:    -3.226      1.972      3.792
REMARK INTER + INTRA:          -4.673
REMARK INTER:                  -4.726
REMARK INTRA:                   0.053
REMARK UNBOUND:                -0.127
REMARK SMILES CC1=CCC(=C(C)C)C(=O)CC(C)=CCC1
REMARK SMILES IDX 12 1 14 2 13 3 15 4 16 5 2 6 1 7 3 8 11 10 9 11 10 12 5 13
REMARK SMILES IDX 6 14 7 15 8 16 4 17
REMARK H PARENT
REMARK Flexibility Score: 60.00
ROOT
ATOM      1  C   UNL     1       8.964  -2.598  -3.567  1.00  0.00    -0.070 C 
ATOM      2  C   UNL     1       9.113  -1.951  -2.388  1.00  0.00    -0.027 C 
ATOM      3  C   UNL     1       9.965  -2.323  -4.659  1.00  0.00     0.039 C 
ENDROOT
BRANCH   2   4
ATOM      4  C   UNL     1       8.298  -2.214  -1.147  1.00  0.00     0.032 C 
BRANCH   4   5
ATOM      5  C   UNL     1       7.002  -1.399  -1.195  1.00  0.00     0.034 C 
BRANCH   5   6
ATOM      6  C   UNL     1       5.779  -2.232  -0.867  1.00  0.00    -0.077 C 
ATOM      7  C   UNL     1       5.639  -2.792   0.526  1.00  0.00     0.039 C 
ATOM      8  C   UNL     1       4.833  -2.567  -1.779  1.00  0.00    -0.023 CG0
ATOM      9  G   UNL     1       4.724  -2.086  -3.215  1.00  0.00     0.000 G0
ENDBRANCH   5   6
ENDBRANCH   4   5
ENDBRANCH   2   4
BRANCH   1  10
ATOM     10  C   UNL     1       7.833  -3.567  -3.848  1.00  0.00     0.111 C 
BRANCH  10  11
ATOM     11  C   UNL     1       6.727  -2.924  -4.649  1.00  0.00     0.163 C 
ATOM     12  O   UNL     1       7.068  -2.250  -5.660  1.00  0.00    -0.294 OA
BRANCH  11  13
ATOM     13  C   UNL     1       5.272  -3.026  -4.297  1.00  0.00    -0.002 C 
ATOM     14  C   UNL     1       4.430  -3.812  -5.037  1.00  0.00    -0.069 C 
ATOM     15  C   UNL     1       4.962  -4.813  -6.037  1.00  0.00     0.039 C 
ATOM     16  C   UNL     1       2.929  -3.764  -4.863  1.00  0.00     0.039 C 
BRANCH  13  17
ATOM     17  C   UNL     1       4.735  -2.095  -3.216  1.00  0.00     0.066 CG0
ATOM     18  G   UNL     1       4.851  -2.583  -1.783  1.00  0.00     0.000 G0
ENDBRANCH  13  17
ENDBRANCH  11  13
ENDBRANCH  10  11
ENDBRANCH   1  10
TORSDOF 0
ENDMDL
MODEL 6
REMARK VINA RESULT:    -3.163      2.056      3.893
REMARK INTER + INTRA:          -4.585
REMARK INTER:                  -5.060
REMARK INTRA:                   0.475
REMARK UNBOUND:                -0.127
REMARK SMILES CC1=CCC(=C(C)C)C(=O)CC(C)=CCC1
REMARK SMILES IDX 12 1 14 2 13 3 15 4 16 5 2 6 1 7 3 8 11 10 9 11 10 12 5 13
REMARK SMILES IDX 6 14 7 15 8 16 4 17
REMARK H PARENT
REMARK Flexibility Score: 60.00
ROOT
ATOM      1  C   UNL     1       4.440  -3.152  -2.806  1.00  0.00    -0.070 C 
ATOM      2  C   UNL     1       4.370  -2.169  -1.880  1.00  0.00    -0.027 C 
ATOM      3  C   UNL     1       3.618  -4.396  -2.584  1.00  0.00     0.039 C 
ENDROOT
BRANCH   2   4
ATOM      4  C   UNL     1       5.004  -0.808  -2.013  1.00  0.00     0.032 C 
BRANCH   4   5
ATOM      5  C   UNL     1       6.060  -0.616  -0.920  1.00  0.00     0.034 C 
BRANCH   5   6
ATOM      6  C   UNL     1       6.175  -1.821  -0.006  1.00  0.00    -0.077 C 
ATOM      7  C   UNL     1       5.318  -1.870   1.234  1.00  0.00     0.039 C 
ATOM      8  C   UNL     1       7.061  -2.829  -0.201  1.00  0.00    -0.023 CG0
ATOM      9  G   UNL     1       7.982  -3.031  -1.391  1.00  0.00     0.000 G0
ENDBRANCH   5   6
ENDBRANCH   4   5
ENDBRANCH   2   4
BRANCH   1  10
ATOM     10  C   UNL     1       5.315  -3.074  -4.041  1.00  0.00     0.111 C 
BRANCH  10  11
ATOM     11  C   UNL     1       6.781  -3.004  -3.689  1.00  0.00     0.163 C 
ATOM     12  O   UNL     1       7.503  -2.244  -4.390  1.00  0.00    -0.294 OA
BRANCH  11  13
ATOM     13  C   UNL     1       7.413  -3.797  -2.584  1.00  0.00    -0.002 C 
ATOM     14  C   UNL     1       7.327  -5.164  -2.570  1.00  0.00    -0.069 C 
ATOM     15  C   UNL     1       6.856  -5.936  -3.781  1.00  0.00     0.039 C 
ATOM     16  C   UNL     1       7.744  -5.981  -1.368  1.00  0.00     0.039 C 
BRANCH  13  17
ATOM     17  C   UNL     1       7.989  -3.032  -1.398  1.00  0.00     0.066 CG0
ATOM     18  G   UNL     1       7.069  -2.838  -0.206  1.00  0.00     0.000 G0
ENDBRANCH  13  17
ENDBRANCH  11  13
ENDBRANCH  10  11
ENDBRANCH   1  10
TORSDOF 0
ENDMDL
MODEL 7
REMARK VINA RESULT:    -3.138      2.123      3.969
REMARK INTER + INTRA:          -4.549
REMARK INTER:                  -4.835
REMARK INTRA:                   0.286
REMARK UNBOUND:                -0.127
REMARK SMILES CC1=CCC(=C(C)C)C(=O)CC(C)=CCC1
REMARK SMILES IDX 12 1 14 2 13 3 15 4 16 5 2 6 1 7 3 8 11 10 9 11 10 12 5 13
REMARK SMILES IDX 6 14 7 15 8 16 4 17
REMARK H PARENT
REMARK Flexibility Score: 60.00
ROOT
ATOM      1  C   UNL     1       8.256  -2.509  -2.211  1.00  0.00    -0.070 C 
ATOM      2  C   UNL     1       8.970  -3.574  -1.780  1.00  0.00    -0.027 C 
ATOM      3  C   UNL     1       8.569  -1.159  -1.619  1.00  0.00     0.039 C 
ENDROOT
BRANCH   2   4
ATOM      4  C   UNL     1       8.893  -4.962  -2.364  1.00  0.00     0.032 C 
BRANCH   4   5
ATOM      5  C   UNL     1       8.021  -5.853  -1.473  1.00  0.00     0.034 C 
BRANCH   5   6
ATOM      6  C   UNL     1       6.620  -6.033  -2.024  1.00  0.00    -0.077 C 
ATOM      7  C   UNL     1       6.382  -7.109  -3.053  1.00  0.00     0.039 C 
ATOM      8  C   UNL     1       5.577  -5.231  -1.697  1.00  0.00    -0.023 CG0
ATOM      9  G   UNL     1       5.553  -4.126  -0.656  1.00  0.00     0.000 G0
ENDBRANCH   5   6
ENDBRANCH   4   5
ENDBRANCH   2   4
BRANCH   1  10
ATOM     10  C   UNL     1       7.148  -2.610  -3.240  1.00  0.00     0.111 C 
BRANCH  10  11
ATOM     11  C   UNL     1       5.784  -2.441  -2.617  1.00  0.00     0.163 C 
ATOM     12  O   UNL     1       4.850  -2.061  -3.375  1.00  0.00    -0.294 OA
BRANCH  11  13
ATOM     13  C   UNL     1       5.494  -2.676  -1.164  1.00  0.00    -0.002 C 
ATOM     14  C   UNL     1       5.352  -1.621  -0.303  1.00  0.00    -0.069 C 
ATOM     15  C   UNL     1       5.196  -0.205  -0.810  1.00  0.00     0.039 C 
ATOM     16  C   UNL     1       5.291  -1.812   1.196  1.00  0.00     0.039 C 
BRANCH  13  17
ATOM     17  C   UNL     1       5.544  -4.110  -0.650  1.00  0.00     0.066 CG0
ATOM     18  G   UNL     1       5.567  -5.206  -1.701  1.00  0.00     0.000 G0
ENDBRANCH  13  17
ENDBRANCH  11  13
ENDBRANCH  10  11
ENDBRANCH   1  10
TORSDOF 0
ENDMDL
MODEL 8
REMARK VINA RESULT:    -3.110      1.681      3.796
REMARK INTER + INTRA:          -4.510
REMARK INTER:                  -4.756
REMARK INTRA:                   0.246
REMARK UNBOUND:                -0.127
REMARK SMILES CC1=CCC(=C(C)C)C(=O)CC(C)=CCC1
REMARK SMILES IDX 12 1 14 2 13 3 15 4 16 5 2 6 1 7 3 8 11 10 9 11 10 12 5 13
REMARK SMILES IDX 6 14 7 15 8 16 4 17
REMARK H PARENT
REMARK Flexibility Score: 60.00
ROOT
ATOM      1  C   UNL     1       8.311  -3.271  -2.536  1.00  0.00    -0.070 C 
ATOM      2  C   UNL     1       8.126  -1.937  -2.416  1.00  0.00    -0.027 C 
ATOM      3  C   UNL     1       8.769  -3.807  -3.869  1.00  0.00     0.039 C 
ENDROOT
BRANCH   2   4
ATOM      4  C   UNL     1       7.815  -1.219  -1.127  1.00  0.00     0.032 C 
BRANCH   4   5
ATOM      5  C   UNL     1       6.356  -0.752  -1.130  1.00  0.00     0.034 C 
BRANCH   5   6
ATOM      6  C   UNL     1       5.456  -1.651  -0.307  1.00  0.00    -0.077 C 
ATOM      7  C   UNL     1       5.270  -1.341   1.157  1.00  0.00     0.039 C 
ATOM      8  C   UNL     1       4.861  -2.768  -0.796  1.00  0.00    -0.023 CG0
ATOM      9  G   UNL     1       4.853  -3.254  -2.234  1.00  0.00     0.000 G0
ENDBRANCH   5   6
ENDBRANCH   4   5
ENDBRANCH   2   4
BRANCH   1  10
ATOM     10  C   UNL     1       8.063  -4.253  -1.409  1.00  0.00     0.111 C 
BRANCH  10  11
ATOM     11  C   UNL     1       6.723  -4.934  -1.539  1.00  0.00     0.163 C 
ATOM     12  O   UNL     1       6.501  -5.914  -0.777  1.00  0.00    -0.294 OA
BRANCH  11  13
ATOM     13  C   UNL     1       5.671  -4.526  -2.528  1.00  0.00    -0.002 C 
ATOM     14  C   UNL     1       5.559  -5.169  -3.731  1.00  0.00    -0.069 C 
ATOM     15  C   UNL     1       6.277  -6.472  -3.998  1.00  0.00     0.039 C 
ATOM     16  C   UNL     1       4.675  -4.646  -4.841  1.00  0.00     0.039 C 
BRANCH  13  17
ATOM     17  C   UNL     1       4.861  -3.269  -2.228  1.00  0.00     0.066 CG0
ATOM     18  G   UNL     1       4.882  -2.776  -0.792  1.00  0.00     0.000 G0
ENDBRANCH  13  17
ENDBRANCH  11  13
ENDBRANCH  10  11
ENDBRANCH   1  10
TORSDOF 0
ENDMDL
MODEL 9
REMARK VINA RESULT:    -3.080      1.966      4.469
REMARK INTER + INTRA:          -4.468
REMARK INTER:                  -4.339
REMARK INTRA:                  -0.129
REMARK UNBOUND:                -0.127
REMARK SMILES CC1=CCC(=C(C)C)C(=O)CC(C)=CCC1
REMARK SMILES IDX 12 1 14 2 13 3 15 4 16 5 2 6 1 7 3 8 11 10 9 11 10 12 5 13
REMARK SMILES IDX 6 14 7 15 8 16 4 17
REMARK H PARENT
REMARK Flexibility Score: 60.00
ROOT
ATOM      1  C   UNL     1       7.113  -6.043  -1.915  1.00  0.00    -0.070 C 
ATOM      2  C   UNL     1       6.856  -6.610  -3.116  1.00  0.00    -0.027 C 
ATOM      3  C   UNL     1       7.304  -6.951  -0.727  1.00  0.00     0.039 C 
ENDROOT
BRANCH   2   4
ATOM      4  C   UNL     1       6.784  -5.868  -4.426  1.00  0.00     0.032 C 
BRANCH   4   5
ATOM      5  C   UNL     1       5.320  -5.612  -4.800  1.00  0.00     0.034 C 
BRANCH   5   6
ATOM      6  C   UNL     1       5.083  -4.195  -5.284  1.00  0.00    -0.077 C 
ATOM      7  C   UNL     1       5.438  -3.850  -6.709  1.00  0.00     0.039 C 
ATOM      8  C   UNL     1       4.635  -3.195  -4.485  1.00  0.00    -0.023 CG0
ATOM      9  G   UNL     1       4.163  -3.304  -3.047  1.00  0.00     0.000 G0
ENDBRANCH   5   6
ENDBRANCH   4   5
ENDBRANCH   2   4
BRANCH   1  10
ATOM     10  C   UNL     1       7.197  -4.545  -1.702  1.00  0.00     0.111 C 
BRANCH  10  11
ATOM     11  C   UNL     1       5.883  -3.967  -1.235  1.00  0.00     0.163 C 
ATOM     12  O   UNL     1       5.385  -4.452  -0.182  1.00  0.00    -0.294 OA
BRANCH  11  13
ATOM     13  C   UNL     1       5.142  -2.882  -1.960  1.00  0.00    -0.002 C 
ATOM     14  C   UNL     1       5.232  -1.581  -1.544  1.00  0.00    -0.069 C 
ATOM     15  C   UNL     1       6.277  -1.143  -0.544  1.00  0.00     0.039 C 
ATOM     16  C   UNL     1       4.330  -0.499  -2.095  1.00  0.00     0.039 C 
BRANCH  13  17
ATOM     17  C   UNL     1       4.156  -3.296  -3.046  1.00  0.00     0.066 CG0
ATOM     18  G   UNL     1       4.647  -3.200  -4.479  1.00  0.00     0.000 G0
ENDBRANCH  13  17
ENDBRANCH  11  13
ENDBRANCH  10  11
ENDBRANCH   1  10
TORSDOF 0
ENDMDL
