MODEL 1
REMARK VINA RESULT:    -4.070      0.000      0.000
REMARK INTER + INTRA:          -6.803
REMARK INTER:                  -5.974
REMARK INTRA:                  -0.829
REMARK UNBOUND:                -0.829
REMARK SMILES O=C([O-])CCCCCCCC(=O)[O-]
REMARK SMILES IDX 7 1 6 2 5 3 4 4 2 5 1 6 3 7 8 8 9 9 10 10 11 11 12 12 13 13
REMARK H PARENT
REMARK Flexibility Score: inf
ROOT
ATOM      1  C   UNL     1       5.752  11.100  31.466  1.00  0.00     0.000 C 
ENDROOT
BRANCH   1   2
ATOM      2  C   UNL     1       6.841  10.669  32.456  1.00  0.00     0.000 C 
BRANCH   2   3
ATOM      3  C   UNL     1       8.191  10.497  31.751  1.00  0.00     0.006 C 
BRANCH   3   4
ATOM      4  C   UNL     1       8.028  10.553  30.229  1.00  0.00     0.053 C 
BRANCH   4   5
ATOM      5  C   UNL     1       8.773   9.430  29.581  1.00  0.00     0.041 C 
ATOM      6  O   UNL     1       8.759   9.299  28.330  1.00  0.00    -0.550 OA
ATOM      7  O   UNL     1       9.522   8.553  30.357  1.00  0.00    -0.550 OA
ENDBRANCH   4   5
ENDBRANCH   3   4
ENDBRANCH   2   3
ENDBRANCH   1   2
BRANCH   1   8
ATOM      8  C   UNL     1       4.430  10.375  31.750  1.00  0.00     0.000 C 
BRANCH   8   9
ATOM      9  C   UNL     1       3.876   9.627  30.525  1.00  0.00     0.006 C 
BRANCH   9  10
ATOM     10  C   UNL     1       4.785   8.490  30.024  1.00  0.00     0.053 C 
BRANCH  10  11
ATOM     11  C   UNL     1       5.257   8.704  28.617  1.00  0.00     0.041 C 
ATOM     12  O   UNL     1       5.750   7.750  27.959  1.00  0.00    -0.550 OA
ATOM     13  O   UNL     1       5.122   9.951  28.021  1.00  0.00    -0.550 OA
ENDBRANCH  10  11
ENDBRANCH   9  10
ENDBRANCH   8   9
ENDBRANCH   1   8
TORSDOF 8
ENDMDL
MODEL 2
REMARK VINA RESULT:    -3.966      1.605      2.640
REMARK INTER + INTRA:          -6.650
REMARK INTER:                  -6.188
REMARK INTRA:                  -0.462
REMARK UNBOUND:                -0.829
REMARK SMILES O=C([O-])CCCCCCCC(=O)[O-]
REMARK SMILES IDX 7 1 6 2 5 3 4 4 2 5 1 6 3 7 8 8 9 9 10 10 11 11 12 12 13 13
REMARK H PARENT
REMARK Flexibility Score: inf
ROOT
ATOM      1  C   UNL     1       8.389  10.667  31.654  1.00  0.00     0.000 C 
ENDROOT
BRANCH   1   2
ATOM      2  C   UNL     1       9.084   9.340  31.324  1.00  0.00     0.000 C 
BRANCH   2   3
ATOM      3  C   UNL     1       8.813   8.922  29.874  1.00  0.00     0.006 C 
BRANCH   3   4
ATOM      4  C   UNL     1      10.025   9.210  28.983  1.00  0.00     0.053 C 
BRANCH   4   5
ATOM      5  C   UNL     1       9.586   9.751  27.660  1.00  0.00     0.041 C 
ATOM      6  O   UNL     1       9.208   8.969  26.749  1.00  0.00    -0.550 OA
ATOM      7  O   UNL     1       9.550  11.123  27.448  1.00  0.00    -0.550 OA
ENDBRANCH   4   5
ENDBRANCH   3   4
ENDBRANCH   2   3
ENDBRANCH   1   2
BRANCH   1   8
ATOM      8  C   UNL     1       7.121  10.434  32.487  1.00  0.00     0.000 C 
BRANCH   8   9
ATOM      9  C   UNL     1       5.873  11.103  31.887  1.00  0.00     0.006 C 
BRANCH   9  10
ATOM     10  C   UNL     1       4.717  10.127  31.600  1.00  0.00     0.053 C 
BRANCH  10  11
ATOM     11  C   UNL     1       4.845   9.454  30.267  1.00  0.00     0.041 C 
ATOM     12  O   UNL     1       5.534   9.979  29.353  1.00  0.00    -0.550 OA
ATOM     13  O   UNL     1       4.228   8.230  30.045  1.00  0.00    -0.550 OA
ENDBRANCH  10  11
ENDBRANCH   9  10
ENDBRANCH   8   9
ENDBRANCH   1   8
TORSDOF 8
ENDMDL
MODEL 3
REMARK VINA RESULT:    -3.861      1.405      3.594
REMARK INTER + INTRA:          -6.496
REMARK INTER:                  -5.700
REMARK INTRA:                  -0.796
REMARK UNBOUND:                -0.829
REMARK SMILES O=C([O-])CCCCCCCC(=O)[O-]
REMARK SMILES IDX 7 1 6 2 5 3 4 4 2 5 1 6 3 7 8 8 9 9 10 10 11 11 12 12 13 13
REMARK H PARENT
REMARK Flexibility Score: inf
ROOT
ATOM      1  C   UNL     1       4.662   9.984  30.289  1.00  0.00     0.000 C 
ENDROOT
BRANCH   1   2
ATOM      2  C   UNL     1       4.692   8.465  30.076  1.00  0.00     0.000 C 
BRANCH   2   3
ATOM      3  C   UNL     1       5.743   8.076  29.030  1.00  0.00     0.006 C 
BRANCH   3   4
ATOM      4  C   UNL     1       6.012   9.233  28.063  1.00  0.00     0.053 C 
BRANCH   4   5
ATOM      5  C   UNL     1       7.278   8.997  27.303  1.00  0.00     0.041 C 
ATOM      6  O   UNL     1       7.566   7.842  26.895  1.00  0.00    -0.550 OA
ATOM      7  O   UNL     1       8.118  10.063  27.004  1.00  0.00    -0.550 OA
ENDBRANCH   4   5
ENDBRANCH   3   4
ENDBRANCH   2   3
ENDBRANCH   1   2
BRANCH   1   8
ATOM      8  C   UNL     1       4.840  10.335  31.773  1.00  0.00     0.000 C 
BRANCH   8   9
ATOM      9  C   UNL     1       6.178  11.035  32.072  1.00  0.00     0.006 C 
BRANCH   9  10
ATOM     10  C   UNL     1       7.366  10.068  32.233  1.00  0.00     0.053 C 
BRANCH  10  11
ATOM     11  C   UNL     1       8.321  10.127  31.080  1.00  0.00     0.041 C 
ATOM     12  O   UNL     1       8.196  11.014  30.195  1.00  0.00    -0.550 OA
ATOM     13  O   UNL     1       9.370   9.219  30.999  1.00  0.00    -0.550 OA
ENDBRANCH  10  11
ENDBRANCH   9  10
ENDBRANCH   8   9
ENDBRANCH   1   8
TORSDOF 8
ENDMDL
MODEL 4
REMARK VINA RESULT:    -3.845      1.239      3.888
REMARK INTER + INTRA:          -6.473
REMARK INTER:                  -5.789
REMARK INTRA:                  -0.684
REMARK UNBOUND:                -0.829
REMARK SMILES O=C([O-])CCCCCCCC(=O)[O-]
REMARK SMILES IDX 7 1 6 2 5 3 4 4 2 5 1 6 3 7 8 8 9 9 10 10 11 11 12 12 13 13
REMARK H PARENT
REMARK Flexibility Score: inf
ROOT
ATOM      1  C   UNL     1       7.360  10.811  32.135  1.00  0.00     0.000 C 
ENDROOT
BRANCH   1   2
ATOM      2  C   UNL     1       6.154  10.924  31.194  1.00  0.00     0.000 C 
BRANCH   2   3
ATOM      3  C   UNL     1       5.017   9.999  31.642  1.00  0.00     0.006 C 
BRANCH   3   4
ATOM      4  C   UNL     1       4.055   9.710  30.486  1.00  0.00     0.053 C 
BRANCH   4   5
ATOM      5  C   UNL     1       4.792   9.119  29.327  1.00  0.00     0.041 C 
ATOM      6  O   UNL     1       5.401   8.025  29.454  1.00  0.00    -0.550 OA
ATOM      7  O   UNL     1       4.767   9.754  28.091  1.00  0.00    -0.550 OA
ENDBRANCH   4   5
ENDBRANCH   3   4
ENDBRANCH   2   3
ENDBRANCH   1   2
BRANCH   1   8
ATOM      8  C   UNL     1       8.671  10.725  31.341  1.00  0.00     0.000 C 
BRANCH   8   9
ATOM      9  C   UNL     1       8.937   9.324  30.763  1.00  0.00     0.006 C 
BRANCH   9  10
ATOM     10  C   UNL     1       9.574   9.336  29.362  1.00  0.00     0.053 C 
BRANCH  10  11
ATOM     11  C   UNL     1       8.556   9.380  28.263  1.00  0.00     0.041 C 
ATOM     12  O   UNL     1       8.009  10.468  27.945  1.00  0.00    -0.550 OA
ATOM     13  O   UNL     1       8.234   8.220  27.568  1.00  0.00    -0.550 OA
ENDBRANCH  10  11
ENDBRANCH   9  10
ENDBRANCH   8   9
ENDBRANCH   1   8
TORSDOF 8
ENDMDL
MODEL 5
REMARK VINA RESULT:    -3.837      3.016      5.669
REMARK INTER + INTRA:          -6.460
REMARK INTER:                  -5.622
REMARK INTRA:                  -0.839
REMARK UNBOUND:                -0.829
REMARK SMILES O=C([O-])CCCCCCCC(=O)[O-]
REMARK SMILES IDX 7 1 6 2 5 3 4 4 2 5 1 6 3 7 8 8 9 9 10 10 11 11 12 12 13 13
REMARK H PARENT
REMARK Flexibility Score: inf
ROOT
ATOM      1  C   UNL     1      10.598   7.475  26.488  1.00  0.00     0.000 C 
ENDROOT
BRANCH   1   2
ATOM      2  C   UNL     1       9.562   8.554  26.147  1.00  0.00     0.000 C 
BRANCH   2   3
ATOM      3  C   UNL     1       8.223   7.925  25.746  1.00  0.00     0.006 C 
BRANCH   3   4
ATOM      4  C   UNL     1       7.211   8.006  26.893  1.00  0.00     0.053 C 
BRANCH   4   5
ATOM      5  C   UNL     1       6.889   6.639  27.405  1.00  0.00     0.041 C 
ATOM      6  O   UNL     1       7.228   6.302  28.569  1.00  0.00    -0.550 OA
ATOM      7  O   UNL     1       6.173   5.750  26.612  1.00  0.00    -0.550 OA
ENDBRANCH   4   5
ENDBRANCH   3   4
ENDBRANCH   2   3
ENDBRANCH   1   2
BRANCH   1   8
ATOM      8  C   UNL     1      10.849   7.410  28.001  1.00  0.00     0.000 C 
BRANCH   8   9
ATOM      9  C   UNL     1      10.572   8.744  28.717  1.00  0.00     0.006 C 
BRANCH   9  10
ATOM     10  C   UNL     1       9.590   8.627  29.897  1.00  0.00     0.053 C 
BRANCH  10  11
ATOM     11  C   UNL     1       8.599   9.751  29.939  1.00  0.00     0.041 C 
ATOM     12  O   UNL     1       8.988  10.946  29.845  1.00  0.00    -0.550 OA
ATOM     13  O   UNL     1       7.242   9.478  30.052  1.00  0.00    -0.550 OA
ENDBRANCH  10  11
ENDBRANCH   9  10
ENDBRANCH   8   9
ENDBRANCH   1   8
TORSDOF 8
ENDMDL
MODEL 6
REMARK VINA RESULT:    -3.824      3.612      5.321
REMARK INTER + INTRA:          -6.441
REMARK INTER:                  -5.550
REMARK INTRA:                  -0.891
REMARK UNBOUND:                -0.829
REMARK SMILES O=C([O-])CCCCCCCC(=O)[O-]
REMARK SMILES IDX 7 1 6 2 5 3 4 4 2 5 1 6 3 7 8 8 9 9 10 10 11 11 12 12 13 13
REMARK H PARENT
REMARK Flexibility Score: inf
ROOT
ATOM      1  C   UNL     1       9.858   8.342  25.793  1.00  0.00     0.000 C 
ENDROOT
BRANCH   1   2
ATOM      2  C   UNL     1      10.932   7.489  26.479  1.00  0.00     0.000 C 
BRANCH   2   3
ATOM      3  C   UNL     1      10.821   7.584  28.005  1.00  0.00     0.006 C 
BRANCH   3   4
ATOM      4  C   UNL     1      10.303   8.960  28.435  1.00  0.00     0.053 C 
BRANCH   4   5
ATOM      5  C   UNL     1       9.293   8.821  29.529  1.00  0.00     0.041 C 
ATOM      6  O   UNL     1       9.657   8.499  30.690  1.00  0.00    -0.550 OA
ATOM      7  O   UNL     1       7.954   9.094  29.277  1.00  0.00    -0.550 OA
ENDBRANCH   4   5
ENDBRANCH   3   4
ENDBRANCH   2   3
ENDBRANCH   1   2
BRANCH   1   8
ATOM      8  C   UNL     1       8.710   7.467  25.270  1.00  0.00     0.000 C 
BRANCH   8   9
ATOM      9  C   UNL     1       7.452   7.529  26.155  1.00  0.00     0.006 C 
BRANCH   9  10
ATOM     10  C   UNL     1       6.900   6.147  26.552  1.00  0.00     0.053 C 
BRANCH  10  11
ATOM     11  C   UNL     1       7.762   5.446  27.558  1.00  0.00     0.041 C 
ATOM     12  O   UNL     1       7.698   5.756  28.777  1.00  0.00    -0.550 OA
ATOM     13  O   UNL     1       8.615   4.428  27.153  1.00  0.00    -0.550 OA
ENDBRANCH  10  11
ENDBRANCH   9  10
ENDBRANCH   8   9
ENDBRANCH   1   8
TORSDOF 8
ENDMDL
MODEL 7
REMARK VINA RESULT:    -3.818      1.790      2.896
REMARK INTER + INTRA:          -6.433
REMARK INTER:                  -5.753
REMARK INTRA:                  -0.680
REMARK UNBOUND:                -0.829
REMARK SMILES O=C([O-])CCCCCCCC(=O)[O-]
REMARK SMILES IDX 7 1 6 2 5 3 4 4 2 5 1 6 3 7 8 8 9 9 10 10 11 11 12 12 13 13
REMARK H PARENT
REMARK Flexibility Score: inf
ROOT
ATOM      1  C   UNL     1       4.894   8.954  30.295  1.00  0.00     0.000 C 
ENDROOT
BRANCH   1   2
ATOM      2  C   UNL     1       4.879  10.038  31.380  1.00  0.00     0.000 C 
BRANCH   2   3
ATOM      3  C   UNL     1       6.134  10.915  31.301  1.00  0.00     0.006 C 
BRANCH   3   4
ATOM      4  C   UNL     1       7.262  10.340  32.164  1.00  0.00     0.053 C 
BRANCH   4   5
ATOM      5  C   UNL     1       8.447   9.998  31.318  1.00  0.00     0.041 C 
ATOM      6  O   UNL     1       8.686  10.651  30.269  1.00  0.00    -0.550 OA
ATOM      7  O   UNL     1       9.315   8.988  31.713  1.00  0.00    -0.550 OA
ENDBRANCH   4   5
ENDBRANCH   3   4
ENDBRANCH   2   3
ENDBRANCH   1   2
BRANCH   1   8
ATOM      8  C   UNL     1       5.131   9.566  28.908  1.00  0.00     0.000 C 
BRANCH   8   9
ATOM      9  C   UNL     1       5.896   8.629  27.957  1.00  0.00     0.006 C 
BRANCH   9  10
ATOM     10  C   UNL     1       7.213   9.220  27.422  1.00  0.00     0.053 C 
BRANCH  10  11
ATOM     11  C   UNL     1       8.350   8.245  27.480  1.00  0.00     0.041 C 
ATOM     12  O   UNL     1       9.046   8.017  26.456  1.00  0.00    -0.550 OA
ATOM     13  O   UNL     1       8.662   7.611  28.677  1.00  0.00    -0.550 OA
ENDBRANCH  10  11
ENDBRANCH   9  10
ENDBRANCH   8   9
ENDBRANCH   1   8
TORSDOF 8
ENDMDL
MODEL 8
REMARK VINA RESULT:    -3.803      2.410      3.968
REMARK INTER + INTRA:          -6.411
REMARK INTER:                  -5.946
REMARK INTRA:                  -0.466
REMARK UNBOUND:                -0.829
REMARK SMILES O=C([O-])CCCCCCCC(=O)[O-]
REMARK SMILES IDX 7 1 6 2 5 3 4 4 2 5 1 6 3 7 8 8 9 9 10 10 11 11 12 12 13 13
REMARK H PARENT
REMARK Flexibility Score: inf
ROOT
ATOM      1  C   UNL     1       9.455   8.888  30.474  1.00  0.00     0.000 C 
ENDROOT
BRANCH   1   2
ATOM      2  C   UNL     1       8.799   9.480  29.220  1.00  0.00     0.000 C 
BRANCH   2   3
ATOM      3  C   UNL     1       9.855   9.908  28.195  1.00  0.00     0.006 C 
BRANCH   3   4
ATOM      4  C   UNL     1       9.512   9.380  26.799  1.00  0.00     0.053 C 
BRANCH   4   5
ATOM      5  C   UNL     1      10.189   8.070  26.553  1.00  0.00     0.041 C 
ATOM      6  O   UNL     1       9.720   7.263  25.710  1.00  0.00    -0.550 OA
ATOM      7  O   UNL     1      11.366   7.759  27.223  1.00  0.00    -0.550 OA
ENDBRANCH   4   5
ENDBRANCH   3   4
ENDBRANCH   2   3
ENDBRANCH   1   2
BRANCH   1   8
ATOM      8  C   UNL     1       8.798   9.434  31.750  1.00  0.00     0.000 C 
BRANCH   8   9
ATOM      9  C   UNL     1       7.914  10.667  31.494  1.00  0.00     0.006 C 
BRANCH   9  10
ATOM     10  C   UNL     1       6.668  10.741  32.396  1.00  0.00     0.053 C 
BRANCH  10  11
ATOM     11  C   UNL     1       5.408  10.369  31.675  1.00  0.00     0.041 C 
ATOM     12  O   UNL     1       4.290  10.751  32.109  1.00  0.00    -0.550 OA
ATOM     13  O   UNL     1       5.472   9.626  30.502  1.00  0.00    -0.550 OA
ENDBRANCH  10  11
ENDBRANCH   9  10
ENDBRANCH   8   9
ENDBRANCH   1   8
TORSDOF 8
ENDMDL
MODEL 9
REMARK VINA RESULT:    -3.774      2.020      3.953
REMARK INTER + INTRA:          -6.368
REMARK INTER:                  -5.770
REMARK INTRA:                  -0.598
REMARK UNBOUND:                -0.829
REMARK SMILES O=C([O-])CCCCCCCC(=O)[O-]
REMARK SMILES IDX 7 1 6 2 5 3 4 4 2 5 1 6 3 7 8 8 9 9 10 10 11 11 12 12 13 13
REMARK H PARENT
REMARK Flexibility Score: inf
ROOT
ATOM      1  C   UNL     1       9.520   8.857  29.969  1.00  0.00     0.000 C 
ENDROOT
BRANCH   1   2
ATOM      2  C   UNL     1       9.128   9.267  31.394  1.00  0.00     0.000 C 
BRANCH   2   3
ATOM      3  C   UNL     1       8.309  10.563  31.390  1.00  0.00     0.006 C 
BRANCH   3   4
ATOM      4  C   UNL     1       7.087  10.445  32.306  1.00  0.00     0.053 C 
BRANCH   4   5
ATOM      5  C   UNL     1       5.836  10.327  31.496  1.00  0.00     0.041 C 
ATOM      6  O   UNL     1       5.890   9.952  30.296  1.00  0.00    -0.550 OA
ATOM      7  O   UNL     1       4.602  10.585  32.082  1.00  0.00    -0.550 OA
ENDBRANCH   4   5
ENDBRANCH   3   4
ENDBRANCH   2   3
ENDBRANCH   1   2
BRANCH   1   8
ATOM      8  C   UNL     1       9.484  10.062  29.019  1.00  0.00     0.000 C 
BRANCH   8   9
ATOM      9  C   UNL     1       9.157   9.676  27.566  1.00  0.00     0.006 C 
BRANCH   9  10
ATOM     10  C   UNL     1       7.650   9.541  27.279  1.00  0.00     0.053 C 
BRANCH  10  11
ATOM     11  C   UNL     1       7.201   8.112  27.209  1.00  0.00     0.041 C 
ATOM     12  O   UNL     1       6.081   7.774  27.675  1.00  0.00    -0.550 OA
ATOM     13  O   UNL     1       8.008   7.159  26.601  1.00  0.00    -0.550 OA
ENDBRANCH  10  11
ENDBRANCH   9  10
ENDBRANCH   8   9
ENDBRANCH   1   8
TORSDOF 8
ENDMDL
