MODEL 1
REMARK VINA RESULT:    -3.396      0.000      0.000
REMARK INTER + INTRA:          -5.550
REMARK INTER:                  -5.183
REMARK INTRA:                  -0.367
REMARK UNBOUND:                -0.367
REMARK SMILES CC1=CCC[C@H](C)C(=O)C[C@H](C(C)C)C(=O)C1
REMARK SMILES IDX 8 1 9 2 6 3 7 4 5 5 4 6 3 7 2 8 1 9 10 11 11 12 15 13 16 14
REMARK SMILES IDX 17 15 12 17 13 18 14 19
REMARK H PARENT
REMARK Flexibility Score: 70.00
ROOT
ATOM      1  C   UNL     1      -7.483  67.847  35.940  1.00  0.00     0.136 C 
ATOM      2  O   UNL     1      -8.462  67.202  36.291  1.00  0.00    -0.299 OA
ENDROOT
BRANCH   1   3
ATOM      3  C   UNL     1      -7.498  69.364  36.024  1.00  0.00     0.053 C 
ATOM      4  C   UNL     1      -8.922  69.941  35.958  1.00  0.00     0.016 C 
BRANCH   3   5
ATOM      5  C   UNL     1      -6.745  69.872  37.272  1.00  0.00     0.015 C 
BRANCH   5   6
ATOM      6  C   UNL     1      -5.544  70.793  36.952  1.00  0.00     0.028 C 
BRANCH   6   7
ATOM      7  C   UNL     1      -4.250  70.168  37.414  1.00  0.00    -0.028 C 
ATOM      8  C   UNL     1      -3.315  69.609  36.609  1.00  0.00    -0.070 CG0
ATOM      9  C   UNL     1      -2.041  69.115  37.247  1.00  0.00     0.039 C 
ATOM     10  G   UNL     1      -3.500  69.422  35.110  1.00  0.00     0.000 G0
ENDBRANCH   6   7
ENDBRANCH   5   6
ENDBRANCH   3   5
ENDBRANCH   1   3
BRANCH   1  11
ATOM     11  C   UNL     1      -6.261  67.105  35.445  1.00  0.00     0.087 C 
BRANCH  11  12
ATOM     12  C   UNL     1      -5.509  67.834  34.296  1.00  0.00     0.066 C 
BRANCH  12  13
ATOM     13  C   UNL     1      -4.053  68.082  34.678  1.00  0.00     0.140 C 
ATOM     14  O   UNL     1      -3.271  67.145  34.618  1.00  0.00    -0.299 OA
BRANCH  13  15
ATOM     15  C   UNL     1      -3.499  69.427  35.114  1.00  0.00     0.106 CG0
ATOM     16  G   UNL     1      -3.330  69.620  36.613  1.00  0.00     0.000 G0
ENDBRANCH  13  15
ENDBRANCH  12  13
BRANCH  12  17
ATOM     17  C   UNL     1      -5.586  67.031  32.958  1.00  0.00    -0.006 C 
ATOM     18  C   UNL     1      -6.292  65.675  33.133  1.00  0.00     0.008 C 
ATOM     19  C   UNL     1      -6.316  67.832  31.864  1.00  0.00     0.008 C 
ENDBRANCH  12  17
ENDBRANCH  11  12
ENDBRANCH   1  11
TORSDOF 1
ENDMDL
MODEL 2
REMARK VINA RESULT:    -3.193      7.806     10.662
REMARK INTER + INTRA:          -5.240
REMARK INTER:                  -5.187
REMARK INTRA:                  -0.053
REMARK UNBOUND:                -0.367
REMARK SMILES CC1=CCC[C@H](C)C(=O)C[C@H](C(C)C)C(=O)C1
REMARK SMILES IDX 8 1 9 2 6 3 7 4 5 5 4 6 3 7 2 8 1 9 10 11 11 12 15 13 16 14
REMARK SMILES IDX 17 15 12 17 13 18 14 19
REMARK H PARENT
REMARK Flexibility Score: 70.00
ROOT
ATOM      1  C   UNL     1      -4.953  71.428  25.407  1.00  0.00     0.136 C 
ATOM      2  O   UNL     1      -4.584  72.495  24.937  1.00  0.00    -0.299 OA
ENDROOT
BRANCH   1   3
ATOM      3  C   UNL     1      -6.431  71.074  25.430  1.00  0.00     0.053 C 
ATOM      4  C   UNL     1      -7.332  72.313  25.297  1.00  0.00     0.016 C 
BRANCH   3   5
ATOM      5  C   UNL     1      -6.778  70.011  24.366  1.00  0.00     0.015 C 
BRANCH   5   6
ATOM      6  C   UNL     1      -7.388  68.713  24.947  1.00  0.00     0.028 C 
BRANCH   6   7
ATOM      7  C   UNL     1      -6.829  67.498  24.247  1.00  0.00    -0.028 C 
ATOM      8  C   UNL     1      -5.937  66.626  24.775  1.00  0.00    -0.070 CG0
ATOM      9  C   UNL     1      -5.564  65.417  23.954  1.00  0.00     0.039 C 
ATOM     10  G   UNL     1      -5.269  66.824  26.128  1.00  0.00     0.000 G0
ENDBRANCH   6   7
ENDBRANCH   5   6
ENDBRANCH   3   5
ENDBRANCH   1   3
BRANCH   1  11
ATOM     11  C   UNL     1      -3.913  70.468  25.940  1.00  0.00     0.087 C 
BRANCH  11  12
ATOM     12  C   UNL     1      -4.504  69.328  26.818  1.00  0.00     0.066 C 
BRANCH  12  13
ATOM     13  C   UNL     1      -4.238  67.967  26.183  1.00  0.00     0.140 C 
ATOM     14  O   UNL     1      -3.135  67.760  25.698  1.00  0.00    -0.299 OA
BRANCH  13  15
ATOM     15  C   UNL     1      -5.249  66.835  26.128  1.00  0.00     0.106 CG0
ATOM     16  G   UNL     1      -5.920  66.611  24.781  1.00  0.00     0.000 G0
ENDBRANCH  13  15
ENDBRANCH  12  13
BRANCH  12  17
ATOM     17  C   UNL     1      -3.934  69.367  28.271  1.00  0.00    -0.006 C 
ATOM     18  C   UNL     1      -2.554  70.046  28.338  1.00  0.00     0.008 C 
ATOM     19  C   UNL     1      -4.891  70.096  29.232  1.00  0.00     0.008 C 
ENDBRANCH  12  17
ENDBRANCH  11  12
ENDBRANCH   1  11
TORSDOF 1
ENDMDL
MODEL 3
REMARK VINA RESULT:    -3.003      1.907      4.115
REMARK INTER + INTRA:          -4.949
REMARK INTER:                  -4.564
REMARK INTRA:                  -0.386
REMARK UNBOUND:                -0.367
REMARK SMILES CC1=CCC[C@H](C)C(=O)C[C@H](C(C)C)C(=O)C1
REMARK SMILES IDX 8 1 9 2 6 3 7 4 5 5 4 6 3 7 2 8 1 9 10 11 11 12 15 13 16 14
REMARK SMILES IDX 17 15 12 17 13 18 14 19
REMARK H PARENT
REMARK Flexibility Score: 70.00
ROOT
ATOM      1  C   UNL     1      -7.287  69.810  36.767  1.00  0.00     0.136 C 
ATOM      2  O   UNL     1      -8.164  70.658  36.670  1.00  0.00    -0.299 OA
ENDROOT
BRANCH   1   3
ATOM      3  C   UNL     1      -7.523  68.403  36.245  1.00  0.00     0.053 C 
ATOM      4  C   UNL     1      -8.958  67.914  36.507  1.00  0.00     0.016 C 
BRANCH   3   5
ATOM      5  C   UNL     1      -7.153  68.280  34.752  1.00  0.00     0.015 C 
BRANCH   5   6
ATOM      6  C   UNL     1      -6.014  67.274  34.465  1.00  0.00     0.028 C 
BRANCH   6   7
ATOM      7  C   UNL     1      -4.899  67.931  33.689  1.00  0.00    -0.028 C 
ATOM      8  C   UNL     1      -3.682  68.261  34.184  1.00  0.00    -0.070 CG0
ATOM      9  C   UNL     1      -2.663  68.830  33.229  1.00  0.00     0.039 C 
ATOM     10  G   UNL     1      -3.307  68.121  35.652  1.00  0.00     0.000 G0
ENDBRANCH   6   7
ENDBRANCH   5   6
ENDBRANCH   3   5
ENDBRANCH   1   3
BRANCH   1  11
ATOM     11  C   UNL     1      -5.966  70.198  37.393  1.00  0.00     0.087 C 
BRANCH  11  12
ATOM     12  C   UNL     1      -4.973  69.011  37.546  1.00  0.00     0.066 C 
BRANCH  12  13
ATOM     13  C   UNL     1      -3.777  69.185  36.614  1.00  0.00     0.140 C 
ATOM     14  O   UNL     1      -3.169  70.245  36.646  1.00  0.00    -0.299 OA
BRANCH  13  15
ATOM     15  C   UNL     1      -3.276  68.120  35.656  1.00  0.00     0.106 CG0
ATOM     16  G   UNL     1      -3.691  68.287  34.202  1.00  0.00     0.000 G0
ENDBRANCH  13  15
ENDBRANCH  12  13
BRANCH  12  17
ATOM     17  C   UNL     1      -4.488  68.853  39.022  1.00  0.00    -0.006 C 
ATOM     18  C   UNL     1      -4.714  70.131  39.850  1.00  0.00     0.008 C 
ATOM     19  C   UNL     1      -5.194  67.678  39.723  1.00  0.00     0.008 C 
ENDBRANCH  12  17
ENDBRANCH  11  12
ENDBRANCH   1  11
TORSDOF 1
ENDMDL
MODEL 4
REMARK VINA RESULT:    -2.992      1.744      3.733
REMARK INTER + INTRA:          -4.933
REMARK INTER:                  -4.520
REMARK INTRA:                  -0.413
REMARK UNBOUND:                -0.367
REMARK SMILES CC1=CCC[C@H](C)C(=O)C[C@H](C(C)C)C(=O)C1
REMARK SMILES IDX 8 1 9 2 6 3 7 4 5 5 4 6 3 7 2 8 1 9 10 11 11 12 15 13 16 14
REMARK SMILES IDX 17 15 12 17 13 18 14 19
REMARK H PARENT
REMARK Flexibility Score: 70.00
ROOT
ATOM      1  C   UNL     1      -6.146  67.799  33.499  1.00  0.00     0.136 C 
ATOM      2  O   UNL     1      -6.591  68.028  32.383  1.00  0.00    -0.299 OA
ENDROOT
BRANCH   1   3
ATOM      3  C   UNL     1      -4.862  67.000  33.660  1.00  0.00     0.053 C 
ATOM      4  C   UNL     1      -4.964  65.597  33.039  1.00  0.00     0.016 C 
BRANCH   3   5
ATOM      5  C   UNL     1      -3.642  67.769  33.111  1.00  0.00     0.015 C 
BRANCH   5   6
ATOM      6  C   UNL     1      -3.270  69.029  33.928  1.00  0.00     0.028 C 
BRANCH   6   7
ATOM      7  C   UNL     1      -2.697  68.648  35.271  1.00  0.00    -0.028 C 
ATOM      8  C   UNL     1      -3.325  68.786  36.464  1.00  0.00    -0.070 CG0
ATOM      9  C   UNL     1      -2.625  68.263  37.693  1.00  0.00     0.039 C 
ATOM     10  G   UNL     1      -4.674  69.470  36.628  1.00  0.00     0.000 G0
ENDBRANCH   6   7
ENDBRANCH   5   6
ENDBRANCH   3   5
ENDBRANCH   1   3
BRANCH   1  11
ATOM     11  C   UNL     1      -6.882  68.341  34.704  1.00  0.00     0.087 C 
BRANCH  11  12
ATOM     12  C   UNL     1      -6.534  67.611  36.032  1.00  0.00     0.066 C 
BRANCH  12  13
ATOM     13  C   UNL     1      -5.842  68.562  37.004  1.00  0.00     0.140 C 
ATOM     14  O   UNL     1      -6.231  68.590  38.162  1.00  0.00    -0.299 OA
BRANCH  13  15
ATOM     15  C   UNL     1      -4.682  69.469  36.634  1.00  0.00     0.106 CG0
ATOM     16  G   UNL     1      -3.337  68.783  36.446  1.00  0.00     0.000 G0
ENDBRANCH  13  15
ENDBRANCH  12  13
BRANCH  12  17
ATOM     17  C   UNL     1      -7.804  66.990  36.697  1.00  0.00    -0.006 C 
ATOM     18  C   UNL     1      -9.004  67.952  36.671  1.00  0.00     0.008 C 
ATOM     19  C   UNL     1      -8.210  65.673  36.011  1.00  0.00     0.008 C 
ENDBRANCH  12  17
ENDBRANCH  11  12
ENDBRANCH   1  11
TORSDOF 1
ENDMDL
MODEL 5
REMARK VINA RESULT:    -2.890      2.706      4.102
REMARK INTER + INTRA:          -4.778
REMARK INTER:                  -4.293
REMARK INTRA:                  -0.485
REMARK UNBOUND:                -0.367
REMARK SMILES CC1=CCC[C@H](C)C(=O)C[C@H](C(C)C)C(=O)C1
REMARK SMILES IDX 8 1 9 2 6 3 7 4 5 5 4 6 3 7 2 8 1 9 10 11 11 12 15 13 16 14
REMARK SMILES IDX 17 15 12 17 13 18 14 19
REMARK H PARENT
REMARK Flexibility Score: 70.00
ROOT
ATOM      1  C   UNL     1      -6.667  69.438  36.299  1.00  0.00     0.136 C 
ATOM      2  O   UNL     1      -7.453  70.198  36.850  1.00  0.00    -0.299 OA
ENDROOT
BRANCH   1   3
ATOM      3  C   UNL     1      -5.215  69.388  36.744  1.00  0.00     0.053 C 
ATOM      4  C   UNL     1      -4.423  70.631  36.303  1.00  0.00     0.016 C 
BRANCH   3   5
ATOM      5  C   UNL     1      -5.093  69.156  38.265  1.00  0.00     0.015 C 
BRANCH   5   6
ATOM      6  C   UNL     1      -4.985  67.667  38.669  1.00  0.00     0.028 C 
BRANCH   6   7
ATOM      7  C   UNL     1      -6.288  67.172  39.249  1.00  0.00    -0.028 C 
ATOM      8  C   UNL     1      -7.067  66.199  38.718  1.00  0.00    -0.070 CG0
ATOM      9  C   UNL     1      -8.290  65.776  39.492  1.00  0.00     0.039 C 
ATOM     10  G   UNL     1      -6.791  65.543  37.373  1.00  0.00     0.000 G0
ENDBRANCH   6   7
ENDBRANCH   5   6
ENDBRANCH   3   5
ENDBRANCH   1   3
BRANCH   1  11
ATOM     11  C   UNL     1      -7.175  68.543  35.191  1.00  0.00     0.087 C 
BRANCH  11  12
ATOM     12  C   UNL     1      -6.566  67.112  35.213  1.00  0.00     0.066 C 
BRANCH  12  13
ATOM     13  C   UNL     1      -7.362  66.202  36.143  1.00  0.00     0.140 C 
ATOM     14  O   UNL     1      -8.539  65.997  35.884  1.00  0.00    -0.299 OA
BRANCH  13  15
ATOM     15  C   UNL     1      -6.786  65.515  37.368  1.00  0.00     0.106 CG0
ATOM     16  G   UNL     1      -7.059  66.196  38.701  1.00  0.00     0.000 G0
ENDBRANCH  13  15
ENDBRANCH  12  13
BRANCH  12  17
ATOM     17  C   UNL     1      -6.499  66.493  33.780  1.00  0.00    -0.006 C 
ATOM     18  C   UNL     1      -6.272  67.560  32.695  1.00  0.00     0.008 C 
ATOM     19  C   UNL     1      -5.384  65.436  33.677  1.00  0.00     0.008 C 
ENDBRANCH  12  17
ENDBRANCH  11  12
ENDBRANCH   1  11
TORSDOF 1
ENDMDL
MODEL 6
REMARK VINA RESULT:    -2.788      9.043     11.187
REMARK INTER + INTRA:          -4.621
REMARK INTER:                  -4.484
REMARK INTRA:                  -0.137
REMARK UNBOUND:                -0.367
REMARK SMILES CC1=CCC[C@H](C)C(=O)C[C@H](C(C)C)C(=O)C1
REMARK SMILES IDX 8 1 9 2 6 3 7 4 5 5 4 6 3 7 2 8 1 9 10 11 11 12 15 13 16 14
REMARK SMILES IDX 17 15 12 17 13 18 14 19
REMARK H PARENT
REMARK Flexibility Score: 70.00
ROOT
ATOM      1  C   UNL     1      -6.888  68.468  24.154  1.00  0.00     0.136 C 
ATOM      2  O   UNL     1      -7.646  68.239  25.086  1.00  0.00    -0.299 OA
ENDROOT
BRANCH   1   3
ATOM      3  C   UNL     1      -6.718  67.448  23.039  1.00  0.00     0.053 C 
ATOM      4  C   UNL     1      -6.199  68.083  21.738  1.00  0.00     0.016 C 
BRANCH   3   5
ATOM      5  C   UNL     1      -5.830  66.266  23.480  1.00  0.00     0.015 C 
BRANCH   5   6
ATOM      6  C   UNL     1      -4.342  66.637  23.684  1.00  0.00     0.028 C 
BRANCH   6   7
ATOM      7  C   UNL     1      -3.962  66.554  25.142  1.00  0.00    -0.028 C 
ATOM      8  C   UNL     1      -3.689  67.609  25.946  1.00  0.00    -0.070 CG0
ATOM      9  C   UNL     1      -3.417  67.332  27.403  1.00  0.00     0.039 C 
ATOM     10  G   UNL     1      -3.608  69.045  25.448  1.00  0.00     0.000 G0
ENDBRANCH   6   7
ENDBRANCH   5   6
ENDBRANCH   3   5
ENDBRANCH   1   3
BRANCH   1  11
ATOM     11  C   UNL     1      -6.146  69.785  24.124  1.00  0.00     0.087 C 
BRANCH  11  12
ATOM     12  C   UNL     1      -5.943  70.422  25.528  1.00  0.00     0.066 C 
BRANCH  12  13
ATOM     13  C   UNL     1      -4.587  70.029  26.106  1.00  0.00     0.140 C 
ATOM     14  O   UNL     1      -4.253  70.512  27.179  1.00  0.00    -0.299 OA
BRANCH  13  15
ATOM     15  C   UNL     1      -3.623  69.059  25.446  1.00  0.00     0.106 CG0
ATOM     16  G   UNL     1      -3.680  67.623  25.946  1.00  0.00     0.000 G0
ENDBRANCH  13  15
ENDBRANCH  12  13
BRANCH  12  17
ATOM     17  C   UNL     1      -6.079  71.977  25.480  1.00  0.00    -0.006 C 
ATOM     18  C   UNL     1      -5.023  72.626  24.568  1.00  0.00     0.008 C 
ATOM     19  C   UNL     1      -7.478  72.403  24.999  1.00  0.00     0.008 C 
ENDBRANCH  12  17
ENDBRANCH  11  12
ENDBRANCH   1  11
TORSDOF 1
ENDMDL
MODEL 7
REMARK VINA RESULT:    -2.749      1.951      3.932
REMARK INTER + INTRA:          -4.562
REMARK INTER:                  -4.646
REMARK INTRA:                   0.085
REMARK UNBOUND:                -0.367
REMARK SMILES CC1=CCC[C@H](C)C(=O)C[C@H](C(C)C)C(=O)C1
REMARK SMILES IDX 8 1 9 2 6 3 7 4 5 5 4 6 3 7 2 8 1 9 10 11 11 12 15 13 16 14
REMARK SMILES IDX 17 15 12 17 13 18 14 19
REMARK H PARENT
REMARK Flexibility Score: 70.00
ROOT
ATOM      1  C   UNL     1      -4.933  69.303  37.799  1.00  0.00     0.136 C 
ATOM      2  O   UNL     1      -5.293  70.430  38.110  1.00  0.00    -0.299 OA
ENDROOT
BRANCH   1   3
ATOM      3  C   UNL     1      -3.479  68.892  37.962  1.00  0.00     0.053 C 
ATOM      4  C   UNL     1      -3.308  67.367  38.062  1.00  0.00     0.016 C 
BRANCH   3   5
ATOM      5  C   UNL     1      -2.592  69.484  36.846  1.00  0.00     0.015 C 
BRANCH   5   6
ATOM      6  C   UNL     1      -3.381  69.998  35.619  1.00  0.00     0.028 C 
BRANCH   6   7
ATOM      7  C   UNL     1      -3.020  69.213  34.381  1.00  0.00    -0.028 C 
ATOM      8  C   UNL     1      -3.649  68.095  33.946  1.00  0.00    -0.070 CG0
ATOM      9  C   UNL     1      -3.202  67.500  32.635  1.00  0.00     0.039 C 
ATOM     10  G   UNL     1      -4.751  67.394  34.727  1.00  0.00     0.000 G0
ENDBRANCH   6   7
ENDBRANCH   5   6
ENDBRANCH   3   5
ENDBRANCH   1   3
BRANCH   1  11
ATOM     11  C   UNL     1      -5.963  68.328  37.273  1.00  0.00     0.087 C 
BRANCH  11  12
ATOM     12  C   UNL     1      -6.678  68.809  35.978  1.00  0.00     0.066 C 
BRANCH  12  13
ATOM     13  C   UNL     1      -6.097  68.111  34.752  1.00  0.00     0.140 C 
ATOM     14  O   UNL     1      -6.744  68.131  33.715  1.00  0.00    -0.299 OA
BRANCH  13  15
ATOM     15  C   UNL     1      -4.755  67.403  34.725  1.00  0.00     0.106 CG0
ATOM     16  G   UNL     1      -3.663  68.082  33.912  1.00  0.00     0.000 G0
ENDBRANCH  13  15
ENDBRANCH  12  13
BRANCH  12  17
ATOM     17  C   UNL     1      -8.220  68.577  36.052  1.00  0.00    -0.006 C 
ATOM     18  C   UNL     1      -8.584  67.349  36.906  1.00  0.00     0.008 C 
ATOM     19  C   UNL     1      -8.947  69.809  36.621  1.00  0.00     0.008 C 
ENDBRANCH  12  17
ENDBRANCH  11  12
ENDBRANCH   1  11
TORSDOF 1
ENDMDL
MODEL 8
REMARK VINA RESULT:    -2.704      2.270      4.269
REMARK INTER + INTRA:          -4.493
REMARK INTER:                  -3.944
REMARK INTRA:                  -0.549
REMARK UNBOUND:                -0.367
REMARK SMILES CC1=CCC[C@H](C)C(=O)C[C@H](C(C)C)C(=O)C1
REMARK SMILES IDX 8 1 9 2 6 3 7 4 5 5 4 6 3 7 2 8 1 9 10 11 11 12 15 13 16 14
REMARK SMILES IDX 17 15 12 17 13 18 14 19
REMARK H PARENT
REMARK Flexibility Score: 70.00
ROOT
ATOM      1  C   UNL     1      -7.841  67.497  36.936  1.00  0.00     0.136 C 
ATOM      2  O   UNL     1      -9.021  67.432  36.618  1.00  0.00    -0.299 OA
ENDROOT
BRANCH   1   3
ATOM      3  C   UNL     1      -6.830  66.546  36.317  1.00  0.00     0.053 C 
ATOM      4  C   UNL     1      -7.149  65.073  36.622  1.00  0.00     0.016 C 
BRANCH   3   5
ATOM      5  C   UNL     1      -6.679  66.785  34.800  1.00  0.00     0.015 C 
BRANCH   5   6
ATOM      6  C   UNL     1      -6.294  68.235  34.425  1.00  0.00     0.028 C 
BRANCH   6   7
ATOM      7  C   UNL     1      -4.814  68.464  34.614  1.00  0.00    -0.028 C 
ATOM      8  C   UNL     1      -4.256  69.300  35.523  1.00  0.00    -0.070 CG0
ATOM      9  C   UNL     1      -2.752  69.327  35.624  1.00  0.00     0.039 C 
ATOM     10  G   UNL     1      -5.065  70.233  36.413  1.00  0.00     0.000 G0
ENDBRANCH   6   7
ENDBRANCH   5   6
ENDBRANCH   3   5
ENDBRANCH   1   3
BRANCH   1  11
ATOM     11  C   UNL     1      -7.412  68.551  37.932  1.00  0.00     0.087 C 
BRANCH  11  12
ATOM     12  C   UNL     1      -5.901  68.491  38.296  1.00  0.00     0.066 C 
BRANCH  12  13
ATOM     13  C   UNL     1      -5.192  69.771  37.865  1.00  0.00     0.140 C 
ATOM     14  O   UNL     1      -4.697  70.478  38.730  1.00  0.00    -0.299 OA
BRANCH  13  15
ATOM     15  C   UNL     1      -5.043  70.223  36.423  1.00  0.00     0.106 CG0
ATOM     16  G   UNL     1      -4.249  69.295  35.516  1.00  0.00     0.000 G0
ENDBRANCH  13  15
ENDBRANCH  12  13
BRANCH  12  17
ATOM     17  C   UNL     1      -5.687  68.244  39.823  1.00  0.00    -0.006 C 
ATOM     18  C   UNL     1      -7.018  68.138  40.589  1.00  0.00     0.008 C 
ATOM     19  C   UNL     1      -4.867  66.965  40.075  1.00  0.00     0.008 C 
ENDBRANCH  12  17
ENDBRANCH  11  12
ENDBRANCH   1  11
TORSDOF 1
ENDMDL
MODEL 9
REMARK VINA RESULT:    -2.674      2.035      4.859
REMARK INTER + INTRA:          -4.449
REMARK INTER:                  -4.408
REMARK INTRA:                  -0.040
REMARK UNBOUND:                -0.367
REMARK SMILES CC1=CCC[C@H](C)C(=O)C[C@H](C(C)C)C(=O)C1
REMARK SMILES IDX 8 1 9 2 6 3 7 4 5 5 4 6 3 7 2 8 1 9 10 11 11 12 15 13 16 14
REMARK SMILES IDX 17 15 12 17 13 18 14 19
REMARK H PARENT
REMARK Flexibility Score: 70.00
ROOT
ATOM      1  C   UNL     1      -4.787  67.484  34.463  1.00  0.00     0.136 C 
ATOM      2  O   UNL     1      -3.871  67.249  33.685  1.00  0.00    -0.299 OA
ENDROOT
BRANCH   1   3
ATOM      3  C   UNL     1      -6.228  67.427  33.985  1.00  0.00     0.053 C 
ATOM      4  C   UNL     1      -6.352  67.653  32.468  1.00  0.00     0.016 C 
BRANCH   3   5
ATOM      5  C   UNL     1      -6.918  66.115  34.414  1.00  0.00     0.015 C 
BRANCH   5   6
ATOM      6  C   UNL     1      -7.472  66.136  35.858  1.00  0.00     0.028 C 
BRANCH   6   7
ATOM      7  C   UNL     1      -8.365  67.334  36.073  1.00  0.00    -0.028 C 
ATOM      8  C   UNL     1      -8.040  68.443  36.780  1.00  0.00    -0.070 CG0
ATOM      9  C   UNL     1      -9.033  69.577  36.807  1.00  0.00     0.039 C 
ATOM     10  G   UNL     1      -6.749  68.584  37.572  1.00  0.00     0.000 G0
ENDBRANCH   6   7
ENDBRANCH   5   6
ENDBRANCH   3   5
ENDBRANCH   1   3
BRANCH   1  11
ATOM     11  C   UNL     1      -4.455  67.808  35.902  1.00  0.00     0.087 C 
BRANCH  11  12
ATOM     12  C   UNL     1      -4.524  69.325  36.235  1.00  0.00     0.066 C 
BRANCH  12  13
ATOM     13  C   UNL     1      -5.771  69.640  37.056  1.00  0.00     0.140 C 
ATOM     14  O   UNL     1      -6.017  70.810  37.310  1.00  0.00    -0.299 OA
BRANCH  13  15
ATOM     15  C   UNL     1      -6.745  68.594  37.568  1.00  0.00     0.106 CG0
ATOM     16  G   UNL     1      -8.040  68.452  36.782  1.00  0.00     0.000 G0
ENDBRANCH  13  15
ENDBRANCH  12  13
BRANCH  12  17
ATOM     17  C   UNL     1      -3.245  69.807  36.990  1.00  0.00    -0.006 C 
ATOM     18  C   UNL     1      -3.175  69.260  38.426  1.00  0.00     0.008 C 
ATOM     19  C   UNL     1      -1.963  69.398  36.241  1.00  0.00     0.008 C 
ENDBRANCH  12  17
ENDBRANCH  11  12
ENDBRANCH   1  11
TORSDOF 1
ENDMDL
