MODEL 1
REMARK VINA RESULT:    -3.420      0.000      0.000
REMARK INTER + INTRA:          -4.707
REMARK INTER:                  -4.220
REMARK INTRA:                  -0.487
REMARK UNBOUND:                -0.487
REMARK SMILES C=CC[C@H](C)C(=O)CC
REMARK SMILES IDX 4 1 5 2 6 3 7 4 8 5 9 6 3 7 2 8 1 9
REMARK H PARENT
REMARK Flexibility Score: inf
ROOT
ATOM      1  C   UNL     1       1.821  -6.097  15.369  1.00  0.00     0.057 C 
ATOM      2  C   UNL     1       2.256  -7.388  16.070  1.00  0.00     0.016 C 
ENDROOT
BRANCH   1   3
ATOM      3  C   UNL     1       0.943  -5.277  16.294  1.00  0.00     0.135 C 
ATOM      4  O   UNL     1       1.084  -4.063  16.344  1.00  0.00    -0.299 OA
BRANCH   3   5
ATOM      5  C   UNL     1      -0.118  -5.929  17.142  1.00  0.00     0.072 C 
ATOM      6  C   UNL     1      -1.513  -5.495  16.700  1.00  0.00     0.012 C 
ENDBRANCH   3   5
ENDBRANCH   1   3
BRANCH   1   7
ATOM      7  C   UNL     1       1.094  -6.418  14.047  1.00  0.00     0.038 C 
BRANCH   7   8
ATOM      8  C   UNL     1       0.559  -7.825  14.019  1.00  0.00    -0.034 C 
ATOM      9  C   UNL     1      -0.753  -8.081  14.044  1.00  0.00     0.004 C 
ENDBRANCH   7   8
ENDBRANCH   1   7
TORSDOF 4
ENDMDL
MODEL 2
REMARK VINA RESULT:    -3.411      1.826      3.108
REMARK INTER + INTRA:          -4.695
REMARK INTER:                  -4.279
REMARK INTRA:                  -0.416
REMARK UNBOUND:                -0.487
REMARK SMILES C=CC[C@H](C)C(=O)CC
REMARK SMILES IDX 4 1 5 2 6 3 7 4 8 5 9 6 3 7 2 8 1 9
REMARK H PARENT
REMARK Flexibility Score: inf
ROOT
ATOM      1  C   UNL     1       1.075  -6.927  15.439  1.00  0.00     0.057 C 
ATOM      2  C   UNL     1       2.198  -7.964  15.543  1.00  0.00     0.016 C 
ENDROOT
BRANCH   1   3
ATOM      3  C   UNL     1       0.107  -7.321  14.341  1.00  0.00     0.135 C 
ATOM      4  O   UNL     1       0.362  -7.038  13.179  1.00  0.00    -0.299 OA
BRANCH   3   5
ATOM      5  C   UNL     1      -1.160  -8.075  14.652  1.00  0.00     0.072 C 
ATOM      6  C   UNL     1      -1.745  -7.630  15.989  1.00  0.00     0.012 C 
ENDBRANCH   3   5
ENDBRANCH   1   3
BRANCH   1   7
ATOM      7  C   UNL     1       1.659  -5.521  15.192  1.00  0.00     0.038 C 
BRANCH   7   8
ATOM      8  C   UNL     1       1.299  -4.554  16.288  1.00  0.00    -0.034 C 
ATOM      9  C   UNL     1       0.062  -4.485  16.789  1.00  0.00     0.004 C 
ENDBRANCH   7   8
ENDBRANCH   1   7
TORSDOF 4
ENDMDL
MODEL 3
REMARK VINA RESULT:    -3.289      1.274      3.223
REMARK INTER + INTRA:          -4.544
REMARK INTER:                  -4.144
REMARK INTRA:                  -0.401
REMARK UNBOUND:                -0.487
REMARK SMILES C=CC[C@H](C)C(=O)CC
REMARK SMILES IDX 4 1 5 2 6 3 7 4 8 5 9 6 3 7 2 8 1 9
REMARK H PARENT
REMARK Flexibility Score: inf
ROOT
ATOM      1  C   UNL     1       1.132  -5.792  16.562  1.00  0.00     0.057 C 
ATOM      2  C   UNL     1       0.996  -4.267  16.492  1.00  0.00     0.016 C 
ENDROOT
BRANCH   1   3
ATOM      3  C   UNL     1       1.526  -6.338  15.203  1.00  0.00     0.135 C 
ATOM      4  O   UNL     1       2.317  -5.717  14.507  1.00  0.00    -0.299 OA
BRANCH   3   5
ATOM      5  C   UNL     1       0.973  -7.646  14.699  1.00  0.00     0.072 C 
ATOM      6  C   UNL     1       0.111  -7.433  13.459  1.00  0.00     0.012 C 
ENDBRANCH   3   5
ENDBRANCH   1   3
BRANCH   1   7
ATOM      7  C   UNL     1      -0.180  -6.429  17.061  1.00  0.00     0.038 C 
BRANCH   7   8
ATOM      8  C   UNL     1      -1.355  -5.498  16.922  1.00  0.00    -0.034 C 
ATOM      9  C   UNL     1      -2.576  -5.944  16.610  1.00  0.00     0.004 C 
ENDBRANCH   7   8
ENDBRANCH   1   7
TORSDOF 4
ENDMDL
MODEL 4
REMARK VINA RESULT:    -3.212      1.859      2.955
REMARK INTER + INTRA:          -4.449
REMARK INTER:                  -3.983
REMARK INTRA:                  -0.466
REMARK UNBOUND:                -0.487
REMARK SMILES C=CC[C@H](C)C(=O)CC
REMARK SMILES IDX 4 1 5 2 6 3 7 4 8 5 9 6 3 7 2 8 1 9
REMARK H PARENT
REMARK Flexibility Score: inf
ROOT
ATOM      1  C   UNL     1       0.782  -7.889  15.022  1.00  0.00     0.057 C 
ATOM      2  C   UNL     1       0.176  -7.420  13.697  1.00  0.00     0.016 C 
ENDROOT
BRANCH   1   3
ATOM      3  C   UNL     1      -0.263  -7.830  16.119  1.00  0.00     0.135 C 
ATOM      4  O   UNL     1       0.045  -8.120  17.266  1.00  0.00    -0.299 OA
BRANCH   3   5
ATOM      5  C   UNL     1      -1.678  -7.402  15.825  1.00  0.00     0.072 C 
ATOM      6  C   UNL     1      -2.021  -6.111  16.561  1.00  0.00     0.012 C 
ENDBRANCH   3   5
ENDBRANCH   1   3
BRANCH   1   7
ATOM      7  C   UNL     1       2.018  -7.040  15.382  1.00  0.00     0.038 C 
BRANCH   7   8
ATOM      8  C   UNL     1       1.800  -5.574  15.114  1.00  0.00    -0.034 C 
ATOM      9  C   UNL     1       1.405  -4.733  16.074  1.00  0.00     0.004 C 
ENDBRANCH   7   8
ENDBRANCH   1   7
TORSDOF 4
ENDMDL
MODEL 5
REMARK VINA RESULT:    -3.091     21.822     22.498
REMARK INTER + INTRA:          -4.300
REMARK INTER:                  -4.121
REMARK INTRA:                  -0.180
REMARK UNBOUND:                -0.487
REMARK SMILES C=CC[C@H](C)C(=O)CC
REMARK SMILES IDX 4 1 5 2 6 3 7 4 8 5 9 6 3 7 2 8 1 9
REMARK H PARENT
REMARK Flexibility Score: inf
ROOT
ATOM      1  C   UNL     1      11.671   8.121   3.246  1.00  0.00     0.057 C 
ATOM      2  C   UNL     1      12.836   7.283   2.710  1.00  0.00     0.016 C 
ENDROOT
BRANCH   1   3
ATOM      3  C   UNL     1      10.860   8.676   2.092  1.00  0.00     0.135 C 
ATOM      4  O   UNL     1      10.581   9.866   2.065  1.00  0.00    -0.299 OA
BRANCH   3   5
ATOM      5  C   UNL     1      10.403   7.789   0.963  1.00  0.00     0.072 C 
ATOM      6  C   UNL     1       9.073   8.272   0.393  1.00  0.00     0.012 C 
ENDBRANCH   3   5
ENDBRANCH   1   3
BRANCH   1   7
ATOM      7  C   UNL     1      12.193   9.251   4.157  1.00  0.00     0.038 C 
BRANCH   7   8
ATOM      8  C   UNL     1      11.469   9.300   5.476  1.00  0.00    -0.034 C 
ATOM      9  C   UNL     1      10.788  10.381   5.867  1.00  0.00     0.004 C 
ENDBRANCH   7   8
ENDBRANCH   1   7
TORSDOF 4
ENDMDL
MODEL 6
REMARK VINA RESULT:    -3.087     21.471     22.524
REMARK INTER + INTRA:          -4.296
REMARK INTER:                  -4.129
REMARK INTRA:                  -0.167
REMARK UNBOUND:                -0.487
REMARK SMILES C=CC[C@H](C)C(=O)CC
REMARK SMILES IDX 4 1 5 2 6 3 7 4 8 5 9 6 3 7 2 8 1 9
REMARK H PARENT
REMARK Flexibility Score: inf
ROOT
ATOM      1  C   UNL     1      11.632   9.167   2.600  1.00  0.00     0.057 C 
ATOM      2  C   UNL     1      11.135  10.612   2.495  1.00  0.00     0.016 C 
ENDROOT
BRANCH   1   3
ATOM      3  C   UNL     1      10.784   8.264   1.727  1.00  0.00     0.135 C 
ATOM      4  O   UNL     1       9.785   8.711   1.183  1.00  0.00    -0.299 OA
BRANCH   3   5
ATOM      5  C   UNL     1      11.162   6.822   1.499  1.00  0.00     0.072 C 
ATOM      6  C   UNL     1      10.082   6.094   0.705  1.00  0.00     0.012 C 
ENDBRANCH   3   5
ENDBRANCH   1   3
BRANCH   1   7
ATOM      7  C   UNL     1      11.618   8.697   4.070  1.00  0.00     0.038 C 
BRANCH   7   8
ATOM      8  C   UNL     1      11.320   9.823   5.024  1.00  0.00    -0.034 C 
ATOM      9  C   UNL     1      11.327   9.644   6.349  1.00  0.00     0.004 C 
ENDBRANCH   7   8
ENDBRANCH   1   7
TORSDOF 4
ENDMDL
MODEL 7
REMARK VINA RESULT:    -3.062     21.700     22.225
REMARK INTER + INTRA:          -4.264
REMARK INTER:                  -4.070
REMARK INTRA:                  -0.194
REMARK UNBOUND:                -0.487
REMARK SMILES C=CC[C@H](C)C(=O)CC
REMARK SMILES IDX 4 1 5 2 6 3 7 4 8 5 9 6 3 7 2 8 1 9
REMARK H PARENT
REMARK Flexibility Score: inf
ROOT
ATOM      1  C   UNL     1      11.389   8.550   1.920  1.00  0.00     0.057 C 
ATOM      2  C   UNL     1      11.614   7.062   2.205  1.00  0.00     0.016 C 
ENDROOT
BRANCH   1   3
ATOM      3  C   UNL     1      11.345   9.324   3.223  1.00  0.00     0.135 C 
ATOM      4  O   UNL     1      11.003  10.498   3.219  1.00  0.00    -0.299 OA
BRANCH   3   5
ATOM      5  C   UNL     1      11.698   8.667   4.533  1.00  0.00     0.072 C 
ATOM      6  C   UNL     1      11.261   9.530   5.712  1.00  0.00     0.012 C 
ENDBRANCH   3   5
ENDBRANCH   1   3
BRANCH   1   7
ATOM      7  C   UNL     1      10.095   8.755   1.105  1.00  0.00     0.038 C 
BRANCH   7   8
ATOM      8  C   UNL     1       9.457   7.449   0.713  1.00  0.00    -0.034 C 
ATOM      9  C   UNL     1       8.168   7.370   0.369  1.00  0.00     0.004 C 
ENDBRANCH   7   8
ENDBRANCH   1   7
TORSDOF 4
ENDMDL
MODEL 8
REMARK VINA RESULT:    -3.042      1.759      3.194
REMARK INTER + INTRA:          -4.240
REMARK INTER:                  -3.786
REMARK INTRA:                  -0.454
REMARK UNBOUND:                -0.487
REMARK SMILES C=CC[C@H](C)C(=O)CC
REMARK SMILES IDX 4 1 5 2 6 3 7 4 8 5 9 6 3 7 2 8 1 9
REMARK H PARENT
REMARK Flexibility Score: inf
ROOT
ATOM      1  C   UNL     1      -0.058  -7.194  14.838  1.00  0.00     0.057 C 
ATOM      2  C   UNL     1      -0.221  -7.923  13.501  1.00  0.00     0.016 C 
ENDROOT
BRANCH   1   3
ATOM      3  C   UNL     1       1.411  -6.950  15.118  1.00  0.00     0.135 C 
ATOM      4  O   UNL     1       2.149  -7.897  15.348  1.00  0.00    -0.299 OA
BRANCH   3   5
ATOM      5  C   UNL     1       1.987  -5.558  15.101  1.00  0.00     0.072 C 
ATOM      6  C   UNL     1       1.298  -4.669  16.132  1.00  0.00     0.012 C 
ENDBRANCH   3   5
ENDBRANCH   1   3
BRANCH   1   7
ATOM      7  C   UNL     1      -0.719  -7.999  15.976  1.00  0.00     0.038 C 
BRANCH   7   8
ATOM      8  C   UNL     1      -1.474  -7.116  16.934  1.00  0.00    -0.034 C 
ATOM      9  C   UNL     1      -2.112  -6.015  16.524  1.00  0.00     0.004 C 
ENDBRANCH   7   8
ENDBRANCH   1   7
TORSDOF 4
ENDMDL
MODEL 9
REMARK VINA RESULT:    -3.027      1.313      1.922
REMARK INTER + INTRA:          -4.222
REMARK INTER:                  -3.910
REMARK INTRA:                  -0.312
REMARK UNBOUND:                -0.487
REMARK SMILES C=CC[C@H](C)C(=O)CC
REMARK SMILES IDX 4 1 5 2 6 3 7 4 8 5 9 6 3 7 2 8 1 9
REMARK H PARENT
REMARK Flexibility Score: inf
ROOT
ATOM      1  C   UNL     1       0.390  -5.773  15.805  1.00  0.00     0.057 C 
ATOM      2  C   UNL     1       1.383  -4.648  16.112  1.00  0.00     0.016 C 
ENDROOT
BRANCH   1   3
ATOM      3  C   UNL     1      -0.747  -5.746  16.807  1.00  0.00     0.135 C 
ATOM      4  O   UNL     1      -0.603  -5.163  17.872  1.00  0.00    -0.299 OA
BRANCH   3   5
ATOM      5  C   UNL     1      -2.066  -6.411  16.507  1.00  0.00     0.072 C 
ATOM      6  C   UNL     1      -3.228  -5.453  16.751  1.00  0.00     0.012 C 
ENDBRANCH   3   5
ENDBRANCH   1   3
BRANCH   1   7
ATOM      7  C   UNL     1       1.105  -7.140  15.808  1.00  0.00     0.038 C 
BRANCH   7   8
ATOM      8  C   UNL     1       0.819  -7.934  14.561  1.00  0.00    -0.034 C 
ATOM      9  C   UNL     1       0.148  -7.410  13.530  1.00  0.00     0.004 C 
ENDBRANCH   7   8
ENDBRANCH   1   7
TORSDOF 4
ENDMDL
