MODEL 1
REMARK VINA RESULT:    -5.448      0.000      0.000
REMARK INTER + INTRA:          -6.674
REMARK INTER:                  -6.563
REMARK INTRA:                  -0.111
REMARK UNBOUND:                -0.111
REMARK SMILES O=c1c(O)c(-c2ccc(O)c(O)c2)oc2cc(O)cc(O)c12
REMARK SMILES IDX 5 1 3 2 2 3 1 4 22 5 20 6 19 7 17 8 16 9 15 10 14 11 6 12
REMARK SMILES IDX 7 13 8 14 9 15 13 16 11 17 10 18 12 20 4 22 21 24 18 26
REMARK H PARENT 10 19 12 21 4 23 21 25 18 27
REMARK Flexibility Score: inf
ROOT
ATOM      1  C   UNL     1      66.101   9.815  14.724  1.00  0.00     0.180 A 
ATOM      2  C   UNL     1      65.436   9.923  15.961  1.00  0.00     0.208 A 
ATOM      3  C   UNL     1      64.668   8.840  16.416  1.00  0.00     0.238 A 
ATOM      4  O   UNL     1      64.077   8.922  17.527  1.00  0.00    -0.285 OA
ATOM      5  C   UNL     1      64.562   7.679  15.622  1.00  0.00     0.111 A 
ATOM      6  C   UNL     1      63.805   6.545  16.006  1.00  0.00     0.134 A 
ATOM      7  C   UNL     1      63.741   5.431  15.156  1.00  0.00     0.093 A 
ATOM      8  C   UNL     1      64.417   5.430  13.931  1.00  0.00     0.123 A 
ATOM      9  C   UNL     1      65.165   6.545  13.548  1.00  0.00     0.094 A 
ATOM     10  C   UNL     1      65.243   7.665  14.382  1.00  0.00     0.146 A 
ATOM     11  O   UNL     1      65.964   8.710  13.995  1.00  0.00    -0.452 OA
ENDROOT
BRANCH   1  12
ATOM     12  C   UNL     1      66.943  10.906  14.185  1.00  0.00     0.025 A 
ATOM     13  C   UNL     1      66.684  11.409  12.900  1.00  0.00     0.016 A 
ATOM     14  C   UNL     1      67.479  12.424  12.363  1.00  0.00     0.051 A 
ATOM     15  C   UNL     1      68.555  12.940  13.098  1.00  0.00     0.157 A 
ATOM     16  C   UNL     1      68.037  11.413  14.910  1.00  0.00     0.062 A 
ATOM     17  C   UNL     1      68.837  12.431  14.370  1.00  0.00     0.158 A 
BRANCH  15  18
ATOM     18  O   UNL     1      69.350  13.955  12.567  1.00  0.00    -0.504 OA
ATOM     19  H   UNL     1      70.243  13.756  12.131  1.00  0.00     0.293 HD
ENDBRANCH  15  18
BRANCH  17  20
ATOM     20  O   UNL     1      69.916  12.938  15.094  1.00  0.00    -0.504 OA
ATOM     21  H   UNL     1      70.585  12.326  15.547  1.00  0.00     0.293 HD
ENDBRANCH  17  20
ENDBRANCH   1  12
BRANCH   2  22
ATOM     22  O   UNL     1      65.518  11.103  16.705  1.00  0.00    -0.502 OA
ATOM     23  H   UNL     1      65.289  11.140  17.691  1.00  0.00     0.293 HD
ENDBRANCH   2  22
BRANCH   6  24
ATOM     24  O   UNL     1      63.120   6.517  17.221  1.00  0.00    -0.507 OA
ATOM     25  H   UNL     1      63.444   5.960  18.004  1.00  0.00     0.293 HD
ENDBRANCH   6  24
BRANCH   8  26
ATOM     26  O   UNL     1      64.353   4.324  13.086  1.00  0.00    -0.508 OA
ATOM     27  H   UNL     1      65.181   3.796  12.841  1.00  0.00     0.293 HD
ENDBRANCH   8  26
TORSDOF 6
ENDMDL
MODEL 2
REMARK VINA RESULT:    -5.375      2.540      2.792
REMARK INTER + INTRA:          -6.586
REMARK INTER:                  -6.258
REMARK INTRA:                  -0.328
REMARK UNBOUND:                -0.111
REMARK SMILES O=c1c(O)c(-c2ccc(O)c(O)c2)oc2cc(O)cc(O)c12
REMARK SMILES IDX 5 1 3 2 2 3 1 4 22 5 20 6 19 7 17 8 16 9 15 10 14 11 6 12
REMARK SMILES IDX 7 13 8 14 9 15 13 16 11 17 10 18 12 20 4 22 21 24 18 26
REMARK H PARENT 10 19 12 21 4 23 21 25 18 27
REMARK Flexibility Score: inf
ROOT
ATOM      1  C   UNL     1      66.693   8.286  14.737  1.00  0.00     0.180 A 
ATOM      2  C   UNL     1      65.986   8.810  15.837  1.00  0.00     0.208 A 
ATOM      3  C   UNL     1      64.643   8.445  16.016  1.00  0.00     0.238 A 
ATOM      4  O   UNL     1      64.004   8.899  17.004  1.00  0.00    -0.285 OA
ATOM      5  C   UNL     1      64.026   7.580  15.089  1.00  0.00     0.111 A 
ATOM      6  C   UNL     1      62.676   7.167  15.196  1.00  0.00     0.134 A 
ATOM      7  C   UNL     1      62.131   6.312  14.225  1.00  0.00     0.093 A 
ATOM      8  C   UNL     1      62.910   5.866  13.152  1.00  0.00     0.123 A 
ATOM      9  C   UNL     1      64.241   6.270  13.043  1.00  0.00     0.094 A 
ATOM     10  C   UNL     1      64.803   7.120  14.000  1.00  0.00     0.146 A 
ATOM     11  O   UNL     1      66.073   7.486  13.874  1.00  0.00    -0.452 OA
ENDROOT
BRANCH   1  12
ATOM     12  C   UNL     1      68.117   8.610  14.490  1.00  0.00     0.025 A 
ATOM     13  C   UNL     1      68.446   9.611  13.562  1.00  0.00     0.016 A 
ATOM     14  C   UNL     1      69.783   9.919  13.298  1.00  0.00     0.051 A 
ATOM     15  C   UNL     1      70.809   9.219  13.946  1.00  0.00     0.157 A 
ATOM     16  C   UNL     1      69.151   7.895  15.122  1.00  0.00     0.062 A 
ATOM     17  C   UNL     1      70.493   8.203  14.855  1.00  0.00     0.158 A 
BRANCH  15  18
ATOM     18  O   UNL     1      72.145   9.524  13.686  1.00  0.00    -0.504 OA
ATOM     19  H   UNL     1      72.821   8.802  13.466  1.00  0.00     0.293 HD
ENDBRANCH  15  18
BRANCH  17  20
ATOM     20  O   UNL     1      71.516   7.499  15.488  1.00  0.00    -0.504 OA
ATOM     21  H   UNL     1      71.321   6.722  16.107  1.00  0.00     0.293 HD
ENDBRANCH  17  20
ENDBRANCH   1  12
BRANCH   2  22
ATOM     22  O   UNL     1      66.607   9.703  16.714  1.00  0.00    -0.502 OA
ATOM     23  H   UNL     1      67.424   9.451  17.257  1.00  0.00     0.293 HD
ENDBRANCH   2  22
BRANCH   6  24
ATOM     24  O   UNL     1      61.875   7.596  16.254  1.00  0.00    -0.507 OA
ATOM     25  H   UNL     1      62.172   7.505  17.219  1.00  0.00     0.293 HD
ENDBRANCH   6  24
BRANCH   8  26
ATOM     26  O   UNL     1      62.369   5.018  12.188  1.00  0.00    -0.508 OA
ATOM     27  H   UNL     1      62.948   4.583  11.479  1.00  0.00     0.293 HD
ENDBRANCH   8  26
TORSDOF 6
ENDMDL
MODEL 3
REMARK VINA RESULT:    -5.360      1.937      6.654
REMARK INTER + INTRA:          -6.567
REMARK INTER:                  -6.266
REMARK INTRA:                  -0.301
REMARK UNBOUND:                -0.111
REMARK SMILES O=c1c(O)c(-c2ccc(O)c(O)c2)oc2cc(O)cc(O)c12
REMARK SMILES IDX 5 1 3 2 2 3 1 4 22 5 20 6 19 7 17 8 16 9 15 10 14 11 6 12
REMARK SMILES IDX 7 13 8 14 9 15 13 16 11 17 10 18 12 20 4 22 21 24 18 26
REMARK H PARENT 10 19 12 21 4 23 21 25 18 27
REMARK Flexibility Score: inf
ROOT
ATOM      1  C   UNL     1      66.240   9.456  15.317  1.00  0.00     0.180 A 
ATOM      2  C   UNL     1      66.409  10.783  15.756  1.00  0.00     0.208 A 
ATOM      3  C   UNL     1      67.331  11.606  15.090  1.00  0.00     0.238 A 
ATOM      4  O   UNL     1      67.483  12.800  15.468  1.00  0.00    -0.285 OA
ATOM      5  C   UNL     1      68.079  11.086  14.013  1.00  0.00     0.111 A 
ATOM      6  C   UNL     1      69.030  11.847  13.292  1.00  0.00     0.134 A 
ATOM      7  C   UNL     1      69.742  11.254  12.239  1.00  0.00     0.093 A 
ATOM      8  C   UNL     1      69.521   9.916  11.895  1.00  0.00     0.123 A 
ATOM      9  C   UNL     1      68.583   9.161  12.603  1.00  0.00     0.094 A 
ATOM     10  C   UNL     1      67.863   9.734  13.655  1.00  0.00     0.146 A 
ATOM     11  O   UNL     1      66.975   8.995  14.309  1.00  0.00    -0.452 OA
ENDROOT
BRANCH   1  12
ATOM     12  C   UNL     1      65.275   8.533  15.956  1.00  0.00     0.025 A 
ATOM     13  C   UNL     1      65.643   7.851  17.127  1.00  0.00     0.016 A 
ATOM     14  C   UNL     1      64.756   6.959  17.736  1.00  0.00     0.051 A 
ATOM     15  C   UNL     1      63.495   6.725  17.173  1.00  0.00     0.157 A 
ATOM     16  C   UNL     1      64.015   8.278  15.383  1.00  0.00     0.062 A 
ATOM     17  C   UNL     1      63.126   7.381  15.993  1.00  0.00     0.158 A 
BRANCH  15  18
ATOM     18  O   UNL     1      62.606   5.837  17.778  1.00  0.00    -0.504 OA
ATOM     19  H   UNL     1      62.919   4.954  18.164  1.00  0.00     0.293 HD
ENDBRANCH  15  18
BRANCH  17  20
ATOM     20  O   UNL     1      61.875   7.137  15.429  1.00  0.00    -0.504 OA
ATOM     21  H   UNL     1      61.659   6.255  14.978  1.00  0.00     0.293 HD
ENDBRANCH  17  20
ENDBRANCH   1  12
BRANCH   2  22
ATOM     22  O   UNL     1      65.691  11.259  16.856  1.00  0.00    -0.502 OA
ATOM     23  H   UNL     1      64.830  10.829  17.170  1.00  0.00     0.293 HD
ENDBRANCH   2  22
BRANCH   6  24
ATOM     24  O   UNL     1      69.272  13.183  13.612  1.00  0.00    -0.507 OA
ATOM     25  H   UNL     1      70.149  13.637  13.381  1.00  0.00     0.293 HD
ENDBRANCH   6  24
BRANCH   8  26
ATOM     26  O   UNL     1      70.228   9.325  10.849  1.00  0.00    -0.508 OA
ATOM     27  H   UNL     1      69.757   8.960  10.031  1.00  0.00     0.293 HD
ENDBRANCH   8  26
TORSDOF 6
ENDMDL
MODEL 4
REMARK VINA RESULT:    -5.297     10.442     12.947
REMARK INTER + INTRA:          -6.492
REMARK INTER:                  -6.206
REMARK INTRA:                  -0.286
REMARK UNBOUND:                -0.111
REMARK SMILES O=c1c(O)c(-c2ccc(O)c(O)c2)oc2cc(O)cc(O)c12
REMARK SMILES IDX 5 1 3 2 2 3 1 4 22 5 20 6 19 7 17 8 16 9 15 10 14 11 6 12
REMARK SMILES IDX 7 13 8 14 9 15 13 16 11 17 10 18 12 20 4 22 21 24 18 26
REMARK H PARENT 10 19 12 21 4 23 21 25 18 27
REMARK Flexibility Score: inf
ROOT
ATOM      1  C   UNL     1      76.170   6.078  18.756  1.00  0.00     0.180 A 
ATOM      2  C   UNL     1      77.327   6.771  19.160  1.00  0.00     0.208 A 
ATOM      3  C   UNL     1      77.843   7.775  18.326  1.00  0.00     0.238 A 
ATOM      4  O   UNL     1      78.873   8.409  18.683  1.00  0.00    -0.285 OA
ATOM      5  C   UNL     1      77.208   8.056  17.099  1.00  0.00     0.111 A 
ATOM      6  C   UNL     1      77.667   9.049  16.200  1.00  0.00     0.134 A 
ATOM      7  C   UNL     1      76.985   9.262  14.992  1.00  0.00     0.093 A 
ATOM      8  C   UNL     1      75.857   8.501  14.667  1.00  0.00     0.123 A 
ATOM      9  C   UNL     1      75.400   7.522  15.551  1.00  0.00     0.094 A 
ATOM     10  C   UNL     1      76.065   7.295  16.760  1.00  0.00     0.146 A 
ATOM     11  O   UNL     1      75.607   6.359  17.583  1.00  0.00    -0.452 OA
ENDROOT
BRANCH   1  12
ATOM     12  C   UNL     1      75.555   5.019  19.588  1.00  0.00     0.025 A 
ATOM     13  C   UNL     1      75.681   3.675  19.200  1.00  0.00     0.016 A 
ATOM     14  C   UNL     1      75.092   2.661  19.959  1.00  0.00     0.051 A 
ATOM     15  C   UNL     1      74.355   2.978  21.108  1.00  0.00     0.157 A 
ATOM     16  C   UNL     1      74.796   5.333  20.730  1.00  0.00     0.062 A 
ATOM     17  C   UNL     1      74.203   4.315  21.491  1.00  0.00     0.158 A 
BRANCH  15  18
ATOM     18  O   UNL     1      73.767   1.969  21.869  1.00  0.00    -0.504 OA
ATOM     19  H   UNL     1      74.224   1.075  22.009  1.00  0.00     0.293 HD
ENDBRANCH  15  18
BRANCH  17  20
ATOM     20  O   UNL     1      73.458   4.628  22.627  1.00  0.00    -0.504 OA
ATOM     21  H   UNL     1      73.831   4.497  23.559  1.00  0.00     0.293 HD
ENDBRANCH  17  20
ENDBRANCH   1  12
BRANCH   2  22
ATOM     22  O   UNL     1      77.965   6.439  20.358  1.00  0.00    -0.502 OA
ATOM     23  H   UNL     1      78.125   7.117  21.093  1.00  0.00     0.293 HD
ENDBRANCH   2  22
BRANCH   6  24
ATOM     24  O   UNL     1      78.789   9.823  16.495  1.00  0.00    -0.507 OA
ATOM     25  H   UNL     1      79.095  10.574  15.887  1.00  0.00     0.293 HD
ENDBRANCH   6  24
BRANCH   8  26
ATOM     26  O   UNL     1      75.180   8.712  13.468  1.00  0.00    -0.508 OA
ATOM     27  H   UNL     1      74.851   9.632  13.199  1.00  0.00     0.293 HD
ENDBRANCH   8  26
TORSDOF 6
ENDMDL
MODEL 5
REMARK VINA RESULT:    -5.156      2.904      6.687
REMARK INTER + INTRA:          -6.322
REMARK INTER:                  -6.015
REMARK INTRA:                  -0.307
REMARK UNBOUND:                -0.111
REMARK SMILES O=c1c(O)c(-c2ccc(O)c(O)c2)oc2cc(O)cc(O)c12
REMARK SMILES IDX 5 1 3 2 2 3 1 4 22 5 20 6 19 7 17 8 16 9 15 10 14 11 6 12
REMARK SMILES IDX 7 13 8 14 9 15 13 16 11 17 10 18 12 20 4 22 21 24 18 26
REMARK H PARENT 10 19 12 21 4 23 21 25 18 27
REMARK Flexibility Score: inf
ROOT
ATOM      1  C   UNL     1      66.851   8.488  15.634  1.00  0.00     0.180 A 
ATOM      2  C   UNL     1      67.124   9.868  15.577  1.00  0.00     0.208 A 
ATOM      3  C   UNL     1      68.381  10.293  15.119  1.00  0.00     0.238 A 
ATOM      4  O   UNL     1      68.632  11.527  15.053  1.00  0.00    -0.285 OA
ATOM      5  C   UNL     1      69.346   9.335  14.744  1.00  0.00     0.111 A 
ATOM      6  C   UNL     1      70.637   9.680  14.275  1.00  0.00     0.134 A 
ATOM      7  C   UNL     1      71.545   8.667  13.931  1.00  0.00     0.093 A 
ATOM      8  C   UNL     1      71.188   7.320  14.048  1.00  0.00     0.123 A 
ATOM      9  C   UNL     1      69.916   6.975  14.509  1.00  0.00     0.094 A 
ATOM     10  C   UNL     1      68.995   7.969  14.856  1.00  0.00     0.146 A 
ATOM     11  O   UNL     1      67.792   7.613  15.288  1.00  0.00    -0.452 OA
ENDROOT
BRANCH   1  12
ATOM     12  C   UNL     1      65.544   7.962  16.089  1.00  0.00     0.025 A 
ATOM     13  C   UNL     1      65.429   7.415  17.377  1.00  0.00     0.016 A 
ATOM     14  C   UNL     1      64.211   6.895  17.820  1.00  0.00     0.051 A 
ATOM     15  C   UNL     1      63.093   6.900  16.975  1.00  0.00     0.157 A 
ATOM     16  C   UNL     1      64.424   7.945  15.237  1.00  0.00     0.062 A 
ATOM     17  C   UNL     1      63.201   7.421  15.681  1.00  0.00     0.158 A 
BRANCH  15  18
ATOM     18  O   UNL     1      61.875   6.383  17.413  1.00  0.00    -0.504 OA
ATOM     19  H   UNL     1      60.992   6.771  17.103  1.00  0.00     0.293 HD
ENDBRANCH  15  18
BRANCH  17  20
ATOM     20  O   UNL     1      62.091   7.412  14.838  1.00  0.00    -0.504 OA
ATOM     21  H   UNL     1      61.336   8.079  14.947  1.00  0.00     0.293 HD
ENDBRANCH  17  20
ENDBRANCH   1  12
BRANCH   2  22
ATOM     22  O   UNL     1      66.167  10.794  16.000  1.00  0.00    -0.502 OA
ATOM     23  H   UNL     1      66.029  11.683  15.534  1.00  0.00     0.293 HD
ENDBRANCH   2  22
BRANCH   6  24
ATOM     24  O   UNL     1      71.022  11.015  14.148  1.00  0.00    -0.507 OA
ATOM     25  H   UNL     1      71.379  11.386  13.275  1.00  0.00     0.293 HD
ENDBRANCH   6  24
BRANCH   8  26
ATOM     26  O   UNL     1      72.090   6.314  13.708  1.00  0.00    -0.508 OA
ATOM     27  H   UNL     1      73.046   6.325  14.041  1.00  0.00     0.293 HD
ENDBRANCH   8  26
TORSDOF 6
ENDMDL
MODEL 6
REMARK VINA RESULT:    -5.126     10.500     13.153
REMARK INTER + INTRA:          -6.285
REMARK INTER:                  -5.961
REMARK INTRA:                  -0.324
REMARK UNBOUND:                -0.111
REMARK SMILES O=c1c(O)c(-c2ccc(O)c(O)c2)oc2cc(O)cc(O)c12
REMARK SMILES IDX 5 1 3 2 2 3 1 4 22 5 20 6 19 7 17 8 16 9 15 10 14 11 6 12
REMARK SMILES IDX 7 13 8 14 9 15 13 16 11 17 10 18 12 20 4 22 21 24 18 26
REMARK H PARENT 10 19 12 21 4 23 21 25 18 27
REMARK Flexibility Score: inf
ROOT
ATOM      1  C   UNL     1      75.838   6.093  18.459  1.00  0.00     0.180 A 
ATOM      2  C   UNL     1      75.050   6.580  17.398  1.00  0.00     0.208 A 
ATOM      3  C   UNL     1      75.598   7.536  16.529  1.00  0.00     0.238 A 
ATOM      4  O   UNL     1      74.905   7.970  15.569  1.00  0.00    -0.285 OA
ATOM      5  C   UNL     1      76.912   8.001  16.743  1.00  0.00     0.111 A 
ATOM      6  C   UNL     1      77.537   8.965  15.916  1.00  0.00     0.134 A 
ATOM      7  C   UNL     1      78.845   9.385  16.202  1.00  0.00     0.093 A 
ATOM      8  C   UNL     1      79.537   8.860  17.298  1.00  0.00     0.123 A 
ATOM      9  C   UNL     1      78.926   7.908  18.117  1.00  0.00     0.094 A 
ATOM     10  C   UNL     1      77.623   7.476  17.848  1.00  0.00     0.146 A 
ATOM     11  O   UNL     1      77.068   6.567  18.640  1.00  0.00    -0.452 OA
ENDROOT
BRANCH   1  12
ATOM     12  C   UNL     1      75.338   5.071  19.406  1.00  0.00     0.025 A 
ATOM     13  C   UNL     1      75.511   3.710  19.109  1.00  0.00     0.016 A 
ATOM     14  C   UNL     1      75.028   2.729  19.979  1.00  0.00     0.051 A 
ATOM     15  C   UNL     1      74.352   3.095  21.150  1.00  0.00     0.157 A 
ATOM     16  C   UNL     1      74.639   5.434  20.573  1.00  0.00     0.062 A 
ATOM     17  C   UNL     1      74.153   4.449  21.445  1.00  0.00     0.158 A 
BRANCH  15  18
ATOM     18  O   UNL     1      73.870   2.119  22.022  1.00  0.00    -0.504 OA
ATOM     19  H   UNL     1      74.086   2.139  23.012  1.00  0.00     0.293 HD
ENDBRANCH  15  18
BRANCH  17  20
ATOM     20  O   UNL     1      73.469   4.810  22.604  1.00  0.00    -0.504 OA
ATOM     21  H   UNL     1      73.036   4.117  23.203  1.00  0.00     0.293 HD
ENDBRANCH  17  20
ENDBRANCH   1  12
BRANCH   2  22
ATOM     22  O   UNL     1      73.734   6.138  17.236  1.00  0.00    -0.502 OA
ATOM     23  H   UNL     1      73.228   5.659  17.971  1.00  0.00     0.293 HD
ENDBRANCH   2  22
BRANCH   6  24
ATOM     24  O   UNL     1      76.871   9.507  14.816  1.00  0.00    -0.507 OA
ATOM     25  H   UNL     1      76.150  10.212  14.923  1.00  0.00     0.293 HD
ENDBRANCH   6  24
BRANCH   8  26
ATOM     26  O   UNL     1      80.836   9.277  17.583  1.00  0.00    -0.508 OA
ATOM     27  H   UNL     1      81.209  10.141  17.211  1.00  0.00     0.293 HD
ENDBRANCH   8  26
TORSDOF 6
ENDMDL
MODEL 7
REMARK VINA RESULT:    -5.102      2.997      4.017
REMARK INTER + INTRA:          -6.257
REMARK INTER:                  -5.933
REMARK INTRA:                  -0.323
REMARK UNBOUND:                -0.111
REMARK SMILES O=c1c(O)c(-c2ccc(O)c(O)c2)oc2cc(O)cc(O)c12
REMARK SMILES IDX 5 1 3 2 2 3 1 4 22 5 20 6 19 7 17 8 16 9 15 10 14 11 6 12
REMARK SMILES IDX 7 13 8 14 9 15 13 16 11 17 10 18 12 20 4 22 21 24 18 26
REMARK H PARENT 10 19 12 21 4 23 21 25 18 27
REMARK Flexibility Score: inf
ROOT
ATOM      1  C   UNL     1      68.372   9.438  14.744  1.00  0.00     0.180 A 
ATOM      2  C   UNL     1      67.954  10.708  15.186  1.00  0.00     0.208 A 
ATOM      3  C   UNL     1      66.729  10.822  15.863  1.00  0.00     0.238 A 
ATOM      4  O   UNL     1      66.350  11.952  16.273  1.00  0.00    -0.285 OA
ATOM      5  C   UNL     1      65.937   9.673  16.068  1.00  0.00     0.111 A 
ATOM      6  C   UNL     1      64.690   9.703  16.737  1.00  0.00     0.134 A 
ATOM      7  C   UNL     1      63.956   8.517  16.893  1.00  0.00     0.093 A 
ATOM      8  C   UNL     1      64.445   7.305  16.393  1.00  0.00     0.123 A 
ATOM      9  C   UNL     1      65.675   7.271  15.734  1.00  0.00     0.094 A 
ATOM     10  C   UNL     1      66.423   8.441  15.569  1.00  0.00     0.146 A 
ATOM     11  O   UNL     1      67.591   8.379  14.942  1.00  0.00    -0.452 OA
ENDROOT
BRANCH   1  12
ATOM     12  C   UNL     1      69.658   9.234  14.040  1.00  0.00     0.025 A 
ATOM     13  C   UNL     1      70.829   9.029  14.787  1.00  0.00     0.016 A 
ATOM     14  C   UNL     1      72.058   8.854  14.144  1.00  0.00     0.051 A 
ATOM     15  C   UNL     1      72.134   8.899  12.746  1.00  0.00     0.157 A 
ATOM     16  C   UNL     1      69.744   9.298  12.637  1.00  0.00     0.062 A 
ATOM     17  C   UNL     1      70.977   9.125  11.992  1.00  0.00     0.158 A 
BRANCH  15  18
ATOM     18  O   UNL     1      73.357   8.724  12.100  1.00  0.00    -0.504 OA
ATOM     19  H   UNL     1      74.197   8.477  12.612  1.00  0.00     0.293 HD
ENDBRANCH  15  18
BRANCH  17  20
ATOM     20  O   UNL     1      71.059   9.182  10.601  1.00  0.00    -0.504 OA
ATOM     21  H   UNL     1      71.302   8.367  10.050  1.00  0.00     0.293 HD
ENDBRANCH  17  20
ENDBRANCH   1  12
BRANCH   2  22
ATOM     22  O   UNL     1      68.734  11.837  14.927  1.00  0.00    -0.502 OA
ATOM     23  H   UNL     1      69.228  11.967  14.052  1.00  0.00     0.293 HD
ENDBRANCH   2  22
BRANCH   6  24
ATOM     24  O   UNL     1      64.176  10.895  17.246  1.00  0.00    -0.507 OA
ATOM     25  H   UNL     1      64.168  11.092  18.240  1.00  0.00     0.293 HD
ENDBRANCH   6  24
BRANCH   8  26
ATOM     26  O   UNL     1      63.716   6.128  16.547  1.00  0.00    -0.508 OA
ATOM     27  H   UNL     1      63.421   5.803  17.460  1.00  0.00     0.293 HD
ENDBRANCH   8  26
TORSDOF 6
ENDMDL
MODEL 8
REMARK VINA RESULT:    -5.081      7.742      9.921
REMARK INTER + INTRA:          -6.232
REMARK INTER:                  -5.900
REMARK INTRA:                  -0.333
REMARK UNBOUND:                -0.111
REMARK SMILES O=c1c(O)c(-c2ccc(O)c(O)c2)oc2cc(O)cc(O)c12
REMARK SMILES IDX 5 1 3 2 2 3 1 4 22 5 20 6 19 7 17 8 16 9 15 10 14 11 6 12
REMARK SMILES IDX 7 13 8 14 9 15 13 16 11 17 10 18 12 20 4 22 21 24 18 26
REMARK H PARENT 10 19 12 21 4 23 21 25 18 27
REMARK Flexibility Score: inf
ROOT
ATOM      1  C   UNL     1      74.155   7.281  15.993  1.00  0.00     0.180 A 
ATOM      2  C   UNL     1      74.940   7.194  14.827  1.00  0.00     0.208 A 
ATOM      3  C   UNL     1      74.417   7.678  13.618  1.00  0.00     0.238 A 
ATOM      4  O   UNL     1      75.116   7.614  12.570  1.00  0.00    -0.285 OA
ATOM      5  C   UNL     1      73.116   8.222  13.590  1.00  0.00     0.111 A 
ATOM      6  C   UNL     1      72.513   8.727  12.413  1.00  0.00     0.134 A 
ATOM      7  C   UNL     1      71.210   9.243  12.465  1.00  0.00     0.093 A 
ATOM      8  C   UNL     1      70.499   9.262  13.670  1.00  0.00     0.123 A 
ATOM      9  C   UNL     1      71.089   8.765  14.833  1.00  0.00     0.094 A 
ATOM     10  C   UNL     1      72.388   8.248  14.803  1.00  0.00     0.146 A 
ATOM     11  O   UNL     1      72.926   7.786  15.925  1.00  0.00    -0.452 OA
ENDROOT
BRANCH   1  12
ATOM     12  C   UNL     1      74.644   6.809  17.308  1.00  0.00     0.025 A 
ATOM     13  C   UNL     1      74.300   5.522  17.751  1.00  0.00     0.016 A 
ATOM     14  C   UNL     1      74.733   5.064  18.998  1.00  0.00     0.051 A 
ATOM     15  C   UNL     1      75.502   5.892  19.826  1.00  0.00     0.157 A 
ATOM     16  C   UNL     1      75.399   7.645  18.152  1.00  0.00     0.062 A 
ATOM     17  C   UNL     1      75.831   7.185  19.404  1.00  0.00     0.158 A 
BRANCH  15  18
ATOM     18  O   UNL     1      75.938   5.438  21.070  1.00  0.00    -0.504 OA
ATOM     19  H   UNL     1      75.767   5.967  21.917  1.00  0.00     0.293 HD
ENDBRANCH  15  18
BRANCH  17  20
ATOM     20  O   UNL     1      76.586   8.012  20.236  1.00  0.00    -0.504 OA
ATOM     21  H   UNL     1      77.552   7.802  20.458  1.00  0.00     0.293 HD
ENDBRANCH  17  20
ENDBRANCH   1  12
BRANCH   2  22
ATOM     22  O   UNL     1      76.207   6.606  14.872  1.00  0.00    -0.502 OA
ATOM     23  H   UNL     1      76.370   5.646  14.596  1.00  0.00     0.293 HD
ENDBRANCH   2  22
BRANCH   6  24
ATOM     24  O   UNL     1      73.197   8.721  11.197  1.00  0.00    -0.507 OA
ATOM     25  H   UNL     1      74.208   8.661  11.153  1.00  0.00     0.293 HD
ENDBRANCH   6  24
BRANCH   8  26
ATOM     26  O   UNL     1      69.204   9.774  13.722  1.00  0.00    -0.508 OA
ATOM     27  H   UNL     1      68.957  10.639  13.257  1.00  0.00     0.293 HD
ENDBRANCH   8  26
TORSDOF 6
ENDMDL
MODEL 9
REMARK VINA RESULT:    -5.066      5.065      7.071
REMARK INTER + INTRA:          -6.214
REMARK INTER:                  -6.054
REMARK INTRA:                  -0.160
REMARK UNBOUND:                -0.111
REMARK SMILES O=c1c(O)c(-c2ccc(O)c(O)c2)oc2cc(O)cc(O)c12
REMARK SMILES IDX 5 1 3 2 2 3 1 4 22 5 20 6 19 7 17 8 16 9 15 10 14 11 6 12
REMARK SMILES IDX 7 13 8 14 9 15 13 16 11 17 10 18 12 20 4 22 21 24 18 26
REMARK H PARENT 10 19 12 21 4 23 21 25 18 27
REMARK Flexibility Score: inf
ROOT
ATOM      1  C   UNL     1      71.336   8.707  14.608  1.00  0.00     0.180 A 
ATOM      2  C   UNL     1      70.267   7.795  14.702  1.00  0.00     0.208 A 
ATOM      3  C   UNL     1      68.959   8.291  14.813  1.00  0.00     0.238 A 
ATOM      4  O   UNL     1      67.993   7.483  14.886  1.00  0.00    -0.285 OA
ATOM      5  C   UNL     1      68.742   9.684  14.846  1.00  0.00     0.111 A 
ATOM      6  C   UNL     1      67.456  10.265  14.959  1.00  0.00     0.134 A 
ATOM      7  C   UNL     1      67.324  11.661  14.996  1.00  0.00     0.093 A 
ATOM      8  C   UNL     1      68.452  12.485  14.923  1.00  0.00     0.123 A 
ATOM      9  C   UNL     1      69.722  11.917  14.811  1.00  0.00     0.094 A 
ATOM     10  C   UNL     1      69.875  10.528  14.771  1.00  0.00     0.146 A 
ATOM     11  O   UNL     1      71.094  10.015  14.659  1.00  0.00    -0.452 OA
ENDROOT
BRANCH   1  12
ATOM     12  C   UNL     1      72.741   8.262  14.471  1.00  0.00     0.025 A 
ATOM     13  C   UNL     1      73.433   8.519  13.277  1.00  0.00     0.016 A 
ATOM     14  C   UNL     1      74.753   8.090  13.117  1.00  0.00     0.051 A 
ATOM     15  C   UNL     1      75.394   7.384  14.144  1.00  0.00     0.157 A 
ATOM     16  C   UNL     1      73.382   7.534  15.491  1.00  0.00     0.062 A 
ATOM     17  C   UNL     1      74.706   7.102  15.330  1.00  0.00     0.158 A 
BRANCH  15  18
ATOM     18  O   UNL     1      76.712   6.956  13.990  1.00  0.00    -0.504 OA
ATOM     19  H   UNL     1      77.494   7.537  14.266  1.00  0.00     0.293 HD
ENDBRANCH  15  18
BRANCH  17  20
ATOM     20  O   UNL     1      75.342   6.388  16.344  1.00  0.00    -0.504 OA
ATOM     21  H   UNL     1      75.391   5.376  16.331  1.00  0.00     0.293 HD
ENDBRANCH  17  20
ENDBRANCH   1  12
BRANCH   2  22
ATOM     22  O   UNL     1      70.513   6.420  14.715  1.00  0.00    -0.502 OA
ATOM     23  H   UNL     1      70.022   5.775  14.107  1.00  0.00     0.293 HD
ENDBRANCH   2  22
BRANCH   6  24
ATOM     24  O   UNL     1      66.312   9.469  15.035  1.00  0.00    -0.507 OA
ATOM     25  H   UNL     1      66.130   8.872  15.833  1.00  0.00     0.293 HD
ENDBRANCH   6  24
BRANCH   8  26
ATOM     26  O   UNL     1      68.322  13.872  14.960  1.00  0.00    -0.508 OA
ATOM     27  H   UNL     1      69.113  14.484  14.798  1.00  0.00     0.293 HD
ENDBRANCH   8  26
TORSDOF 6
ENDMDL
