MODEL 1
REMARK VINA RESULT:    -3.809      0.000      0.000
REMARK INTER + INTRA:          -4.881
REMARK INTER:                  -4.811
REMARK INTRA:                  -0.070
REMARK UNBOUND:                -0.070
REMARK SMILES CCCCCCO
REMARK SMILES IDX 4 1 3 2 2 3 1 4 5 5 6 6 7 7
REMARK H PARENT 7 8
REMARK Flexibility Score: inf
ROOT
ATOM      1  C   UNL     1      20.930  19.700  21.914  1.00  0.00     0.002 C 
ENDROOT
BRANCH   1   2
ATOM      2  C   UNL     1      20.223  18.918  23.028  1.00  0.00    -0.000 C 
BRANCH   2   3
ATOM      3  C   UNL     1      19.561  17.651  22.475  1.00  0.00    -0.003 C 
ATOM      4  C   UNL     1      19.191  17.819  21.004  1.00  0.00     0.004 C 
ENDBRANCH   2   3
ENDBRANCH   1   2
BRANCH   1   5
ATOM      5  C   UNL     1      21.770  20.844  22.492  1.00  0.00     0.028 C 
BRANCH   5   6
ATOM      6  C   UNL     1      23.009  21.107  21.634  1.00  0.00     0.156 C 
BRANCH   6   7
ATOM      7  O   UNL     1      23.808  22.096  22.227  1.00  0.00    -0.396 OA
ATOM      8  H   UNL     1      23.775  22.885  21.625  1.00  0.00     0.210 HD
ENDBRANCH   6   7
ENDBRANCH   5   6
ENDBRANCH   1   5
TORSDOF 5
ENDMDL
MODEL 2
REMARK VINA RESULT:    -3.601      2.703      4.523
REMARK INTER + INTRA:          -4.618
REMARK INTER:                  -4.580
REMARK INTRA:                  -0.038
REMARK UNBOUND:                -0.070
REMARK SMILES CCCCCCO
REMARK SMILES IDX 4 1 3 2 2 3 1 4 5 5 6 6 7 7
REMARK H PARENT 7 8
REMARK Flexibility Score: inf
ROOT
ATOM      1  C   UNL     1      20.669  19.372  21.790  1.00  0.00     0.002 C 
ENDROOT
BRANCH   1   2
ATOM      2  C   UNL     1      21.514  20.264  22.708  1.00  0.00    -0.000 C 
BRANCH   2   3
ATOM      3  C   UNL     1      22.196  21.383  21.911  1.00  0.00    -0.003 C 
ATOM      4  C   UNL     1      21.981  22.741  22.574  1.00  0.00     0.004 C 
ENDBRANCH   2   3
ENDBRANCH   1   2
BRANCH   1   5
ATOM      5  C   UNL     1      20.181  18.124  22.534  1.00  0.00     0.028 C 
BRANCH   5   6
ATOM      6  C   UNL     1      19.093  17.398  21.739  1.00  0.00     0.156 C 
BRANCH   6   7
ATOM      7  O   UNL     1      19.390  17.432  20.369  1.00  0.00    -0.396 OA
ATOM      8  H   UNL     1      20.190  16.858  20.238  1.00  0.00     0.210 HD
ENDBRANCH   6   7
ENDBRANCH   5   6
ENDBRANCH   1   5
TORSDOF 5
ENDMDL
MODEL 3
REMARK VINA RESULT:    -3.596      1.291      1.846
REMARK INTER + INTRA:          -4.612
REMARK INTER:                  -4.545
REMARK INTRA:                  -0.066
REMARK UNBOUND:                -0.070
REMARK SMILES CCCCCCO
REMARK SMILES IDX 4 1 3 2 2 3 1 4 5 5 6 6 7 7
REMARK H PARENT 7 8
REMARK Flexibility Score: inf
ROOT
ATOM      1  C   UNL     1      21.907  21.378  21.759  1.00  0.00     0.002 C 
ENDROOT
BRANCH   1   2
ATOM      2  C   UNL     1      21.515  20.119  22.542  1.00  0.00    -0.000 C 
BRANCH   2   3
ATOM      3  C   UNL     1      20.468  19.300  21.777  1.00  0.00    -0.003 C 
ATOM      4  C   UNL     1      20.031  18.078  22.579  1.00  0.00     0.004 C 
ENDBRANCH   2   3
ENDBRANCH   1   2
BRANCH   1   5
ATOM      5  C   UNL     1      21.902  22.614  22.667  1.00  0.00     0.028 C 
BRANCH   5   6
ATOM      6  C   UNL     1      23.272  23.298  22.675  1.00  0.00     0.156 C 
BRANCH   6   7
ATOM      7  O   UNL     1      24.263  22.402  22.249  1.00  0.00    -0.396 OA
ATOM      8  H   UNL     1      24.060  22.183  21.302  1.00  0.00     0.210 HD
ENDBRANCH   6   7
ENDBRANCH   5   6
ENDBRANCH   1   5
TORSDOF 5
ENDMDL
MODEL 4
REMARK VINA RESULT:    -3.533      2.515      4.221
REMARK INTER + INTRA:          -4.532
REMARK INTER:                  -4.441
REMARK INTRA:                  -0.091
REMARK UNBOUND:                -0.070
REMARK SMILES CCCCCCO
REMARK SMILES IDX 4 1 3 2 2 3 1 4 5 5 6 6 7 7
REMARK H PARENT 7 8
REMARK Flexibility Score: inf
ROOT
ATOM      1  C   UNL     1      20.170  18.461  21.404  1.00  0.00     0.002 C 
ENDROOT
BRANCH   1   2
ATOM      2  C   UNL     1      20.360  19.749  22.215  1.00  0.00    -0.000 C 
BRANCH   2   3
ATOM      3  C   UNL     1      21.778  20.304  22.041  1.00  0.00    -0.003 C 
ATOM      4  C   UNL     1      21.793  21.826  22.161  1.00  0.00     0.004 C 
ENDBRANCH   2   3
ENDBRANCH   1   2
BRANCH   1   5
ATOM      5  C   UNL     1      19.317  17.447  22.173  1.00  0.00     0.028 C 
BRANCH   5   6
ATOM      6  C   UNL     1      19.977  17.063  23.499  1.00  0.00     0.156 C 
BRANCH   6   7
ATOM      7  O   UNL     1      21.271  16.574  23.272  1.00  0.00    -0.396 OA
ATOM      8  H   UNL     1      21.346  16.412  22.295  1.00  0.00     0.210 HD
ENDBRANCH   6   7
ENDBRANCH   5   6
ENDBRANCH   1   5
TORSDOF 5
ENDMDL
MODEL 5
REMARK VINA RESULT:    -3.479      1.876      2.539
REMARK INTER + INTRA:          -4.464
REMARK INTER:                  -4.370
REMARK INTRA:                  -0.094
REMARK UNBOUND:                -0.070
REMARK SMILES CCCCCCO
REMARK SMILES IDX 4 1 3 2 2 3 1 4 5 5 6 6 7 7
REMARK H PARENT 7 8
REMARK Flexibility Score: inf
ROOT
ATOM      1  C   UNL     1      20.711  18.059  22.214  1.00  0.00     0.002 C 
ENDROOT
BRANCH   1   2
ATOM      2  C   UNL     1      19.505  17.388  22.883  1.00  0.00    -0.000 C 
BRANCH   2   3
ATOM      3  C   UNL     1      19.742  17.204  24.387  1.00  0.00    -0.003 C 
ATOM      4  C   UNL     1      20.408  15.862  24.680  1.00  0.00     0.004 C 
ENDBRANCH   2   3
ENDBRANCH   1   2
BRANCH   1   5
ATOM      5  C   UNL     1      20.402  19.519  21.862  1.00  0.00     0.028 C 
BRANCH   5   6
ATOM      6  C   UNL     1      21.538  20.445  22.303  1.00  0.00     0.156 C 
BRANCH   6   7
ATOM      7  O   UNL     1      21.409  20.754  23.664  1.00  0.00    -0.396 OA
ATOM      8  H   UNL     1      21.131  19.918  24.120  1.00  0.00     0.210 HD
ENDBRANCH   6   7
ENDBRANCH   5   6
ENDBRANCH   1   5
TORSDOF 5
ENDMDL
MODEL 6
REMARK VINA RESULT:    -3.445     10.052     11.811
REMARK INTER + INTRA:          -4.421
REMARK INTER:                  -4.366
REMARK INTRA:                  -0.055
REMARK UNBOUND:                -0.070
REMARK SMILES CCCCCCO
REMARK SMILES IDX 4 1 3 2 2 3 1 4 5 5 6 6 7 7
REMARK H PARENT 7 8
REMARK Flexibility Score: inf
ROOT
ATOM      1  C   UNL     1      30.531  25.242  22.038  1.00  0.00     0.002 C 
ENDROOT
BRANCH   1   2
ATOM      2  C   UNL     1      31.286  26.435  22.636  1.00  0.00    -0.000 C 
BRANCH   2   3
ATOM      3  C   UNL     1      32.724  26.048  23.002  1.00  0.00    -0.003 C 
ATOM      4  C   UNL     1      32.773  25.309  24.336  1.00  0.00     0.004 C 
ENDBRANCH   2   3
ENDBRANCH   1   2
BRANCH   1   5
ATOM      5  C   UNL     1      29.058  25.589  21.794  1.00  0.00     0.028 C 
BRANCH   5   6
ATOM      6  C   UNL     1      28.902  26.509  20.581  1.00  0.00     0.156 C 
BRANCH   6   7
ATOM      7  O   UNL     1      27.699  26.234  19.916  1.00  0.00    -0.396 OA
ATOM      8  H   UNL     1      27.117  27.029  20.042  1.00  0.00     0.210 HD
ENDBRANCH   6   7
ENDBRANCH   5   6
ENDBRANCH   1   5
TORSDOF 5
ENDMDL
MODEL 7
REMARK VINA RESULT:    -3.289      9.909     12.095
REMARK INTER + INTRA:          -4.223
REMARK INTER:                  -4.141
REMARK INTRA:                  -0.083
REMARK UNBOUND:                -0.070
REMARK SMILES CCCCCCO
REMARK SMILES IDX 4 1 3 2 2 3 1 4 5 5 6 6 7 7
REMARK H PARENT 7 8
REMARK Flexibility Score: inf
ROOT
ATOM      1  C   UNL     1      30.508  26.289  22.482  1.00  0.00     0.002 C 
ENDROOT
BRANCH   1   2
ATOM      2  C   UNL     1      31.718  25.408  22.818  1.00  0.00    -0.000 C 
BRANCH   2   3
ATOM      3  C   UNL     1      32.994  26.250  22.940  1.00  0.00    -0.003 C 
ATOM      4  C   UNL     1      32.710  27.724  22.662  1.00  0.00     0.004 C 
ENDBRANCH   2   3
ENDBRANCH   1   2
BRANCH   1   5
ATOM      5  C   UNL     1      29.547  25.564  21.533  1.00  0.00     0.028 C 
BRANCH   5   6
ATOM      6  C   UNL     1      28.213  26.306  21.427  1.00  0.00     0.156 C 
BRANCH   6   7
ATOM      7  O   UNL     1      27.776  26.328  20.095  1.00  0.00    -0.396 OA
ATOM      8  H   UNL     1      27.742  25.383  19.791  1.00  0.00     0.210 HD
ENDBRANCH   6   7
ENDBRANCH   5   6
ENDBRANCH   1   5
TORSDOF 5
ENDMDL
MODEL 8
REMARK VINA RESULT:    -3.169      9.852     12.459
REMARK INTER + INTRA:          -4.072
REMARK INTER:                  -4.000
REMARK INTRA:                  -0.072
REMARK UNBOUND:                -0.070
REMARK SMILES CCCCCCO
REMARK SMILES IDX 4 1 3 2 2 3 1 4 5 5 6 6 7 7
REMARK H PARENT 7 8
REMARK Flexibility Score: inf
ROOT
ATOM      1  C   UNL     1      30.479  26.653  22.348  1.00  0.00     0.002 C 
ENDROOT
BRANCH   1   2
ATOM      2  C   UNL     1      30.524  27.975  21.570  1.00  0.00    -0.000 C 
BRANCH   2   3
ATOM      3  C   UNL     1      31.485  28.969  22.232  1.00  0.00    -0.003 C 
ATOM      4  C   UNL     1      32.844  28.967  21.537  1.00  0.00     0.004 C 
ENDBRANCH   2   3
ENDBRANCH   1   2
BRANCH   1   5
ATOM      5  C   UNL     1      29.507  25.664  21.695  1.00  0.00     0.028 C 
BRANCH   5   6
ATOM      6  C   UNL     1      28.133  26.302  21.478  1.00  0.00     0.156 C 
BRANCH   6   7
ATOM      7  O   UNL     1      27.814  26.312  20.113  1.00  0.00    -0.396 OA
ATOM      8  H   UNL     1      28.522  26.839  19.659  1.00  0.00     0.210 HD
ENDBRANCH   6   7
ENDBRANCH   5   6
ENDBRANCH   1   5
TORSDOF 5
ENDMDL
MODEL 9
REMARK VINA RESULT:    -3.055      9.067     10.616
REMARK INTER + INTRA:          -3.928
REMARK INTER:                  -3.854
REMARK INTRA:                  -0.074
REMARK UNBOUND:                -0.070
REMARK SMILES CCCCCCO
REMARK SMILES IDX 4 1 3 2 2 3 1 4 5 5 6 6 7 7
REMARK H PARENT 7 8
REMARK Flexibility Score: inf
ROOT
ATOM      1  C   UNL     1      28.151  25.912  21.825  1.00  0.00     0.002 C 
ENDROOT
BRANCH   1   2
ATOM      2  C   UNL     1      29.597  26.304  21.495  1.00  0.00    -0.000 C 
BRANCH   2   3
ATOM      3  C   UNL     1      30.572  25.186  21.884  1.00  0.00    -0.003 C 
ATOM      4  C   UNL     1      31.652  25.702  22.831  1.00  0.00     0.004 C 
ENDBRANCH   2   3
ENDBRANCH   1   2
BRANCH   1   5
ATOM      5  C   UNL     1      27.608  26.745  22.992  1.00  0.00     0.028 C 
BRANCH   5   6
ATOM      6  C   UNL     1      26.082  26.841  22.938  1.00  0.00     0.156 C 
BRANCH   6   7
ATOM      7  O   UNL     1      25.680  28.184  22.965  1.00  0.00    -0.396 OA
ATOM      8  H   UNL     1      25.276  28.378  22.079  1.00  0.00     0.210 HD
ENDBRANCH   6   7
ENDBRANCH   5   6
ENDBRANCH   1   5
TORSDOF 5
ENDMDL
