MODEL 1
REMARK VINA RESULT:    -6.506      0.000      0.000
REMARK INTER + INTRA:         -10.797
REMARK INTER:                 -10.120
REMARK INTRA:                  -0.677
REMARK UNBOUND:                -0.677
REMARK SMILES C[C@]12C[C@]3(O)O[C@H](O1)[C@@]1(COC(=O)c4ccccc4)[C@@H]3C[C@]12O[C@H]1O[C@H](CO)[C@@H](O)[C@H](O)[C@@H]1O
REMARK SMILES IDX 1 1 2 2 3 3 4 4 20 5 21 6 22 7 9 8 7 9 8 10 6 11 23 12 24 13
REMARK SMILES IDX 33 14 25 15 31 16 26 17 29 18 34 19 32 21 27 23 28 24 30 26
REMARK SMILES IDX 5 28 10 30 11 31 12 32 13 33 14 34 15 35 19 36 16 37 18 38
REMARK SMILES IDX 17 39
REMARK H PARENT 34 20 32 22 28 25 30 27 5 29
REMARK Flexibility Score: inf
ROOT
ATOM      1  C   UNL     1      -5.626 -30.797  -1.067  1.00  0.00     0.046 C 
ATOM      2  C   UNL     1      -4.366 -30.241  -0.404  1.00  0.00     0.104 C 
ATOM      3  C   UNL     1      -4.021 -31.008   0.926  1.00  0.00     0.104 C 
ATOM      4  C   UNL     1      -2.674 -30.346   1.396  1.00  0.00     0.175 C 
ATOM      5  C   UNL     1      -1.649 -30.290   0.216  1.00  0.00     0.070 C 
ATOM      6  C   UNL     1      -2.002 -31.245  -0.934  1.00  0.00     0.050 C 
ATOM      7  C   UNL     1      -3.093 -30.222  -1.325  1.00  0.00     0.115 C 
ATOM      8  C   UNL     1      -2.298 -29.161  -0.571  1.00  0.00     0.096 C 
ATOM      9  C   UNL     1      -3.263 -28.467   0.373  1.00  0.00     0.267 C 
ATOM     10  O   UNL     1      -4.557 -28.889  -0.026  1.00  0.00    -0.342 OA
ATOM     11  O   UNL     1      -2.978 -28.990   1.661  1.00  0.00    -0.320 OA
ENDROOT
BRANCH   7  12
ATOM     12  O   UNL     1      -3.274 -29.890  -2.692  1.00  0.00    -0.339 OA
BRANCH  12  13
ATOM     13  C   UNL     1      -2.733 -30.869  -3.571  1.00  0.00     0.282 C 
ATOM     14  C   UNL     1      -2.259 -30.200  -4.874  1.00  0.00     0.202 C 
ATOM     15  O   UNL     1      -3.693 -31.877  -3.850  1.00  0.00    -0.341 OA
ATOM     16  C   UNL     1      -3.468 -29.623  -5.634  1.00  0.00     0.179 C 
ATOM     17  C   UNL     1      -4.870 -31.348  -4.444  1.00  0.00     0.178 C 
ATOM     18  C   UNL     1      -4.549 -30.701  -5.814  1.00  0.00     0.177 C 
BRANCH  14  19
ATOM     19  O   UNL     1      -1.593 -31.153  -5.664  1.00  0.00    -0.385 OA
ATOM     20  H   UNL     1      -1.743 -32.038  -5.239  1.00  0.00     0.211 HD
ENDBRANCH  14  19
BRANCH  16  21
ATOM     21  O   UNL     1      -3.068 -29.140  -6.891  1.00  0.00    -0.387 OA
ATOM     22  H   UNL     1      -2.329 -29.726  -7.199  1.00  0.00     0.211 HD
ENDBRANCH  16  21
BRANCH  17  23
ATOM     23  C   UNL     1      -5.875 -32.499  -4.591  1.00  0.00     0.191 C 
BRANCH  23  24
ATOM     24  O   UNL     1      -5.847 -33.018  -5.895  1.00  0.00    -0.394 OA
ATOM     25  H   UNL     1      -6.636 -33.612  -5.993  1.00  0.00     0.210 HD
ENDBRANCH  23  24
ENDBRANCH  17  23
BRANCH  18  26
ATOM     26  O   UNL     1      -5.708 -30.113  -6.348  1.00  0.00    -0.387 OA
ATOM     27  H   UNL     1      -6.185 -29.679  -5.594  1.00  0.00     0.211 HD
ENDBRANCH  18  26
ENDBRANCH  12  13
ENDBRANCH   7  12
BRANCH   4  28
ATOM     28  O   UNL     1      -2.128 -30.982   2.519  1.00  0.00    -0.365 OA
ATOM     29  H   UNL     1      -1.696 -30.274   3.064  1.00  0.00     0.214 HD
ENDBRANCH   4  28
BRANCH   8  30
ATOM     30  C   UNL     1      -1.344 -28.269  -1.385  1.00  0.00     0.249 C 
BRANCH  30  31
ATOM     31  O   UNL     1      -1.031 -27.098  -0.639  1.00  0.00    -0.461 OA
BRANCH  31  32
ATOM     32  C   UNL     1       0.156 -26.957   0.087  1.00  0.00     0.338 C 
ATOM     33  O   UNL     1       0.449 -27.788   0.991  1.00  0.00    -0.246 OA
BRANCH  32  34
ATOM     34  C   UNL     1       1.069 -25.832  -0.213  1.00  0.00     0.060 A 
ATOM     35  C   UNL     1       2.449 -26.062  -0.367  1.00  0.00     0.015 A 
ATOM     36  C   UNL     1       0.572 -24.523  -0.360  1.00  0.00     0.015 A 
ATOM     37  C   UNL     1       3.314 -25.001  -0.649  1.00  0.00     0.001 A 
ATOM     38  C   UNL     1       1.442 -23.467  -0.646  1.00  0.00     0.001 A 
ATOM     39  C   UNL     1       2.812 -23.704  -0.788  1.00  0.00     0.000 A 
ENDBRANCH  32  34
ENDBRANCH  31  32
ENDBRANCH  30  31
ENDBRANCH   8  30
TORSDOF 12
ENDMDL
MODEL 2
REMARK VINA RESULT:    -6.420      4.450      7.663
REMARK INTER + INTRA:         -10.663
REMARK INTER:                  -9.632
REMARK INTRA:                  -1.031
REMARK UNBOUND:                -0.677
REMARK SMILES C[C@]12C[C@]3(O)O[C@H](O1)[C@@]1(COC(=O)c4ccccc4)[C@@H]3C[C@]12O[C@H]1O[C@H](CO)[C@@H](O)[C@H](O)[C@@H]1O
REMARK SMILES IDX 1 1 2 2 3 3 4 4 20 5 21 6 22 7 9 8 7 9 8 10 6 11 23 12 24 13
REMARK SMILES IDX 33 14 25 15 31 16 26 17 29 18 34 19 32 21 27 23 28 24 30 26
REMARK SMILES IDX 5 28 10 30 11 31 12 32 13 33 14 34 15 35 19 36 16 37 18 38
REMARK SMILES IDX 17 39
REMARK H PARENT 34 20 32 22 28 25 30 27 5 29
REMARK Flexibility Score: inf
ROOT
ATOM      1  C   UNL     1      -8.517 -29.370  -4.859  1.00  0.00     0.046 C 
ATOM      2  C   UNL     1      -8.885 -29.339  -3.376  1.00  0.00     0.104 C 
ATOM      3  C   UNL     1     -10.246 -30.079  -3.098  1.00  0.00     0.104 C 
ATOM      4  C   UNL     1     -10.396 -30.003  -1.534  1.00  0.00     0.175 C 
ATOM      5  C   UNL     1      -9.077 -30.465  -0.834  1.00  0.00     0.070 C 
ATOM      6  C   UNL     1      -8.154 -31.271  -1.760  1.00  0.00     0.050 C 
ATOM      7  C   UNL     1      -7.786 -29.920  -2.415  1.00  0.00     0.115 C 
ATOM      8  C   UNL     1      -8.238 -29.232  -1.131  1.00  0.00     0.096 C 
ATOM      9  C   UNL     1      -9.204 -28.131  -1.530  1.00  0.00     0.267 C 
ATOM     10  O   UNL     1      -9.079 -28.006  -2.938  1.00  0.00    -0.342 OA
ATOM     11  O   UNL     1     -10.497 -28.627  -1.219  1.00  0.00    -0.320 OA
ENDROOT
BRANCH   7  12
ATOM     12  O   UNL     1      -6.429 -29.646  -2.724  1.00  0.00    -0.339 OA
BRANCH  12  13
ATOM     13  C   UNL     1      -5.591 -30.786  -2.573  1.00  0.00     0.282 C 
ATOM     14  C   UNL     1      -4.226 -30.361  -1.999  1.00  0.00     0.202 C 
ATOM     15  O   UNL     1      -5.423 -31.453  -3.815  1.00  0.00    -0.341 OA
ATOM     16  C   UNL     1      -3.488 -29.470  -3.016  1.00  0.00     0.179 C 
ATOM     17  C   UNL     1      -4.852 -30.609  -4.805  1.00  0.00     0.178 C 
ATOM     18  C   UNL     1      -3.430 -30.161  -4.388  1.00  0.00     0.177 C 
BRANCH  14  19
ATOM     19  O   UNL     1      -3.470 -31.511  -1.716  1.00  0.00    -0.385 OA
ATOM     20  H   UNL     1      -3.979 -32.035  -1.044  1.00  0.00     0.211 HD
ENDBRANCH  14  19
BRANCH  16  21
ATOM     21  O   UNL     1      -2.185 -29.196  -2.568  1.00  0.00    -0.387 OA
ATOM     22  H   UNL     1      -2.266 -28.499  -1.866  1.00  0.00     0.211 HD
ENDBRANCH  16  21
BRANCH  17  23
ATOM     23  C   UNL     1      -4.827 -31.391  -6.125  1.00  0.00     0.191 C 
BRANCH  23  24
ATOM     24  O   UNL     1      -3.538 -31.880  -6.388  1.00  0.00    -0.394 OA
ATOM     25  H   UNL     1      -3.253 -31.507  -7.262  1.00  0.00     0.210 HD
ENDBRANCH  23  24
ENDBRANCH  17  23
BRANCH  18  26
ATOM     26  O   UNL     1      -2.914 -29.264  -5.338  1.00  0.00    -0.387 OA
ATOM     27  H   UNL     1      -3.479 -28.449  -5.304  1.00  0.00     0.211 HD
ENDBRANCH  18  26
ENDBRANCH  12  13
ENDBRANCH   7  12
BRANCH   4  28
ATOM     28  O   UNL     1     -11.505 -30.722  -1.067  1.00  0.00    -0.365 OA
ATOM     29  H   UNL     1     -11.279 -31.683  -1.162  1.00  0.00     0.214 HD
ENDBRANCH   4  28
BRANCH   8  30
ATOM     30  C   UNL     1      -7.160 -28.880  -0.090  1.00  0.00     0.249 C 
BRANCH  30  31
ATOM     31  O   UNL     1      -7.586 -27.761   0.680  1.00  0.00    -0.461 OA
BRANCH  31  32
ATOM     32  C   UNL     1      -8.002 -27.871   2.011  1.00  0.00     0.338 C 
ATOM     33  O   UNL     1      -7.168 -28.151   2.915  1.00  0.00    -0.246 OA
BRANCH  32  34
ATOM     34  C   UNL     1      -9.424 -27.651   2.353  1.00  0.00     0.060 A 
ATOM     35  C   UNL     1      -9.884 -26.360   2.673  1.00  0.00     0.015 A 
ATOM     36  C   UNL     1     -10.337 -28.722   2.353  1.00  0.00     0.015 A 
ATOM     37  C   UNL     1     -11.227 -26.150   3.000  1.00  0.00     0.001 A 
ATOM     38  C   UNL     1     -11.680 -28.505   2.676  1.00  0.00     0.001 A 
ATOM     39  C   UNL     1     -12.125 -27.220   3.001  1.00  0.00     0.000 A 
ENDBRANCH  32  34
ENDBRANCH  31  32
ENDBRANCH  30  31
ENDBRANCH   8  30
TORSDOF 12
ENDMDL
MODEL 3
REMARK VINA RESULT:    -6.346      3.894      8.127
REMARK INTER + INTRA:         -10.547
REMARK INTER:                  -9.613
REMARK INTRA:                  -0.934
REMARK UNBOUND:                -0.677
REMARK SMILES C[C@]12C[C@]3(O)O[C@H](O1)[C@@]1(COC(=O)c4ccccc4)[C@@H]3C[C@]12O[C@H]1O[C@H](CO)[C@@H](O)[C@H](O)[C@@H]1O
REMARK SMILES IDX 1 1 2 2 3 3 4 4 20 5 21 6 22 7 9 8 7 9 8 10 6 11 23 12 24 13
REMARK SMILES IDX 33 14 25 15 31 16 26 17 29 18 34 19 32 21 27 23 28 24 30 26
REMARK SMILES IDX 5 28 10 30 11 31 12 32 13 33 14 34 15 35 19 36 16 37 18 38
REMARK SMILES IDX 17 39
REMARK H PARENT 34 20 32 22 28 25 30 27 5 29
REMARK Flexibility Score: inf
ROOT
ATOM      1  C   UNL     1     -10.958 -31.891  -5.312  1.00  0.00     0.046 C 
ATOM      2  C   UNL     1      -9.580 -31.489  -5.837  1.00  0.00     0.104 C 
ATOM      3  C   UNL     1      -9.639 -31.043  -7.345  1.00  0.00     0.104 C 
ATOM      4  C   UNL     1      -8.162 -30.602  -7.658  1.00  0.00     0.175 C 
ATOM      5  C   UNL     1      -7.635 -29.627  -6.555  1.00  0.00     0.070 C 
ATOM      6  C   UNL     1      -8.760 -29.001  -5.718  1.00  0.00     0.050 C 
ATOM      7  C   UNL     1      -8.862 -30.368  -5.003  1.00  0.00     0.115 C 
ATOM      8  C   UNL     1      -7.431 -30.651  -5.450  1.00  0.00     0.096 C 
ATOM      9  C   UNL     1      -7.433 -32.017  -6.112  1.00  0.00     0.267 C 
ATOM     10  O   UNL     1      -8.691 -32.592  -5.799  1.00  0.00    -0.342 OA
ATOM     11  O   UNL     1      -7.368 -31.764  -7.507  1.00  0.00    -0.320 OA
ENDROOT
BRANCH   7  12
ATOM     12  O   UNL     1      -9.003 -30.403  -3.592  1.00  0.00    -0.339 OA
BRANCH  12  13
ATOM     13  C   UNL     1      -9.912 -29.422  -3.106  1.00  0.00     0.282 C 
ATOM     14  C   UNL     1      -9.160 -28.392  -2.244  1.00  0.00     0.202 C 
ATOM     15  O   UNL     1     -10.954 -30.031  -2.359  1.00  0.00    -0.341 OA
ATOM     16  C   UNL     1      -8.613 -29.073  -0.976  1.00  0.00     0.179 C 
ATOM     17  C   UNL     1     -10.461 -30.767  -1.250  1.00  0.00     0.178 C 
ATOM     18  C   UNL     1      -9.736 -29.832  -0.250  1.00  0.00     0.177 C 
BRANCH  14  19
ATOM     19  O   UNL     1     -10.041 -27.352  -1.900  1.00  0.00    -0.385 OA
ATOM     20  H   UNL     1     -10.015 -26.692  -2.641  1.00  0.00     0.211 HD
ENDBRANCH  14  19
BRANCH  16  21
ATOM     21  O   UNL     1      -8.052 -28.118  -0.112  1.00  0.00    -0.387 OA
ATOM     22  H   UNL     1      -7.087 -28.334  -0.037  1.00  0.00     0.211 HD
ENDBRANCH  16  21
BRANCH  17  23
ATOM     23  C   UNL     1     -11.654 -31.472  -0.590  1.00  0.00     0.191 C 
BRANCH  23  24
ATOM     24  O   UNL     1     -12.093 -30.757   0.535  1.00  0.00    -0.394 OA
ATOM     25  H   UNL     1     -11.298 -30.315   0.932  1.00  0.00     0.210 HD
ENDBRANCH  23  24
ENDBRANCH  17  23
BRANCH  18  26
ATOM     26  O   UNL     1      -9.185 -30.588   0.798  1.00  0.00    -0.387 OA
ATOM     27  H   UNL     1      -9.882 -30.661   1.500  1.00  0.00     0.211 HD
ENDBRANCH  18  26
ENDBRANCH  12  13
ENDBRANCH   7  12
BRANCH   4  28
ATOM     28  O   UNL     1      -8.028 -30.049  -8.939  1.00  0.00    -0.365 OA
ATOM     29  H   UNL     1      -7.086 -29.751  -9.022  1.00  0.00     0.214 HD
ENDBRANCH   4  28
BRANCH   8  30
ATOM     30  C   UNL     1      -6.298 -30.353  -4.451  1.00  0.00     0.249 C 
BRANCH  30  31
ATOM     31  O   UNL     1      -5.066 -30.845  -4.966  1.00  0.00    -0.461 OA
BRANCH  31  32
ATOM     32  C   UNL     1      -3.857 -30.157  -4.827  1.00  0.00     0.338 C 
ATOM     33  O   UNL     1      -3.317 -29.615  -5.830  1.00  0.00    -0.246 OA
BRANCH  32  34
ATOM     34  C   UNL     1      -3.217 -30.062  -3.496  1.00  0.00     0.060 A 
ATOM     35  C   UNL     1      -2.775 -28.817  -3.010  1.00  0.00     0.015 A 
ATOM     36  C   UNL     1      -3.051 -31.208  -2.695  1.00  0.00     0.015 A 
ATOM     37  C   UNL     1      -2.168 -28.725  -1.754  1.00  0.00     0.001 A 
ATOM     38  C   UNL     1      -2.448 -31.108  -1.438  1.00  0.00     0.001 A 
ATOM     39  C   UNL     1      -2.004 -29.869  -0.968  1.00  0.00     0.000 A 
ENDBRANCH  32  34
ENDBRANCH  31  32
ENDBRANCH  30  31
ENDBRANCH   8  30
TORSDOF 12
ENDMDL
MODEL 4
REMARK VINA RESULT:    -6.215      1.578      2.061
REMARK INTER + INTRA:         -10.343
REMARK INTER:                  -9.469
REMARK INTRA:                  -0.874
REMARK UNBOUND:                -0.677
REMARK SMILES C[C@]12C[C@]3(O)O[C@H](O1)[C@@]1(COC(=O)c4ccccc4)[C@@H]3C[C@]12O[C@H]1O[C@H](CO)[C@@H](O)[C@H](O)[C@@H]1O
REMARK SMILES IDX 1 1 2 2 3 3 4 4 20 5 21 6 22 7 9 8 7 9 8 10 6 11 23 12 24 13
REMARK SMILES IDX 33 14 25 15 31 16 26 17 29 18 34 19 32 21 27 23 28 24 30 26
REMARK SMILES IDX 5 28 10 30 11 31 12 32 13 33 14 34 15 35 19 36 16 37 18 38
REMARK SMILES IDX 17 39
REMARK H PARENT 34 20 32 22 28 25 30 27 5 29
REMARK Flexibility Score: inf
ROOT
ATOM      1  C   UNL     1      -5.085 -29.524   0.910  1.00  0.00     0.046 C 
ATOM      2  C   UNL     1      -3.743 -28.871   1.239  1.00  0.00     0.104 C 
ATOM      3  C   UNL     1      -3.216 -29.304   2.657  1.00  0.00     0.104 C 
ATOM      4  C   UNL     1      -1.814 -28.598   2.762  1.00  0.00     0.175 C 
ATOM      5  C   UNL     1      -0.966 -28.869   1.477  1.00  0.00     0.070 C 
ATOM      6  C   UNL     1      -1.480 -30.062   0.657  1.00  0.00     0.050 C 
ATOM      7  C   UNL     1      -2.612 -29.124   0.177  1.00  0.00     0.115 C 
ATOM      8  C   UNL     1      -1.715 -27.942   0.532  1.00  0.00     0.096 C 
ATOM      9  C   UNL     1      -2.535 -27.004   1.399  1.00  0.00     0.267 C 
ATOM     10  O   UNL     1      -3.874 -27.461   1.295  1.00  0.00    -0.342 OA
ATOM     11  O   UNL     1      -2.073 -27.208   2.725  1.00  0.00    -0.320 OA
ENDROOT
BRANCH   7  12
ATOM     12  O   UNL     1      -2.982 -29.128  -1.192  1.00  0.00    -0.339 OA
BRANCH  12  13
ATOM     13  C   UNL     1      -2.617 -30.332  -1.856  1.00  0.00     0.282 C 
ATOM     14  C   UNL     1      -2.181 -30.023  -3.300  1.00  0.00     0.202 C 
ATOM     15  O   UNL     1      -3.695 -31.256  -1.848  1.00  0.00    -0.341 OA
ATOM     16  C   UNL     1      -3.380 -29.487  -4.104  1.00  0.00     0.179 C 
ATOM     17  C   UNL     1      -4.854 -30.733  -2.480  1.00  0.00     0.178 C 
ATOM     18  C   UNL     1      -4.578 -30.442  -3.976  1.00  0.00     0.177 C 
BRANCH  14  19
ATOM     19  O   UNL     1      -1.682 -31.198  -3.890  1.00  0.00    -0.385 OA
ATOM     20  H   UNL     1      -1.723 -31.069  -4.873  1.00  0.00     0.211 HD
ENDBRANCH  14  19
BRANCH  16  21
ATOM     21  O   UNL     1      -3.034 -29.339  -5.457  1.00  0.00    -0.387 OA
ATOM     22  H   UNL     1      -3.882 -29.358  -5.971  1.00  0.00     0.211 HD
ENDBRANCH  16  21
BRANCH  17  23
ATOM     23  C   UNL     1      -5.982 -31.761  -2.310  1.00  0.00     0.191 C 
BRANCH  23  24
ATOM     24  O   UNL     1      -6.267 -32.390  -3.531  1.00  0.00    -0.394 OA
ATOM     25  H   UNL     1      -5.670 -33.180  -3.603  1.00  0.00     0.210 HD
ENDBRANCH  23  24
ENDBRANCH  17  23
BRANCH  18  26
ATOM     26  O   UNL     1      -5.709 -29.852  -4.565  1.00  0.00    -0.387 OA
ATOM     27  H   UNL     1      -5.960 -30.417  -5.341  1.00  0.00     0.211 HD
ENDBRANCH  18  26
ENDBRANCH  12  13
ENDBRANCH   7  12
BRANCH   4  28
ATOM     28  O   UNL     1      -1.117 -28.962   3.923  1.00  0.00    -0.365 OA
ATOM     29  H   UNL     1      -0.451 -29.645   3.651  1.00  0.00     0.214 HD
ENDBRANCH   4  28
BRANCH   8  30
ATOM     30  C   UNL     1      -0.883 -27.311  -0.598  1.00  0.00     0.249 C 
BRANCH  30  31
ATOM     31  O   UNL     1      -0.476 -26.001  -0.219  1.00  0.00    -0.461 OA
BRANCH  31  32
ATOM     32  C   UNL     1       0.712 -25.746   0.471  1.00  0.00     0.338 C 
ATOM     33  O   UNL     1       0.751 -25.852   1.728  1.00  0.00    -0.246 OA
BRANCH  32  34
ATOM     34  C   UNL     1       1.926 -25.356  -0.280  1.00  0.00     0.060 A 
ATOM     35  C   UNL     1       2.198 -23.999  -0.530  1.00  0.00     0.015 A 
ATOM     36  C   UNL     1       2.829 -26.332  -0.742  1.00  0.00     0.015 A 
ATOM     37  C   UNL     1       3.344 -23.628  -1.242  1.00  0.00     0.001 A 
ATOM     38  C   UNL     1       3.975 -25.955  -1.448  1.00  0.00     0.001 A 
ATOM     39  C   UNL     1       4.232 -24.604  -1.700  1.00  0.00     0.000 A 
ENDBRANCH  32  34
ENDBRANCH  31  32
ENDBRANCH  30  31
ENDBRANCH   8  30
TORSDOF 12
ENDMDL
MODEL 5
REMARK VINA RESULT:    -6.202      5.004      8.618
REMARK INTER + INTRA:         -10.324
REMARK INTER:                  -9.219
REMARK INTRA:                  -1.105
REMARK UNBOUND:                -0.677
REMARK SMILES C[C@]12C[C@]3(O)O[C@H](O1)[C@@]1(COC(=O)c4ccccc4)[C@@H]3C[C@]12O[C@H]1O[C@H](CO)[C@@H](O)[C@H](O)[C@@H]1O
REMARK SMILES IDX 1 1 2 2 3 3 4 4 20 5 21 6 22 7 9 8 7 9 8 10 6 11 23 12 24 13
REMARK SMILES IDX 33 14 25 15 31 16 26 17 29 18 34 19 32 21 27 23 28 24 30 26
REMARK SMILES IDX 5 28 10 30 11 31 12 32 13 33 14 34 15 35 19 36 16 37 18 38
REMARK SMILES IDX 17 39
REMARK H PARENT 34 20 32 22 28 25 30 27 5 29
REMARK Flexibility Score: inf
ROOT
ATOM      1  C   UNL     1      -7.978 -32.984  -2.197  1.00  0.00     0.046 C 
ATOM      2  C   UNL     1      -8.736 -31.659  -2.273  1.00  0.00     0.104 C 
ATOM      3  C   UNL     1      -9.427 -31.303  -0.906  1.00  0.00     0.104 C 
ATOM      4  C   UNL     1     -10.071 -29.893  -1.172  1.00  0.00     0.175 C 
ATOM      5  C   UNL     1      -9.024 -28.925  -1.815  1.00  0.00     0.070 C 
ATOM      6  C   UNL     1      -7.575 -29.397  -1.630  1.00  0.00     0.050 C 
ATOM      7  C   UNL     1      -7.869 -30.433  -2.739  1.00  0.00     0.115 C 
ATOM      8  C   UNL     1      -9.006 -29.532  -3.209  1.00  0.00     0.096 C 
ATOM      9  C   UNL     1     -10.245 -30.401  -3.325  1.00  0.00     0.267 C 
ATOM     10  O   UNL     1      -9.785 -31.739  -3.222  1.00  0.00    -0.342 OA
ATOM     11  O   UNL     1     -11.036 -30.090  -2.188  1.00  0.00    -0.320 OA
ENDROOT
BRANCH   7  12
ATOM     12  O   UNL     1      -6.903 -30.656  -3.753  1.00  0.00    -0.339 OA
BRANCH  12  13
ATOM     13  C   UNL     1      -5.765 -31.367  -3.280  1.00  0.00     0.282 C 
ATOM     14  C   UNL     1      -4.541 -30.434  -3.244  1.00  0.00     0.202 C 
ATOM     15  O   UNL     1      -5.505 -32.498  -4.099  1.00  0.00    -0.341 OA
ATOM     16  C   UNL     1      -4.165 -30.010  -4.676  1.00  0.00     0.179 C 
ATOM     17  C   UNL     1      -5.273 -32.138  -5.453  1.00  0.00     0.178 C 
ATOM     18  C   UNL     1      -4.012 -31.247  -5.576  1.00  0.00     0.177 C 
BRANCH  14  19
ATOM     19  O   UNL     1      -3.468 -31.108  -2.634  1.00  0.00    -0.385 OA
ATOM     20  H   UNL     1      -3.851 -31.669  -1.910  1.00  0.00     0.211 HD
ENDBRANCH  14  19
BRANCH  16  21
ATOM     21  O   UNL     1      -2.966 -29.279  -4.668  1.00  0.00    -0.387 OA
ATOM     22  H   UNL     1      -2.254 -29.896  -4.981  1.00  0.00     0.211 HD
ENDBRANCH  16  21
BRANCH  17  23
ATOM     23  C   UNL     1      -5.122 -33.434  -6.261  1.00  0.00     0.191 C 
BRANCH  23  24
ATOM     24  O   UNL     1      -3.810 -33.568  -6.743  1.00  0.00    -0.394 OA
ATOM     25  H   UNL     1      -3.682 -32.878  -7.444  1.00  0.00     0.210 HD
ENDBRANCH  23  24
ENDBRANCH  17  23
BRANCH  18  26
ATOM     26  O   UNL     1      -3.845 -30.835  -6.908  1.00  0.00    -0.387 OA
ATOM     27  H   UNL     1      -2.957 -30.397  -6.966  1.00  0.00     0.211 HD
ENDBRANCH  18  26
ENDBRANCH  12  13
ENDBRANCH   7  12
BRANCH   4  28
ATOM     28  O   UNL     1     -10.642 -29.338  -0.019  1.00  0.00    -0.365 OA
ATOM     29  H   UNL     1      -9.925 -28.824   0.434  1.00  0.00     0.214 HD
ENDBRANCH   4  28
BRANCH   8  30
ATOM     30  C   UNL     1      -8.716 -28.560  -4.367  1.00  0.00     0.249 C 
BRANCH  30  31
ATOM     31  O   UNL     1      -9.236 -29.093  -5.580  1.00  0.00    -0.461 OA
BRANCH  31  32
ATOM     32  C   UNL     1      -8.436 -29.731  -6.533  1.00  0.00     0.338 C 
ATOM     33  O   UNL     1      -7.271 -29.308  -6.768  1.00  0.00    -0.246 OA
BRANCH  32  34
ATOM     34  C   UNL     1      -8.960 -30.908  -7.259  1.00  0.00     0.060 A 
ATOM     35  C   UNL     1     -10.213 -31.451  -6.918  1.00  0.00     0.015 A 
ATOM     36  C   UNL     1      -8.223 -31.494  -8.306  1.00  0.00     0.015 A 
ATOM     37  C   UNL     1     -10.710 -32.565  -7.602  1.00  0.00     0.001 A 
ATOM     38  C   UNL     1      -8.727 -32.604  -8.989  1.00  0.00     0.001 A 
ATOM     39  C   UNL     1      -9.969 -33.141  -8.636  1.00  0.00     0.000 A 
ENDBRANCH  32  34
ENDBRANCH  31  32
ENDBRANCH  30  31
ENDBRANCH   8  30
TORSDOF 12
ENDMDL
MODEL 6
REMARK VINA RESULT:    -6.201      4.273      6.812
REMARK INTER + INTRA:         -10.322
REMARK INTER:                  -9.725
REMARK INTRA:                  -0.597
REMARK UNBOUND:                -0.677
REMARK SMILES C[C@]12C[C@]3(O)O[C@H](O1)[C@@]1(COC(=O)c4ccccc4)[C@@H]3C[C@]12O[C@H]1O[C@H](CO)[C@@H](O)[C@H](O)[C@@H]1O
REMARK SMILES IDX 1 1 2 2 3 3 4 4 20 5 21 6 22 7 9 8 7 9 8 10 6 11 23 12 24 13
REMARK SMILES IDX 33 14 25 15 31 16 26 17 29 18 34 19 32 21 27 23 28 24 30 26
REMARK SMILES IDX 5 28 10 30 11 31 12 32 13 33 14 34 15 35 19 36 16 37 18 38
REMARK SMILES IDX 17 39
REMARK H PARENT 34 20 32 22 28 25 30 27 5 29
REMARK Flexibility Score: inf
ROOT
ATOM      1  C   UNL     1      -8.099 -29.834  -5.879  1.00  0.00     0.046 C 
ATOM      2  C   UNL     1      -8.709 -29.861  -4.478  1.00  0.00     0.104 C 
ATOM      3  C   UNL     1     -10.009 -30.746  -4.425  1.00  0.00     0.104 C 
ATOM      4  C   UNL     1     -10.422 -30.706  -2.909  1.00  0.00     0.175 C 
ATOM      5  C   UNL     1      -9.195 -31.032  -1.996  1.00  0.00     0.070 C 
ATOM      6  C   UNL     1      -8.050 -31.722  -2.752  1.00  0.00     0.050 C 
ATOM      7  C   UNL     1      -7.727 -30.332  -3.344  1.00  0.00     0.115 C 
ATOM      8  C   UNL     1      -8.458 -29.712  -2.157  1.00  0.00     0.096 C 
ATOM      9  C   UNL     1      -9.458 -28.717  -2.718  1.00  0.00     0.267 C 
ATOM     10  O   UNL     1      -9.116 -28.562  -4.086  1.00  0.00    -0.342 OA
ATOM     11  O   UNL     1     -10.723 -29.353  -2.622  1.00  0.00    -0.320 OA
ENDROOT
BRANCH   7  12
ATOM     12  O   UNL     1      -6.375 -29.909  -3.426  1.00  0.00    -0.339 OA
BRANCH  12  13
ATOM     13  C   UNL     1      -5.455 -30.968  -3.189  1.00  0.00     0.282 C 
ATOM     14  C   UNL     1      -4.187 -30.418  -2.510  1.00  0.00     0.202 C 
ATOM     15  O   UNL     1      -5.124 -31.625  -4.403  1.00  0.00    -0.341 OA
ATOM     16  C   UNL     1      -3.448 -29.471  -3.474  1.00  0.00     0.179 C 
ATOM     17  C   UNL     1      -4.550 -30.741  -5.354  1.00  0.00     0.178 C 
ATOM     18  C   UNL     1      -3.213 -30.163  -4.827  1.00  0.00     0.177 C 
BRANCH  14  19
ATOM     19  O   UNL     1      -3.357 -31.494  -2.148  1.00  0.00    -0.385 OA
ATOM     20  H   UNL     1      -2.790 -31.182  -1.395  1.00  0.00     0.211 HD
ENDBRANCH  14  19
BRANCH  16  21
ATOM     21  O   UNL     1      -2.217 -29.078  -2.923  1.00  0.00    -0.387 OA
ATOM     22  H   UNL     1      -2.423 -28.600  -2.078  1.00  0.00     0.211 HD
ENDBRANCH  16  21
BRANCH  17  23
ATOM     23  C   UNL     1      -4.344 -31.526  -6.656  1.00  0.00     0.191 C 
BRANCH  23  24
ATOM     24  O   UNL     1      -3.058 -32.087  -6.699  1.00  0.00    -0.394 OA
ATOM     25  H   UNL     1      -2.900 -32.390  -7.631  1.00  0.00     0.210 HD
ENDBRANCH  23  24
ENDBRANCH  17  23
BRANCH  18  26
ATOM     26  O   UNL     1      -2.701 -29.230  -5.744  1.00  0.00    -0.387 OA
ATOM     27  H   UNL     1      -1.747 -29.459  -5.887  1.00  0.00     0.211 HD
ENDBRANCH  18  26
ENDBRANCH  12  13
ENDBRANCH   7  12
BRANCH   4  28
ATOM     28  O   UNL     1     -11.509 -31.545  -2.627  1.00  0.00    -0.365 OA
ATOM     29  H   UNL     1     -11.490 -31.716  -1.650  1.00  0.00     0.214 HD
ENDBRANCH   4  28
BRANCH   8  30
ATOM     30  C   UNL     1      -7.611 -29.258  -0.954  1.00  0.00     0.249 C 
BRANCH  30  31
ATOM     31  O   UNL     1      -8.241 -28.153  -0.316  1.00  0.00    -0.461 OA
BRANCH  31  32
ATOM     32  C   UNL     1      -8.534 -28.133   1.051  1.00  0.00     0.338 C 
ATOM     33  O   UNL     1      -9.577 -28.695   1.485  1.00  0.00    -0.246 OA
BRANCH  32  34
ATOM     34  C   UNL     1      -7.611 -27.455   1.988  1.00  0.00     0.060 A 
ATOM     35  C   UNL     1      -6.219 -27.616   1.852  1.00  0.00     0.015 A 
ATOM     36  C   UNL     1      -8.107 -26.632   3.017  1.00  0.00     0.015 A 
ATOM     37  C   UNL     1      -5.345 -26.978   2.737  1.00  0.00     0.001 A 
ATOM     38  C   UNL     1      -7.228 -25.994   3.896  1.00  0.00     0.001 A 
ATOM     39  C   UNL     1      -5.848 -26.168   3.758  1.00  0.00     0.000 A 
ENDBRANCH  32  34
ENDBRANCH  31  32
ENDBRANCH  30  31
ENDBRANCH   8  30
TORSDOF 12
ENDMDL
MODEL 7
REMARK VINA RESULT:    -6.186      3.598      6.584
REMARK INTER + INTRA:         -10.299
REMARK INTER:                  -9.107
REMARK INTRA:                  -1.193
REMARK UNBOUND:                -0.677
REMARK SMILES C[C@]12C[C@]3(O)O[C@H](O1)[C@@]1(COC(=O)c4ccccc4)[C@@H]3C[C@]12O[C@H]1O[C@H](CO)[C@@H](O)[C@H](O)[C@@H]1O
REMARK SMILES IDX 1 1 2 2 3 3 4 4 20 5 21 6 22 7 9 8 7 9 8 10 6 11 23 12 24 13
REMARK SMILES IDX 33 14 25 15 31 16 26 17 29 18 34 19 32 21 27 23 28 24 30 26
REMARK SMILES IDX 5 28 10 30 11 31 12 32 13 33 14 34 15 35 19 36 16 37 18 38
REMARK SMILES IDX 17 39
REMARK H PARENT 34 20 32 22 28 25 30 27 5 29
REMARK Flexibility Score: inf
ROOT
ATOM      1  C   UNL     1      -1.674 -30.666  -1.772  1.00  0.00     0.046 C 
ATOM      2  C   UNL     1      -2.927 -30.917  -0.934  1.00  0.00     0.104 C 
ATOM      3  C   UNL     1      -2.995 -29.960   0.313  1.00  0.00     0.104 C 
ATOM      4  C   UNL     1      -4.372 -30.320   0.981  1.00  0.00     0.175 C 
ATOM      5  C   UNL     1      -5.515 -30.324  -0.086  1.00  0.00     0.070 C 
ATOM      6  C   UNL     1      -5.139 -29.577  -1.373  1.00  0.00     0.050 C 
ATOM      7  C   UNL     1      -4.279 -30.812  -1.728  1.00  0.00     0.115 C 
ATOM      8  C   UNL     1      -5.150 -31.628  -0.778  1.00  0.00     0.096 C 
ATOM      9  C   UNL     1      -4.214 -32.373   0.156  1.00  0.00     0.267 C 
ATOM     10  O   UNL     1      -2.920 -32.232  -0.407  1.00  0.00    -0.342 OA
ATOM     11  O   UNL     1      -4.267 -31.671   1.388  1.00  0.00    -0.320 OA
ENDROOT
BRANCH   7  12
ATOM     12  O   UNL     1      -4.306 -31.318  -3.053  1.00  0.00    -0.339 OA
BRANCH  12  13
ATOM     13  C   UNL     1      -4.752 -30.354  -4.000  1.00  0.00     0.282 C 
ATOM     14  C   UNL     1      -5.889 -30.945  -4.854  1.00  0.00     0.202 C 
ATOM     15  O   UNL     1      -3.678 -29.930  -4.826  1.00  0.00    -0.341 OA
ATOM     16  C   UNL     1      -5.350 -32.106  -5.709  1.00  0.00     0.179 C 
ATOM     17  C   UNL     1      -3.087 -31.009  -5.535  1.00  0.00     0.178 C 
ATOM     18  C   UNL     1      -4.110 -31.657  -6.499  1.00  0.00     0.177 C 
BRANCH  14  19
ATOM     19  O   UNL     1      -6.417 -29.934  -5.676  1.00  0.00    -0.385 OA
ATOM     20  H   UNL     1      -5.727 -29.725  -6.359  1.00  0.00     0.211 HD
ENDBRANCH  14  19
BRANCH  16  21
ATOM     21  O   UNL     1      -6.340 -32.558  -6.597  1.00  0.00    -0.387 OA
ATOM     22  H   UNL     1      -7.040 -32.994  -6.046  1.00  0.00     0.211 HD
ENDBRANCH  16  21
BRANCH  17  23
ATOM     23  C   UNL     1      -1.874 -30.457  -6.297  1.00  0.00     0.191 C 
BRANCH  23  24
ATOM     24  O   UNL     1      -0.873 -31.434  -6.412  1.00  0.00    -0.394 OA
ATOM     25  H   UNL     1      -1.311 -32.318  -6.301  1.00  0.00     0.210 HD
ENDBRANCH  23  24
ENDBRANCH  17  23
BRANCH  18  26
ATOM     26  O   UNL     1      -3.533 -32.771  -7.131  1.00  0.00    -0.387 OA
ATOM     27  H   UNL     1      -3.734 -32.692  -8.099  1.00  0.00     0.211 HD
ENDBRANCH  18  26
ENDBRANCH  12  13
ENDBRANCH   7  12
BRANCH   4  28
ATOM     28  O   UNL     1      -4.680 -29.480   2.060  1.00  0.00    -0.365 OA
ATOM     29  H   UNL     1      -5.199 -30.026   2.706  1.00  0.00     0.214 HD
ENDBRANCH   4  28
BRANCH   8  30
ATOM     30  C   UNL     1      -6.320 -32.423  -1.385  1.00  0.00     0.249 C 
BRANCH  30  31
ATOM     31  O   UNL     1      -7.496 -32.208  -0.613  1.00  0.00    -0.461 OA
BRANCH  31  32
ATOM     32  C   UNL     1      -8.709 -31.800  -1.175  1.00  0.00     0.338 C 
ATOM     33  O   UNL     1      -9.672 -32.612  -1.262  1.00  0.00    -0.246 OA
BRANCH  32  34
ATOM     34  C   UNL     1      -8.861 -30.412  -1.662  1.00  0.00     0.060 A 
ATOM     35  C   UNL     1      -8.910 -30.147  -3.043  1.00  0.00     0.015 A 
ATOM     36  C   UNL     1      -8.971 -29.341  -0.755  1.00  0.00     0.015 A 
ATOM     37  C   UNL     1      -9.051 -28.835  -3.506  1.00  0.00     0.001 A 
ATOM     38  C   UNL     1      -9.117 -28.032  -1.224  1.00  0.00     0.001 A 
ATOM     39  C   UNL     1      -9.155 -27.778  -2.598  1.00  0.00     0.000 A 
ENDBRANCH  32  34
ENDBRANCH  31  32
ENDBRANCH  30  31
ENDBRANCH   8  30
TORSDOF 12
ENDMDL
MODEL 8
REMARK VINA RESULT:    -6.134      3.153      5.531
REMARK INTER + INTRA:         -10.217
REMARK INTER:                  -9.062
REMARK INTRA:                  -1.156
REMARK UNBOUND:                -0.677
REMARK SMILES C[C@]12C[C@]3(O)O[C@H](O1)[C@@]1(COC(=O)c4ccccc4)[C@@H]3C[C@]12O[C@H]1O[C@H](CO)[C@@H](O)[C@H](O)[C@@H]1O
REMARK SMILES IDX 1 1 2 2 3 3 4 4 20 5 21 6 22 7 9 8 7 9 8 10 6 11 23 12 24 13
REMARK SMILES IDX 33 14 25 15 31 16 26 17 29 18 34 19 32 21 27 23 28 24 30 26
REMARK SMILES IDX 5 28 10 30 11 31 12 32 13 33 14 34 15 35 19 36 16 37 18 38
REMARK SMILES IDX 17 39
REMARK H PARENT 34 20 32 22 28 25 30 27 5 29
REMARK Flexibility Score: inf
ROOT
ATOM      1  C   UNL     1      -9.413 -28.497  -3.722  1.00  0.00     0.046 C 
ATOM      2  C   UNL     1      -9.323 -28.831  -2.233  1.00  0.00     0.104 C 
ATOM      3  C   UNL     1     -10.747 -29.004  -1.588  1.00  0.00     0.104 C 
ATOM      4  C   UNL     1     -10.433 -29.415  -0.103  1.00  0.00     0.175 C 
ATOM      5  C   UNL     1      -9.391 -30.580  -0.064  1.00  0.00     0.070 C 
ATOM      6  C   UNL     1      -9.265 -31.319  -1.405  1.00  0.00     0.050 C 
ATOM      7  C   UNL     1      -8.455 -30.097  -1.895  1.00  0.00     0.115 C 
ATOM      8  C   UNL     1      -8.158 -29.771  -0.435  1.00  0.00     0.096 C 
ATOM      9  C   UNL     1      -8.513 -28.310  -0.223  1.00  0.00     0.267 C 
ATOM     10  O   UNL     1      -8.707 -27.772  -1.521  1.00  0.00    -0.342 OA
ATOM     11  O   UNL     1      -9.751 -28.316   0.471  1.00  0.00    -0.320 OA
ENDROOT
BRANCH   7  12
ATOM     12  O   UNL     1      -7.273 -30.307  -2.652  1.00  0.00    -0.339 OA
BRANCH  12  13
ATOM     13  C   UNL     1      -7.300 -31.526  -3.385  1.00  0.00     0.282 C 
ATOM     14  C   UNL     1      -5.886 -32.132  -3.446  1.00  0.00     0.202 C 
ATOM     15  O   UNL     1      -7.807 -31.313  -4.694  1.00  0.00    -0.341 OA
ATOM     16  C   UNL     1      -4.958 -31.211  -4.260  1.00  0.00     0.179 C 
ATOM     17  C   UNL     1      -7.033 -30.372  -5.423  1.00  0.00     0.178 C 
ATOM     18  C   UNL     1      -5.588 -30.892  -5.626  1.00  0.00     0.177 C 
BRANCH  14  19
ATOM     19  O   UNL     1      -5.958 -33.405  -4.039  1.00  0.00    -0.385 OA
ATOM     20  H   UNL     1      -6.638 -33.351  -4.760  1.00  0.00     0.211 HD
ENDBRANCH  14  19
BRANCH  16  21
ATOM     21  O   UNL     1      -3.707 -31.822  -4.447  1.00  0.00    -0.387 OA
ATOM     22  H   UNL     1      -3.560 -32.414  -3.664  1.00  0.00     0.211 HD
ENDBRANCH  16  21
BRANCH  17  23
ATOM     23  C   UNL     1      -7.734 -30.133  -6.767  1.00  0.00     0.191 C 
BRANCH  23  24
ATOM     24  O   UNL     1      -7.207 -30.975  -7.758  1.00  0.00    -0.394 OA
ATOM     25  H   UNL     1      -6.740 -30.399  -8.418  1.00  0.00     0.210 HD
ENDBRANCH  23  24
ENDBRANCH  17  23
BRANCH  18  26
ATOM     26  O   UNL     1      -4.816 -29.916  -6.277  1.00  0.00    -0.387 OA
ATOM     27  H   UNL     1      -4.102 -30.395  -6.773  1.00  0.00     0.211 HD
ENDBRANCH  18  26
ENDBRANCH  12  13
ENDBRANCH   7  12
BRANCH   4  28
ATOM     28  O   UNL     1     -11.590 -29.737   0.620  1.00  0.00    -0.365 OA
ATOM     29  H   UNL     1     -12.145 -28.915   0.649  1.00  0.00     0.214 HD
ENDBRANCH   4  28
BRANCH   8  30
ATOM     30  C   UNL     1      -6.823 -30.264   0.151  1.00  0.00     0.249 C 
BRANCH  30  31
ATOM     31  O   UNL     1      -6.021 -29.148   0.520  1.00  0.00    -0.461 OA
BRANCH  31  32
ATOM     32  C   UNL     1      -4.691 -29.273   0.933  1.00  0.00     0.338 C 
ATOM     33  O   UNL     1      -4.423 -29.735   2.076  1.00  0.00    -0.246 OA
BRANCH  32  34
ATOM     34  C   UNL     1      -3.600 -28.866   0.020  1.00  0.00     0.060 A 
ATOM     35  C   UNL     1      -2.517 -28.109   0.505  1.00  0.00     0.015 A 
ATOM     36  C   UNL     1      -3.622 -29.239  -1.337  1.00  0.00     0.015 A 
ATOM     37  C   UNL     1      -1.486 -27.721  -0.355  1.00  0.00     0.001 A 
ATOM     38  C   UNL     1      -2.585 -28.852  -2.191  1.00  0.00     0.001 A 
ATOM     39  C   UNL     1      -1.518 -28.092  -1.702  1.00  0.00     0.000 A 
ENDBRANCH  32  34
ENDBRANCH  31  32
ENDBRANCH  30  31
ENDBRANCH   8  30
TORSDOF 12
ENDMDL
MODEL 9
REMARK VINA RESULT:    -6.065      2.642      8.027
REMARK INTER + INTRA:         -10.111
REMARK INTER:                  -9.677
REMARK INTRA:                  -0.434
REMARK UNBOUND:                -0.677
REMARK SMILES C[C@]12C[C@]3(O)O[C@H](O1)[C@@]1(COC(=O)c4ccccc4)[C@@H]3C[C@]12O[C@H]1O[C@H](CO)[C@@H](O)[C@H](O)[C@@H]1O
REMARK SMILES IDX 1 1 2 2 3 3 4 4 20 5 21 6 22 7 9 8 7 9 8 10 6 11 23 12 24 13
REMARK SMILES IDX 33 14 25 15 31 16 26 17 29 18 34 19 32 21 27 23 28 24 30 26
REMARK SMILES IDX 5 28 10 30 11 31 12 32 13 33 14 34 15 35 19 36 16 37 18 38
REMARK SMILES IDX 17 39
REMARK H PARENT 34 20 32 22 28 25 30 27 5 29
REMARK Flexibility Score: inf
ROOT
ATOM      1  C   UNL     1       1.695 -28.696   3.264  1.00  0.00     0.046 C 
ATOM      2  C   UNL     1       0.330 -28.763   2.580  1.00  0.00     0.104 C 
ATOM      3  C   UNL     1      -0.835 -28.944   3.621  1.00  0.00     0.104 C 
ATOM      4  C   UNL     1      -2.133 -28.909   2.734  1.00  0.00     0.175 C 
ATOM      5  C   UNL     1      -2.106 -27.679   1.769  1.00  0.00     0.070 C 
ATOM      6  C   UNL     1      -1.102 -26.599   2.200  1.00  0.00     0.050 C 
ATOM      7  C   UNL     1      -0.001 -27.538   1.653  1.00  0.00     0.115 C 
ATOM      8  C   UNL     1      -1.068 -28.204   0.790  1.00  0.00     0.096 C 
ATOM      9  C   UNL     1      -0.961 -29.700   1.024  1.00  0.00     0.267 C 
ATOM     10  O   UNL     1       0.257 -29.891   1.725  1.00  0.00    -0.342 OA
ATOM     11  O   UNL     1      -2.048 -30.030   1.874  1.00  0.00    -0.320 OA
ENDROOT
BRANCH   7  12
ATOM     12  O   UNL     1       1.055 -26.991   0.880  1.00  0.00    -0.339 OA
BRANCH  12  13
ATOM     13  C   UNL     1       1.859 -26.077   1.617  1.00  0.00     0.282 C 
ATOM     14  C   UNL     1       1.683 -24.654   1.056  1.00  0.00     0.202 C 
ATOM     15  O   UNL     1       3.224 -26.464   1.575  1.00  0.00    -0.341 OA
ATOM     16  C   UNL     1       2.238 -24.587  -0.379  1.00  0.00     0.179 C 
ATOM     17  C   UNL     1       3.724 -26.526   0.248  1.00  0.00     0.178 C 
ATOM     18  C   UNL     1       3.676 -25.130  -0.421  1.00  0.00     0.177 C 
BRANCH  14  19
ATOM     19  O   UNL     1       2.362 -23.746   1.887  1.00  0.00    -0.385 OA
ATOM     20  H   UNL     1       3.327 -23.813   1.662  1.00  0.00     0.211 HD
ENDBRANCH  14  19
BRANCH  16  21
ATOM     21  O   UNL     1       2.217 -23.264  -0.849  1.00  0.00    -0.387 OA
ATOM     22  H   UNL     1       1.443 -23.193  -1.465  1.00  0.00     0.211 HD
ENDBRANCH  16  21
BRANCH  17  23
ATOM     23  C   UNL     1       5.161 -27.063   0.316  1.00  0.00     0.191 C 
BRANCH  23  24
ATOM     24  O   UNL     1       6.085 -26.007   0.338  1.00  0.00    -0.394 OA
ATOM     25  H   UNL     1       6.695 -26.165   1.105  1.00  0.00     0.210 HD
ENDBRANCH  23  24
ENDBRANCH  17  23
BRANCH  18  26
ATOM     26  O   UNL     1       4.098 -25.226  -1.758  1.00  0.00    -0.387 OA
ATOM     27  H   UNL     1       5.037 -24.906  -1.789  1.00  0.00     0.211 HD
ENDBRANCH  18  26
ENDBRANCH  12  13
ENDBRANCH   7  12
BRANCH   4  28
ATOM     28  O   UNL     1      -3.307 -28.935   3.500  1.00  0.00    -0.365 OA
ATOM     29  H   UNL     1      -3.524 -27.992   3.717  1.00  0.00     0.214 HD
ENDBRANCH   4  28
BRANCH   8  30
ATOM     30  C   UNL     1      -1.209 -27.726  -0.667  1.00  0.00     0.249 C 
BRANCH  30  31
ATOM     31  O   UNL     1      -1.702 -28.790  -1.473  1.00  0.00    -0.461 OA
BRANCH  31  32
ATOM     32  C   UNL     1      -3.067 -29.029  -1.662  1.00  0.00     0.338 C 
ATOM     33  O   UNL     1      -3.880 -28.843  -0.715  1.00  0.00    -0.246 OA
BRANCH  32  34
ATOM     34  C   UNL     1      -3.554 -29.496  -2.978  1.00  0.00     0.060 A 
ATOM     35  C   UNL     1      -4.846 -30.039  -3.104  1.00  0.00     0.015 A 
ATOM     36  C   UNL     1      -2.741 -29.393  -4.123  1.00  0.00     0.015 A 
ATOM     37  C   UNL     1      -5.308 -30.483  -4.346  1.00  0.00     0.001 A 
ATOM     38  C   UNL     1      -3.210 -29.835  -5.363  1.00  0.00     0.001 A 
ATOM     39  C   UNL     1      -4.491 -30.381  -5.475  1.00  0.00     0.000 A 
ENDBRANCH  32  34
ENDBRANCH  31  32
ENDBRANCH  30  31
ENDBRANCH   8  30
TORSDOF 12
ENDMDL
