MODEL 1
REMARK VINA RESULT:    -5.543      0.000      0.000
REMARK INTER + INTRA:          -6.919
REMARK INTER:                  -6.515
REMARK INTRA:                  -0.405
REMARK UNBOUND:                -0.405
REMARK SMILES CCCC[C@H]1OC(=O)C2=C1CCC=C2
REMARK SMILES IDX 3 1 2 2 1 3 4 4 5 5 10 6 6 7 9 8 11 9 7 10 14 11 12 12 8 13
REMARK SMILES IDX 13 14
REMARK H PARENT
REMARK Flexibility Score: inf
ROOT
ATOM      1  C   UNL     1      -9.940  65.867   2.572  1.00  0.00     0.004 C 
ENDROOT
BRANCH   1   2
ATOM      2  C   UNL     1     -11.109  65.508   3.501  1.00  0.00    -0.003 C 
ATOM      3  C   UNL     1     -11.070  66.338   4.779  1.00  0.00     0.004 C 
ENDBRANCH   1   2
BRANCH   1   4
ATOM      4  C   UNL     1      -9.063  64.652   2.226  1.00  0.00     0.050 C 
BRANCH   4   5
ATOM      5  C   UNL     1      -8.748  63.769   3.445  1.00  0.00     0.204 C 
ATOM      6  C   UNL     1      -7.391  64.093   4.023  1.00  0.00    -0.015 C 
ATOM      7  O   UNL     1      -8.611  62.399   3.053  1.00  0.00    -0.454 OA
ATOM      8  C   UNL     1      -6.583  63.050   3.940  1.00  0.00     0.062 C 
ATOM      9  C   UNL     1      -6.896  65.436   4.488  1.00  0.00     0.040 C 
ATOM     10  C   UNL     1      -7.325  61.972   3.338  1.00  0.00     0.338 C 
ATOM     11  C   UNL     1      -5.181  63.095   4.368  1.00  0.00     0.011 C 
ATOM     12  C   UNL     1      -5.689  65.278   5.444  1.00  0.00     0.032 C 
ATOM     13  O   UNL     1      -6.890  60.816   3.097  1.00  0.00    -0.246 OA
ATOM     14  C   UNL     1      -4.735  64.180   5.014  1.00  0.00    -0.026 C 
ENDBRANCH   4   5
ENDBRANCH   1   4
TORSDOF 3
ENDMDL
MODEL 2
REMARK VINA RESULT:    -5.538      2.272      4.977
REMARK INTER + INTRA:          -6.914
REMARK INTER:                  -6.526
REMARK INTRA:                  -0.388
REMARK UNBOUND:                -0.405
REMARK SMILES CCCC[C@H]1OC(=O)C2=C1CCC=C2
REMARK SMILES IDX 3 1 2 2 1 3 4 4 5 5 10 6 6 7 9 8 11 9 7 10 14 11 12 12 8 13
REMARK SMILES IDX 13 14
REMARK H PARENT
REMARK Flexibility Score: inf
ROOT
ATOM      1  C   UNL     1      -5.941  60.250   3.881  1.00  0.00     0.004 C 
ENDROOT
BRANCH   1   2
ATOM      2  C   UNL     1      -6.046  59.539   2.524  1.00  0.00    -0.003 C 
ATOM      3  C   UNL     1      -7.389  59.819   1.859  1.00  0.00     0.004 C 
ENDBRANCH   1   2
BRANCH   1   4
ATOM      4  C   UNL     1      -5.646  61.753   3.741  1.00  0.00     0.050 C 
BRANCH   4   5
ATOM      5  C   UNL     1      -6.439  62.619   4.734  1.00  0.00     0.204 C 
ATOM      6  C   UNL     1      -7.437  63.500   4.020  1.00  0.00    -0.015 C 
ATOM      7  O   UNL     1      -5.579  63.565   5.377  1.00  0.00    -0.454 OA
ATOM      8  C   UNL     1      -7.156  64.778   4.212  1.00  0.00     0.062 C 
ATOM      9  C   UNL     1      -8.518  63.067   3.068  1.00  0.00     0.040 C 
ATOM     10  C   UNL     1      -5.997  64.846   5.063  1.00  0.00     0.338 C 
ATOM     11  C   UNL     1      -7.921  65.862   3.586  1.00  0.00     0.011 C 
ATOM     12  C   UNL     1      -9.611  64.155   2.942  1.00  0.00     0.032 C 
ATOM     13  O   UNL     1      -5.434  65.897   5.467  1.00  0.00    -0.246 OA
ATOM     14  C   UNL     1      -9.044  65.561   2.920  1.00  0.00    -0.026 C 
ENDBRANCH   4   5
ENDBRANCH   1   4
TORSDOF 3
ENDMDL
MODEL 3
REMARK VINA RESULT:    -5.380     14.667     16.652
REMARK INTER + INTRA:          -6.729
REMARK INTER:                  -6.061
REMARK INTRA:                  -0.667
REMARK UNBOUND:                -0.405
REMARK SMILES CCCC[C@H]1OC(=O)C2=C1CCC=C2
REMARK SMILES IDX 3 1 2 2 1 3 4 4 5 5 10 6 6 7 9 8 11 9 7 10 14 11 12 12 8 13
REMARK SMILES IDX 13 14
REMARK H PARENT
REMARK Flexibility Score: inf
ROOT
ATOM      1  C   UNL     1       4.543  52.818   9.603  1.00  0.00     0.004 C 
ENDROOT
BRANCH   1   2
ATOM      2  C   UNL     1       5.080  54.253   9.694  1.00  0.00    -0.003 C 
ATOM      3  C   UNL     1       4.096  55.248   9.088  1.00  0.00     0.004 C 
ENDBRANCH   1   2
BRANCH   1   4
ATOM      4  C   UNL     1       5.242  51.992   8.510  1.00  0.00     0.050 C 
BRANCH   4   5
ATOM      5  C   UNL     1       4.329  51.682   7.312  1.00  0.00     0.204 C 
ATOM      6  C   UNL     1       4.359  52.797   6.294  1.00  0.00    -0.015 C 
ATOM      7  O   UNL     1       2.957  51.655   7.717  1.00  0.00    -0.454 OA
ATOM      8  C   UNL     1       3.164  53.347   6.165  1.00  0.00     0.062 C 
ATOM      9  C   UNL     1       5.569  53.374   5.609  1.00  0.00     0.040 C 
ATOM     10  C   UNL     1       2.265  52.647   7.044  1.00  0.00     0.338 C 
ATOM     11  C   UNL     1       2.909  54.497   5.290  1.00  0.00     0.011 C 
ATOM     12  C   UNL     1       5.167  54.122   4.316  1.00  0.00     0.032 C 
ATOM     13  O   UNL     1       1.038  52.886   7.195  1.00  0.00    -0.246 OA
ATOM     14  C   UNL     1       3.882  54.912   4.467  1.00  0.00    -0.026 C 
ENDBRANCH   4   5
ENDBRANCH   1   4
TORSDOF 3
ENDMDL
MODEL 4
REMARK VINA RESULT:    -5.350      1.971      2.882
REMARK INTER + INTRA:          -6.693
REMARK INTER:                  -6.438
REMARK INTRA:                  -0.255
REMARK UNBOUND:                -0.405
REMARK SMILES CCCC[C@H]1OC(=O)C2=C1CCC=C2
REMARK SMILES IDX 3 1 2 2 1 3 4 4 5 5 10 6 6 7 9 8 11 9 7 10 14 11 12 12 8 13
REMARK SMILES IDX 13 14
REMARK H PARENT
REMARK Flexibility Score: inf
ROOT
ATOM      1  C   UNL     1     -10.379  64.393   3.370  1.00  0.00     0.004 C 
ENDROOT
BRANCH   1   2
ATOM      2  C   UNL     1     -11.056  65.769   3.451  1.00  0.00    -0.003 C 
ATOM      3  C   UNL     1     -11.124  66.264   4.891  1.00  0.00     0.004 C 
ENDBRANCH   1   2
BRANCH   1   4
ATOM      4  C   UNL     1      -9.198  64.256   4.345  1.00  0.00     0.050 C 
BRANCH   4   5
ATOM      5  C   UNL     1      -7.834  64.500   3.679  1.00  0.00     0.204 C 
ATOM      6  C   UNL     1      -6.927  63.301   3.827  1.00  0.00    -0.015 C 
ATOM      7  O   UNL     1      -7.115  65.532   4.362  1.00  0.00    -0.454 OA
ATOM      8  C   UNL     1      -5.851  63.611   4.530  1.00  0.00     0.062 C 
ATOM      9  C   UNL     1      -7.215  61.883   3.414  1.00  0.00     0.040 C 
ATOM     10  C   UNL     1      -5.942  65.005   4.875  1.00  0.00     0.338 C 
ATOM     11  C   UNL     1      -4.824  62.625   4.886  1.00  0.00     0.011 C 
ATOM     12  C   UNL     1      -5.905  61.072   3.272  1.00  0.00     0.032 C 
ATOM     13  O   UNL     1      -5.100  65.662   5.542  1.00  0.00    -0.246 OA
ATOM     14  C   UNL     1      -4.890  61.399   4.350  1.00  0.00    -0.026 C 
ENDBRANCH   4   5
ENDBRANCH   1   4
TORSDOF 3
ENDMDL
MODEL 5
REMARK VINA RESULT:    -5.287      1.148      1.532
REMARK INTER + INTRA:          -6.620
REMARK INTER:                  -6.307
REMARK INTRA:                  -0.313
REMARK UNBOUND:                -0.405
REMARK SMILES CCCC[C@H]1OC(=O)C2=C1CCC=C2
REMARK SMILES IDX 3 1 2 2 1 3 4 4 5 5 10 6 6 7 9 8 11 9 7 10 14 11 12 12 8 13
REMARK SMILES IDX 13 14
REMARK H PARENT
REMARK Flexibility Score: inf
ROOT
ATOM      1  C   UNL     1      -8.653  66.078   3.940  1.00  0.00     0.004 C 
ENDROOT
BRANCH   1   2
ATOM      2  C   UNL     1     -10.035  65.837   4.563  1.00  0.00    -0.003 C 
ATOM      3  C   UNL     1     -11.122  65.809   3.495  1.00  0.00     0.004 C 
ENDBRANCH   1   2
BRANCH   1   4
ATOM      4  C   UNL     1      -8.191  64.909   3.053  1.00  0.00     0.050 C 
BRANCH   4   5
ATOM      5  C   UNL     1      -8.186  63.559   3.789  1.00  0.00     0.204 C 
ATOM      6  C   UNL     1      -6.786  63.152   4.182  1.00  0.00    -0.015 C 
ATOM      7  O   UNL     1      -8.591  62.504   2.910  1.00  0.00    -0.454 OA
ATOM      8  C   UNL     1      -6.436  62.029   3.578  1.00  0.00     0.062 C 
ATOM      9  C   UNL     1      -5.802  63.944   4.999  1.00  0.00     0.040 C 
ATOM     10  C   UNL     1      -7.552  61.599   2.777  1.00  0.00     0.338 C 
ATOM     11  C   UNL     1      -5.105  61.430   3.724  1.00  0.00     0.011 C 
ATOM     12  C   UNL     1      -4.708  63.024   5.591  1.00  0.00     0.032 C 
ATOM     13  O   UNL     1      -7.596  60.567   2.058  1.00  0.00    -0.246 OA
ATOM     14  C   UNL     1      -4.257  61.946   4.624  1.00  0.00    -0.026 C 
ENDBRANCH   4   5
ENDBRANCH   1   4
TORSDOF 3
ENDMDL
MODEL 6
REMARK VINA RESULT:    -5.130     14.364     16.126
REMARK INTER + INTRA:          -6.435
REMARK INTER:                  -5.773
REMARK INTRA:                  -0.662
REMARK UNBOUND:                -0.405
REMARK SMILES CCCC[C@H]1OC(=O)C2=C1CCC=C2
REMARK SMILES IDX 3 1 2 2 1 3 4 4 5 5 10 6 6 7 9 8 11 9 7 10 14 11 12 12 8 13
REMARK SMILES IDX 13 14
REMARK H PARENT
REMARK Flexibility Score: inf
ROOT
ATOM      1  C   UNL     1       1.506  54.607   8.803  1.00  0.00     0.004 C 
ENDROOT
BRANCH   1   2
ATOM      2  C   UNL     1       2.744  54.755   9.700  1.00  0.00    -0.003 C 
ATOM      3  C   UNL     1       3.858  55.507   8.980  1.00  0.00     0.004 C 
ENDBRANCH   1   2
BRANCH   1   4
ATOM      4  C   UNL     1       1.149  53.137   8.526  1.00  0.00     0.050 C 
BRANCH   4   5
ATOM      5  C   UNL     1       1.613  52.654   7.141  1.00  0.00     0.204 C 
ATOM      6  C   UNL     1       3.066  52.245   7.160  1.00  0.00    -0.015 C 
ATOM      7  O   UNL     1       1.595  53.731   6.199  1.00  0.00    -0.454 OA
ATOM      8  C   UNL     1       3.781  53.013   6.355  1.00  0.00     0.062 C 
ATOM      9  C   UNL     1       3.718  51.234   8.065  1.00  0.00     0.040 C 
ATOM     10  C   UNL     1       2.881  53.952   5.737  1.00  0.00     0.338 C 
ATOM     11  C   UNL     1       5.236  52.885   6.220  1.00  0.00     0.011 C 
ATOM     12  C   UNL     1       5.058  50.742   7.469  1.00  0.00     0.032 C 
ATOM     13  O   UNL     1       3.195  54.844   4.907  1.00  0.00    -0.246 OA
ATOM     14  C   UNL     1       5.853  51.852   6.810  1.00  0.00    -0.026 C 
ENDBRANCH   4   5
ENDBRANCH   1   4
TORSDOF 3
ENDMDL
MODEL 7
REMARK VINA RESULT:    -5.048      1.832      5.075
REMARK INTER + INTRA:          -6.338
REMARK INTER:                  -6.108
REMARK INTRA:                  -0.230
REMARK UNBOUND:                -0.405
REMARK SMILES CCCC[C@H]1OC(=O)C2=C1CCC=C2
REMARK SMILES IDX 3 1 2 2 1 3 4 4 5 5 10 6 6 7 9 8 11 9 7 10 14 11 12 12 8 13
REMARK SMILES IDX 13 14
REMARK H PARENT
REMARK Flexibility Score: inf
ROOT
ATOM      1  C   UNL     1      -3.741  61.979   6.363  1.00  0.00     0.004 C 
ENDROOT
BRANCH   1   2
ATOM      2  C   UNL     1      -3.699  63.027   7.484  1.00  0.00    -0.003 C 
ATOM      3  C   UNL     1      -2.386  62.952   8.257  1.00  0.00     0.004 C 
ENDBRANCH   1   2
BRANCH   1   4
ATOM      4  C   UNL     1      -5.162  61.752   5.819  1.00  0.00     0.050 C 
BRANCH   4   5
ATOM      5  C   UNL     1      -5.282  62.029   4.311  1.00  0.00     0.204 C 
ATOM      6  C   UNL     1      -6.496  62.873   4.002  1.00  0.00    -0.015 C 
ATOM      7  O   UNL     1      -5.543  60.818   3.595  1.00  0.00    -0.454 OA
ATOM      8  C   UNL     1      -7.345  62.211   3.235  1.00  0.00     0.062 C 
ATOM      9  C   UNL     1      -6.844  64.217   4.583  1.00  0.00     0.040 C 
ATOM     10  C   UNL     1      -6.770  60.920   2.962  1.00  0.00     0.338 C 
ATOM     11  C   UNL     1      -8.643  62.762   2.827  1.00  0.00     0.011 C 
ATOM     12  C   UNL     1      -7.860  64.961   3.684  1.00  0.00     0.032 C 
ATOM     13  O   UNL     1      -7.287  60.010   2.263  1.00  0.00    -0.246 OA
ATOM     14  C   UNL     1      -8.919  64.043   3.104  1.00  0.00    -0.026 C 
ENDBRANCH   4   5
ENDBRANCH   1   4
TORSDOF 3
ENDMDL
MODEL 8
REMARK VINA RESULT:    -5.002     13.149     15.606
REMARK INTER + INTRA:          -6.284
REMARK INTER:                  -6.051
REMARK INTRA:                  -0.233
REMARK UNBOUND:                -0.405
REMARK SMILES CCCC[C@H]1OC(=O)C2=C1CCC=C2
REMARK SMILES IDX 3 1 2 2 1 3 4 4 5 5 10 6 6 7 9 8 11 9 7 10 14 11 12 12 8 13
REMARK SMILES IDX 13 14
REMARK H PARENT
REMARK Flexibility Score: inf
ROOT
ATOM      1  C   UNL     1       0.301  53.301   9.010  1.00  0.00     0.004 C 
ENDROOT
BRANCH   1   2
ATOM      2  C   UNL     1      -0.897  54.215   9.305  1.00  0.00    -0.003 C 
ATOM      3  C   UNL     1      -0.479  55.681   9.320  1.00  0.00     0.004 C 
ENDBRANCH   1   2
BRANCH   1   4
ATOM      4  C   UNL     1       1.419  54.022   8.237  1.00  0.00     0.050 C 
BRANCH   4   5
ATOM      5  C   UNL     1       1.796  53.316   6.924  1.00  0.00     0.204 C 
ATOM      6  C   UNL     1       3.155  52.666   7.019  1.00  0.00    -0.015 C 
ATOM      7  O   UNL     1       1.969  54.270   5.870  1.00  0.00    -0.454 OA
ATOM      8  C   UNL     1       3.996  53.205   6.152  1.00  0.00     0.062 C 
ATOM      9  C   UNL     1       3.617  51.664   8.042  1.00  0.00     0.040 C 
ATOM     10  C   UNL     1       3.276  54.212   5.416  1.00  0.00     0.338 C 
ATOM     11  C   UNL     1       5.407  52.814   6.064  1.00  0.00     0.011 C 
ATOM     12  C   UNL     1       4.853  50.885   7.533  1.00  0.00     0.032 C 
ATOM     13  O   UNL     1       3.743  54.940   4.502  1.00  0.00    -0.246 OA
ATOM     14  C   UNL     1       5.832  51.761   6.775  1.00  0.00    -0.026 C 
ENDBRANCH   4   5
ENDBRANCH   1   4
TORSDOF 3
ENDMDL
MODEL 9
REMARK VINA RESULT:    -4.935      1.961      3.183
REMARK INTER + INTRA:          -6.206
REMARK INTER:                  -5.795
REMARK INTRA:                  -0.411
REMARK UNBOUND:                -0.405
REMARK SMILES CCCC[C@H]1OC(=O)C2=C1CCC=C2
REMARK SMILES IDX 3 1 2 2 1 3 4 4 5 5 10 6 6 7 9 8 11 9 7 10 14 11 12 12 8 13
REMARK SMILES IDX 13 14
REMARK H PARENT
REMARK Flexibility Score: inf
ROOT
ATOM      1  C   UNL     1      -9.266  66.929   5.523  1.00  0.00     0.004 C 
ENDROOT
BRANCH   1   2
ATOM      2  C   UNL     1     -10.761  66.599   5.411  1.00  0.00    -0.003 C 
ATOM      3  C   UNL     1     -11.125  66.169   3.994  1.00  0.00     0.004 C 
ENDBRANCH   1   2
BRANCH   1   4
ATOM      4  C   UNL     1      -8.394  65.675   5.700  1.00  0.00     0.050 C 
BRANCH   4   5
ATOM      5  C   UNL     1      -7.427  65.441   4.528  1.00  0.00     0.204 C 
ATOM      6  C   UNL     1      -7.571  64.048   3.965  1.00  0.00    -0.015 C 
ATOM      7  O   UNL     1      -6.070  65.464   4.982  1.00  0.00    -0.454 OA
ATOM      8  C   UNL     1      -6.449  63.364   4.110  1.00  0.00     0.062 C 
ATOM      9  C   UNL     1      -8.827  63.397   3.452  1.00  0.00     0.040 C 
ATOM     10  C   UNL     1      -5.490  64.231   4.742  1.00  0.00     0.338 C 
ATOM     11  C   UNL     1      -6.318  61.958   3.710  1.00  0.00     0.011 C 
ATOM     12  C   UNL     1      -8.493  62.201   2.529  1.00  0.00     0.032 C 
ATOM     13  O   UNL     1      -4.304  63.932   5.043  1.00  0.00    -0.246 OA
ATOM     14  C   UNL     1      -7.317  61.384   3.026  1.00  0.00    -0.026 C 
ENDBRANCH   4   5
ENDBRANCH   1   4
TORSDOF 3
ENDMDL
