MODEL 1
REMARK VINA RESULT:    21.421      0.000      0.000
REMARK INTER + INTRA:          29.670
REMARK INTER:                  28.934
REMARK INTRA:                   0.736
REMARK UNBOUND:                 0.736
REMARK SMILES C=C1C(=O)O[C@@H]2[C@@H]1CCC(C)=CCC[C@]1(C)O[C@H]21
REMARK SMILES IDX 6 1 7 2 2 3 1 4 3 5 4 6 5 7 8 8 9 9 10 10 11 11 12 12 18 14
REMARK SMILES IDX 15 15 17 16 16 17 14 18 13 19
REMARK H PARENT
REMARK Flexibility Score: 70.00
ROOT
ATOM      1  C   UNL     1      11.972  97.774  -0.205  1.00  0.00     0.216 C 
ATOM      2  C   UNL     1      12.021  98.632  -1.516  1.00  0.00     0.070 C 
ATOM      3  C   UNL     1      12.781  99.858  -1.111  1.00  0.00     0.037 C 
ATOM      4  C   UNL     1      13.017 100.925  -1.875  1.00  0.00     0.021 C 
ATOM      5  C   UNL     1      13.135  99.725   0.277  1.00  0.00     0.334 C 
ATOM      6  O   UNL     1      13.778 100.568   0.956  1.00  0.00    -0.247 OA
ATOM      7  O   UNL     1      12.659  98.539   0.786  1.00  0.00    -0.455 OA
ENDROOT
BRANCH   2   8
ATOM      8  C   UNL     1      12.750  97.872  -2.645  1.00  0.00     0.017 C 
BRANCH   8   9
ATOM      9  C   UNL     1      13.864  96.965  -2.091  1.00  0.00     0.031 C 
BRANCH   9  10
ATOM     10  C   UNL     1      13.562  95.480  -2.225  1.00  0.00    -0.077 C 
ATOM     11  C   UNL     1      14.754  94.552  -2.255  1.00  0.00     0.039 C 
ATOM     12  C   UNL     1      12.331  94.906  -2.354  1.00  0.00    -0.028 CG0
ATOM     13  G   UNL     1      10.932  95.495  -2.224  1.00  0.00     0.000 G0
ENDBRANCH   9  10
ENDBRANCH   8   9
ENDBRANCH   2   8
BRANCH   1  14
ATOM     14  C   UNL     1      10.552  97.464   0.325  1.00  0.00     0.192 C 
ATOM     15  C   UNL     1       9.802  96.182   0.028  1.00  0.00     0.096 C 
ATOM     16  O   UNL     1       9.578  97.382  -0.684  1.00  0.00    -0.362 OA
ATOM     17  C   UNL     1       8.611  95.896   0.953  1.00  0.00     0.045 C 
BRANCH  15  18
ATOM     18  C   UNL     1      10.120  95.053  -0.999  1.00  0.00     0.042 C 
BRANCH  18  19
ATOM     19  C   UNL     1      10.939  95.483  -2.227  1.00  0.00     0.030 CG0
ATOM     20  G   UNL     1      12.348  94.918  -2.359  1.00  0.00     0.000 G0
ENDBRANCH  18  19
ENDBRANCH  15  18
ENDBRANCH   1  14
TORSDOF 0
ENDMDL
MODEL 2
REMARK VINA RESULT:    22.891      1.556      3.649
REMARK INTER + INTRA:          31.656
REMARK INTER:                  31.538
REMARK INTRA:                   0.119
REMARK UNBOUND:                 0.736
REMARK SMILES C=C1C(=O)O[C@@H]2[C@@H]1CCC(C)=CCC[C@]1(C)O[C@H]21
REMARK SMILES IDX 6 1 7 2 2 3 1 4 3 5 4 6 5 7 8 8 9 9 10 10 11 11 12 12 18 14
REMARK SMILES IDX 15 15 17 16 16 17 14 18 13 19
REMARK H PARENT
REMARK Flexibility Score: 70.00
ROOT
ATOM      1  C   UNL     1      12.633  98.082  -1.828  1.00  0.00     0.216 C 
ATOM      2  C   UNL     1      12.374  98.619  -0.379  1.00  0.00     0.070 C 
ATOM      3  C   UNL     1      12.732 100.071  -0.467  1.00  0.00     0.037 C 
ATOM      4  C   UNL     1      12.744 100.942   0.543  1.00  0.00     0.021 C 
ATOM      5  C   UNL     1      13.149 100.346  -1.817  1.00  0.00     0.334 C 
ATOM      6  O   UNL     1      13.524 101.464  -2.257  1.00  0.00    -0.247 OA
ATOM      7  O   UNL     1      13.100  99.203  -2.580  1.00  0.00    -0.455 OA
ENDROOT
BRANCH   2   8
ATOM      8  C   UNL     1      10.893  98.434   0.022  1.00  0.00     0.017 C 
BRANCH   8   9
ATOM      9  C   UNL     1      10.655  97.070   0.696  1.00  0.00     0.031 C 
BRANCH   9  10
ATOM     10  C   UNL     1       9.577  96.237   0.018  1.00  0.00    -0.077 C 
ATOM     11  C   UNL     1       8.283  96.066   0.777  1.00  0.00     0.039 C 
ATOM     12  C   UNL     1       9.674  95.602  -1.186  1.00  0.00    -0.028 CG0
ATOM     13  G   UNL     1      10.743  95.665  -2.269  1.00  0.00     0.000 G0
ENDBRANCH   9  10
ENDBRANCH   8   9
ENDBRANCH   2   8
BRANCH   1  14
ATOM     14  C   UNL     1      13.690  96.957  -1.933  1.00  0.00     0.192 C 
ATOM     15  C   UNL     1      13.351  95.499  -2.161  1.00  0.00     0.096 C 
ATOM     16  O   UNL     1      13.631  96.027  -0.881  1.00  0.00    -0.362 OA
ATOM     17  C   UNL     1      14.521  94.624  -2.631  1.00  0.00     0.045 C 
BRANCH  15  18
ATOM     18  C   UNL     1      11.972  94.772  -2.102  1.00  0.00     0.042 C 
BRANCH  18  19
ATOM     19  C   UNL     1      10.738  95.674  -2.265  1.00  0.00     0.030 CG0
ATOM     20  G   UNL     1       9.671  95.599  -1.180  1.00  0.00     0.000 G0
ENDBRANCH  18  19
ENDBRANCH  15  18
ENDBRANCH   1  14
TORSDOF 0
ENDMDL
MODEL 3
REMARK VINA RESULT:    23.231      1.336      4.148
REMARK INTER + INTRA:          32.115
REMARK INTER:                  30.874
REMARK INTRA:                   1.241
REMARK UNBOUND:                 0.736
REMARK SMILES C=C1C(=O)O[C@@H]2[C@@H]1CCC(C)=CCC[C@]1(C)O[C@H]21
REMARK SMILES IDX 6 1 7 2 2 3 1 4 3 5 4 6 5 7 8 8 9 9 10 10 11 11 12 12 18 14
REMARK SMILES IDX 15 15 17 16 16 17 14 18 13 19
REMARK H PARENT
REMARK Flexibility Score: 70.00
ROOT
ATOM      1  C   UNL     1      10.519  97.792  -0.964  1.00  0.00     0.216 C 
ATOM      2  C   UNL     1      10.959  96.316  -0.675  1.00  0.00     0.070 C 
ATOM      3  C   UNL     1       9.800  95.740   0.081  1.00  0.00     0.037 C 
ATOM      4  C   UNL     1       9.736  94.519   0.613  1.00  0.00     0.021 C 
ATOM      5  C   UNL     1       8.800  96.766   0.213  1.00  0.00     0.334 C 
ATOM      6  O   UNL     1       7.690  96.641   0.794  1.00  0.00    -0.247 OA
ATOM      7  O   UNL     1       9.226  97.935  -0.376  1.00  0.00    -0.455 OA
ENDROOT
BRANCH   2   8
ATOM      8  C   UNL     1      11.203  95.545  -1.991  1.00  0.00     0.017 C 
BRANCH   8   9
ATOM      9  C   UNL     1      12.414  94.601  -1.879  1.00  0.00     0.031 C 
BRANCH   9  10
ATOM     10  C   UNL     1      13.734  95.258  -2.257  1.00  0.00    -0.077 C 
ATOM     11  C   UNL     1      14.964  94.386  -2.177  1.00  0.00     0.039 C 
ATOM     12  C   UNL     1      13.922  96.558  -2.626  1.00  0.00    -0.028 CG0
ATOM     13  G   UNL     1      12.923  97.662  -2.948  1.00  0.00     0.000 G0
ENDBRANCH   9  10
ENDBRANCH   8   9
ENDBRANCH   2   8
BRANCH   1  14
ATOM     14  C   UNL     1      11.442  98.881  -0.368  1.00  0.00     0.192 C 
ATOM     15  C   UNL     1      12.604  99.505  -1.114  1.00  0.00     0.096 C 
ATOM     16  O   UNL     1      12.769  98.457  -0.180  1.00  0.00    -0.362 OA
ATOM     17  C   UNL     1      13.129 100.818  -0.520  1.00  0.00     0.045 C 
BRANCH  15  18
ATOM     18  C   UNL     1      13.274  99.078  -2.456  1.00  0.00     0.042 C 
BRANCH  18  19
ATOM     19  C   UNL     1      12.939  97.659  -2.944  1.00  0.00     0.030 CG0
ATOM     20  G   UNL     1      13.944  96.558  -2.632  1.00  0.00     0.000 G0
ENDBRANCH  18  19
ENDBRANCH  15  18
ENDBRANCH   1  14
TORSDOF 0
ENDMDL
MODEL 4
REMARK VINA RESULT:    23.708      2.357      4.272
REMARK INTER + INTRA:          32.760
REMARK INTER:                  28.098
REMARK INTRA:                   4.662
REMARK UNBOUND:                 0.736
REMARK SMILES C=C1C(=O)O[C@@H]2[C@@H]1CCC(C)=CCC[C@]1(C)O[C@H]21
REMARK SMILES IDX 6 1 7 2 2 3 1 4 3 5 4 6 5 7 8 8 9 9 10 10 11 11 12 12 18 14
REMARK SMILES IDX 15 15 17 16 16 17 14 18 13 19
REMARK H PARENT
REMARK Flexibility Score: 70.00
ROOT
ATOM      1  C   UNL     1      11.747  96.279  -2.562  1.00  0.00     0.216 C 
ATOM      2  C   UNL     1      13.012  96.868  -1.849  1.00  0.00     0.070 C 
ATOM      3  C   UNL     1      13.970  95.717  -1.814  1.00  0.00     0.037 C 
ATOM      4  C   UNL     1      15.171  95.709  -1.233  1.00  0.00     0.021 C 
ATOM      5  C   UNL     1      13.333  94.588  -2.439  1.00  0.00     0.334 C 
ATOM      6  O   UNL     1      13.842  93.446  -2.587  1.00  0.00    -0.247 OA
ATOM      7  O   UNL     1      12.063  94.916  -2.851  1.00  0.00    -0.455 OA
ENDROOT
BRANCH   2   8
ATOM      8  C   UNL     1      13.594  98.053  -2.650  1.00  0.00     0.017 C 
BRANCH   8   9
ATOM      9  C   UNL     1      12.714  99.311  -2.523  1.00  0.00     0.031 C 
BRANCH   9  10
ATOM     10  C   UNL     1      12.573  99.812  -1.093  1.00  0.00    -0.077 C 
ATOM     11  C   UNL     1      12.311 101.289  -0.922  1.00  0.00     0.039 C 
ATOM     12  C   UNL     1      12.694  99.072   0.047  1.00  0.00    -0.028 CG0
ATOM     13  G   UNL     1      12.810  97.567   0.257  1.00  0.00     0.000 G0
ENDBRANCH   9  10
ENDBRANCH   8   9
ENDBRANCH   2   8
BRANCH   1  14
ATOM     14  C   UNL     1      10.448  96.305  -1.722  1.00  0.00     0.192 C 
ATOM     15  C   UNL     1      10.401  96.652  -0.249  1.00  0.00     0.096 C 
ATOM     16  O   UNL     1      10.401  95.320  -0.721  1.00  0.00    -0.362 OA
ATOM     17  C   UNL     1       9.010  97.011   0.292  1.00  0.00     0.045 C 
BRANCH  15  18
ATOM     18  C   UNL     1      11.564  96.810   0.778  1.00  0.00     0.042 C 
BRANCH  18  19
ATOM     19  C   UNL     1      12.803  97.564   0.268  1.00  0.00     0.030 CG0
ATOM     20  G   UNL     1      12.673  99.071   0.081  1.00  0.00     0.000 G0
ENDBRANCH  18  19
ENDBRANCH  15  18
ENDBRANCH   1  14
TORSDOF 0
ENDMDL
