MODEL 1
REMARK VINA RESULT:    -3.787      0.000      0.000
REMARK INTER + INTRA:          -4.179
REMARK INTER:                  -4.008
REMARK INTRA:                  -0.171
REMARK UNBOUND:                -0.171
REMARK SMILES CC(C)[C@H]1CC[C@H](C)CC1=O
REMARK SMILES IDX 8 1 7 2 6 3 5 4 4 5 10 6 11 7 9 8 2 9 1 10 3 11
REMARK H PARENT
REMARK Flexibility Score: inf
ROOT
ATOM      1  C   UNL     1      23.967  50.011  55.406  1.00  0.00     0.008 C 
ATOM      2  C   UNL     1      23.403  50.997  54.378  1.00  0.00    -0.007 C 
ATOM      3  C   UNL     1      24.014  50.740  52.988  1.00  0.00     0.004 C 
ATOM      4  C   UNL     1      23.486  51.755  51.964  1.00  0.00     0.012 C 
ATOM      5  C   UNL     1      21.945  51.686  51.840  1.00  0.00     0.058 C 
ATOM      6  C   UNL     1      21.317  51.765  53.222  1.00  0.00     0.136 C 
ATOM      7  O   UNL     1      20.310  52.426  53.425  1.00  0.00    -0.299 OA
ATOM      8  C   UNL     1      21.868  50.901  54.326  1.00  0.00     0.079 C 
ENDROOT
BRANCH   5   9
ATOM      9  C   UNL     1      21.357  52.729  50.838  1.00  0.00    -0.007 C 
ATOM     10  C   UNL     1      21.314  52.180  49.403  1.00  0.00     0.008 C 
ATOM     11  C   UNL     1      22.083  54.085  50.862  1.00  0.00     0.008 C 
ENDBRANCH   5   9
TORSDOF 1
ENDMDL
MODEL 2
REMARK VINA RESULT:    -3.717      2.096      4.416
REMARK INTER + INTRA:          -4.105
REMARK INTER:                  -3.947
REMARK INTRA:                  -0.158
REMARK UNBOUND:                -0.171
REMARK SMILES CC(C)[C@H]1CC[C@H](C)CC1=O
REMARK SMILES IDX 8 1 7 2 6 3 5 4 4 5 10 6 11 7 9 8 2 9 1 10 3 11
REMARK H PARENT
REMARK Flexibility Score: inf
ROOT
ATOM      1  C   UNL     1      21.858  52.402  48.542  1.00  0.00     0.008 C 
ATOM      2  C   UNL     1      21.348  52.669  49.962  1.00  0.00    -0.007 C 
ATOM      3  C   UNL     1      21.705  51.497  50.895  1.00  0.00     0.004 C 
ATOM      4  C   UNL     1      21.156  51.739  52.309  1.00  0.00     0.012 C 
ATOM      5  C   UNL     1      21.724  53.042  52.922  1.00  0.00     0.058 C 
ATOM      6  C   UNL     1      21.539  54.190  51.944  1.00  0.00     0.136 C 
ATOM      7  O   UNL     1      21.194  55.299  52.325  1.00  0.00    -0.299 OA
ATOM      8  C   UNL     1      21.923  53.992  50.501  1.00  0.00     0.079 C 
ENDROOT
BRANCH   5   9
ATOM      9  C   UNL     1      21.164  53.352  54.346  1.00  0.00    -0.007 C 
ATOM     10  C   UNL     1      21.945  52.609  55.441  1.00  0.00     0.008 C 
ATOM     11  C   UNL     1      19.658  53.071  54.491  1.00  0.00     0.008 C 
ENDBRANCH   5   9
TORSDOF 1
ENDMDL
MODEL 3
REMARK VINA RESULT:    -3.627      1.952      4.639
REMARK INTER + INTRA:          -4.010
REMARK INTER:                  -3.833
REMARK INTRA:                  -0.177
REMARK UNBOUND:                -0.171
REMARK SMILES CC(C)[C@H]1CC[C@H](C)CC1=O
REMARK SMILES IDX 8 1 7 2 6 3 5 4 4 5 10 6 11 7 9 8 2 9 1 10 3 11
REMARK H PARENT
REMARK Flexibility Score: inf
ROOT
ATOM      1  C   UNL     1      21.861  52.764  47.798  1.00  0.00     0.008 C 
ATOM      2  C   UNL     1      22.416  52.571  49.213  1.00  0.00    -0.007 C 
ATOM      3  C   UNL     1      21.409  53.075  50.263  1.00  0.00     0.004 C 
ATOM      4  C   UNL     1      21.979  52.926  51.681  1.00  0.00     0.012 C 
ATOM      5  C   UNL     1      22.321  51.450  52.001  1.00  0.00     0.058 C 
ATOM      6  C   UNL     1      23.177  50.871  50.888  1.00  0.00     0.136 C 
ATOM      7  O   UNL     1      24.125  50.138  51.132  1.00  0.00    -0.299 OA
ATOM      8  C   UNL     1      22.764  51.091  49.457  1.00  0.00     0.079 C 
ENDROOT
BRANCH   5   9
ATOM      9  C   UNL     1      22.942  51.253  53.421  1.00  0.00    -0.007 C 
ATOM     10  C   UNL     1      21.870  50.926  54.472  1.00  0.00     0.008 C 
ATOM     11  C   UNL     1      23.797  52.443  53.891  1.00  0.00     0.008 C 
ENDBRANCH   5   9
TORSDOF 1
ENDMDL
MODEL 4
REMARK VINA RESULT:    -3.601      1.671      2.346
REMARK INTER + INTRA:          -3.982
REMARK INTER:                  -3.830
REMARK INTRA:                  -0.152
REMARK UNBOUND:                -0.171
REMARK SMILES CC(C)[C@H]1CC[C@H](C)CC1=O
REMARK SMILES IDX 8 1 7 2 6 3 5 4 4 5 10 6 11 7 9 8 2 9 1 10 3 11
REMARK H PARENT
REMARK Flexibility Score: inf
ROOT
ATOM      1  C   UNL     1      20.471  51.965  56.124  1.00  0.00     0.008 C 
ATOM      2  C   UNL     1      21.204  52.287  54.817  1.00  0.00    -0.007 C 
ATOM      3  C   UNL     1      21.499  50.996  54.030  1.00  0.00     0.004 C 
ATOM      4  C   UNL     1      22.274  51.308  52.742  1.00  0.00     0.012 C 
ATOM      5  C   UNL     1      21.483  52.271  51.824  1.00  0.00     0.058 C 
ATOM      6  C   UNL     1      21.028  53.481  52.622  1.00  0.00     0.136 C 
ATOM      7  O   UNL     1      21.072  54.607  52.149  1.00  0.00    -0.299 OA
ATOM      8  C   UNL     1      20.381  53.270  53.965  1.00  0.00     0.079 C 
ENDROOT
BRANCH   5   9
ATOM      9  C   UNL     1      22.249  52.650  50.516  1.00  0.00    -0.007 C 
ATOM     10  C   UNL     1      21.335  52.592  49.283  1.00  0.00     0.008 C 
ATOM     11  C   UNL     1      23.513  51.807  50.276  1.00  0.00     0.008 C 
ENDBRANCH   5   9
TORSDOF 1
ENDMDL
MODEL 5
REMARK VINA RESULT:    -3.574     11.879     13.514
REMARK INTER + INTRA:          -3.954
REMARK INTER:                  -3.807
REMARK INTRA:                  -0.147
REMARK UNBOUND:                -0.171
REMARK SMILES CC(C)[C@H]1CC[C@H](C)CC1=O
REMARK SMILES IDX 8 1 7 2 6 3 5 4 4 5 10 6 11 7 9 8 2 9 1 10 3 11
REMARK H PARENT
REMARK Flexibility Score: inf
ROOT
ATOM      1  C   UNL     1      17.748  55.838  41.239  1.00  0.00     0.008 C 
ATOM      2  C   UNL     1      18.507  54.631  40.679  1.00  0.00    -0.007 C 
ATOM      3  C   UNL     1      18.866  54.857  39.198  1.00  0.00     0.004 C 
ATOM      4  C   UNL     1      19.587  53.631  38.619  1.00  0.00     0.012 C 
ATOM      5  C   UNL     1      20.890  53.321  39.396  1.00  0.00     0.058 C 
ATOM      6  C   UNL     1      20.595  53.262  40.885  1.00  0.00     0.136 C 
ATOM      7  O   UNL     1      21.104  52.412  41.600  1.00  0.00    -0.299 OA
ATOM      8  C   UNL     1      19.773  54.357  41.511  1.00  0.00     0.079 C 
ENDROOT
BRANCH   5   9
ATOM      9  C   UNL     1      21.639  52.056  38.867  1.00  0.00    -0.007 C 
ATOM     10  C   UNL     1      23.155  52.289  38.776  1.00  0.00     0.008 C 
ATOM     11  C   UNL     1      21.103  51.538  37.522  1.00  0.00     0.008 C 
ENDBRANCH   5   9
TORSDOF 1
ENDMDL
MODEL 6
REMARK VINA RESULT:    -3.557     12.186     13.802
REMARK INTER + INTRA:          -3.936
REMARK INTER:                  -3.770
REMARK INTRA:                  -0.166
REMARK UNBOUND:                -0.171
REMARK SMILES CC(C)[C@H]1CC[C@H](C)CC1=O
REMARK SMILES IDX 8 1 7 2 6 3 5 4 4 5 10 6 11 7 9 8 2 9 1 10 3 11
REMARK H PARENT
REMARK Flexibility Score: inf
ROOT
ATOM      1  C   UNL     1      18.214  55.003  41.850  1.00  0.00     0.008 C 
ATOM      2  C   UNL     1      19.340  54.537  40.920  1.00  0.00    -0.007 C 
ATOM      3  C   UNL     1      19.940  53.209  41.420  1.00  0.00     0.004 C 
ATOM      4  C   UNL     1      21.100  52.762  40.518  1.00  0.00     0.012 C 
ATOM      5  C   UNL     1      20.636  52.569  39.053  1.00  0.00     0.058 C 
ATOM      6  C   UNL     1      19.886  53.806  38.588  1.00  0.00     0.136 C 
ATOM      7  O   UNL     1      20.047  54.260  37.464  1.00  0.00    -0.299 OA
ATOM      8  C   UNL     1      18.824  54.395  39.477  1.00  0.00     0.079 C 
ENDROOT
BRANCH   5   9
ATOM      9  C   UNL     1      21.792  52.152  38.088  1.00  0.00    -0.007 C 
ATOM     10  C   UNL     1      21.439  50.887  37.290  1.00  0.00     0.008 C 
ATOM     11  C   UNL     1      23.148  51.970  38.792  1.00  0.00     0.008 C 
ENDBRANCH   5   9
TORSDOF 1
ENDMDL
MODEL 7
REMARK VINA RESULT:    -3.441      1.811      3.769
REMARK INTER + INTRA:          -3.813
REMARK INTER:                  -3.673
REMARK INTRA:                  -0.140
REMARK UNBOUND:                -0.171
REMARK SMILES CC(C)[C@H]1CC[C@H](C)CC1=O
REMARK SMILES IDX 8 1 7 2 6 3 5 4 4 5 10 6 11 7 9 8 2 9 1 10 3 11
REMARK H PARENT
REMARK Flexibility Score: inf
ROOT
ATOM      1  C   UNL     1      24.053  50.536  50.079  1.00  0.00     0.008 C 
ATOM      2  C   UNL     1      23.380  51.325  51.207  1.00  0.00    -0.007 C 
ATOM      3  C   UNL     1      21.847  51.249  51.082  1.00  0.00     0.004 C 
ATOM      4  C   UNL     1      21.168  52.075  52.184  1.00  0.00     0.012 C 
ATOM      5  C   UNL     1      21.568  51.576  53.594  1.00  0.00     0.058 C 
ATOM      6  C   UNL     1      23.082  51.477  53.690  1.00  0.00     0.136 C 
ATOM      7  O   UNL     1      23.678  51.829  54.697  1.00  0.00    -0.299 OA
ATOM      8  C   UNL     1      23.842  50.802  52.580  1.00  0.00     0.079 C 
ENDROOT
BRANCH   5   9
ATOM      9  C   UNL     1      20.933  52.413  54.750  1.00  0.00    -0.007 C 
ATOM     10  C   UNL     1      20.434  51.517  55.894  1.00  0.00     0.008 C 
ATOM     11  C   UNL     1      19.806  53.351  54.285  1.00  0.00     0.008 C 
ENDBRANCH   5   9
TORSDOF 1
ENDMDL
MODEL 8
REMARK VINA RESULT:    -3.434      1.856      2.648
REMARK INTER + INTRA:          -3.806
REMARK INTER:                  -3.630
REMARK INTRA:                  -0.176
REMARK UNBOUND:                -0.171
REMARK SMILES CC(C)[C@H]1CC[C@H](C)CC1=O
REMARK SMILES IDX 8 1 7 2 6 3 5 4 4 5 10 6 11 7 9 8 2 9 1 10 3 11
REMARK H PARENT
REMARK Flexibility Score: inf
ROOT
ATOM      1  C   UNL     1      21.883  51.041  55.213  1.00  0.00     0.008 C 
ATOM      2  C   UNL     1      21.873  51.282  53.700  1.00  0.00    -0.007 C 
ATOM      3  C   UNL     1      21.484  52.739  53.386  1.00  0.00     0.004 C 
ATOM      4  C   UNL     1      21.428  52.974  51.870  1.00  0.00     0.012 C 
ATOM      5  C   UNL     1      22.792  52.677  51.200  1.00  0.00     0.058 C 
ATOM      6  C   UNL     1      23.285  51.306  51.631  1.00  0.00     0.136 C 
ATOM      7  O   UNL     1      23.817  50.544  50.837  1.00  0.00    -0.299 OA
ATOM      8  C   UNL     1      23.245  50.940  53.091  1.00  0.00     0.079 C 
ENDROOT
BRANCH   5   9
ATOM      9  C   UNL     1      22.773  52.864  49.649  1.00  0.00    -0.007 C 
ATOM     10  C   UNL     1      23.173  54.290  49.242  1.00  0.00     0.008 C 
ATOM     11  C   UNL     1      21.432  52.486  48.998  1.00  0.00     0.008 C 
ENDBRANCH   5   9
TORSDOF 1
ENDMDL
MODEL 9
REMARK VINA RESULT:    -3.397      2.027      4.260
REMARK INTER + INTRA:          -3.766
REMARK INTER:                  -3.615
REMARK INTRA:                  -0.151
REMARK UNBOUND:                -0.171
REMARK SMILES CC(C)[C@H]1CC[C@H](C)CC1=O
REMARK SMILES IDX 8 1 7 2 6 3 5 4 4 5 10 6 11 7 9 8 2 9 1 10 3 11
REMARK H PARENT
REMARK Flexibility Score: inf
ROOT
ATOM      1  C   UNL     1      22.295  52.708  49.389  1.00  0.00     0.008 C 
ATOM      2  C   UNL     1      22.216  52.844  50.913  1.00  0.00    -0.007 C 
ATOM      3  C   UNL     1      21.493  54.147  51.305  1.00  0.00     0.004 C 
ATOM      4  C   UNL     1      21.451  54.310  52.831  1.00  0.00     0.012 C 
ATOM      5  C   UNL     1      20.722  53.124  53.508  1.00  0.00     0.058 C 
ATOM      6  C   UNL     1      21.303  51.813  53.006  1.00  0.00     0.136 C 
ATOM      7  O   UNL     1      21.500  50.874  53.764  1.00  0.00    -0.299 OA
ATOM      8  C   UNL     1      21.508  51.622  51.527  1.00  0.00     0.079 C 
ENDROOT
BRANCH   5   9
ATOM      9  C   UNL     1      20.689  53.225  55.066  1.00  0.00    -0.007 C 
ATOM     10  C   UNL     1      19.302  52.881  55.630  1.00  0.00     0.008 C 
ATOM     11  C   UNL     1      21.154  54.589  55.605  1.00  0.00     0.008 C 
ENDBRANCH   5   9
TORSDOF 1
ENDMDL
