MODEL 1
REMARK VINA RESULT:    -5.397      0.000      0.000
REMARK INTER + INTRA:         -10.593
REMARK INTER:                  -9.183
REMARK INTRA:                  -1.409
REMARK UNBOUND:                -1.409
REMARK SMILES CCCCCCCCCCCCCC(=O)[O-]
REMARK SMILES IDX 8 1 9 2 10 3 11 4 12 5 13 6 14 7 15 8 16 9 7 10 6 11 5 12
REMARK SMILES IDX 4 13 3 14 2 15 1 16
REMARK H PARENT
REMARK Flexibility Score: inf
ROOT
ATOM      1  C   UNL     1      43.192  40.087  15.502  1.00  0.00     0.000 C 
ENDROOT
BRANCH   1   2
ATOM      2  C   UNL     1      42.786  41.437  14.881  1.00  0.00     0.000 C 
BRANCH   2   3
ATOM      3  C   UNL     1      41.357  41.865  15.258  1.00  0.00     0.000 C 
BRANCH   3   4
ATOM      4  C   UNL     1      40.681  40.876  16.222  1.00  0.00     0.000 C 
BRANCH   4   5
ATOM      5  C   UNL     1      40.528  41.445  17.644  1.00  0.00     0.006 C 
BRANCH   5   6
ATOM      6  C   UNL     1      41.488  40.781  18.639  1.00  0.00     0.053 C 
BRANCH   6   7
ATOM      7  C   UNL     1      42.516  41.746  19.146  1.00  0.00     0.041 C 
ATOM      8  O   UNL     1      43.459  42.117  18.399  1.00  0.00    -0.550 OA
ATOM      9  O   UNL     1      42.453  42.208  20.455  1.00  0.00    -0.550 OA
ENDBRANCH   6   7
ENDBRANCH   5   6
ENDBRANCH   4   5
ENDBRANCH   3   4
ENDBRANCH   2   3
ENDBRANCH   1   2
BRANCH   1  10
ATOM     10  C   UNL     1      43.984  39.148  14.573  1.00  0.00     0.000 C 
BRANCH  10  11
ATOM     11  C   UNL     1      43.118  38.535  13.460  1.00  0.00    -0.000 C 
BRANCH  11  12
ATOM     12  C   UNL     1      42.441  37.225  13.893  1.00  0.00    -0.000 C 
BRANCH  12  13
ATOM     13  C   UNL     1      40.977  37.130  13.428  1.00  0.00    -0.000 C 
BRANCH  13  14
ATOM     14  C   UNL     1      40.238  38.474  13.527  1.00  0.00    -0.000 C 
BRANCH  14  15
ATOM     15  C   UNL     1      39.554  38.869  12.210  1.00  0.00    -0.003 C 
ATOM     16  C   UNL     1      38.480  37.856  11.823  1.00  0.00     0.004 C 
ENDBRANCH  14  15
ENDBRANCH  13  14
ENDBRANCH  12  13
ENDBRANCH  11  12
ENDBRANCH  10  11
ENDBRANCH   1  10
TORSDOF 12
ENDMDL
MODEL 2
REMARK VINA RESULT:    -5.249      1.098      1.718
REMARK INTER + INTRA:         -10.340
REMARK INTER:                  -9.159
REMARK INTRA:                  -1.181
REMARK UNBOUND:                -1.409
REMARK SMILES CCCCCCCCCCCCCC(=O)[O-]
REMARK SMILES IDX 8 1 9 2 10 3 11 4 12 5 13 6 14 7 15 8 16 9 7 10 6 11 5 12
REMARK SMILES IDX 4 13 3 14 2 15 1 16
REMARK H PARENT
REMARK Flexibility Score: inf
ROOT
ATOM      1  C   UNL     1      42.140  41.114  14.908  1.00  0.00     0.000 C 
ENDROOT
BRANCH   1   2
ATOM      2  C   UNL     1      40.858  40.536  15.537  1.00  0.00     0.000 C 
BRANCH   2   3
ATOM      3  C   UNL     1      40.688  40.922  17.016  1.00  0.00     0.000 C 
BRANCH   3   4
ATOM      4  C   UNL     1      40.737  42.443  17.237  1.00  0.00     0.000 C 
BRANCH   4   5
ATOM      5  C   UNL     1      41.903  42.873  18.145  1.00  0.00     0.006 C 
BRANCH   5   6
ATOM      6  C   UNL     1      42.584  41.674  18.819  1.00  0.00     0.053 C 
BRANCH   6   7
ATOM      7  C   UNL     1      42.027  41.416  20.186  1.00  0.00     0.041 C 
ATOM      8  O   UNL     1      41.751  42.378  20.950  1.00  0.00    -0.550 OA
ATOM      9  O   UNL     1      41.846  40.112  20.630  1.00  0.00    -0.550 OA
ENDBRANCH   6   7
ENDBRANCH   5   6
ENDBRANCH   4   5
ENDBRANCH   3   4
ENDBRANCH   2   3
ENDBRANCH   1   2
BRANCH   1  10
ATOM     10  C   UNL     1      43.412  40.270  15.113  1.00  0.00     0.000 C 
BRANCH  10  11
ATOM     11  C   UNL     1      43.147  38.758  15.032  1.00  0.00    -0.000 C 
BRANCH  11  12
ATOM     12  C   UNL     1      42.844  38.288  13.600  1.00  0.00    -0.000 C 
BRANCH  12  13
ATOM     13  C   UNL     1      42.050  36.970  13.563  1.00  0.00    -0.000 C 
BRANCH  13  14
ATOM     14  C   UNL     1      40.531  37.197  13.505  1.00  0.00    -0.000 C 
BRANCH  14  15
ATOM     15  C   UNL     1      40.158  38.502  12.786  1.00  0.00    -0.003 C 
ATOM     16  C   UNL     1      38.877  38.335  11.974  1.00  0.00     0.004 C 
ENDBRANCH  14  15
ENDBRANCH  13  14
ENDBRANCH  12  13
ENDBRANCH  11  12
ENDBRANCH  10  11
ENDBRANCH   1  10
TORSDOF 12
ENDMDL
MODEL 3
REMARK VINA RESULT:    -5.138      1.040      2.105
REMARK INTER + INTRA:         -10.152
REMARK INTER:                  -9.157
REMARK INTRA:                  -0.994
REMARK UNBOUND:                -1.409
REMARK SMILES CCCCCCCCCCCCCC(=O)[O-]
REMARK SMILES IDX 8 1 9 2 10 3 11 4 12 5 13 6 14 7 15 8 16 9 7 10 6 11 5 12
REMARK SMILES IDX 4 13 3 14 2 15 1 16
REMARK H PARENT
REMARK Flexibility Score: inf
ROOT
ATOM      1  C   UNL     1      41.795  41.321  15.420  1.00  0.00     0.000 C 
ENDROOT
BRANCH   1   2
ATOM      2  C   UNL     1      40.922  40.607  16.470  1.00  0.00     0.000 C 
BRANCH   2   3
ATOM      3  C   UNL     1      41.093  41.184  17.885  1.00  0.00     0.000 C 
BRANCH   3   4
ATOM      4  C   UNL     1      41.423  40.102  18.926  1.00  0.00     0.000 C 
BRANCH   4   5
ATOM      5  C   UNL     1      41.995  40.688  20.230  1.00  0.00     0.006 C 
BRANCH   5   6
ATOM      6  C   UNL     1      41.886  42.218  20.273  1.00  0.00     0.053 C 
BRANCH   6   7
ATOM      7  C   UNL     1      43.234  42.871  20.221  1.00  0.00     0.041 C 
ATOM      8  O   UNL     1      43.953  42.922  21.253  1.00  0.00    -0.550 OA
ATOM      9  O   UNL     1      43.680  43.455  19.042  1.00  0.00    -0.550 OA
ENDBRANCH   6   7
ENDBRANCH   5   6
ENDBRANCH   4   5
ENDBRANCH   3   4
ENDBRANCH   2   3
ENDBRANCH   1   2
BRANCH   1  10
ATOM     10  C   UNL     1      43.146  40.646  15.119  1.00  0.00     0.000 C 
BRANCH  10  11
ATOM     11  C   UNL     1      43.055  39.111  15.080  1.00  0.00    -0.000 C 
BRANCH  11  12
ATOM     12  C   UNL     1      42.833  38.570  13.659  1.00  0.00    -0.000 C 
BRANCH  12  13
ATOM     13  C   UNL     1      42.114  37.209  13.647  1.00  0.00    -0.000 C 
BRANCH  13  14
ATOM     14  C   UNL     1      40.586  37.349  13.731  1.00  0.00    -0.000 C 
BRANCH  14  15
ATOM     15  C   UNL     1      40.093  38.725  13.258  1.00  0.00    -0.003 C 
ATOM     16  C   UNL     1      39.188  38.595  12.036  1.00  0.00     0.004 C 
ENDBRANCH  14  15
ENDBRANCH  13  14
ENDBRANCH  12  13
ENDBRANCH  11  12
ENDBRANCH  10  11
ENDBRANCH   1  10
TORSDOF 12
ENDMDL
MODEL 4
REMARK VINA RESULT:    -5.126      2.142      3.429
REMARK INTER + INTRA:         -10.132
REMARK INTER:                  -8.773
REMARK INTRA:                  -1.358
REMARK UNBOUND:                -1.409
REMARK SMILES CCCCCCCCCCCCCC(=O)[O-]
REMARK SMILES IDX 8 1 9 2 10 3 11 4 12 5 13 6 14 7 15 8 16 9 7 10 6 11 5 12
REMARK SMILES IDX 4 13 3 14 2 15 1 16
REMARK H PARENT
REMARK Flexibility Score: inf
ROOT
ATOM      1  C   UNL     1      40.577  40.957  16.687  1.00  0.00     0.000 C 
ENDROOT
BRANCH   1   2
ATOM      2  C   UNL     1      41.420  40.618  17.931  1.00  0.00     0.000 C 
BRANCH   2   3
ATOM      3  C   UNL     1      41.835  41.862  18.733  1.00  0.00     0.000 C 
BRANCH   3   4
ATOM      4  C   UNL     1      43.236  42.369  18.350  1.00  0.00     0.000 C 
BRANCH   4   5
ATOM      5  C   UNL     1      43.222  43.821  17.838  1.00  0.00     0.006 C 
BRANCH   5   6
ATOM      6  C   UNL     1      43.040  43.896  16.317  1.00  0.00     0.053 C 
BRANCH   6   7
ATOM      7  C   UNL     1      41.858  44.735  15.940  1.00  0.00     0.041 C 
ATOM      8  O   UNL     1      42.019  45.929  15.574  1.00  0.00    -0.550 OA
ATOM      9  O   UNL     1      40.574  44.210  16.027  1.00  0.00    -0.550 OA
ENDBRANCH   6   7
ENDBRANCH   5   6
ENDBRANCH   4   5
ENDBRANCH   3   4
ENDBRANCH   2   3
ENDBRANCH   1   2
BRANCH   1  10
ATOM     10  C   UNL     1      41.197  40.543  15.339  1.00  0.00     0.000 C 
BRANCH  10  11
ATOM     11  C   UNL     1      42.719  40.337  15.416  1.00  0.00    -0.000 C 
BRANCH  11  12
ATOM     12  C   UNL     1      43.148  38.936  14.952  1.00  0.00    -0.000 C 
BRANCH  12  13
ATOM     13  C   UNL     1      42.482  38.518  13.629  1.00  0.00    -0.000 C 
BRANCH  13  14
ATOM     14  C   UNL     1      41.922  37.088  13.676  1.00  0.00    -0.000 C 
BRANCH  14  15
ATOM     15  C   UNL     1      40.445  37.019  13.259  1.00  0.00    -0.003 C 
ATOM     16  C   UNL     1      39.927  38.392  12.841  1.00  0.00     0.004 C 
ENDBRANCH  14  15
ENDBRANCH  13  14
ENDBRANCH  12  13
ENDBRANCH  11  12
ENDBRANCH  10  11
ENDBRANCH   1  10
TORSDOF 12
ENDMDL
MODEL 5
REMARK VINA RESULT:    -5.095      1.429      2.147
REMARK INTER + INTRA:         -10.078
REMARK INTER:                  -9.023
REMARK INTRA:                  -1.055
REMARK UNBOUND:                -1.409
REMARK SMILES CCCCCCCCCCCCCC(=O)[O-]
REMARK SMILES IDX 8 1 9 2 10 3 11 4 12 5 13 6 14 7 15 8 16 9 7 10 6 11 5 12
REMARK SMILES IDX 4 13 3 14 2 15 1 16
REMARK H PARENT
REMARK Flexibility Score: inf
ROOT
ATOM      1  C   UNL     1      41.374  41.445  15.282  1.00  0.00     0.000 C 
ENDROOT
BRANCH   1   2
ATOM      2  C   UNL     1      41.353  42.918  15.733  1.00  0.00     0.000 C 
BRANCH   2   3
ATOM      3  C   UNL     1      42.760  43.498  15.952  1.00  0.00     0.000 C 
BRANCH   3   4
ATOM      4  C   UNL     1      43.070  43.746  17.438  1.00  0.00     0.000 C 
BRANCH   4   5
ATOM      5  C   UNL     1      43.292  42.441  18.224  1.00  0.00     0.006 C 
BRANCH   5   6
ATOM      6  C   UNL     1      42.211  42.216  19.289  1.00  0.00     0.053 C 
BRANCH   6   7
ATOM      7  C   UNL     1      41.841  40.769  19.408  1.00  0.00     0.041 C 
ATOM      8  O   UNL     1      41.129  40.222  18.525  1.00  0.00    -0.550 OA
ATOM      9  O   UNL     1      42.254  40.032  20.511  1.00  0.00    -0.550 OA
ENDBRANCH   6   7
ENDBRANCH   5   6
ENDBRANCH   4   5
ENDBRANCH   3   4
ENDBRANCH   2   3
ENDBRANCH   1   2
BRANCH   1  10
ATOM     10  C   UNL     1      42.764  40.886  14.924  1.00  0.00     0.000 C 
BRANCH  10  11
ATOM     11  C   UNL     1      42.851  39.357  15.070  1.00  0.00    -0.000 C 
BRANCH  11  12
ATOM     12  C   UNL     1      42.792  38.632  13.716  1.00  0.00    -0.000 C 
BRANCH  12  13
ATOM     13  C   UNL     1      42.175  37.226  13.821  1.00  0.00    -0.000 C 
BRANCH  13  14
ATOM     14  C   UNL     1      40.727  37.178  13.311  1.00  0.00    -0.000 C 
BRANCH  14  15
ATOM     15  C   UNL     1      40.119  38.577  13.128  1.00  0.00    -0.003 C 
ATOM     16  C   UNL     1      39.050  38.573  12.040  1.00  0.00     0.004 C 
ENDBRANCH  14  15
ENDBRANCH  13  14
ENDBRANCH  12  13
ENDBRANCH  11  12
ENDBRANCH  10  11
ENDBRANCH   1  10
TORSDOF 12
ENDMDL
MODEL 6
REMARK VINA RESULT:    -4.968      3.301      6.281
REMARK INTER + INTRA:          -9.863
REMARK INTER:                  -8.595
REMARK INTRA:                  -1.268
REMARK UNBOUND:                -1.409
REMARK SMILES CCCCCCCCCCCCCC(=O)[O-]
REMARK SMILES IDX 8 1 9 2 10 3 11 4 12 5 13 6 14 7 15 8 16 9 7 10 6 11 5 12
REMARK SMILES IDX 4 13 3 14 2 15 1 16
REMARK H PARENT
REMARK Flexibility Score: inf
ROOT
ATOM      1  C   UNL     1      43.428  40.681  15.579  1.00  0.00     0.000 C 
ENDROOT
BRANCH   1   2
ATOM      2  C   UNL     1      44.375  39.867  14.677  1.00  0.00     0.000 C 
BRANCH   2   3
ATOM      3  C   UNL     1      43.947  38.397  14.530  1.00  0.00     0.000 C 
BRANCH   3   4
ATOM      4  C   UNL     1      43.069  38.161  13.291  1.00  0.00     0.000 C 
BRANCH   4   5
ATOM      5  C   UNL     1      41.739  37.464  13.630  1.00  0.00     0.006 C 
BRANCH   5   6
ATOM      6  C   UNL     1      40.559  38.444  13.643  1.00  0.00     0.053 C 
BRANCH   6   7
ATOM      7  C   UNL     1      39.567  38.134  12.563  1.00  0.00     0.041 C 
ATOM      8  O   UNL     1      39.092  39.060  11.855  1.00  0.00    -0.550 OA
ATOM      9  O   UNL     1      39.142  36.827  12.363  1.00  0.00    -0.550 OA
ENDBRANCH   6   7
ENDBRANCH   5   6
ENDBRANCH   4   5
ENDBRANCH   3   4
ENDBRANCH   2   3
ENDBRANCH   1   2
BRANCH   1  10
ATOM     10  C   UNL     1      42.487  41.651  14.840  1.00  0.00     0.000 C 
BRANCH  10  11
ATOM     11  C   UNL     1      41.007  41.441  15.200  1.00  0.00    -0.000 C 
BRANCH  11  12
ATOM     12  C   UNL     1      40.814  40.961  16.647  1.00  0.00    -0.000 C 
BRANCH  12  13
ATOM     13  C   UNL     1      40.503  42.113  17.620  1.00  0.00    -0.000 C 
BRANCH  13  14
ATOM     14  C   UNL     1      41.319  42.024  18.919  1.00  0.00    -0.000 C 
BRANCH  14  15
ATOM     15  C   UNL     1      42.105  40.709  19.033  1.00  0.00    -0.003 C 
ATOM     16  C   UNL     1      41.775  39.983  20.333  1.00  0.00     0.004 C 
ENDBRANCH  14  15
ENDBRANCH  13  14
ENDBRANCH  12  13
ENDBRANCH  11  12
ENDBRANCH  10  11
ENDBRANCH   1  10
TORSDOF 12
ENDMDL
MODEL 7
REMARK VINA RESULT:    -4.849      2.968      6.432
REMARK INTER + INTRA:          -9.661
REMARK INTER:                  -8.188
REMARK INTRA:                  -1.473
REMARK UNBOUND:                -1.409
REMARK SMILES CCCCCCCCCCCCCC(=O)[O-]
REMARK SMILES IDX 8 1 9 2 10 3 11 4 12 5 13 6 14 7 15 8 16 9 7 10 6 11 5 12
REMARK SMILES IDX 4 13 3 14 2 15 1 16
REMARK H PARENT
REMARK Flexibility Score: inf
ROOT
ATOM      1  C   UNL     1      41.001  41.067  15.744  1.00  0.00     0.000 C 
ENDROOT
BRANCH   1   2
ATOM      2  C   UNL     1      42.245  40.191  15.988  1.00  0.00     0.000 C 
BRANCH   2   3
ATOM      3  C   UNL     1      43.411  40.529  15.044  1.00  0.00     0.000 C 
BRANCH   3   4
ATOM      4  C   UNL     1      43.882  39.313  14.231  1.00  0.00     0.000 C 
BRANCH   4   5
ATOM      5  C   UNL     1      43.130  38.022  14.603  1.00  0.00     0.006 C 
BRANCH   5   6
ATOM      6  C   UNL     1      42.491  37.351  13.380  1.00  0.00     0.053 C 
BRANCH   6   7
ATOM      7  C   UNL     1      41.015  37.597  13.319  1.00  0.00     0.041 C 
ATOM      8  O   UNL     1      40.209  36.631  13.370  1.00  0.00    -0.550 OA
ATOM      9  O   UNL     1      40.529  38.891  13.172  1.00  0.00    -0.550 OA
ENDBRANCH   6   7
ENDBRANCH   5   6
ENDBRANCH   4   5
ENDBRANCH   3   4
ENDBRANCH   2   3
ENDBRANCH   1   2
BRANCH   1  10
ATOM     10  C   UNL     1      41.284  42.563  15.514  1.00  0.00     0.000 C 
BRANCH  10  11
ATOM     11  C   UNL     1      41.416  43.357  16.824  1.00  0.00    -0.000 C 
BRANCH  11  12
ATOM     12  C   UNL     1      42.867  43.437  17.323  1.00  0.00    -0.000 C 
BRANCH  12  13
ATOM     13  C   UNL     1      43.094  42.643  18.622  1.00  0.00    -0.000 C 
BRANCH  13  14
ATOM     14  C   UNL     1      41.789  42.385  19.391  1.00  0.00    -0.000 C 
BRANCH  14  15
ATOM     15  C   UNL     1      41.902  41.203  20.365  1.00  0.00    -0.003 C 
ATOM     16  C   UNL     1      41.777  39.871  19.630  1.00  0.00     0.004 C 
ENDBRANCH  14  15
ENDBRANCH  13  14
ENDBRANCH  12  13
ENDBRANCH  11  12
ENDBRANCH  10  11
ENDBRANCH   1  10
TORSDOF 12
ENDMDL
MODEL 8
REMARK VINA RESULT:    -4.679      1.891      3.417
REMARK INTER + INTRA:          -9.371
REMARK INTER:                  -8.558
REMARK INTRA:                  -0.813
REMARK UNBOUND:                -1.409
REMARK SMILES CCCCCCCCCCCCCC(=O)[O-]
REMARK SMILES IDX 8 1 9 2 10 3 11 4 12 5 13 6 14 7 15 8 16 9 7 10 6 11 5 12
REMARK SMILES IDX 4 13 3 14 2 15 1 16
REMARK H PARENT
REMARK Flexibility Score: inf
ROOT
ATOM      1  C   UNL     1      40.631  41.042  16.826  1.00  0.00     0.000 C 
ENDROOT
BRANCH   1   2
ATOM      2  C   UNL     1      41.151  41.644  18.145  1.00  0.00     0.000 C 
BRANCH   2   3
ATOM      3  C   UNL     1      41.720  40.585  19.104  1.00  0.00     0.000 C 
BRANCH   3   4
ATOM      4  C   UNL     1      42.400  41.210  20.334  1.00  0.00     0.000 C 
BRANCH   4   5
ATOM      5  C   UNL     1      43.074  42.558  20.019  1.00  0.00     0.006 C 
BRANCH   5   6
ATOM      6  C   UNL     1      44.009  43.014  21.146  1.00  0.00     0.053 C 
BRANCH   6   7
ATOM      7  C   UNL     1      44.202  44.500  21.140  1.00  0.00     0.041 C 
ATOM      8  O   UNL     1      43.940  45.177  22.168  1.00  0.00    -0.550 OA
ATOM      9  O   UNL     1      44.639  45.141  19.987  1.00  0.00    -0.550 OA
ENDBRANCH   6   7
ENDBRANCH   5   6
ENDBRANCH   4   5
ENDBRANCH   3   4
ENDBRANCH   2   3
ENDBRANCH   1   2
BRANCH   1  10
ATOM     10  C   UNL     1      41.236  41.646  15.544  1.00  0.00     0.000 C 
BRANCH  10  11
ATOM     11  C   UNL     1      42.587  41.018  15.165  1.00  0.00    -0.000 C 
BRANCH  11  12
ATOM     12  C   UNL     1      42.591  39.489  15.322  1.00  0.00    -0.000 C 
BRANCH  12  13
ATOM     13  C   UNL     1      42.916  38.757  14.008  1.00  0.00    -0.000 C 
BRANCH  13  14
ATOM     14  C   UNL     1      41.720  37.960  13.466  1.00  0.00    -0.000 C 
BRANCH  14  15
ATOM     15  C   UNL     1      40.389  38.711  13.625  1.00  0.00    -0.003 C 
ATOM     16  C   UNL     1      39.472  38.465  12.431  1.00  0.00     0.004 C 
ENDBRANCH  14  15
ENDBRANCH  13  14
ENDBRANCH  12  13
ENDBRANCH  11  12
ENDBRANCH  10  11
ENDBRANCH   1  10
TORSDOF 12
ENDMDL
MODEL 9
REMARK VINA RESULT:    -4.446      9.902     10.808
REMARK INTER + INTRA:          -8.973
REMARK INTER:                  -8.160
REMARK INTRA:                  -0.813
REMARK UNBOUND:                -1.409
REMARK SMILES CCCCCCCCCCCCCC(=O)[O-]
REMARK SMILES IDX 8 1 9 2 10 3 11 4 12 5 13 6 14 7 15 8 16 9 7 10 6 11 5 12
REMARK SMILES IDX 4 13 3 14 2 15 1 16
REMARK H PARENT
REMARK Flexibility Score: inf
ROOT
ATOM      1  C   UNL     1      41.429  28.738  14.393  1.00  0.00     0.000 C 
ENDROOT
BRANCH   1   2
ATOM      2  C   UNL     1      41.968  29.984  15.121  1.00  0.00     0.000 C 
BRANCH   2   3
ATOM      3  C   UNL     1      41.011  30.506  16.206  1.00  0.00     0.000 C 
BRANCH   3   4
ATOM      4  C   UNL     1      41.544  30.262  17.628  1.00  0.00     0.000 C 
BRANCH   4   5
ATOM      5  C   UNL     1      42.939  29.612  17.635  1.00  0.00     0.006 C 
BRANCH   5   6
ATOM      6  C   UNL     1      43.095  28.592  18.771  1.00  0.00     0.053 C 
BRANCH   6   7
ATOM      7  C   UNL     1      43.931  29.133  19.891  1.00  0.00     0.041 C 
ATOM      8  O   UNL     1      44.315  28.373  20.818  1.00  0.00    -0.550 OA
ATOM      9  O   UNL     1      44.256  30.484  19.929  1.00  0.00    -0.550 OA
ENDBRANCH   6   7
ENDBRANCH   5   6
ENDBRANCH   4   5
ENDBRANCH   3   4
ENDBRANCH   2   3
ENDBRANCH   1   2
BRANCH   1  10
ATOM     10  C   UNL     1      40.376  29.016  13.304  1.00  0.00     0.000 C 
BRANCH  10  11
ATOM     11  C   UNL     1      38.937  29.010  13.846  1.00  0.00    -0.000 C 
BRANCH  11  12
ATOM     12  C   UNL     1      38.243  30.373  13.689  1.00  0.00    -0.000 C 
BRANCH  12  13
ATOM     13  C   UNL     1      37.594  30.863  14.996  1.00  0.00    -0.000 C 
BRANCH  13  14
ATOM     14  C   UNL     1      36.085  31.113  14.848  1.00  0.00    -0.000 C 
BRANCH  14  15
ATOM     15  C   UNL     1      35.656  31.277  13.382  1.00  0.00    -0.003 C 
ATOM     16  C   UNL     1      34.382  30.488  13.091  1.00  0.00     0.004 C 
ENDBRANCH  14  15
ENDBRANCH  13  14
ENDBRANCH  12  13
ENDBRANCH  11  12
ENDBRANCH  10  11
ENDBRANCH   1  10
TORSDOF 12
ENDMDL
