MODEL 1
REMARK VINA RESULT:    -7.805      0.000      0.000
REMARK INTER + INTRA:         -13.997
REMARK INTER:                 -12.368
REMARK INTRA:                  -1.629
REMARK UNBOUND:                -1.629
REMARK SMILES C[C@H]1O[C@@H](O[C@@H]2CC[C@]3(C)[C@H](CC[C@]4(C)[C@H]3C=C[C@@]35OC[C@]6(CCC(C)(C)C[C@@H]63)[C@@H](O)C[C@]45C)[C@]2(C)CO)[C@@H](O)[C@H](O[C@@H]2O[C@H](CO)[C@H](O)[C@H](O)[C@H]2O)[C@@H]1O
REMARK SMILES IDX 1 1 2 2 54 3 41 4 39 5 4 6 3 7 55 8 42 10 43 11 52 12 44 13
REMARK SMILES IDX 50 14 45 15 48 16 53 17 51 19 46 21 47 22 49 24 5 26 6 27
REMARK SMILES IDX 7 28 35 29 8 30 11 31 36 32 9 33 12 34 10 35 16 36 13 37
REMARK SMILES IDX 14 38 17 39 15 40 33 41 18 42 19 43 32 44 34 45 29 46 20 47
REMARK SMILES IDX 30 48 22 49 28 50 21 51 23 52 25 53 24 54 26 55 27 56 37 57
REMARK SMILES IDX 38 58 31 60 40 62
REMARK H PARENT 55 9 53 18 51 20 47 23 49 25 38 59 31 61 40 63
REMARK Flexibility Score: inf
ROOT
ATOM      1  C   UNL     1      47.180 -32.547  -3.330  1.00  0.00     0.041 C 
ATOM      2  C   UNL     1      47.410 -33.216  -1.930  1.00  0.00     0.150 C 
ATOM      3  C   UNL     1      47.489 -34.810  -2.023  1.00  0.00     0.175 C 
ATOM      4  C   UNL     1      45.986 -35.353  -2.015  1.00  0.00     0.186 C 
ATOM      5  C   UNL     1      45.346 -35.064  -0.721  1.00  0.00     0.202 C 
ATOM      6  C   UNL     1      45.973 -33.726  -0.066  1.00  0.00     0.282 C 
ATOM      7  O   UNL     1      46.373 -32.783  -1.007  1.00  0.00    -0.344 OA
ENDROOT
BRANCH   3   8
ATOM      8  O   UNL     1      48.237 -35.320  -0.980  1.00  0.00    -0.388 OA
ATOM      9  H   UNL     1      49.113 -34.799  -0.926  1.00  0.00     0.211 HD
ENDBRANCH   3   8
BRANCH   4  10
ATOM     10  O   UNL     1      45.720 -36.698  -2.566  1.00  0.00    -0.341 OA
BRANCH  10  11
ATOM     11  C   UNL     1      45.696 -37.668  -1.447  1.00  0.00     0.282 C 
ATOM     12  C   UNL     1      44.919 -39.012  -1.603  1.00  0.00     0.202 C 
ATOM     13  O   UNL     1      46.948 -37.875  -0.818  1.00  0.00    -0.341 OA
ATOM     14  C   UNL     1      45.742 -40.244  -2.044  1.00  0.00     0.179 C 
ATOM     15  C   UNL     1      47.804 -38.825  -1.386  1.00  0.00     0.178 C 
ATOM     16  C   UNL     1      47.221 -40.242  -1.506  1.00  0.00     0.177 C 
BRANCH  12  17
ATOM     17  O   UNL     1      44.440 -39.344  -0.322  1.00  0.00    -0.385 OA
ATOM     18  H   UNL     1      43.971 -38.543   0.086  1.00  0.00     0.211 HD
ENDBRANCH  12  17
BRANCH  14  19
ATOM     19  O   UNL     1      45.629 -40.581  -3.435  1.00  0.00    -0.387 OA
ATOM     20  H   UNL     1      45.978 -39.773  -3.974  1.00  0.00     0.211 HD
ENDBRANCH  14  19
BRANCH  15  21
ATOM     21  C   UNL     1      48.624 -38.323  -2.577  1.00  0.00     0.191 C 
BRANCH  21  22
ATOM     22  O   UNL     1      47.830 -38.523  -3.760  1.00  0.00    -0.394 OA
ATOM     23  H   UNL     1      48.443 -38.322  -4.576  1.00  0.00     0.210 HD
ENDBRANCH  21  22
ENDBRANCH  15  21
BRANCH  16  24
ATOM     24  O   UNL     1      48.046 -41.156  -2.279  1.00  0.00    -0.387 OA
ATOM     25  H   UNL     1      48.918 -40.685  -2.478  1.00  0.00     0.211 HD
ENDBRANCH  16  24
ENDBRANCH  10  11
ENDBRANCH   4  10
BRANCH   6  26
ATOM     26  O   UNL     1      45.270 -33.236   1.080  1.00  0.00    -0.346 OA
BRANCH  26  27
ATOM     27  C   UNL     1      45.106 -33.909   2.369  1.00  0.00     0.130 C 
ATOM     28  C   UNL     1      43.875 -33.739   3.356  1.00  0.00     0.033 C 
ATOM     29  C   UNL     1      46.448 -33.769   3.162  1.00  0.00     0.020 C 
ATOM     30  C   UNL     1      43.920 -34.679   4.658  1.00  0.00     0.010 C 
ATOM     31  C   UNL     1      46.388 -34.756   4.377  1.00  0.00     0.006 C 
ATOM     32  C   UNL     1      47.630 -34.219   2.209  1.00  0.00     0.017 C 
ATOM     33  C   UNL     1      45.254 -34.541   5.472  1.00  0.00    -0.022 C 
ATOM     34  C   UNL     1      47.647 -35.464   4.889  1.00  0.00     0.005 C 
ATOM     35  C   UNL     1      45.040 -33.132   6.153  1.00  0.00     0.012 C 
ATOM     36  C   UNL     1      45.518 -35.599   6.667  1.00  0.00     0.024 C 
ATOM     37  C   UNL     1      47.231 -36.938   5.170  1.00  0.00     0.008 C 
ATOM     38  C   UNL     1      46.052 -37.053   6.227  1.00  0.00    -0.017 C 
ATOM     39  C   UNL     1      46.437 -34.987   7.745  1.00  0.00    -0.024 C 
ATOM     40  C   UNL     1      44.880 -37.834   5.567  1.00  0.00     0.013 C 
ATOM     41  C   UNL     1      46.618 -37.845   7.510  1.00  0.00     0.009 C 
ATOM     42  C   UNL     1      47.423 -35.621   8.413  1.00  0.00     0.005 C 
ATOM     43  C   UNL     1      47.847 -37.023   8.117  1.00  0.00     0.096 C 
ATOM     44  C   UNL     1      47.101 -39.320   7.143  1.00  0.00     0.043 C 
ATOM     45  C   UNL     1      45.493 -37.972   8.581  1.00  0.00     0.015 C 
ATOM     46  C   UNL     1      48.511 -37.656   9.314  1.00  0.00     0.037 C 
ATOM     47  O   UNL     1      48.936 -36.915   7.229  1.00  0.00    -0.369 OA
ATOM     48  C   UNL     1      48.334 -39.857   7.914  1.00  0.00     0.124 C 
ATOM     49  C   UNL     1      49.252 -38.805   8.636  1.00  0.00     0.026 C 
ATOM     50  C   UNL     1      47.965 -37.993  10.671  1.00  0.00     0.014 C 
ATOM     51  C   UNL     1      49.898 -37.930   7.538  1.00  0.00     0.171 C 
ATOM     52  C   UNL     1      50.238 -39.456   9.672  1.00  0.00     0.013 C 
ATOM     53  C   UNL     1      49.218 -38.121  11.660  1.00  0.00    -0.035 C 
ATOM     54  C   UNL     1      50.537 -38.581  10.910  1.00  0.00     0.007 C 
ATOM     55  C   UNL     1      48.860 -39.078  12.819  1.00  0.00     0.011 C 
ATOM     56  C   UNL     1      49.493 -36.710  12.280  1.00  0.00     0.011 C 
BRANCH  29  57
ATOM     57  C   UNL     1      46.775 -32.312   3.634  1.00  0.00     0.165 C 
BRANCH  57  58
ATOM     58  O   UNL     1      47.252 -31.530   2.567  1.00  0.00    -0.396 OA
ATOM     59  H   UNL     1      48.100 -31.095   2.887  1.00  0.00     0.210 HD
ENDBRANCH  57  58
ENDBRANCH  29  57
BRANCH  48  60
ATOM     60  O   UNL     1      47.990 -40.935   8.752  1.00  0.00    -0.392 OA
ATOM     61  H   UNL     1      48.063 -41.781   8.242  1.00  0.00     0.210 HD
ENDBRANCH  48  60
ENDBRANCH  26  27
ENDBRANCH   6  26
BRANCH   5  62
ATOM     62  O   UNL     1      44.001 -35.005  -0.915  1.00  0.00    -0.385 OA
ATOM     63  H   UNL     1      43.748 -34.536  -1.775  1.00  0.00     0.211 HD
ENDBRANCH   5  62
TORSDOF 14
ENDMDL
MODEL 2
REMARK VINA RESULT:    -7.723      2.151      3.706
REMARK INTER + INTRA:         -13.868
REMARK INTER:                 -12.155
REMARK INTRA:                  -1.713
REMARK UNBOUND:                -1.629
REMARK SMILES C[C@H]1O[C@@H](O[C@@H]2CC[C@]3(C)[C@H](CC[C@]4(C)[C@H]3C=C[C@@]35OC[C@]6(CCC(C)(C)C[C@@H]63)[C@@H](O)C[C@]45C)[C@]2(C)CO)[C@@H](O)[C@H](O[C@@H]2O[C@H](CO)[C@H](O)[C@H](O)[C@H]2O)[C@@H]1O
REMARK SMILES IDX 1 1 2 2 54 3 41 4 39 5 4 6 3 7 55 8 42 10 43 11 52 12 44 13
REMARK SMILES IDX 50 14 45 15 48 16 53 17 51 19 46 21 47 22 49 24 5 26 6 27
REMARK SMILES IDX 7 28 35 29 8 30 11 31 36 32 9 33 12 34 10 35 16 36 13 37
REMARK SMILES IDX 14 38 17 39 15 40 33 41 18 42 19 43 32 44 34 45 29 46 20 47
REMARK SMILES IDX 30 48 22 49 28 50 21 51 23 52 25 53 24 54 26 55 27 56 37 57
REMARK SMILES IDX 38 58 31 60 40 62
REMARK H PARENT 55 9 53 18 51 20 47 23 49 25 38 59 31 61 40 63
REMARK Flexibility Score: inf
ROOT
ATOM      1  C   UNL     1      45.916 -34.946  -5.864  1.00  0.00     0.041 C 
ATOM      2  C   UNL     1      46.501 -35.007  -4.411  1.00  0.00     0.150 C 
ATOM      3  C   UNL     1      47.714 -36.040  -4.287  1.00  0.00     0.175 C 
ATOM      4  C   UNL     1      47.075 -37.488  -4.070  1.00  0.00     0.186 C 
ATOM      5  C   UNL     1      46.372 -37.548  -2.778  1.00  0.00     0.202 C 
ATOM      6  C   UNL     1      45.805 -36.089  -2.374  1.00  0.00     0.282 C 
ATOM      7  O   UNL     1      45.435 -35.316  -3.470  1.00  0.00    -0.344 OA
ENDROOT
BRANCH   3   8
ATOM      8  O   UNL     1      48.555 -35.677  -3.252  1.00  0.00    -0.388 OA
ATOM      9  H   UNL     1      49.352 -36.313  -3.246  1.00  0.00     0.211 HD
ENDBRANCH   3   8
BRANCH   4  10
ATOM     10  O   UNL     1      47.891 -38.675  -4.401  1.00  0.00    -0.341 OA
BRANCH  10  11
ATOM     11  C   UNL     1      48.530 -39.169  -3.159  1.00  0.00     0.282 C 
ATOM     12  C   UNL     1      48.300 -40.643  -2.703  1.00  0.00     0.202 C 
ATOM     13  O   UNL     1      49.887 -38.794  -3.004  1.00  0.00    -0.341 OA
ATOM     14  C   UNL     1      49.374 -41.675  -3.116  1.00  0.00     0.179 C 
ATOM     15  C   UNL     1      50.851 -39.607  -3.609  1.00  0.00     0.178 C 
ATOM     16  C   UNL     1      50.831 -41.082  -3.175  1.00  0.00     0.177 C 
BRANCH  12  17
ATOM     17  O   UNL     1      48.338 -40.633  -1.297  1.00  0.00    -0.385 OA
ATOM     18  H   UNL     1      49.219 -41.017  -0.975  1.00  0.00     0.211 HD
ENDBRANCH  12  17
BRANCH  14  19
ATOM     19  O   UNL     1      49.031 -42.486  -4.249  1.00  0.00    -0.387 OA
ATOM     20  H   UNL     1      49.912 -42.735  -4.725  1.00  0.00     0.211 HD
ENDBRANCH  14  19
BRANCH  15  21
ATOM     21  C   UNL     1      51.077 -39.340  -5.099  1.00  0.00     0.191 C 
BRANCH  21  22
ATOM     22  O   UNL     1      50.174 -40.190  -5.830  1.00  0.00    -0.394 OA
ATOM     23  H   UNL     1      49.727 -39.602  -6.561  1.00  0.00     0.210 HD
ENDBRANCH  21  22
ENDBRANCH  15  21
BRANCH  16  24
ATOM     24  O   UNL     1      51.701 -41.941  -3.961  1.00  0.00    -0.387 OA
ATOM     25  H   UNL     1      52.586 -42.003  -3.477  1.00  0.00     0.211 HD
ENDBRANCH  16  24
ENDBRANCH  10  11
ENDBRANCH   4  10
BRANCH   6  26
ATOM     26  O   UNL     1      44.919 -36.083  -1.251  1.00  0.00    -0.346 OA
BRANCH  26  27
ATOM     27  C   UNL     1      45.256 -35.767   0.137  1.00  0.00     0.130 C 
ATOM     28  C   UNL     1      46.054 -34.488   0.633  1.00  0.00     0.033 C 
ATOM     29  C   UNL     1      45.852 -37.055   0.795  1.00  0.00     0.020 C 
ATOM     30  C   UNL     1      46.193 -34.356   2.228  1.00  0.00     0.010 C 
ATOM     31  C   UNL     1      45.902 -36.821   2.343  1.00  0.00     0.006 C 
ATOM     32  C   UNL     1      44.865 -38.258   0.502  1.00  0.00     0.017 C 
ATOM     33  C   UNL     1      46.803 -35.634   2.901  1.00  0.00    -0.022 C 
ATOM     34  C   UNL     1      45.674 -37.971   3.330  1.00  0.00     0.005 C 
ATOM     35  C   UNL     1      48.318 -35.498   2.478  1.00  0.00     0.012 C 
ATOM     36  C   UNL     1      46.778 -35.716   4.517  1.00  0.00     0.024 C 
ATOM     37  C   UNL     1      44.752 -37.407   4.450  1.00  0.00     0.008 C 
ATOM     38  C   UNL     1      45.380 -36.150   5.187  1.00  0.00    -0.017 C 
ATOM     39  C   UNL     1      47.927 -36.607   5.036  1.00  0.00    -0.024 C 
ATOM     40  C   UNL     1      44.381 -34.964   5.064  1.00  0.00     0.013 C 
ATOM     41  C   UNL     1      45.607 -36.549   6.731  1.00  0.00     0.009 C 
ATOM     42  C   UNL     1      47.863 -37.482   6.061  1.00  0.00     0.005 C 
ATOM     43  C   UNL     1      46.601 -37.799   6.793  1.00  0.00     0.096 C 
ATOM     44  C   UNL     1      44.242 -36.924   7.465  1.00  0.00     0.043 C 
ATOM     45  C   UNL     1      46.235 -35.344   7.494  1.00  0.00     0.015 C 
ATOM     46  C   UNL     1      46.891 -38.317   8.180  1.00  0.00     0.037 C 
ATOM     47  O   UNL     1      46.080 -38.955   6.177  1.00  0.00    -0.369 OA
ATOM     48  C   UNL     1      44.314 -38.047   8.531  1.00  0.00     0.124 C 
ATOM     49  C   UNL     1      45.563 -39.000   8.497  1.00  0.00     0.026 C 
ATOM     50  C   UNL     1      47.534 -37.647   9.360  1.00  0.00     0.014 C 
ATOM     51  C   UNL     1      45.494 -39.798   7.176  1.00  0.00     0.171 C 
ATOM     52  C   UNL     1      45.728 -39.847   9.811  1.00  0.00     0.013 C 
ATOM     53  C   UNL     1      48.058 -38.809  10.328  1.00  0.00    -0.035 C 
ATOM     54  C   UNL     1      47.193 -40.133  10.210  1.00  0.00     0.007 C 
ATOM     55  C   UNL     1      48.099 -38.285  11.781  1.00  0.00     0.011 C 
ATOM     56  C   UNL     1      49.526 -39.164   9.912  1.00  0.00     0.011 C 
BRANCH  29  57
ATOM     57  C   UNL     1      47.257 -37.476   0.244  1.00  0.00     0.165 C 
BRANCH  57  58
ATOM     58  O   UNL     1      47.646 -38.727   0.755  1.00  0.00    -0.396 OA
ATOM     59  H   UNL     1      48.639 -38.797   0.617  1.00  0.00     0.210 HD
ENDBRANCH  57  58
ENDBRANCH  29  57
BRANCH  48  60
ATOM     60  O   UNL     1      44.053 -37.548   9.823  1.00  0.00    -0.392 OA
ATOM     61  H   UNL     1      43.100 -37.698  10.044  1.00  0.00     0.210 HD
ENDBRANCH  48  60
ENDBRANCH  26  27
ENDBRANCH   6  26
BRANCH   5  62
ATOM     62  O   UNL     1      45.413 -38.509  -2.859  1.00  0.00    -0.385 OA
ATOM     63  H   UNL     1      45.664 -39.263  -3.487  1.00  0.00     0.211 HD
ENDBRANCH   5  62
TORSDOF 14
ENDMDL
MODEL 3
REMARK VINA RESULT:    -6.935      1.734      2.917
REMARK INTER + INTRA:         -12.618
REMARK INTER:                 -11.104
REMARK INTRA:                  -1.514
REMARK UNBOUND:                -1.629
REMARK SMILES C[C@H]1O[C@@H](O[C@@H]2CC[C@]3(C)[C@H](CC[C@]4(C)[C@H]3C=C[C@@]35OC[C@]6(CCC(C)(C)C[C@@H]63)[C@@H](O)C[C@]45C)[C@]2(C)CO)[C@@H](O)[C@H](O[C@@H]2O[C@H](CO)[C@H](O)[C@H](O)[C@H]2O)[C@@H]1O
REMARK SMILES IDX 1 1 2 2 54 3 41 4 39 5 4 6 3 7 55 8 42 10 43 11 52 12 44 13
REMARK SMILES IDX 50 14 45 15 48 16 53 17 51 19 46 21 47 22 49 24 5 26 6 27
REMARK SMILES IDX 7 28 35 29 8 30 11 31 36 32 9 33 12 34 10 35 16 36 13 37
REMARK SMILES IDX 14 38 17 39 15 40 33 41 18 42 19 43 32 44 34 45 29 46 20 47
REMARK SMILES IDX 30 48 22 49 28 50 21 51 23 52 25 53 24 54 26 55 27 56 37 57
REMARK SMILES IDX 38 58 31 60 40 62
REMARK H PARENT 55 9 53 18 51 20 47 23 49 25 38 59 31 61 40 63
REMARK Flexibility Score: inf
ROOT
ATOM      1  C   UNL     1      44.426 -37.318  -1.683  1.00  0.00     0.041 C 
ATOM      2  C   UNL     1      44.113 -35.801  -1.443  1.00  0.00     0.150 C 
ATOM      3  C   UNL     1      44.626 -34.878  -2.642  1.00  0.00     0.175 C 
ATOM      4  C   UNL     1      46.174 -34.582  -2.377  1.00  0.00     0.186 C 
ATOM      5  C   UNL     1      46.336 -33.772  -1.157  1.00  0.00     0.202 C 
ATOM      6  C   UNL     1      45.139 -34.074  -0.113  1.00  0.00     0.282 C 
ATOM      7  O   UNL     1      44.675 -35.383  -0.167  1.00  0.00    -0.344 OA
ENDROOT
BRANCH   3   8
ATOM      8  O   UNL     1      43.875 -33.720  -2.718  1.00  0.00    -0.388 OA
ATOM      9  H   UNL     1      44.344 -32.996  -2.174  1.00  0.00     0.211 HD
ENDBRANCH   3   8
BRANCH   4  10
ATOM     10  O   UNL     1      47.021 -34.182  -3.519  1.00  0.00    -0.341 OA
BRANCH  10  11
ATOM     11  C   UNL     1      46.961 -35.248  -4.545  1.00  0.00     0.282 C 
ATOM     12  C   UNL     1      47.541 -34.986  -5.970  1.00  0.00     0.202 C 
ATOM     13  O   UNL     1      47.320 -36.537  -4.080  1.00  0.00    -0.341 OA
ATOM     14  C   UNL     1      48.989 -35.458  -6.230  1.00  0.00     0.179 C 
ATOM     15  C   UNL     1      48.680 -36.864  -4.079  1.00  0.00     0.178 C 
ATOM     16  C   UNL     1      49.379 -36.765  -5.444  1.00  0.00     0.177 C 
BRANCH  12  17
ATOM     17  O   UNL     1      46.756 -35.739  -6.862  1.00  0.00    -0.385 OA
ATOM     18  H   UNL     1      47.330 -36.068  -7.630  1.00  0.00     0.211 HD
ENDBRANCH  12  17
BRANCH  14  19
ATOM     19  O   UNL     1      49.983 -34.424  -6.167  1.00  0.00    -0.387 OA
ATOM     20  H   UNL     1      50.770 -34.791  -5.607  1.00  0.00     0.211 HD
ENDBRANCH  14  19
BRANCH  15  21
ATOM     21  C   UNL     1      49.467 -36.345  -2.872  1.00  0.00     0.191 C 
BRANCH  21  22
ATOM     22  O   UNL     1      50.585 -37.229  -2.676  1.00  0.00    -0.394 OA
ATOM     23  H   UNL     1      51.180 -36.808  -1.935  1.00  0.00     0.210 HD
ENDBRANCH  21  22
ENDBRANCH  15  21
BRANCH  16  24
ATOM     24  O   UNL     1      50.824 -36.911  -5.380  1.00  0.00    -0.387 OA
ATOM     25  H   UNL     1      51.201 -36.048  -5.012  1.00  0.00     0.211 HD
ENDBRANCH  16  24
ENDBRANCH  10  11
ENDBRANCH   4  10
BRANCH   6  26
ATOM     26  O   UNL     1      45.324 -33.507   1.187  1.00  0.00    -0.346 OA
BRANCH  26  27
ATOM     27  C   UNL     1      45.170 -34.184   2.475  1.00  0.00     0.130 C 
ATOM     28  C   UNL     1      43.895 -34.111   3.417  1.00  0.00     0.033 C 
ATOM     29  C   UNL     1      46.466 -33.929   3.313  1.00  0.00     0.020 C 
ATOM     30  C   UNL     1      43.970 -35.037   4.727  1.00  0.00     0.010 C 
ATOM     31  C   UNL     1      46.444 -34.910   4.535  1.00  0.00     0.006 C 
ATOM     32  C   UNL     1      47.715 -34.286   2.407  1.00  0.00     0.017 C 
ATOM     33  C   UNL     1      45.258 -34.784   5.587  1.00  0.00    -0.022 C 
ATOM     34  C   UNL     1      47.738 -35.510   5.097  1.00  0.00     0.005 C 
ATOM     35  C   UNL     1      44.904 -33.394   6.248  1.00  0.00     0.012 C 
ATOM     36  C   UNL     1      45.565 -35.810   6.800  1.00  0.00     0.024 C 
ATOM     37  C   UNL     1      47.436 -37.012   5.376  1.00  0.00     0.008 C 
ATOM     38  C   UNL     1      46.233 -37.217   6.391  1.00  0.00    -0.017 C 
ATOM     39  C   UNL     1      46.392 -35.118   7.904  1.00  0.00    -0.024 C 
ATOM     40  C   UNL     1      45.154 -38.096   5.697  1.00  0.00     0.013 C 
ATOM     41  C   UNL     1      46.816 -37.953   7.700  1.00  0.00     0.009 C 
ATOM     42  C   UNL     1      47.402 -35.665   8.611  1.00  0.00     0.005 C 
ATOM     43  C   UNL     1      47.950 -37.028   8.342  1.00  0.00     0.096 C 
ATOM     44  C   UNL     1      47.432 -39.385   7.363  1.00  0.00     0.043 C 
ATOM     45  C   UNL     1      45.668 -38.166   8.732  1.00  0.00     0.015 C 
ATOM     46  C   UNL     1      48.621 -37.597   9.568  1.00  0.00     0.037 C 
ATOM     47  O   UNL     1      49.058 -36.835   7.493  1.00  0.00    -0.369 OA
ATOM     48  C   UNL     1      48.677 -39.813   8.181  1.00  0.00     0.124 C 
ATOM     49  C   UNL     1      49.478 -38.685   8.926  1.00  0.00     0.026 C 
ATOM     50  C   UNL     1      48.056 -37.971  10.908  1.00  0.00     0.014 C 
ATOM     51  C   UNL     1      50.089 -37.766   7.844  1.00  0.00     0.171 C 
ATOM     52  C   UNL     1      50.477 -39.247  10.002  1.00  0.00     0.013 C 
ATOM     53  C   UNL     1      49.279 -37.989  11.941  1.00  0.00    -0.035 C 
ATOM     54  C   UNL     1      50.658 -38.343  11.242  1.00  0.00     0.007 C 
ATOM     55  C   UNL     1      48.960 -38.966  13.095  1.00  0.00     0.011 C 
ATOM     56  C   UNL     1      49.415 -36.556  12.558  1.00  0.00     0.011 C 
BRANCH  29  57
ATOM     57  C   UNL     1      46.655 -32.447   3.785  1.00  0.00     0.165 C 
BRANCH  57  58
ATOM     58  O   UNL     1      47.017 -31.618   2.708  1.00  0.00    -0.396 OA
ATOM     59  H   UNL     1      47.181 -30.703   3.094  1.00  0.00     0.210 HD
ENDBRANCH  57  58
ENDBRANCH  29  57
BRANCH  48  60
ATOM     60  O   UNL     1      48.392 -40.911   9.016  1.00  0.00    -0.392 OA
ATOM     61  H   UNL     1      48.132 -40.581   9.912  1.00  0.00     0.210 HD
ENDBRANCH  48  60
ENDBRANCH  26  27
ENDBRANCH   6  26
BRANCH   5  62
ATOM     62  O   UNL     1      47.578 -34.004  -0.655  1.00  0.00    -0.385 OA
ATOM     63  H   UNL     1      47.623 -33.895   0.350  1.00  0.00     0.211 HD
ENDBRANCH   5  62
TORSDOF 14
ENDMDL
MODEL 4
REMARK VINA RESULT:    -6.534      2.470     11.167
REMARK INTER + INTRA:         -11.983
REMARK INTER:                 -10.754
REMARK INTRA:                  -1.229
REMARK UNBOUND:                -1.629
REMARK SMILES C[C@H]1O[C@@H](O[C@@H]2CC[C@]3(C)[C@H](CC[C@]4(C)[C@H]3C=C[C@@]35OC[C@]6(CCC(C)(C)C[C@@H]63)[C@@H](O)C[C@]45C)[C@]2(C)CO)[C@@H](O)[C@H](O[C@@H]2O[C@H](CO)[C@H](O)[C@H](O)[C@H]2O)[C@@H]1O
REMARK SMILES IDX 1 1 2 2 54 3 41 4 39 5 4 6 3 7 55 8 42 10 43 11 52 12 44 13
REMARK SMILES IDX 50 14 45 15 48 16 53 17 51 19 46 21 47 22 49 24 5 26 6 27
REMARK SMILES IDX 7 28 35 29 8 30 11 31 36 32 9 33 12 34 10 35 16 36 13 37
REMARK SMILES IDX 14 38 17 39 15 40 33 41 18 42 19 43 32 44 34 45 29 46 20 47
REMARK SMILES IDX 30 48 22 49 28 50 21 51 23 52 25 53 24 54 26 55 27 56 37 57
REMARK SMILES IDX 38 58 31 60 40 62
REMARK H PARENT 55 9 53 18 51 20 47 23 49 25 38 59 31 61 40 63
REMARK Flexibility Score: inf
ROOT
ATOM      1  C   UNL     1      43.875 -40.080   9.925  1.00  0.00     0.041 C 
ATOM      2  C   UNL     1      44.883 -40.067   8.724  1.00  0.00     0.150 C 
ATOM      3  C   UNL     1      46.398 -39.904   9.204  1.00  0.00     0.175 C 
ATOM      4  C   UNL     1      46.656 -38.340   9.413  1.00  0.00     0.186 C 
ATOM      5  C   UNL     1      46.571 -37.632   8.125  1.00  0.00     0.202 C 
ATOM      6  C   UNL     1      45.555 -38.395   7.126  1.00  0.00     0.282 C 
ATOM      7  O   UNL     1      44.503 -39.025   7.781  1.00  0.00    -0.344 OA
ENDROOT
BRANCH   3   8
ATOM      8  O   UNL     1      47.262 -40.459   8.279  1.00  0.00    -0.388 OA
ATOM      9  H   UNL     1      48.072 -40.829   8.776  1.00  0.00     0.211 HD
ENDBRANCH   3   8
BRANCH   4  10
ATOM     10  O   UNL     1      47.767 -37.921  10.292  1.00  0.00    -0.341 OA
BRANCH  10  11
ATOM     11  C   UNL     1      49.025 -38.505   9.773  1.00  0.00     0.282 C 
ATOM     12  C   UNL     1      49.485 -38.184   8.317  1.00  0.00     0.202 C 
ATOM     13  O   UNL     1      50.117 -38.452  10.673  1.00  0.00    -0.341 OA
ATOM     14  C   UNL     1      50.494 -37.026   8.144  1.00  0.00     0.179 C 
ATOM     15  C   UNL     1      50.880 -37.279  10.691  1.00  0.00     0.178 C 
ATOM     16  C   UNL     1      51.504 -36.884   9.343  1.00  0.00     0.177 C 
BRANCH  12  17
ATOM     17  O   UNL     1      50.170 -39.324   7.857  1.00  0.00    -0.385 OA
ATOM     18  H   UNL     1      50.408 -39.920   8.642  1.00  0.00     0.211 HD
ENDBRANCH  12  17
BRANCH  14  19
ATOM     19  O   UNL     1      49.920 -35.782   7.716  1.00  0.00    -0.387 OA
ATOM     20  H   UNL     1      49.092 -35.609   8.308  1.00  0.00     0.211 HD
ENDBRANCH  14  19
BRANCH  15  21
ATOM     21  C   UNL     1      50.293 -36.141  11.530  1.00  0.00     0.191 C 
BRANCH  21  22
ATOM     22  O   UNL     1      49.877 -35.107  10.620  1.00  0.00    -0.394 OA
ATOM     23  H   UNL     1      50.609 -35.035   9.885  1.00  0.00     0.210 HD
ENDBRANCH  21  22
ENDBRANCH  15  21
BRANCH  16  24
ATOM     24  O   UNL     1      52.117 -35.566   9.341  1.00  0.00    -0.387 OA
ATOM     25  H   UNL     1      51.768 -35.066  10.147  1.00  0.00     0.211 HD
ENDBRANCH  16  24
ENDBRANCH  10  11
ENDBRANCH   4  10
BRANCH   6  26
ATOM     26  O   UNL     1      45.232 -37.671   5.935  1.00  0.00    -0.346 OA
BRANCH  26  27
ATOM     27  C   UNL     1      46.091 -37.458   4.771  1.00  0.00     0.130 C 
ATOM     28  C   UNL     1      47.568 -36.877   4.798  1.00  0.00     0.033 C 
ATOM     29  C   UNL     1      45.250 -36.720   3.677  1.00  0.00     0.020 C 
ATOM     30  C   UNL     1      48.307 -36.845   3.373  1.00  0.00     0.010 C 
ATOM     31  C   UNL     1      46.051 -36.787   2.333  1.00  0.00     0.006 C 
ATOM     32  C   UNL     1      43.889 -37.508   3.489  1.00  0.00     0.017 C 
ATOM     33  C   UNL     1      47.483 -36.096   2.268  1.00  0.00    -0.022 C 
ATOM     34  C   UNL     1      45.333 -36.901   0.983  1.00  0.00     0.005 C 
ATOM     35  C   UNL     1      47.680 -34.595   2.718  1.00  0.00     0.012 C 
ATOM     36  C   UNL     1      48.008 -36.195   0.741  1.00  0.00     0.024 C 
ATOM     37  C   UNL     1      46.127 -37.953   0.156  1.00  0.00     0.008 C 
ATOM     38  C   UNL     1      47.649 -37.552  -0.049  1.00  0.00    -0.017 C 
ATOM     39  C   UNL     1      47.563 -34.961  -0.071  1.00  0.00    -0.024 C 
ATOM     40  C   UNL     1      48.536 -38.701   0.509  1.00  0.00     0.013 C 
ATOM     41  C   UNL     1      47.896 -37.353  -1.628  1.00  0.00     0.009 C 
ATOM     42  C   UNL     1      47.136 -34.954  -1.351  1.00  0.00     0.005 C 
ATOM     43  C   UNL     1      46.927 -36.196  -2.154  1.00  0.00     0.096 C 
ATOM     44  C   UNL     1      47.619 -38.688  -2.455  1.00  0.00     0.043 C 
ATOM     45  C   UNL     1      49.380 -36.946  -1.876  1.00  0.00     0.015 C 
ATOM     46  C   UNL     1      47.017 -35.909  -3.632  1.00  0.00     0.037 C 
ATOM     47  O   UNL     1      45.560 -36.512  -2.023  1.00  0.00    -0.369 OA
ATOM     48  C   UNL     1      47.003 -38.514  -3.867  1.00  0.00     0.124 C 
ATOM     49  C   UNL     1      46.308 -37.141  -4.190  1.00  0.00     0.026 C 
ATOM     50  C   UNL     1      48.170 -35.433  -4.469  1.00  0.00     0.014 C 
ATOM     51  C   UNL     1      45.073 -37.025  -3.269  1.00  0.00     0.171 C 
ATOM     52  C   UNL     1      46.050 -36.928  -5.726  1.00  0.00     0.013 C 
ATOM     53  C   UNL     1      47.549 -34.801  -5.803  1.00  0.00    -0.035 C 
ATOM     54  C   UNL     1      46.162 -35.461  -6.197  1.00  0.00     0.007 C 
ATOM     55  C   UNL     1      48.578 -34.914  -6.949  1.00  0.00     0.011 C 
ATOM     56  C   UNL     1      47.292 -33.278  -5.545  1.00  0.00     0.011 C 
BRANCH  29  57
ATOM     57  C   UNL     1      44.873 -35.241   4.034  1.00  0.00     0.165 C 
BRANCH  57  58
ATOM     58  O   UNL     1      44.511 -35.126   5.389  1.00  0.00    -0.396 OA
ATOM     59  H   UNL     1      44.246 -36.047   5.694  1.00  0.00     0.210 HD
ENDBRANCH  57  58
ENDBRANCH  29  57
BRANCH  48  60
ATOM     60  O   UNL     1      47.902 -38.912  -4.875  1.00  0.00    -0.392 OA
ATOM     61  H   UNL     1      47.523 -38.681  -5.760  1.00  0.00     0.210 HD
ENDBRANCH  48  60
ENDBRANCH  26  27
ENDBRANCH   6  26
BRANCH   5  62
ATOM     62  O   UNL     1      46.234 -36.338   8.372  1.00  0.00    -0.385 OA
ATOM     63  H   UNL     1      46.795 -35.918   9.102  1.00  0.00     0.211 HD
ENDBRANCH   5  62
TORSDOF 14
ENDMDL
MODEL 5
REMARK VINA RESULT:    -6.372      1.396      2.212
REMARK INTER + INTRA:         -11.727
REMARK INTER:                 -11.525
REMARK INTRA:                  -0.202
REMARK UNBOUND:                -1.629
REMARK SMILES C[C@H]1O[C@@H](O[C@@H]2CC[C@]3(C)[C@H](CC[C@]4(C)[C@H]3C=C[C@@]35OC[C@]6(CCC(C)(C)C[C@@H]63)[C@@H](O)C[C@]45C)[C@]2(C)CO)[C@@H](O)[C@H](O[C@@H]2O[C@H](CO)[C@H](O)[C@H](O)[C@H]2O)[C@@H]1O
REMARK SMILES IDX 1 1 2 2 54 3 41 4 39 5 4 6 3 7 55 8 42 10 43 11 52 12 44 13
REMARK SMILES IDX 50 14 45 15 48 16 53 17 51 19 46 21 47 22 49 24 5 26 6 27
REMARK SMILES IDX 7 28 35 29 8 30 11 31 36 32 9 33 12 34 10 35 16 36 13 37
REMARK SMILES IDX 14 38 17 39 15 40 33 41 18 42 19 43 32 44 34 45 29 46 20 47
REMARK SMILES IDX 30 48 22 49 28 50 21 51 23 52 25 53 24 54 26 55 27 56 37 57
REMARK SMILES IDX 38 58 31 60 40 62
REMARK H PARENT 55 9 53 18 51 20 47 23 49 25 38 59 31 61 40 63
REMARK Flexibility Score: inf
ROOT
ATOM      1  C   UNL     1      43.875 -37.429  -2.010  1.00  0.00     0.041 C 
ATOM      2  C   UNL     1      44.323 -35.927  -1.965  1.00  0.00     0.150 C 
ATOM      3  C   UNL     1      45.509 -35.616  -2.990  1.00  0.00     0.175 C 
ATOM      4  C   UNL     1      46.873 -36.025  -2.265  1.00  0.00     0.186 C 
ATOM      5  C   UNL     1      47.115 -35.153  -1.103  1.00  0.00     0.202 C 
ATOM      6  C   UNL     1      45.715 -34.643  -0.476  1.00  0.00     0.282 C 
ATOM      7  O   UNL     1      44.684 -35.567  -0.602  1.00  0.00    -0.344 OA
ENDROOT
BRANCH   3   8
ATOM      8  O   UNL     1      45.491 -34.285  -3.362  1.00  0.00    -0.388 OA
ATOM      9  H   UNL     1      44.520 -33.996  -3.478  1.00  0.00     0.211 HD
ENDBRANCH   3   8
BRANCH   4  10
ATOM     10  O   UNL     1      48.058 -36.308  -3.100  1.00  0.00    -0.341 OA
BRANCH  10  11
ATOM     11  C   UNL     1      48.745 -37.501  -2.554  1.00  0.00     0.282 C 
ATOM     12  C   UNL     1      48.043 -38.893  -2.609  1.00  0.00     0.202 C 
ATOM     13  O   UNL     1      50.113 -37.608  -2.905  1.00  0.00    -0.341 OA
ATOM     14  C   UNL     1      48.401 -39.807  -3.804  1.00  0.00     0.179 C 
ATOM     15  C   UNL     1      50.416 -38.216  -4.129  1.00  0.00     0.178 C 
ATOM     16  C   UNL     1      49.887 -39.650  -4.296  1.00  0.00     0.177 C 
BRANCH  12  17
ATOM     17  O   UNL     1      48.480 -39.603  -1.475  1.00  0.00    -0.385 OA
ATOM     18  H   UNL     1      47.885 -40.410  -1.326  1.00  0.00     0.211 HD
ENDBRANCH  12  17
BRANCH  14  19
ATOM     19  O   UNL     1      47.435 -39.821  -4.865  1.00  0.00    -0.387 OA
ATOM     20  H   UNL     1      46.632 -40.383  -4.539  1.00  0.00     0.211 HD
ENDBRANCH  14  19
BRANCH  15  21
ATOM     21  C   UNL     1      50.302 -37.301  -5.350  1.00  0.00     0.191 C 
BRANCH  21  22
ATOM     22  O   UNL     1      51.579 -37.306  -6.012  1.00  0.00    -0.394 OA
ATOM     23  H   UNL     1      51.800 -38.296  -6.240  1.00  0.00     0.210 HD
ENDBRANCH  21  22
ENDBRANCH  15  21
BRANCH  16  24
ATOM     24  O   UNL     1      50.038 -40.181  -5.641  1.00  0.00    -0.387 OA
ATOM     25  H   UNL     1      50.840 -39.729  -6.059  1.00  0.00     0.211 HD
ENDBRANCH  16  24
ENDBRANCH  10  11
ENDBRANCH   4  10
BRANCH   6  26
ATOM     26  O   UNL     1      45.833 -33.974   0.782  1.00  0.00    -0.346 OA
BRANCH  26  27
ATOM     27  C   UNL     1      45.599 -34.544   2.110  1.00  0.00     0.130 C 
ATOM     28  C   UNL     1      44.316 -34.304   3.013  1.00  0.00     0.033 C 
ATOM     29  C   UNL     1      46.896 -34.334   2.961  1.00  0.00     0.020 C 
ATOM     30  C   UNL     1      44.292 -35.138   4.385  1.00  0.00     0.010 C 
ATOM     31  C   UNL     1      46.772 -35.221   4.246  1.00  0.00     0.006 C 
ATOM     32  C   UNL     1      48.129 -34.851   2.113  1.00  0.00     0.017 C 
ATOM     33  C   UNL     1      45.579 -34.927   5.257  1.00  0.00    -0.022 C 
ATOM     34  C   UNL     1      48.002 -35.879   4.880  1.00  0.00     0.005 C 
ATOM     35  C   UNL     1      45.326 -33.470   5.812  1.00  0.00     0.012 C 
ATOM     36  C   UNL     1      45.779 -35.885   6.545  1.00  0.00     0.024 C 
ATOM     37  C   UNL     1      47.574 -37.329   5.254  1.00  0.00     0.008 C 
ATOM     38  C   UNL     1      46.340 -37.366   6.251  1.00  0.00    -0.017 C 
ATOM     39  C   UNL     1      46.638 -35.185   7.619  1.00  0.00    -0.024 C 
ATOM     40  C   UNL     1      45.207 -38.205   5.593  1.00  0.00     0.013 C 
ATOM     41  C   UNL     1      46.836 -38.051   7.622  1.00  0.00     0.009 C 
ATOM     42  C   UNL     1      47.587 -35.758   8.387  1.00  0.00     0.005 C 
ATOM     43  C   UNL     1      48.029 -37.176   8.227  1.00  0.00     0.096 C 
ATOM     44  C   UNL     1      47.341 -39.548   7.400  1.00  0.00     0.043 C 
ATOM     45  C   UNL     1      45.655 -38.099   8.637  1.00  0.00     0.015 C 
ATOM     46  C   UNL     1      48.628 -37.708   9.505  1.00  0.00     0.037 C 
ATOM     47  O   UNL     1      49.164 -37.132   7.394  1.00  0.00    -0.369 OA
ATOM     48  C   UNL     1      48.532 -40.014   8.276  1.00  0.00     0.124 C 
ATOM     49  C   UNL     1      49.407 -38.903   8.961  1.00  0.00     0.026 C 
ATOM     50  C   UNL     1      48.009 -37.940  10.853  1.00  0.00     0.014 C 
ATOM     51  C   UNL     1      50.110 -38.114   7.834  1.00  0.00     0.171 C 
ATOM     52  C   UNL     1      50.336 -39.464  10.098  1.00  0.00     0.013 C 
ATOM     53  C   UNL     1      49.207 -37.981  11.915  1.00  0.00    -0.035 C 
ATOM     54  C   UNL     1      50.565 -38.492  11.277  1.00  0.00     0.007 C 
ATOM     55  C   UNL     1      48.788 -38.846  13.125  1.00  0.00     0.011 C 
ATOM     56  C   UNL     1      49.445 -36.524  12.435  1.00  0.00     0.011 C 
BRANCH  29  57
ATOM     57  C   UNL     1      47.195 -32.842   3.333  1.00  0.00     0.165 C 
BRANCH  57  58
ATOM     58  O   UNL     1      47.099 -32.010   2.203  1.00  0.00    -0.396 OA
ATOM     59  H   UNL     1      47.675 -31.207   2.388  1.00  0.00     0.210 HD
ENDBRANCH  57  58
ENDBRANCH  29  57
BRANCH  48  60
ATOM     60  O   UNL     1      48.144 -41.025   9.178  1.00  0.00    -0.392 OA
ATOM     61  H   UNL     1      47.826 -41.812   8.668  1.00  0.00     0.210 HD
ENDBRANCH  48  60
ENDBRANCH  26  27
ENDBRANCH   6  26
BRANCH   5  62
ATOM     62  O   UNL     1      47.901 -35.827  -0.221  1.00  0.00    -0.385 OA
ATOM     63  H   UNL     1      48.232 -36.711  -0.586  1.00  0.00     0.211 HD
ENDBRANCH   5  62
TORSDOF 14
ENDMDL
MODEL 6
REMARK VINA RESULT:    -6.205      2.941     11.173
REMARK INTER + INTRA:         -11.462
REMARK INTER:                 -10.010
REMARK INTRA:                  -1.452
REMARK UNBOUND:                -1.629
REMARK SMILES C[C@H]1O[C@@H](O[C@@H]2CC[C@]3(C)[C@H](CC[C@]4(C)[C@H]3C=C[C@@]35OC[C@]6(CCC(C)(C)C[C@@H]63)[C@@H](O)C[C@]45C)[C@]2(C)CO)[C@@H](O)[C@H](O[C@@H]2O[C@H](CO)[C@H](O)[C@H](O)[C@H]2O)[C@@H]1O
REMARK SMILES IDX 1 1 2 2 54 3 41 4 39 5 4 6 3 7 55 8 42 10 43 11 52 12 44 13
REMARK SMILES IDX 50 14 45 15 48 16 53 17 51 19 46 21 47 22 49 24 5 26 6 27
REMARK SMILES IDX 7 28 35 29 8 30 11 31 36 32 9 33 12 34 10 35 16 36 13 37
REMARK SMILES IDX 14 38 17 39 15 40 33 41 18 42 19 43 32 44 34 45 29 46 20 47
REMARK SMILES IDX 30 48 22 49 28 50 21 51 23 52 25 53 24 54 26 55 27 56 37 57
REMARK SMILES IDX 38 58 31 60 40 62
REMARK H PARENT 55 9 53 18 51 20 47 23 49 25 38 59 31 61 40 63
REMARK Flexibility Score: inf
ROOT
ATOM      1  C   UNL     1      44.108 -40.322   9.535  1.00  0.00     0.041 C 
ATOM      2  C   UNL     1      44.928 -39.970   8.246  1.00  0.00     0.150 C 
ATOM      3  C   UNL     1      46.480 -39.745   8.554  1.00  0.00     0.175 C 
ATOM      4  C   UNL     1      46.644 -38.235   9.049  1.00  0.00     0.186 C 
ATOM      5  C   UNL     1      46.319 -37.301   7.958  1.00  0.00     0.202 C 
ATOM      6  C   UNL     1      45.231 -37.957   6.958  1.00  0.00     0.282 C 
ATOM      7  O   UNL     1      44.337 -38.810   7.595  1.00  0.00    -0.344 OA
ENDROOT
BRANCH   3   8
ATOM      8  O   UNL     1      47.241 -40.016   7.433  1.00  0.00    -0.388 OA
ATOM      9  H   UNL     1      47.040 -40.969   7.130  1.00  0.00     0.211 HD
ENDBRANCH   3   8
BRANCH   4  10
ATOM     10  O   UNL     1      47.834 -37.881   9.850  1.00  0.00    -0.341 OA
BRANCH  10  11
ATOM     11  C   UNL     1      48.957 -37.597   8.925  1.00  0.00     0.282 C 
ATOM     12  C   UNL     1      49.192 -36.141   8.417  1.00  0.00     0.202 C 
ATOM     13  O   UNL     1      50.181 -38.218   9.274  1.00  0.00    -0.341 OA
ATOM     14  C   UNL     1      50.225 -35.291   9.192  1.00  0.00     0.179 C 
ATOM     15  C   UNL     1      51.002 -37.550  10.189  1.00  0.00     0.178 C 
ATOM     16  C   UNL     1      51.421 -36.130   9.777  1.00  0.00     0.177 C 
BRANCH  12  17
ATOM     17  O   UNL     1      49.727 -36.256   7.121  1.00  0.00    -0.385 OA
ATOM     18  H   UNL     1      49.046 -35.939   6.439  1.00  0.00     0.211 HD
ENDBRANCH  12  17
BRANCH  14  19
ATOM     19  O   UNL     1      49.661 -34.355  10.123  1.00  0.00    -0.387 OA
ATOM     20  H   UNL     1      48.812 -34.790  10.517  1.00  0.00     0.211 HD
ENDBRANCH  14  19
BRANCH  15  21
ATOM     21  C   UNL     1      50.625 -37.749  11.659  1.00  0.00     0.191 C 
BRANCH  21  22
ATOM     22  O   UNL     1      49.852 -36.604  12.063  1.00  0.00    -0.394 OA
ATOM     23  H   UNL     1      49.231 -36.360  11.266  1.00  0.00     0.210 HD
ENDBRANCH  21  22
ENDBRANCH  15  21
BRANCH  16  24
ATOM     24  O   UNL     1      52.101 -35.387  10.826  1.00  0.00    -0.387 OA
ATOM     25  H   UNL     1      51.876 -34.410  10.701  1.00  0.00     0.211 HD
ENDBRANCH  16  24
ENDBRANCH  10  11
ENDBRANCH   4  10
BRANCH   6  26
ATOM     26  O   UNL     1      44.685 -37.052   5.994  1.00  0.00    -0.346 OA
BRANCH  26  27
ATOM     27  C   UNL     1      44.889 -37.077   4.545  1.00  0.00     0.130 C 
ATOM     28  C   UNL     1      45.080 -38.376   3.654  1.00  0.00     0.033 C 
ATOM     29  C   UNL     1      45.992 -36.024   4.195  1.00  0.00     0.020 C 
ATOM     30  C   UNL     1      45.187 -38.101   2.075  1.00  0.00     0.010 C 
ATOM     31  C   UNL     1      45.975 -35.814   2.642  1.00  0.00     0.006 C 
ATOM     32  C   UNL     1      45.604 -34.655   4.889  1.00  0.00     0.017 C 
ATOM     33  C   UNL     1      46.299 -37.058   1.705  1.00  0.00    -0.022 C 
ATOM     34  C   UNL     1      46.283 -34.447   2.021  1.00  0.00     0.005 C 
ATOM     35  C   UNL     1      47.602 -37.923   1.927  1.00  0.00     0.012 C 
ATOM     36  C   UNL     1      46.351 -36.524   0.179  1.00  0.00     0.024 C 
ATOM     37  C   UNL     1      45.235 -34.239   0.888  1.00  0.00     0.008 C 
ATOM     38  C   UNL     1      45.286 -35.381  -0.212  1.00  0.00    -0.017 C 
ATOM     39  C   UNL     1      47.781 -36.084  -0.197  1.00  0.00    -0.024 C 
ATOM     40  C   UNL     1      43.875 -36.029  -0.309  1.00  0.00     0.013 C 
ATOM     41  C   UNL     1      45.699 -34.697  -1.611  1.00  0.00     0.009 C 
ATOM     42  C   UNL     1      48.120 -35.013  -0.944  1.00  0.00     0.005 C 
ATOM     43  C   UNL     1      47.131 -34.010  -1.439  1.00  0.00     0.096 C 
ATOM     44  C   UNL     1      44.641 -33.601  -2.082  1.00  0.00     0.043 C 
ATOM     45  C   UNL     1      45.772 -35.788  -2.722  1.00  0.00     0.015 C 
ATOM     46  C   UNL     1      47.647 -33.293  -2.662  1.00  0.00     0.037 C 
ATOM     47  O   UNL     1      47.137 -32.966  -0.492  1.00  0.00    -0.369 OA
ATOM     48  C   UNL     1      45.210 -32.361  -2.818  1.00  0.00     0.124 C 
ATOM     49  C   UNL     1      46.744 -32.063  -2.656  1.00  0.00     0.026 C 
ATOM     50  C   UNL     1      47.973 -33.810  -4.034  1.00  0.00     0.014 C 
ATOM     51  C   UNL     1      46.989 -31.713  -1.171  1.00  0.00     0.171 C 
ATOM     52  C   UNL     1      47.285 -31.029  -3.710  1.00  0.00     0.013 C 
ATOM     53  C   UNL     1      48.965 -32.749  -4.709  1.00  0.00    -0.035 C 
ATOM     54  C   UNL     1      48.742 -31.278  -4.162  1.00  0.00     0.007 C 
ATOM     55  C   UNL     1      48.813 -32.813  -6.245  1.00  0.00     0.011 C 
ATOM     56  C   UNL     1      50.433 -33.167  -4.360  1.00  0.00     0.011 C 
BRANCH  29  57
ATOM     57  C   UNL     1      47.429 -36.396   4.696  1.00  0.00     0.165 C 
BRANCH  57  58
ATOM     58  O   UNL     1      48.357 -35.394   4.359  1.00  0.00    -0.396 OA
ATOM     59  H   UNL     1      48.111 -34.583   4.899  1.00  0.00     0.210 HD
ENDBRANCH  57  58
ENDBRANCH  29  57
BRANCH  48  60
ATOM     60  O   UNL     1      44.793 -32.323  -4.163  1.00  0.00    -0.392 OA
ATOM     61  H   UNL     1      45.573 -32.481  -4.751  1.00  0.00     0.210 HD
ENDBRANCH  48  60
ENDBRANCH  26  27
ENDBRANCH   6  26
BRANCH   5  62
ATOM     62  O   UNL     1      45.923 -36.123   8.509  1.00  0.00    -0.385 OA
ATOM     63  H   UNL     1      45.194 -36.239   9.201  1.00  0.00     0.211 HD
ENDBRANCH   5  62
TORSDOF 14
ENDMDL
MODEL 7
REMARK VINA RESULT:    -5.281      2.618     10.433
REMARK INTER + INTRA:          -9.999
REMARK INTER:                  -8.460
REMARK INTRA:                  -1.539
REMARK UNBOUND:                -1.629
REMARK SMILES C[C@H]1O[C@@H](O[C@@H]2CC[C@]3(C)[C@H](CC[C@]4(C)[C@H]3C=C[C@@]35OC[C@]6(CCC(C)(C)C[C@@H]63)[C@@H](O)C[C@]45C)[C@]2(C)CO)[C@@H](O)[C@H](O[C@@H]2O[C@H](CO)[C@H](O)[C@H](O)[C@H]2O)[C@@H]1O
REMARK SMILES IDX 1 1 2 2 54 3 41 4 39 5 4 6 3 7 55 8 42 10 43 11 52 12 44 13
REMARK SMILES IDX 50 14 45 15 48 16 53 17 51 19 46 21 47 22 49 24 5 26 6 27
REMARK SMILES IDX 7 28 35 29 8 30 11 31 36 32 9 33 12 34 10 35 16 36 13 37
REMARK SMILES IDX 14 38 17 39 15 40 33 41 18 42 19 43 32 44 34 45 29 46 20 47
REMARK SMILES IDX 30 48 22 49 28 50 21 51 23 52 25 53 24 54 26 55 27 56 37 57
REMARK SMILES IDX 38 58 31 60 40 62
REMARK H PARENT 55 9 53 18 51 20 47 23 49 25 38 59 31 61 40 63
REMARK Flexibility Score: inf
ROOT
ATOM      1  C   UNL     1      43.888 -33.395   8.984  1.00  0.00     0.041 C 
ATOM      2  C   UNL     1      43.875 -34.373   7.759  1.00  0.00     0.150 C 
ATOM      3  C   UNL     1      44.496 -35.802   8.115  1.00  0.00     0.175 C 
ATOM      4  C   UNL     1      46.082 -35.672   7.970  1.00  0.00     0.186 C 
ATOM      5  C   UNL     1      46.447 -35.421   6.565  1.00  0.00     0.202 C 
ATOM      6  C   UNL     1      45.263 -34.624   5.806  1.00  0.00     0.282 C 
ATOM      7  O   UNL     1      44.561 -33.755   6.634  1.00  0.00    -0.344 OA
ENDROOT
BRANCH   3   8
ATOM      8  O   UNL     1      43.972 -36.778   7.290  1.00  0.00    -0.388 OA
ATOM      9  H   UNL     1      43.198 -37.231   7.777  1.00  0.00     0.211 HD
ENDBRANCH   3   8
BRANCH   4  10
ATOM     10  O   UNL     1      46.937 -36.644   8.681  1.00  0.00    -0.341 OA
BRANCH  10  11
ATOM     11  C   UNL     1      47.592 -37.517   7.680  1.00  0.00     0.282 C 
ATOM     12  C   UNL     1      49.132 -37.754   7.747  1.00  0.00     0.202 C 
ATOM     13  O   UNL     1      46.903 -38.725   7.409  1.00  0.00    -0.341 OA
ATOM     14  C   UNL     1      49.609 -39.026   8.485  1.00  0.00     0.179 C 
ATOM     15  C   UNL     1      47.154 -39.811   8.254  1.00  0.00     0.178 C 
ATOM     16  C   UNL     1      48.625 -40.246   8.342  1.00  0.00     0.177 C 
BRANCH  12  17
ATOM     17  O   UNL     1      49.564 -37.930   6.419  1.00  0.00    -0.385 OA
ATOM     18  H   UNL     1      49.011 -37.350   5.799  1.00  0.00     0.211 HD
ENDBRANCH  12  17
BRANCH  14  19
ATOM     19  O   UNL     1      50.076 -38.809   9.825  1.00  0.00    -0.387 OA
ATOM     20  H   UNL     1      49.713 -37.891  10.129  1.00  0.00     0.211 HD
ENDBRANCH  14  19
BRANCH  15  21
ATOM     21  C   UNL     1      46.367 -39.801   9.567  1.00  0.00     0.191 C 
BRANCH  21  22
ATOM     22  O   UNL     1      47.110 -39.005  10.508  1.00  0.00    -0.394 OA
ATOM     23  H   UNL     1      47.532 -38.218   9.975  1.00  0.00     0.210 HD
ENDBRANCH  21  22
ENDBRANCH  15  21
BRANCH  16  24
ATOM     24  O   UNL     1      48.887 -41.236   9.374  1.00  0.00    -0.387 OA
ATOM     25  H   UNL     1      48.776 -40.780  10.269  1.00  0.00     0.211 HD
ENDBRANCH  16  24
ENDBRANCH  10  11
ENDBRANCH   4  10
BRANCH   6  26
ATOM     26  O   UNL     1      45.608 -34.139   4.506  1.00  0.00    -0.346 OA
BRANCH  26  27
ATOM     27  C   UNL     1      45.512 -34.864   3.239  1.00  0.00     0.130 C 
ATOM     28  C   UNL     1      44.327 -35.826   2.804  1.00  0.00     0.033 C 
ATOM     29  C   UNL     1      46.888 -35.563   2.977  1.00  0.00     0.020 C 
ATOM     30  C   UNL     1      44.445 -36.411   1.313  1.00  0.00     0.010 C 
ATOM     31  C   UNL     1      46.897 -36.055   1.489  1.00  0.00     0.006 C 
ATOM     32  C   UNL     1      48.031 -34.481   3.154  1.00  0.00     0.017 C 
ATOM     33  C   UNL     1      45.813 -37.128   1.039  1.00  0.00    -0.022 C 
ATOM     34  C   UNL     1      48.188 -36.061   0.662  1.00  0.00     0.005 C 
ATOM     35  C   UNL     1      45.612 -38.469   1.849  1.00  0.00     0.012 C 
ATOM     36  C   UNL     1      46.146 -37.552  -0.487  1.00  0.00     0.024 C 
ATOM     37  C   UNL     1      47.805 -35.515  -0.745  1.00  0.00     0.008 C 
ATOM     38  C   UNL     1      46.678 -36.379  -1.453  1.00  0.00    -0.017 C 
ATOM     39  C   UNL     1      47.106 -38.760  -0.520  1.00  0.00    -0.024 C 
ATOM     40  C   UNL     1      45.487 -35.440  -1.797  1.00  0.00     0.013 C 
ATOM     41  C   UNL     1      47.313 -37.012  -2.792  1.00  0.00     0.009 C 
ATOM     42  C   UNL     1      48.130 -38.946  -1.378  1.00  0.00     0.005 C 
ATOM     43  C   UNL     1      48.558 -37.927  -2.383  1.00  0.00     0.096 C 
ATOM     44  C   UNL     1      47.797 -35.891  -3.817  1.00  0.00     0.043 C 
ATOM     45  C   UNL     1      46.241 -37.880  -3.516  1.00  0.00     0.015 C 
ATOM     46  C   UNL     1      49.285 -38.570  -3.536  1.00  0.00     0.037 C 
ATOM     47  O   UNL     1      49.603 -37.204  -1.773  1.00  0.00    -0.369 OA
ATOM     48  C   UNL     1      49.072 -36.209  -4.640  1.00  0.00     0.124 C 
ATOM     49  C   UNL     1      50.009 -37.355  -4.111  1.00  0.00     0.026 C 
ATOM     50  C   UNL     1      48.807 -39.547  -4.572  1.00  0.00     0.014 C 
ATOM     51  C   UNL     1      50.592 -36.883  -2.760  1.00  0.00     0.171 C 
ATOM     52  C   UNL     1      51.051 -37.843  -5.183  1.00  0.00     0.013 C 
ATOM     53  C   UNL     1      50.106 -40.269  -5.168  1.00  0.00    -0.035 C 
ATOM     54  C   UNL     1      51.395 -39.347  -5.103  1.00  0.00     0.007 C 
ATOM     55  C   UNL     1      49.815 -40.737  -6.611  1.00  0.00     0.011 C 
ATOM     56  C   UNL     1      50.392 -41.543  -4.305  1.00  0.00     0.011 C 
BRANCH  29  57
ATOM     57  C   UNL     1      47.218 -36.738   3.960  1.00  0.00     0.165 C 
BRANCH  57  58
ATOM     58  O   UNL     1      48.606 -36.857   4.156  1.00  0.00    -0.396 OA
ATOM     59  H   UNL     1      48.751 -36.908   5.150  1.00  0.00     0.210 HD
ENDBRANCH  57  58
ENDBRANCH  29  57
BRANCH  48  60
ATOM     60  O   UNL     1      48.781 -36.342  -6.012  1.00  0.00    -0.392 OA
ATOM     61  H   UNL     1      49.571 -36.715  -6.478  1.00  0.00     0.210 HD
ENDBRANCH  48  60
ENDBRANCH  26  27
ENDBRANCH   6  26
BRANCH   5  62
ATOM     62  O   UNL     1      47.646 -34.778   6.545  1.00  0.00    -0.385 OA
ATOM     63  H   UNL     1      48.241 -35.031   7.324  1.00  0.00     0.211 HD
ENDBRANCH   5  62
TORSDOF 14
ENDMDL
MODEL 8
REMARK VINA RESULT:    -5.073      1.992      3.270
REMARK INTER + INTRA:          -9.669
REMARK INTER:                  -8.996
REMARK INTRA:                  -0.673
REMARK UNBOUND:                -1.629
REMARK SMILES C[C@H]1O[C@@H](O[C@@H]2CC[C@]3(C)[C@H](CC[C@]4(C)[C@H]3C=C[C@@]35OC[C@]6(CCC(C)(C)C[C@@H]63)[C@@H](O)C[C@]45C)[C@]2(C)CO)[C@@H](O)[C@H](O[C@@H]2O[C@H](CO)[C@H](O)[C@H](O)[C@H]2O)[C@@H]1O
REMARK SMILES IDX 1 1 2 2 54 3 41 4 39 5 4 6 3 7 55 8 42 10 43 11 52 12 44 13
REMARK SMILES IDX 50 14 45 15 48 16 53 17 51 19 46 21 47 22 49 24 5 26 6 27
REMARK SMILES IDX 7 28 35 29 8 30 11 31 36 32 9 33 12 34 10 35 16 36 13 37
REMARK SMILES IDX 14 38 17 39 15 40 33 41 18 42 19 43 32 44 34 45 29 46 20 47
REMARK SMILES IDX 30 48 22 49 28 50 21 51 23 52 25 53 24 54 26 55 27 56 37 57
REMARK SMILES IDX 38 58 31 60 40 62
REMARK H PARENT 55 9 53 18 51 20 47 23 49 25 38 59 31 61 40 63
REMARK Flexibility Score: inf
ROOT
ATOM      1  C   UNL     1      45.777 -34.214  -5.047  1.00  0.00     0.041 C 
ATOM      2  C   UNL     1      46.358 -34.686  -3.669  1.00  0.00     0.150 C 
ATOM      3  C   UNL     1      47.523 -35.766  -3.839  1.00  0.00     0.175 C 
ATOM      4  C   UNL     1      46.818 -37.191  -4.008  1.00  0.00     0.186 C 
ATOM      5  C   UNL     1      46.113 -37.561  -2.769  1.00  0.00     0.202 C 
ATOM      6  C   UNL     1      45.613 -36.238  -1.985  1.00  0.00     0.282 C 
ATOM      7  O   UNL     1      45.279 -35.187  -2.831  1.00  0.00    -0.344 OA
ENDROOT
BRANCH   3   8
ATOM      8  O   UNL     1      48.380 -35.729  -2.755  1.00  0.00    -0.388 OA
ATOM      9  H   UNL     1      48.176 -36.529  -2.156  1.00  0.00     0.211 HD
ENDBRANCH   3   8
BRANCH   4  10
ATOM     10  O   UNL     1      47.578 -38.281  -4.652  1.00  0.00    -0.341 OA
BRANCH  10  11
ATOM     11  C   UNL     1      49.013 -38.115  -4.321  1.00  0.00     0.282 C 
ATOM     12  C   UNL     1      49.509 -38.388  -2.868  1.00  0.00     0.202 C 
ATOM     13  O   UNL     1      49.906 -38.661  -5.274  1.00  0.00    -0.341 OA
ATOM     14  C   UNL     1      50.083 -39.794  -2.581  1.00  0.00     0.179 C 
ATOM     15  C   UNL     1      50.222 -40.019  -5.155  1.00  0.00     0.178 C 
ATOM     16  C   UNL     1      50.833 -40.433  -3.808  1.00  0.00     0.177 C 
BRANCH  12  17
ATOM     17  O   UNL     1      50.588 -37.512  -2.646  1.00  0.00    -0.385 OA
ATOM     18  H   UNL     1      50.828 -37.506  -1.662  1.00  0.00     0.211 HD
ENDBRANCH  12  17
BRANCH  14  19
ATOM     19  O   UNL     1      49.179 -40.693  -1.920  1.00  0.00    -0.387 OA
ATOM     20  H   UNL     1      49.491 -40.773  -0.939  1.00  0.00     0.211 HD
ENDBRANCH  14  19
BRANCH  15  21
ATOM     21  C   UNL     1      49.189 -40.976  -5.758  1.00  0.00     0.191 C 
BRANCH  21  22
ATOM     22  O   UNL     1      48.220 -41.262  -4.733  1.00  0.00    -0.394 OA
ATOM     23  H   UNL     1      47.987 -42.272  -4.808  1.00  0.00     0.210 HD
ENDBRANCH  21  22
ENDBRANCH  15  21
BRANCH  16  24
ATOM     24  O   UNL     1      50.962 -41.871  -3.635  1.00  0.00    -0.387 OA
ATOM     25  H   UNL     1      51.644 -42.198  -4.306  1.00  0.00     0.211 HD
ENDBRANCH  16  24
ENDBRANCH  10  11
ENDBRANCH   4  10
BRANCH   6  26
ATOM     26  O   UNL     1      44.728 -36.492  -0.890  1.00  0.00    -0.346 OA
BRANCH  26  27
ATOM     27  C   UNL     1      44.887 -36.046   0.494  1.00  0.00     0.130 C 
ATOM     28  C   UNL     1      44.568 -34.592   1.045  1.00  0.00     0.033 C 
ATOM     29  C   UNL     1      46.297 -36.506   0.992  1.00  0.00     0.020 C 
ATOM     30  C   UNL     1      44.746 -34.418   2.632  1.00  0.00     0.010 C 
ATOM     31  C   UNL     1      46.335 -36.326   2.548  1.00  0.00     0.006 C 
ATOM     32  C   UNL     1      46.455 -38.047   0.663  1.00  0.00     0.017 C 
ATOM     33  C   UNL     1      46.160 -34.862   3.146  1.00  0.00    -0.022 C 
ATOM     34  C   UNL     1      47.119 -37.294   3.442  1.00  0.00     0.005 C 
ATOM     35  C   UNL     1      47.051 -33.664   2.633  1.00  0.00     0.012 C 
ATOM     36  C   UNL     1      46.383 -34.955   4.746  1.00  0.00     0.024 C 
ATOM     37  C   UNL     1      46.207 -37.588   4.668  1.00  0.00     0.008 C 
ATOM     38  C   UNL     1      45.814 -36.276   5.470  1.00  0.00    -0.017 C 
ATOM     39  C   UNL     1      47.869 -34.739   5.103  1.00  0.00    -0.024 C 
ATOM     40  C   UNL     1      44.262 -36.183   5.522  1.00  0.00     0.013 C 
ATOM     41  C   UNL     1      46.430 -36.402   6.952  1.00  0.00     0.009 C 
ATOM     42  C   UNL     1      48.571 -35.399   6.048  1.00  0.00     0.005 C 
ATOM     43  C   UNL     1      48.017 -36.542   6.835  1.00  0.00     0.096 C 
ATOM     44  C   UNL     1      45.847 -37.659   7.742  1.00  0.00     0.043 C 
ATOM     45  C   UNL     1      46.076 -35.126   7.774  1.00  0.00     0.015 C 
ATOM     46  C   UNL     1      48.744 -36.703   8.146  1.00  0.00     0.037 C 
ATOM     47  O   UNL     1      48.424 -37.707   6.155  1.00  0.00    -0.369 OA
ATOM     48  C   UNL     1      46.825 -38.391   8.698  1.00  0.00     0.124 C 
ATOM     49  C   UNL     1      48.363 -38.140   8.492  1.00  0.00     0.026 C 
ATOM     50  C   UNL     1      48.834 -35.788   9.334  1.00  0.00     0.014 C 
ATOM     51  C   UNL     1      48.743 -38.724   7.114  1.00  0.00     0.171 C 
ATOM     52  C   UNL     1      49.233 -38.618   9.711  1.00  0.00     0.013 C 
ATOM     53  C   UNL     1      50.138 -36.218  10.157  1.00  0.00    -0.035 C 
ATOM     54  C   UNL     1      50.486 -37.755   9.981  1.00  0.00     0.007 C 
ATOM     55  C   UNL     1      49.951 -35.844  11.644  1.00  0.00     0.011 C 
ATOM     56  C   UNL     1      51.351 -35.392   9.610  1.00  0.00     0.011 C 
BRANCH  29  57
ATOM     57  C   UNL     1      47.500 -35.770   0.310  1.00  0.00     0.165 C 
BRANCH  57  58
ATOM     58  O   UNL     1      48.539 -36.670   0.013  1.00  0.00    -0.396 OA
ATOM     59  H   UNL     1      48.345 -37.039  -0.902  1.00  0.00     0.210 HD
ENDBRANCH  57  58
ENDBRANCH  29  57
BRANCH  48  60
ATOM     60  O   UNL     1      46.432 -38.252  10.043  1.00  0.00    -0.392 OA
ATOM     61  H   UNL     1      45.740 -38.929  10.253  1.00  0.00     0.210 HD
ENDBRANCH  48  60
ENDBRANCH  26  27
ENDBRANCH   6  26
BRANCH   5  62
ATOM     62  O   UNL     1      45.111 -38.423  -3.091  1.00  0.00    -0.385 OA
ATOM     63  H   UNL     1      44.999 -38.540  -4.090  1.00  0.00     0.211 HD
ENDBRANCH   5  62
TORSDOF 14
ENDMDL
