MODEL 1
REMARK VINA RESULT:    -5.723      0.000      0.000
REMARK INTER + INTRA:         -11.975
REMARK INTER:                 -11.076
REMARK INTRA:                  -0.899
REMARK UNBOUND:                -0.899
REMARK SMILES CCCCCCCCCCCCCCCCCC(=O)[O-]
REMARK SMILES IDX 10 1 11 2 12 3 13 4 14 5 15 6 16 7 17 8 18 9 19 10 20 11
REMARK SMILES IDX 9 12 8 13 7 14 6 15 5 16 4 17 3 18 2 19 1 20
REMARK H PARENT
REMARK Flexibility Score: inf
ROOT
ATOM      1  C   UNL     1      23.776  13.872   8.547  1.00  0.00     0.000 C 
ENDROOT
BRANCH   1   2
ATOM      2  C   UNL     1      25.280  13.552   8.684  1.00  0.00     0.000 C 
BRANCH   2   3
ATOM      3  C   UNL     1      26.193  14.528   7.916  1.00  0.00     0.000 C 
BRANCH   3   4
ATOM      4  C   UNL     1      26.939  15.545   8.797  1.00  0.00     0.000 C 
BRANCH   4   5
ATOM      5  C   UNL     1      27.419  16.811   8.061  1.00  0.00     0.000 C 
BRANCH   5   6
ATOM      6  C   UNL     1      26.666  18.093   8.477  1.00  0.00     0.000 C 
BRANCH   6   7
ATOM      7  C   UNL     1      26.047  18.824   7.276  1.00  0.00     0.006 C 
BRANCH   7   8
ATOM      8  C   UNL     1      24.613  18.350   7.024  1.00  0.00     0.053 C 
BRANCH   8   9
ATOM      9  C   UNL     1      23.948  19.214   5.999  1.00  0.00     0.041 C 
ATOM     10  O   UNL     1      22.714  19.102   5.781  1.00  0.00    -0.550 OA
ATOM     11  O   UNL     1      24.683  20.177   5.318  1.00  0.00    -0.550 OA
ENDBRANCH   8   9
ENDBRANCH   7   8
ENDBRANCH   6   7
ENDBRANCH   5   6
ENDBRANCH   4   5
ENDBRANCH   3   4
ENDBRANCH   2   3
ENDBRANCH   1   2
BRANCH   1  12
ATOM     12  C   UNL     1      22.964  13.382   9.759  1.00  0.00     0.000 C 
BRANCH  12  13
ATOM     13  C   UNL     1      22.277  12.031   9.505  1.00  0.00    -0.000 C 
BRANCH  13  14
ATOM     14  C   UNL     1      21.575  11.487  10.761  1.00  0.00    -0.000 C 
BRANCH  14  15
ATOM     15  C   UNL     1      21.709   9.961  10.898  1.00  0.00    -0.000 C 
BRANCH  15  16
ATOM     16  C   UNL     1      22.609   9.549  12.073  1.00  0.00    -0.000 C 
BRANCH  16  17
ATOM     17  C   UNL     1      21.778   9.292  13.337  1.00  0.00    -0.000 C 
BRANCH  17  18
ATOM     18  C   UNL     1      20.813   8.114  13.129  1.00  0.00    -0.000 C 
BRANCH  18  19
ATOM     19  C   UNL     1      19.473   8.314  13.852  1.00  0.00    -0.003 C 
ATOM     20  C   UNL     1      19.047   9.781  13.914  1.00  0.00     0.004 C 
ENDBRANCH  18  19
ENDBRANCH  17  18
ENDBRANCH  16  17
ENDBRANCH  15  16
ENDBRANCH  14  15
ENDBRANCH  13  14
ENDBRANCH  12  13
ENDBRANCH   1  12
TORSDOF 16
ENDMDL
MODEL 2
REMARK VINA RESULT:    -5.479      4.340     10.049
REMARK INTER + INTRA:         -11.503
REMARK INTER:                 -10.455
REMARK INTRA:                  -1.048
REMARK UNBOUND:                -0.899
REMARK SMILES CCCCCCCCCCCCCCCCCC(=O)[O-]
REMARK SMILES IDX 10 1 11 2 12 3 13 4 14 5 15 6 16 7 17 8 18 9 19 10 20 11
REMARK SMILES IDX 9 12 8 13 7 14 6 15 5 16 4 17 3 18 2 19 1 20
REMARK H PARENT
REMARK Flexibility Score: inf
ROOT
ATOM      1  C   UNL     1      23.315  14.103   8.872  1.00  0.00     0.000 C 
ENDROOT
BRANCH   1   2
ATOM      2  C   UNL     1      22.324  13.494   9.886  1.00  0.00     0.000 C 
BRANCH   2   3
ATOM      3  C   UNL     1      22.134  11.974   9.729  1.00  0.00     0.000 C 
BRANCH   3   4
ATOM      4  C   UNL     1      21.379  11.293  10.884  1.00  0.00     0.000 C 
BRANCH   4   5
ATOM      5  C   UNL     1      21.694   9.796  11.073  1.00  0.00     0.000 C 
BRANCH   5   6
ATOM      6  C   UNL     1      22.682   9.511  12.224  1.00  0.00     0.000 C 
BRANCH   6   7
ATOM      7  C   UNL     1      21.986   8.912  13.456  1.00  0.00     0.006 C 
BRANCH   7   8
ATOM      8  C   UNL     1      20.619   8.331  13.086  1.00  0.00     0.053 C 
BRANCH   8   9
ATOM      9  C   UNL     1      19.540   8.967  13.906  1.00  0.00     0.041 C 
ATOM     10  O   UNL     1      19.018  10.050  13.536  1.00  0.00    -0.550 OA
ATOM     11  O   UNL     1      19.078   8.336  15.055  1.00  0.00    -0.550 OA
ENDBRANCH   8   9
ENDBRANCH   7   8
ENDBRANCH   6   7
ENDBRANCH   5   6
ENDBRANCH   4   5
ENDBRANCH   3   4
ENDBRANCH   2   3
ENDBRANCH   1   2
BRANCH   1  12
ATOM     12  C   UNL     1      24.628  13.303   8.789  1.00  0.00     0.000 C 
BRANCH  12  13
ATOM     13  C   UNL     1      25.554  13.801   7.668  1.00  0.00    -0.000 C 
BRANCH  13  14
ATOM     14  C   UNL     1      26.984  14.070   8.167  1.00  0.00    -0.000 C 
BRANCH  14  15
ATOM     15  C   UNL     1      27.105  15.402   8.925  1.00  0.00    -0.000 C 
BRANCH  15  16
ATOM     16  C   UNL     1      27.309  16.601   7.987  1.00  0.00    -0.000 C 
BRANCH  16  17
ATOM     17  C   UNL     1      26.811  17.898   8.638  1.00  0.00    -0.000 C 
BRANCH  17  18
ATOM     18  C   UNL     1      25.922  18.693   7.669  1.00  0.00    -0.000 C 
BRANCH  18  19
ATOM     19  C   UNL     1      24.738  17.869   7.141  1.00  0.00    -0.003 C 
ATOM     20  C   UNL     1      23.537  18.735   6.762  1.00  0.00     0.004 C 
ENDBRANCH  18  19
ENDBRANCH  17  18
ENDBRANCH  16  17
ENDBRANCH  15  16
ENDBRANCH  14  15
ENDBRANCH  13  14
ENDBRANCH  12  13
ENDBRANCH   1  12
TORSDOF 16
ENDMDL
MODEL 3
REMARK VINA RESULT:    -5.475      3.977      8.869
REMARK INTER + INTRA:         -11.495
REMARK INTER:                  -9.865
REMARK INTRA:                  -1.630
REMARK UNBOUND:                -0.899
REMARK SMILES CCCCCCCCCCCCCCCCCC(=O)[O-]
REMARK SMILES IDX 10 1 11 2 12 3 13 4 14 5 15 6 16 7 17 8 18 9 19 10 20 11
REMARK SMILES IDX 9 12 8 13 7 14 6 15 5 16 4 17 3 18 2 19 1 20
REMARK H PARENT
REMARK Flexibility Score: inf
ROOT
ATOM      1  C   UNL     1      21.615  11.851  10.723  1.00  0.00     0.000 C 
ENDROOT
BRANCH   1   2
ATOM      2  C   UNL     1      21.202  10.384  10.970  1.00  0.00     0.000 C 
BRANCH   2   3
ATOM      3  C   UNL     1      20.577  10.143  12.358  1.00  0.00     0.000 C 
BRANCH   3   4
ATOM      4  C   UNL     1      21.441   9.310  13.320  1.00  0.00     0.000 C 
BRANCH   4   5
ATOM      5  C   UNL     1      22.853   8.974  12.800  1.00  0.00     0.000 C 
BRANCH   5   6
ATOM      6  C   UNL     1      23.969   9.825  13.442  1.00  0.00     0.000 C 
BRANCH   6   7
ATOM      7  C   UNL     1      24.410  10.988  12.541  1.00  0.00     0.006 C 
BRANCH   7   8
ATOM      8  C   UNL     1      25.021  12.122  13.367  1.00  0.00     0.053 C 
BRANCH   8   9
ATOM      9  C   UNL     1      26.516  12.045  13.340  1.00  0.00     0.041 C 
ATOM     10  O   UNL     1      27.147  12.342  12.294  1.00  0.00    -0.550 OA
ATOM     11  O   UNL     1      27.214  11.689  14.488  1.00  0.00    -0.550 OA
ENDBRANCH   8   9
ENDBRANCH   7   8
ENDBRANCH   6   7
ENDBRANCH   5   6
ENDBRANCH   4   5
ENDBRANCH   3   4
ENDBRANCH   2   3
ENDBRANCH   1   2
BRANCH   1  12
ATOM     12  C   UNL     1      22.526  12.000   9.491  1.00  0.00     0.000 C 
BRANCH  12  13
ATOM     13  C   UNL     1      22.541  13.433   8.936  1.00  0.00    -0.000 C 
BRANCH  13  14
ATOM     14  C   UNL     1      23.960  13.905   8.574  1.00  0.00    -0.000 C 
BRANCH  14  15
ATOM     15  C   UNL     1      25.038  13.277   9.472  1.00  0.00    -0.000 C 
BRANCH  15  16
ATOM     16  C   UNL     1      26.447  13.809   9.166  1.00  0.00    -0.000 C 
BRANCH  16  17
ATOM     17  C   UNL     1      26.467  14.579   7.840  1.00  0.00    -0.000 C 
BRANCH  17  18
ATOM     18  C   UNL     1      27.082  15.974   8.024  1.00  0.00    -0.000 C 
BRANCH  18  19
ATOM     19  C   UNL     1      26.073  17.104   7.767  1.00  0.00    -0.003 C 
ATOM     20  C   UNL     1      26.432  18.395   8.503  1.00  0.00     0.004 C 
ENDBRANCH  18  19
ENDBRANCH  17  18
ENDBRANCH  16  17
ENDBRANCH  15  16
ENDBRANCH  14  15
ENDBRANCH  13  14
ENDBRANCH  12  13
ENDBRANCH   1  12
TORSDOF 16
ENDMDL
MODEL 4
REMARK VINA RESULT:    -5.441      4.004      9.465
REMARK INTER + INTRA:         -11.429
REMARK INTER:                 -10.157
REMARK INTRA:                  -1.272
REMARK UNBOUND:                -0.899
REMARK SMILES CCCCCCCCCCCCCCCCCC(=O)[O-]
REMARK SMILES IDX 10 1 11 2 12 3 13 4 14 5 15 6 16 7 17 8 18 9 19 10 20 11
REMARK SMILES IDX 9 12 8 13 7 14 6 15 5 16 4 17 3 18 2 19 1 20
REMARK H PARENT
REMARK Flexibility Score: inf
ROOT
ATOM      1  C   UNL     1      22.613  12.405   9.441  1.00  0.00     0.000 C 
ENDROOT
BRANCH   1   2
ATOM      2  C   UNL     1      21.692  12.093  10.639  1.00  0.00     0.000 C 
BRANCH   2   3
ATOM      3  C   UNL     1      21.298  10.608  10.747  1.00  0.00     0.000 C 
BRANCH   3   4
ATOM      4  C   UNL     1      20.699  10.193  12.102  1.00  0.00     0.000 C 
BRANCH   4   5
ATOM      5  C   UNL     1      21.318   8.927  12.725  1.00  0.00     0.000 C 
BRANCH   5   6
ATOM      6  C   UNL     1      22.851   8.841  12.561  1.00  0.00     0.000 C 
BRANCH   6   7
ATOM      7  C   UNL     1      23.597   9.732  13.565  1.00  0.00     0.006 C 
BRANCH   7   8
ATOM      8  C   UNL     1      24.390  10.826  12.845  1.00  0.00     0.053 C 
BRANCH   8   9
ATOM      9  C   UNL     1      25.692  11.073  13.540  1.00  0.00     0.041 C 
ATOM     10  O   UNL     1      26.079  12.249  13.763  1.00  0.00    -0.550 OA
ATOM     11  O   UNL     1      26.457  10.001  13.985  1.00  0.00    -0.550 OA
ENDBRANCH   8   9
ENDBRANCH   7   8
ENDBRANCH   6   7
ENDBRANCH   5   6
ENDBRANCH   4   5
ENDBRANCH   3   4
ENDBRANCH   2   3
ENDBRANCH   1   2
BRANCH   1  12
ATOM     12  C   UNL     1      23.899  13.136   9.871  1.00  0.00     0.000 C 
BRANCH  12  13
ATOM     13  C   UNL     1      24.782  13.531   8.676  1.00  0.00    -0.000 C 
BRANCH  13  14
ATOM     14  C   UNL     1      26.279  13.532   9.031  1.00  0.00    -0.000 C 
BRANCH  14  15
ATOM     15  C   UNL     1      27.069  14.599   8.256  1.00  0.00    -0.000 C 
BRANCH  15  16
ATOM     16  C   UNL     1      26.190  15.775   7.804  1.00  0.00    -0.000 C 
BRANCH  16  17
ATOM     17  C   UNL     1      26.802  17.114   8.234  1.00  0.00    -0.000 C 
BRANCH  17  18
ATOM     18  C   UNL     1      25.883  18.285   7.853  1.00  0.00    -0.000 C 
BRANCH  18  19
ATOM     19  C   UNL     1      24.516  17.819   7.332  1.00  0.00    -0.003 C 
ATOM     20  C   UNL     1      23.868  18.829   6.385  1.00  0.00     0.004 C 
ENDBRANCH  18  19
ENDBRANCH  17  18
ENDBRANCH  16  17
ENDBRANCH  15  16
ENDBRANCH  14  15
ENDBRANCH  13  14
ENDBRANCH  12  13
ENDBRANCH   1  12
TORSDOF 16
ENDMDL
MODEL 5
REMARK VINA RESULT:    -5.436      0.875      1.406
REMARK INTER + INTRA:         -11.420
REMARK INTER:                 -10.708
REMARK INTRA:                  -0.712
REMARK UNBOUND:                -0.899
REMARK SMILES CCCCCCCCCCCCCCCCCC(=O)[O-]
REMARK SMILES IDX 10 1 11 2 12 3 13 4 14 5 15 6 16 7 17 8 18 9 19 10 20 11
REMARK SMILES IDX 9 12 8 13 7 14 6 15 5 16 4 17 3 18 2 19 1 20
REMARK H PARENT
REMARK Flexibility Score: inf
ROOT
ATOM      1  C   UNL     1      25.407  13.912   7.893  1.00  0.00     0.000 C 
ENDROOT
BRANCH   1   2
ATOM      2  C   UNL     1      26.936  13.856   8.096  1.00  0.00     0.000 C 
BRANCH   2   3
ATOM      3  C   UNL     1      27.577  15.234   8.349  1.00  0.00     0.000 C 
BRANCH   3   4
ATOM      4  C   UNL     1      26.599  16.420   8.304  1.00  0.00     0.000 C 
BRANCH   4   5
ATOM      5  C   UNL     1      27.259  17.797   8.088  1.00  0.00     0.000 C 
BRANCH   5   6
ATOM      6  C   UNL     1      26.246  18.948   7.909  1.00  0.00     0.000 C 
BRANCH   6   7
ATOM      7  C   UNL     1      25.448  18.826   6.602  1.00  0.00     0.006 C 
BRANCH   7   8
ATOM      8  C   UNL     1      23.981  18.491   6.883  1.00  0.00     0.053 C 
BRANCH   8   9
ATOM      9  C   UNL     1      23.079  19.450   6.173  1.00  0.00     0.041 C 
ATOM     10  O   UNL     1      21.964  19.758   6.670  1.00  0.00    -0.550 OA
ATOM     11  O   UNL     1      23.490  20.043   4.985  1.00  0.00    -0.550 OA
ENDBRANCH   8   9
ENDBRANCH   7   8
ENDBRANCH   6   7
ENDBRANCH   5   6
ENDBRANCH   4   5
ENDBRANCH   3   4
ENDBRANCH   2   3
ENDBRANCH   1   2
BRANCH   1  12
ATOM     12  C   UNL     1      24.637  13.378   9.114  1.00  0.00     0.000 C 
BRANCH  12  13
ATOM     13  C   UNL     1      23.113  13.432   8.923  1.00  0.00    -0.000 C 
BRANCH  13  14
ATOM     14  C   UNL     1      22.349  13.129  10.224  1.00  0.00    -0.000 C 
BRANCH  14  15
ATOM     15  C   UNL     1      21.830  11.683  10.281  1.00  0.00    -0.000 C 
BRANCH  15  16
ATOM     16  C   UNL     1      22.330  10.921  11.517  1.00  0.00    -0.000 C 
BRANCH  16  17
ATOM     17  C   UNL     1      21.558   9.609  11.703  1.00  0.00    -0.000 C 
BRANCH  17  18
ATOM     18  C   UNL     1      21.533   9.191  13.181  1.00  0.00    -0.000 C 
BRANCH  18  19
ATOM     19  C   UNL     1      20.417   8.182  13.491  1.00  0.00    -0.003 C 
ATOM     20  C   UNL     1      19.155   8.846  14.041  1.00  0.00     0.004 C 
ENDBRANCH  18  19
ENDBRANCH  17  18
ENDBRANCH  16  17
ENDBRANCH  15  16
ENDBRANCH  14  15
ENDBRANCH  13  14
ENDBRANCH  12  13
ENDBRANCH   1  12
TORSDOF 16
ENDMDL
MODEL 6
REMARK VINA RESULT:    -5.411      3.911      9.909
REMARK INTER + INTRA:         -11.371
REMARK INTER:                  -9.791
REMARK INTRA:                  -1.580
REMARK UNBOUND:                -0.899
REMARK SMILES CCCCCCCCCCCCCCCCCC(=O)[O-]
REMARK SMILES IDX 10 1 11 2 12 3 13 4 14 5 15 6 16 7 17 8 18 9 19 10 20 11
REMARK SMILES IDX 9 12 8 13 7 14 6 15 5 16 4 17 3 18 2 19 1 20
REMARK H PARENT
REMARK Flexibility Score: inf
ROOT
ATOM      1  C   UNL     1      25.938  18.462   7.627  1.00  0.00     0.000 C 
ENDROOT
BRANCH   1   2
ATOM      2  C   UNL     1      26.598  17.293   8.390  1.00  0.00     0.000 C 
BRANCH   2   3
ATOM      3  C   UNL     1      27.394  16.335   7.484  1.00  0.00     0.000 C 
BRANCH   3   4
ATOM      4  C   UNL     1      27.001  14.852   7.607  1.00  0.00     0.000 C 
BRANCH   4   5
ATOM      5  C   UNL     1      26.806  14.351   9.052  1.00  0.00     0.000 C 
BRANCH   5   6
ATOM      6  C   UNL     1      25.539  13.490   9.243  1.00  0.00     0.000 C 
BRANCH   6   7
ATOM      7  C   UNL     1      24.346  14.018   8.433  1.00  0.00     0.006 C 
BRANCH   7   8
ATOM      8  C   UNL     1      23.212  12.991   8.392  1.00  0.00     0.053 C 
BRANCH   8   9
ATOM      9  C   UNL     1      22.418  13.034   9.660  1.00  0.00     0.041 C 
ATOM     10  O   UNL     1      22.022  14.134  10.122  1.00  0.00    -0.550 OA
ATOM     11  O   UNL     1      22.075  11.852  10.306  1.00  0.00    -0.550 OA
ENDBRANCH   8   9
ENDBRANCH   7   8
ENDBRANCH   6   7
ENDBRANCH   5   6
ENDBRANCH   4   5
ENDBRANCH   3   4
ENDBRANCH   2   3
ENDBRANCH   1   2
BRANCH   1  12
ATOM     12  C   UNL     1      24.516  18.115   7.149  1.00  0.00     0.000 C 
BRANCH  12  13
ATOM     13  C   UNL     1      24.019  19.057   6.040  1.00  0.00    -0.000 C 
BRANCH  13  14
ATOM     14  C   UNL     1      22.584  19.551   6.292  1.00  0.00    -0.000 C 
BRANCH  14  15
ATOM     15  C   UNL     1      22.287  20.886   5.591  1.00  0.00    -0.000 C 
BRANCH  15  16
ATOM     16  C   UNL     1      23.237  21.162   4.416  1.00  0.00    -0.000 C 
BRANCH  16  17
ATOM     17  C   UNL     1      23.928  22.522   4.577  1.00  0.00    -0.000 C 
BRANCH  17  18
ATOM     18  C   UNL     1      23.786  23.043   6.016  1.00  0.00    -0.000 C 
BRANCH  18  19
ATOM     19  C   UNL     1      25.142  23.221   6.717  1.00  0.00    -0.003 C 
ATOM     20  C   UNL     1      26.115  22.080   6.420  1.00  0.00     0.004 C 
ENDBRANCH  18  19
ENDBRANCH  17  18
ENDBRANCH  16  17
ENDBRANCH  15  16
ENDBRANCH  14  15
ENDBRANCH  13  14
ENDBRANCH  12  13
ENDBRANCH   1  12
TORSDOF 16
ENDMDL
MODEL 7
REMARK VINA RESULT:    -5.396      1.457      2.148
REMARK INTER + INTRA:         -11.342
REMARK INTER:                 -10.054
REMARK INTRA:                  -1.288
REMARK UNBOUND:                -0.899
REMARK SMILES CCCCCCCCCCCCCCCCCC(=O)[O-]
REMARK SMILES IDX 10 1 11 2 12 3 13 4 14 5 15 6 16 7 17 8 18 9 19 10 20 11
REMARK SMILES IDX 9 12 8 13 7 14 6 15 5 16 4 17 3 18 2 19 1 20
REMARK H PARENT
REMARK Flexibility Score: inf
ROOT
ATOM      1  C   UNL     1      23.917  13.257   9.233  1.00  0.00     0.000 C 
ENDROOT
BRANCH   1   2
ATOM      2  C   UNL     1      25.266  13.453   8.509  1.00  0.00     0.000 C 
BRANCH   2   3
ATOM      3  C   UNL     1      25.499  14.893   8.013  1.00  0.00     0.000 C 
BRANCH   3   4
ATOM      4  C   UNL     1      26.793  15.551   8.520  1.00  0.00     0.000 C 
BRANCH   4   5
ATOM      5  C   UNL     1      27.182  16.858   7.801  1.00  0.00     0.000 C 
BRANCH   5   6
ATOM      6  C   UNL     1      26.300  18.064   8.187  1.00  0.00     0.000 C 
BRANCH   6   7
ATOM      7  C   UNL     1      25.614  18.700   6.969  1.00  0.00     0.006 C 
BRANCH   7   8
ATOM      8  C   UNL     1      24.124  18.351   6.933  1.00  0.00     0.053 C 
BRANCH   8   9
ATOM      9  C   UNL     1      23.365  19.370   6.142  1.00  0.00     0.041 C 
ATOM     10  O   UNL     1      23.896  19.922   5.144  1.00  0.00    -0.550 OA
ATOM     11  O   UNL     1      22.052  19.676   6.480  1.00  0.00    -0.550 OA
ENDBRANCH   8   9
ENDBRANCH   7   8
ENDBRANCH   6   7
ENDBRANCH   5   6
ENDBRANCH   4   5
ENDBRANCH   3   4
ENDBRANCH   2   3
ENDBRANCH   1   2
BRANCH   1  12
ATOM     12  C   UNL     1      24.098  12.988  10.738  1.00  0.00     0.000 C 
BRANCH  12  13
ATOM     13  C   UNL     1      25.560  12.703  11.116  1.00  0.00    -0.000 C 
BRANCH  13  14
ATOM     14  C   UNL     1      25.683  11.601  12.183  1.00  0.00    -0.000 C 
BRANCH  14  15
ATOM     15  C   UNL     1      24.379  11.392  12.970  1.00  0.00    -0.000 C 
BRANCH  15  16
ATOM     16  C   UNL     1      23.939   9.920  13.008  1.00  0.00    -0.000 C 
BRANCH  16  17
ATOM     17  C   UNL     1      22.589   9.769  13.720  1.00  0.00    -0.000 C 
BRANCH  17  18
ATOM     18  C   UNL     1      21.531   9.180  12.774  1.00  0.00    -0.000 C 
BRANCH  18  19
ATOM     19  C   UNL     1      20.687  10.261  12.084  1.00  0.00    -0.003 C 
ATOM     20  C   UNL     1      21.249  10.671  10.722  1.00  0.00     0.004 C 
ENDBRANCH  18  19
ENDBRANCH  17  18
ENDBRANCH  16  17
ENDBRANCH  15  16
ENDBRANCH  14  15
ENDBRANCH  13  14
ENDBRANCH  12  13
ENDBRANCH   1  12
TORSDOF 16
ENDMDL
MODEL 8
REMARK VINA RESULT:    -5.245      7.701     11.070
REMARK INTER + INTRA:         -11.050
REMARK INTER:                  -8.854
REMARK INTRA:                  -2.196
REMARK UNBOUND:                -0.899
REMARK SMILES CCCCCCCCCCCCCCCCCC(=O)[O-]
REMARK SMILES IDX 10 1 11 2 12 3 13 4 14 5 15 6 16 7 17 8 18 9 19 10 20 11
REMARK SMILES IDX 9 12 8 13 7 14 6 15 5 16 4 17 3 18 2 19 1 20
REMARK H PARENT
REMARK Flexibility Score: inf
ROOT
ATOM      1  C   UNL     1      22.738  19.509   6.384  1.00  0.00     0.000 C 
ENDROOT
BRANCH   1   2
ATOM      2  C   UNL     1      22.187  20.604   5.447  1.00  0.00     0.000 C 
BRANCH   2   3
ATOM      3  C   UNL     1      23.136  20.960   4.286  1.00  0.00     0.000 C 
BRANCH   3   4
ATOM      4  C   UNL     1      23.709  22.386   4.332  1.00  0.00     0.000 C 
BRANCH   4   5
ATOM      5  C   UNL     1      24.453  22.744   5.634  1.00  0.00     0.000 C 
BRANCH   5   6
ATOM      6  C   UNL     1      24.016  24.092   6.247  1.00  0.00     0.000 C 
BRANCH   6   7
ATOM      7  C   UNL     1      24.800  25.279   5.668  1.00  0.00     0.006 C 
BRANCH   7   8
ATOM      8  C   UNL     1      25.833  25.798   6.671  1.00  0.00     0.053 C 
BRANCH   8   9
ATOM      9  C   UNL     1      25.195  26.746   7.638  1.00  0.00     0.041 C 
ATOM     10  O   UNL     1      24.126  27.336   7.335  1.00  0.00    -0.550 OA
ATOM     11  O   UNL     1      25.757  26.942   8.894  1.00  0.00    -0.550 OA
ENDBRANCH   8   9
ENDBRANCH   7   8
ENDBRANCH   6   7
ENDBRANCH   5   6
ENDBRANCH   4   5
ENDBRANCH   3   4
ENDBRANCH   2   3
ENDBRANCH   1   2
BRANCH   1  12
ATOM     12  C   UNL     1      24.171  19.090   6.011  1.00  0.00     0.000 C 
BRANCH  12  13
ATOM     13  C   UNL     1      24.881  18.334   7.145  1.00  0.00    -0.000 C 
BRANCH  13  14
ATOM     14  C   UNL     1      26.384  18.655   7.210  1.00  0.00    -0.000 C 
BRANCH  14  15
ATOM     15  C   UNL     1      26.662  20.162   7.327  1.00  0.00    -0.000 C 
BRANCH  15  16
ATOM     16  C   UNL     1      27.998  20.570   6.688  1.00  0.00    -0.000 C 
BRANCH  16  17
ATOM     17  C   UNL     1      27.823  21.796   5.784  1.00  0.00    -0.000 C 
BRANCH  17  18
ATOM     18  C   UNL     1      27.690  21.378   4.311  1.00  0.00    -0.000 C 
BRANCH  18  19
ATOM     19  C   UNL     1      27.352  22.559   3.389  1.00  0.00    -0.003 C 
ATOM     20  C   UNL     1      27.812  23.902   3.956  1.00  0.00     0.004 C 
ENDBRANCH  18  19
ENDBRANCH  17  18
ENDBRANCH  16  17
ENDBRANCH  15  16
ENDBRANCH  14  15
ENDBRANCH  13  14
ENDBRANCH  12  13
ENDBRANCH   1  12
TORSDOF 16
ENDMDL
MODEL 9
REMARK VINA RESULT:    -5.206      5.738      8.924
REMARK INTER + INTRA:         -10.974
REMARK INTER:                  -9.161
REMARK INTRA:                  -1.812
REMARK UNBOUND:                -0.899
REMARK SMILES CCCCCCCCCCCCCCCCCC(=O)[O-]
REMARK SMILES IDX 10 1 11 2 12 3 13 4 14 5 15 6 16 7 17 8 18 9 19 10 20 11
REMARK SMILES IDX 9 12 8 13 7 14 6 15 5 16 4 17 3 18 2 19 1 20
REMARK H PARENT
REMARK Flexibility Score: inf
ROOT
ATOM      1  C   UNL     1      22.211  20.468   6.223  1.00  0.00     0.000 C 
ENDROOT
BRANCH   1   2
ATOM      2  C   UNL     1      22.912  21.825   5.998  1.00  0.00     0.000 C 
BRANCH   2   3
ATOM      3  C   UNL     1      23.420  22.027   4.557  1.00  0.00     0.000 C 
BRANCH   3   4
ATOM      4  C   UNL     1      24.897  22.444   4.445  1.00  0.00     0.000 C 
BRANCH   4   5
ATOM      5  C   UNL     1      25.485  23.096   5.712  1.00  0.00     0.000 C 
BRANCH   5   6
ATOM      6  C   UNL     1      26.377  24.321   5.422  1.00  0.00     0.000 C 
BRANCH   6   7
ATOM      7  C   UNL     1      25.999  25.537   6.282  1.00  0.00     0.006 C 
BRANCH   7   8
ATOM      8  C   UNL     1      24.780  25.233   7.157  1.00  0.00     0.053 C 
BRANCH   8   9
ATOM      9  C   UNL     1      24.930  25.866   8.504  1.00  0.00     0.041 C 
ATOM     10  O   UNL     1      25.563  26.946   8.630  1.00  0.00    -0.550 OA
ATOM     11  O   UNL     1      24.328  25.287   9.616  1.00  0.00    -0.550 OA
ENDBRANCH   8   9
ENDBRANCH   7   8
ENDBRANCH   6   7
ENDBRANCH   5   6
ENDBRANCH   4   5
ENDBRANCH   3   4
ENDBRANCH   2   3
ENDBRANCH   1   2
BRANCH   1  12
ATOM     12  C   UNL     1      23.005  19.295   5.619  1.00  0.00     0.000 C 
BRANCH  12  13
ATOM     13  C   UNL     1      24.093  18.768   6.567  1.00  0.00    -0.000 C 
BRANCH  13  14
ATOM     14  C   UNL     1      25.508  19.174   6.118  1.00  0.00    -0.000 C 
BRANCH  14  15
ATOM     15  C   UNL     1      26.349  19.752   7.267  1.00  0.00    -0.000 C 
BRANCH  15  16
ATOM     16  C   UNL     1      27.479  18.809   7.707  1.00  0.00    -0.000 C 
BRANCH  16  17
ATOM     17  C   UNL     1      26.929  17.642   8.536  1.00  0.00    -0.000 C 
BRANCH  17  18
ATOM     18  C   UNL     1      27.075  16.313   7.779  1.00  0.00    -0.000 C 
BRANCH  18  19
ATOM     19  C   UNL     1      25.848  15.403   7.940  1.00  0.00    -0.003 C 
ATOM     20  C   UNL     1      26.199  13.917   7.860  1.00  0.00     0.004 C 
ENDBRANCH  18  19
ENDBRANCH  17  18
ENDBRANCH  16  17
ENDBRANCH  15  16
ENDBRANCH  14  15
ENDBRANCH  13  14
ENDBRANCH  12  13
ENDBRANCH   1  12
TORSDOF 16
ENDMDL
