MODEL 1
REMARK VINA RESULT:    -5.859      0.000      0.000
REMARK INTER + INTRA:          -7.067
REMARK INTER:                  -6.887
REMARK INTRA:                  -0.180
REMARK UNBOUND:                -0.180
REMARK SMILES O=c1c(O)c(-c2ccc(O)cc2)oc2cc(O)cc(O)c12
REMARK SMILES IDX 5 1 3 2 2 3 1 4 21 5 19 6 18 7 16 8 15 9 14 10 13 11 6 12
REMARK SMILES IDX 7 13 8 14 9 15 12 16 11 17 10 18 4 20 20 22 17 24
REMARK H PARENT 10 19 4 21 20 23 17 25
REMARK Flexibility Score: inf
ROOT
ATOM      1  C   UNL     1      30.188   8.592  26.030  1.00  0.00     0.180 A 
ATOM      2  C   UNL     1      29.693   7.871  24.926  1.00  0.00     0.208 A 
ATOM      3  C   UNL     1      29.419   8.560  23.734  1.00  0.00     0.238 A 
ATOM      4  O   UNL     1      28.986   7.923  22.735  1.00  0.00    -0.285 OA
ATOM      5  C   UNL     1      29.625   9.953  23.671  1.00  0.00     0.111 A 
ATOM      6  C   UNL     1      29.372  10.721  22.509  1.00  0.00     0.134 A 
ATOM      7  C   UNL     1      29.594  12.106  22.528  1.00  0.00     0.093 A 
ATOM      8  C   UNL     1      30.064  12.736  23.687  1.00  0.00     0.123 A 
ATOM      9  C   UNL     1      30.316  11.983  24.834  1.00  0.00     0.094 A 
ATOM     10  C   UNL     1      30.103  10.601  24.834  1.00  0.00     0.146 A 
ATOM     11  O   UNL     1      30.356   9.908  25.938  1.00  0.00    -0.452 OA
ENDROOT
BRANCH   1  12
ATOM     12  C   UNL     1      30.518   7.934  27.315  1.00  0.00     0.021 A 
ATOM     13  C   UNL     1      31.580   7.018  27.418  1.00  0.00     0.016 A 
ATOM     14  C   UNL     1      31.888   6.429  28.648  1.00  0.00     0.047 A 
ATOM     15  C   UNL     1      31.147   6.757  29.792  1.00  0.00     0.115 A 
ATOM     16  C   UNL     1      29.795   8.274  28.471  1.00  0.00     0.016 A 
ATOM     17  C   UNL     1      30.104   7.682  29.700  1.00  0.00     0.047 A 
BRANCH  15  18
ATOM     18  O   UNL     1      31.444   6.174  31.021  1.00  0.00    -0.508 OA
ATOM     19  H   UNL     1      30.714   5.844  31.642  1.00  0.00     0.293 HD
ENDBRANCH  15  18
ENDBRANCH   1  12
BRANCH   2  20
ATOM     20  O   UNL     1      29.449   6.499  25.031  1.00  0.00    -0.502 OA
ATOM     21  H   UNL     1      28.618   6.128  25.476  1.00  0.00     0.293 HD
ENDBRANCH   2  20
BRANCH   6  22
ATOM     22  O   UNL     1      28.901  10.122  21.340  1.00  0.00    -0.507 OA
ATOM     23  H   UNL     1      28.779  10.648  20.483  1.00  0.00     0.293 HD
ENDBRANCH   6  22
BRANCH   8  24
ATOM     24  O   UNL     1      30.284  14.111  23.706  1.00  0.00    -0.508 OA
ATOM     25  H   UNL     1      30.042  14.676  24.512  1.00  0.00     0.293 HD
ENDBRANCH   8  24
TORSDOF 5
ENDMDL
MODEL 2
REMARK VINA RESULT:    -5.855      3.274      5.497
REMARK INTER + INTRA:          -7.061
REMARK INTER:                  -6.847
REMARK INTRA:                  -0.214
REMARK UNBOUND:                -0.180
REMARK SMILES O=c1c(O)c(-c2ccc(O)cc2)oc2cc(O)cc(O)c12
REMARK SMILES IDX 5 1 3 2 2 3 1 4 21 5 19 6 18 7 16 8 15 9 14 10 13 11 6 12
REMARK SMILES IDX 7 13 8 14 9 15 12 16 11 17 10 18 4 20 20 22 17 24
REMARK H PARENT 10 19 4 21 20 23 17 25
REMARK Flexibility Score: inf
ROOT
ATOM      1  C   UNL     1      30.724   8.558  31.029  1.00  0.00     0.180 A 
ATOM      2  C   UNL     1      31.047   7.301  30.482  1.00  0.00     0.208 A 
ATOM      3  C   UNL     1      30.708   7.035  29.147  1.00  0.00     0.238 A 
ATOM      4  O   UNL     1      31.002   5.917  28.643  1.00  0.00    -0.285 OA
ATOM      5  C   UNL     1      30.038   8.018  28.390  1.00  0.00     0.111 A 
ATOM      6  C   UNL     1      29.659   7.828  27.039  1.00  0.00     0.134 A 
ATOM      7  C   UNL     1      28.986   8.852  26.355  1.00  0.00     0.093 A 
ATOM      8  C   UNL     1      28.686  10.060  26.997  1.00  0.00     0.123 A 
ATOM      9  C   UNL     1      29.059  10.251  28.327  1.00  0.00     0.094 A 
ATOM     10  C   UNL     1      29.731   9.244  29.026  1.00  0.00     0.146 A 
ATOM     11  O   UNL     1      30.079   9.454  30.289  1.00  0.00    -0.452 OA
ENDROOT
BRANCH   1  12
ATOM     12  C   UNL     1      31.066   8.919  32.424  1.00  0.00     0.021 A 
ATOM     13  C   UNL     1      32.085   9.845  32.714  1.00  0.00     0.016 A 
ATOM     14  C   UNL     1      32.373  10.189  34.038  1.00  0.00     0.047 A 
ATOM     15  C   UNL     1      31.637   9.623  35.088  1.00  0.00     0.115 A 
ATOM     16  C   UNL     1      30.319   8.374  33.482  1.00  0.00     0.016 A 
ATOM     17  C   UNL     1      30.609   8.719  34.806  1.00  0.00     0.047 A 
BRANCH  15  18
ATOM     18  O   UNL     1      31.916   9.957  36.411  1.00  0.00    -0.508 OA
ATOM     19  H   UNL     1      31.813  10.906  36.752  1.00  0.00     0.293 HD
ENDBRANCH  15  18
ENDBRANCH   1  12
BRANCH   2  20
ATOM     20  O   UNL     1      31.667   6.326  31.270  1.00  0.00    -0.502 OA
ATOM     21  H   UNL     1      31.461   6.214  32.255  1.00  0.00     0.293 HD
ENDBRANCH   2  20
BRANCH   6  22
ATOM     22  O   UNL     1      29.942   6.636  26.373  1.00  0.00    -0.507 OA
ATOM     23  H   UNL     1      29.952   5.744  26.854  1.00  0.00     0.293 HD
ENDBRANCH   6  22
BRANCH   8  24
ATOM     24  O   UNL     1      28.017  11.076  26.318  1.00  0.00    -0.508 OA
ATOM     25  H   UNL     1      27.012  11.057  26.192  1.00  0.00     0.293 HD
ENDBRANCH   8  24
TORSDOF 5
ENDMDL
MODEL 3
REMARK VINA RESULT:    -5.673      4.745      7.579
REMARK INTER + INTRA:          -6.848
REMARK INTER:                  -6.673
REMARK INTRA:                  -0.175
REMARK UNBOUND:                -0.180
REMARK SMILES O=c1c(O)c(-c2ccc(O)cc2)oc2cc(O)cc(O)c12
REMARK SMILES IDX 5 1 3 2 2 3 1 4 21 5 19 6 18 7 16 8 15 9 14 10 13 11 6 12
REMARK SMILES IDX 7 13 8 14 9 15 12 16 11 17 10 18 4 20 20 22 17 24
REMARK H PARENT 10 19 4 21 20 23 17 25
REMARK Flexibility Score: inf
ROOT
ATOM      1  C   UNL     1      30.863   8.695  33.454  1.00  0.00     0.180 A 
ATOM      2  C   UNL     1      31.310   7.559  32.753  1.00  0.00     0.208 A 
ATOM      3  C   UNL     1      31.145   7.512  31.360  1.00  0.00     0.238 A 
ATOM      4  O   UNL     1      31.552   6.504  30.721  1.00  0.00    -0.285 OA
ATOM      5  C   UNL     1      30.522   8.589  30.696  1.00  0.00     0.111 A 
ATOM      6  C   UNL     1      30.316   8.619  29.296  1.00  0.00     0.134 A 
ATOM      7  C   UNL     1      29.680   9.724  28.710  1.00  0.00     0.093 A 
ATOM      8  C   UNL     1      29.247  10.797  29.498  1.00  0.00     0.123 A 
ATOM      9  C   UNL     1      29.449  10.772  30.878  1.00  0.00     0.094 A 
ATOM     10  C   UNL     1      30.082   9.681  31.481  1.00  0.00     0.146 A 
ATOM     11  O   UNL     1      30.266   9.685  32.796  1.00  0.00    -0.452 OA
ENDROOT
BRANCH   1  12
ATOM     12  C   UNL     1      31.018   8.826  34.921  1.00  0.00     0.021 A 
ATOM     13  C   UNL     1      31.891   9.774  35.485  1.00  0.00     0.016 A 
ATOM     14  C   UNL     1      32.001   9.896  36.873  1.00  0.00     0.047 A 
ATOM     15  C   UNL     1      31.232   9.081  37.715  1.00  0.00     0.115 A 
ATOM     16  C   UNL     1      30.234   8.029  35.772  1.00  0.00     0.016 A 
ATOM     17  C   UNL     1      30.347   8.152  37.161  1.00  0.00     0.047 A 
BRANCH  15  18
ATOM     18  O   UNL     1      31.335   9.193  39.099  1.00  0.00    -0.508 OA
ATOM     19  H   UNL     1      30.520   9.133  39.699  1.00  0.00     0.293 HD
ENDBRANCH  15  18
ENDBRANCH   1  12
BRANCH   2  20
ATOM     20  O   UNL     1      31.878   6.483  33.441  1.00  0.00    -0.502 OA
ATOM     21  H   UNL     1      31.883   6.428  34.453  1.00  0.00     0.293 HD
ENDBRANCH   2  20
BRANCH   6  22
ATOM     22  O   UNL     1      30.736   7.564  28.484  1.00  0.00    -0.507 OA
ATOM     23  H   UNL     1      31.320   6.817  28.840  1.00  0.00     0.293 HD
ENDBRANCH   6  22
BRANCH   8  24
ATOM     24  O   UNL     1      28.614  11.893  28.917  1.00  0.00    -0.508 OA
ATOM     25  H   UNL     1      27.959  12.465  29.437  1.00  0.00     0.293 HD
ENDBRANCH   8  24
TORSDOF 5
ENDMDL
MODEL 4
REMARK VINA RESULT:    -5.629      3.919      5.942
REMARK INTER + INTRA:          -6.796
REMARK INTER:                  -6.518
REMARK INTRA:                  -0.278
REMARK UNBOUND:                -0.180
REMARK SMILES O=c1c(O)c(-c2ccc(O)cc2)oc2cc(O)cc(O)c12
REMARK SMILES IDX 5 1 3 2 2 3 1 4 21 5 19 6 18 7 16 8 15 9 14 10 13 11 6 12
REMARK SMILES IDX 7 13 8 14 9 15 12 16 11 17 10 18 4 20 20 22 17 24
REMARK H PARENT 10 19 4 21 20 23 17 25
REMARK Flexibility Score: inf
ROOT
ATOM      1  C   UNL     1      30.277  10.482  30.903  1.00  0.00     0.180 A 
ATOM      2  C   UNL     1      29.932  11.738  30.367  1.00  0.00     0.208 A 
ATOM      3  C   UNL     1      29.459  11.804  29.047  1.00  0.00     0.238 A 
ATOM      4  O   UNL     1      29.137  12.921  28.560  1.00  0.00    -0.285 OA
ATOM      5  C   UNL     1      29.358  10.624  28.283  1.00  0.00     0.111 A 
ATOM      6  C   UNL     1      28.894  10.605  26.945  1.00  0.00     0.134 A 
ATOM      7  C   UNL     1      28.831   9.389  26.248  1.00  0.00     0.093 A 
ATOM      8  C   UNL     1      29.223   8.194  26.862  1.00  0.00     0.123 A 
ATOM      9  C   UNL     1      29.680   8.208  28.180  1.00  0.00     0.094 A 
ATOM     10  C   UNL     1      29.749   9.408  28.893  1.00  0.00     0.146 A 
ATOM     11  O   UNL     1      30.183   9.392  30.148  1.00  0.00    -0.452 OA
ENDROOT
BRANCH   1  12
ATOM     12  C   UNL     1      30.765  10.328  32.293  1.00  0.00     0.021 A 
ATOM     13  C   UNL     1      32.116  10.538  32.624  1.00  0.00     0.016 A 
ATOM     14  C   UNL     1      32.548  10.410  33.948  1.00  0.00     0.047 A 
ATOM     15  C   UNL     1      31.634  10.085  34.959  1.00  0.00     0.115 A 
ATOM     16  C   UNL     1      29.852  10.023  33.316  1.00  0.00     0.016 A 
ATOM     17  C   UNL     1      30.286   9.896  34.640  1.00  0.00     0.047 A 
BRANCH  15  18
ATOM     18  O   UNL     1      32.053   9.954  36.280  1.00  0.00    -0.508 OA
ATOM     19  H   UNL     1      32.944  10.321  36.593  1.00  0.00     0.293 HD
ENDBRANCH  15  18
ENDBRANCH   1  12
BRANCH   2  20
ATOM     20  O   UNL     1      30.089  12.898  31.129  1.00  0.00    -0.502 OA
ATOM     21  H   UNL     1      29.319  13.525  31.328  1.00  0.00     0.293 HD
ENDBRANCH   2  20
BRANCH   6  22
ATOM     22  O   UNL     1      28.498  11.780  26.305  1.00  0.00    -0.507 OA
ATOM     23  H   UNL     1      27.521  12.022  26.191  1.00  0.00     0.293 HD
ENDBRANCH   6  22
BRANCH   8  24
ATOM     24  O   UNL     1      29.161   6.988  26.169  1.00  0.00    -0.508 OA
ATOM     25  H   UNL     1      29.936   6.334  26.172  1.00  0.00     0.293 HD
ENDBRANCH   8  24
TORSDOF 5
ENDMDL
MODEL 5
REMARK VINA RESULT:    -5.594      4.055      5.480
REMARK INTER + INTRA:          -6.755
REMARK INTER:                  -6.664
REMARK INTRA:                  -0.092
REMARK UNBOUND:                -0.180
REMARK SMILES O=c1c(O)c(-c2ccc(O)cc2)oc2cc(O)cc(O)c12
REMARK SMILES IDX 5 1 3 2 2 3 1 4 21 5 19 6 18 7 16 8 15 9 14 10 13 11 6 12
REMARK SMILES IDX 7 13 8 14 9 15 12 16 11 17 10 18 4 20 20 22 17 24
REMARK H PARENT 10 19 4 21 20 23 17 25
REMARK Flexibility Score: inf
ROOT
ATOM      1  C   UNL     1      29.413  11.096  29.878  1.00  0.00     0.180 A 
ATOM      2  C   UNL     1      28.357  11.675  30.608  1.00  0.00     0.208 A 
ATOM      3  C   UNL     1      27.778  12.863  30.136  1.00  0.00     0.238 A 
ATOM      4  O   UNL     1      26.824  13.384  30.776  1.00  0.00    -0.285 OA
ATOM      5  C   UNL     1      28.272  13.460  28.959  1.00  0.00     0.111 A 
ATOM      6  C   UNL     1      27.745  14.657  28.418  1.00  0.00     0.134 A 
ATOM      7  C   UNL     1      28.299  15.194  27.246  1.00  0.00     0.093 A 
ATOM      8  C   UNL     1      29.368  14.556  26.606  1.00  0.00     0.123 A 
ATOM      9  C   UNL     1      29.890  13.375  27.134  1.00  0.00     0.094 A 
ATOM     10  C   UNL     1      29.351  12.823  28.301  1.00  0.00     0.146 A 
ATOM     11  O   UNL     1      29.863  11.696  28.779  1.00  0.00    -0.452 OA
ENDROOT
BRANCH   1  12
ATOM     12  C   UNL     1      30.064   9.835  30.300  1.00  0.00     0.021 A 
ATOM     13  C   UNL     1      30.717   9.726  31.541  1.00  0.00     0.016 A 
ATOM     14  C   UNL     1      31.302   8.517  31.929  1.00  0.00     0.047 A 
ATOM     15  C   UNL     1      31.231   7.398  31.088  1.00  0.00     0.115 A 
ATOM     16  C   UNL     1      29.978   8.702  29.473  1.00  0.00     0.016 A 
ATOM     17  C   UNL     1      30.565   7.494  29.863  1.00  0.00     0.047 A 
BRANCH  15  18
ATOM     18  O   UNL     1      31.812   6.189  31.463  1.00  0.00    -0.508 OA
ATOM     19  H   UNL     1      32.180   6.045  32.396  1.00  0.00     0.293 HD
ENDBRANCH  15  18
ENDBRANCH   1  12
BRANCH   2  20
ATOM     20  O   UNL     1      27.920  11.090  31.799  1.00  0.00    -0.502 OA
ATOM     21  H   UNL     1      27.583  10.135  31.843  1.00  0.00     0.293 HD
ENDBRANCH   2  20
BRANCH   6  22
ATOM     22  O   UNL     1      26.681  15.317  29.034  1.00  0.00    -0.507 OA
ATOM     23  H   UNL     1      25.780  15.415  28.582  1.00  0.00     0.293 HD
ENDBRANCH   6  22
BRANCH   8  24
ATOM     24  O   UNL     1      29.918  15.089  25.443  1.00  0.00    -0.508 OA
ATOM     25  H   UNL     1      30.489  14.530  24.821  1.00  0.00     0.293 HD
ENDBRANCH   8  24
TORSDOF 5
ENDMDL
MODEL 6
REMARK VINA RESULT:    -5.522      3.367      7.651
REMARK INTER + INTRA:          -6.670
REMARK INTER:                  -6.382
REMARK INTRA:                  -0.288
REMARK UNBOUND:                -0.180
REMARK SMILES O=c1c(O)c(-c2ccc(O)cc2)oc2cc(O)cc(O)c12
REMARK SMILES IDX 5 1 3 2 2 3 1 4 21 5 19 6 18 7 16 8 15 9 14 10 13 11 6 12
REMARK SMILES IDX 7 13 8 14 9 15 12 16 11 17 10 18 4 20 20 22 17 24
REMARK H PARENT 10 19 4 21 20 23 17 25
REMARK Flexibility Score: inf
ROOT
ATOM      1  C   UNL     1      29.619  10.330  29.129  1.00  0.00     0.180 A 
ATOM      2  C   UNL     1      29.717   8.976  28.757  1.00  0.00     0.208 A 
ATOM      3  C   UNL     1      30.278   8.063  29.663  1.00  0.00     0.238 A 
ATOM      4  O   UNL     1      30.361   6.845  29.345  1.00  0.00    -0.285 OA
ATOM      5  C   UNL     1      30.745   8.519  30.912  1.00  0.00     0.111 A 
ATOM      6  C   UNL     1      31.325   7.664  31.881  1.00  0.00     0.134 A 
ATOM      7  C   UNL     1      31.775   8.197  33.098  1.00  0.00     0.093 A 
ATOM      8  C   UNL     1      31.656   9.566  33.364  1.00  0.00     0.123 A 
ATOM      9  C   UNL     1      31.085  10.412  32.413  1.00  0.00     0.094 A 
ATOM     10  C   UNL     1      30.629   9.900  31.195  1.00  0.00     0.146 A 
ATOM     11  O   UNL     1      30.084  10.727  30.310  1.00  0.00    -0.452 OA
ENDROOT
BRANCH   1  12
ATOM     12  C   UNL     1      29.023  11.350  28.235  1.00  0.00     0.021 A 
ATOM     13  C   UNL     1      29.813  12.088  27.335  1.00  0.00     0.016 A 
ATOM     14  C   UNL     1      29.223  13.028  26.484  1.00  0.00     0.047 A 
ATOM     15  C   UNL     1      27.837  13.233  26.513  1.00  0.00     0.115 A 
ATOM     16  C   UNL     1      27.632  11.547  28.242  1.00  0.00     0.016 A 
ATOM     17  C   UNL     1      27.044  12.488  27.391  1.00  0.00     0.047 A 
BRANCH  15  18
ATOM     18  O   UNL     1      27.240  14.168  25.671  1.00  0.00    -0.508 OA
ATOM     19  H   UNL     1      27.785  14.716  25.015  1.00  0.00     0.293 HD
ENDBRANCH  15  18
ENDBRANCH   1  12
BRANCH   2  20
ATOM     20  O   UNL     1      29.292   8.558  27.492  1.00  0.00    -0.502 OA
ATOM     21  H   UNL     1      28.599   9.068  26.957  1.00  0.00     0.293 HD
ENDBRANCH   2  20
BRANCH   6  22
ATOM     22  O   UNL     1      31.459   6.296  31.644  1.00  0.00    -0.507 OA
ATOM     23  H   UNL     1      32.353   5.878  31.416  1.00  0.00     0.293 HD
ENDBRANCH   6  22
BRANCH   8  24
ATOM     24  O   UNL     1      32.104  10.095  34.573  1.00  0.00    -0.508 OA
ATOM     25  H   UNL     1      32.202   9.518  35.400  1.00  0.00     0.293 HD
ENDBRANCH   8  24
TORSDOF 5
ENDMDL
MODEL 7
REMARK VINA RESULT:    -5.391      2.634      7.322
REMARK INTER + INTRA:          -6.516
REMARK INTER:                  -6.494
REMARK INTRA:                  -0.022
REMARK UNBOUND:                -0.180
REMARK SMILES O=c1c(O)c(-c2ccc(O)cc2)oc2cc(O)cc(O)c12
REMARK SMILES IDX 5 1 3 2 2 3 1 4 21 5 19 6 18 7 16 8 15 9 14 10 13 11 6 12
REMARK SMILES IDX 7 13 8 14 9 15 12 16 11 17 10 18 4 20 20 22 17 24
REMARK H PARENT 10 19 4 21 20 23 17 25
REMARK Flexibility Score: inf
ROOT
ATOM      1  C   UNL     1      30.098   8.661  28.561  1.00  0.00     0.180 A 
ATOM      2  C   UNL     1      30.574   7.365  28.835  1.00  0.00     0.208 A 
ATOM      3  C   UNL     1      31.022   7.067  30.132  1.00  0.00     0.238 A 
ATOM      4  O   UNL     1      31.439   5.906  30.392  1.00  0.00    -0.285 OA
ATOM      5  C   UNL     1      31.004   8.070  31.122  1.00  0.00     0.111 A 
ATOM      6  C   UNL     1      31.440   7.853  32.452  1.00  0.00     0.134 A 
ATOM      7  C   UNL     1      31.400   8.906  33.378  1.00  0.00     0.093 A 
ATOM      8  C   UNL     1      30.933  10.170  32.999  1.00  0.00     0.123 A 
ATOM      9  C   UNL     1      30.502  10.389  31.691  1.00  0.00     0.094 A 
ATOM     10  C   UNL     1      30.532   9.352  30.753  1.00  0.00     0.146 A 
ATOM     11  O   UNL     1      30.111   9.586  29.516  1.00  0.00    -0.452 OA
ENDROOT
BRANCH   1  12
ATOM     12  C   UNL     1      29.592   9.046  27.223  1.00  0.00     0.021 A 
ATOM     13  C   UNL     1      28.309   9.597  27.055  1.00  0.00     0.016 A 
ATOM     14  C   UNL     1      27.863   9.976  25.785  1.00  0.00     0.047 A 
ATOM     15  C   UNL     1      28.698   9.821  24.670  1.00  0.00     0.115 A 
ATOM     16  C   UNL     1      30.431   8.916  26.103  1.00  0.00     0.016 A 
ATOM     17  C   UNL     1      29.982   9.294  24.834  1.00  0.00     0.047 A 
BRANCH  15  18
ATOM     18  O   UNL     1      28.264  10.194  23.400  1.00  0.00    -0.508 OA
ATOM     19  H   UNL     1      28.608   9.733  22.566  1.00  0.00     0.293 HD
ENDBRANCH  15  18
ENDBRANCH   1  12
BRANCH   2  20
ATOM     20  O   UNL     1      30.627   6.403  27.823  1.00  0.00    -0.502 OA
ATOM     21  H   UNL     1      29.808   5.891  27.516  1.00  0.00     0.293 HD
ENDBRANCH   2  20
BRANCH   6  22
ATOM     22  O   UNL     1      31.912   6.604  32.858  1.00  0.00    -0.507 OA
ATOM     23  H   UNL     1      31.583   6.160  33.707  1.00  0.00     0.293 HD
ENDBRANCH   6  22
BRANCH   8  24
ATOM     24  O   UNL     1      30.895  11.216  33.919  1.00  0.00    -0.508 OA
ATOM     25  H   UNL     1      31.733  11.545  34.383  1.00  0.00     0.293 HD
ENDBRANCH   8  24
TORSDOF 5
ENDMDL
MODEL 8
REMARK VINA RESULT:    -5.368      2.866      3.684
REMARK INTER + INTRA:          -6.489
REMARK INTER:                  -6.198
REMARK INTRA:                  -0.290
REMARK UNBOUND:                -0.180
REMARK SMILES O=c1c(O)c(-c2ccc(O)cc2)oc2cc(O)cc(O)c12
REMARK SMILES IDX 5 1 3 2 2 3 1 4 21 5 19 6 18 7 16 8 15 9 14 10 13 11 6 12
REMARK SMILES IDX 7 13 8 14 9 15 12 16 11 17 10 18 4 20 20 22 17 24
REMARK H PARENT 10 19 4 21 20 23 17 25
REMARK Flexibility Score: inf
ROOT
ATOM      1  C   UNL     1      29.498  10.030  25.868  1.00  0.00     0.180 A 
ATOM      2  C   UNL     1      29.421   8.676  25.486  1.00  0.00     0.208 A 
ATOM      3  C   UNL     1      30.124   8.253  24.347  1.00  0.00     0.238 A 
ATOM      4  O   UNL     1      30.072   7.042  24.001  1.00  0.00    -0.285 OA
ATOM      5  C   UNL     1      30.872   9.188  23.602  1.00  0.00     0.111 A 
ATOM      6  C   UNL     1      31.605   8.844  22.441  1.00  0.00     0.134 A 
ATOM      7  C   UNL     1      32.318   9.834  21.749  1.00  0.00     0.093 A 
ATOM      8  C   UNL     1      32.310  11.161  22.196  1.00  0.00     0.123 A 
ATOM      9  C   UNL     1      31.589  11.505  23.340  1.00  0.00     0.094 A 
ATOM     10  C   UNL     1      30.874  10.532  24.044  1.00  0.00     0.146 A 
ATOM     11  O   UNL     1      30.201  10.886  25.133  1.00  0.00    -0.452 OA
ENDROOT
BRANCH   1  12
ATOM     12  C   UNL     1      28.800  10.548  27.067  1.00  0.00     0.021 A 
ATOM     13  C   UNL     1      27.473  11.009  27.003  1.00  0.00     0.016 A 
ATOM     14  C   UNL     1      26.828  11.471  28.154  1.00  0.00     0.047 A 
ATOM     15  C   UNL     1      27.496  11.467  29.385  1.00  0.00     0.115 A 
ATOM     16  C   UNL     1      29.455  10.527  28.310  1.00  0.00     0.016 A 
ATOM     17  C   UNL     1      28.809  10.991  29.460  1.00  0.00     0.047 A 
BRANCH  15  18
ATOM     18  O   UNL     1      26.864  11.926  30.538  1.00  0.00    -0.508 OA
ATOM     19  H   UNL     1      27.380  12.104  31.392  1.00  0.00     0.293 HD
ENDBRANCH  15  18
ENDBRANCH   1  12
BRANCH   2  20
ATOM     20  O   UNL     1      28.633   7.781  26.212  1.00  0.00    -0.502 OA
ATOM     21  H   UNL     1      28.914   7.420  27.116  1.00  0.00     0.293 HD
ENDBRANCH   2  20
BRANCH   6  22
ATOM     22  O   UNL     1      31.631   7.530  21.970  1.00  0.00    -0.507 OA
ATOM     23  H   UNL     1      30.781   7.027  21.746  1.00  0.00     0.293 HD
ENDBRANCH   6  22
BRANCH   8  24
ATOM     24  O   UNL     1      33.017  12.144  21.508  1.00  0.00    -0.508 OA
ATOM     25  H   UNL     1      33.294  12.021  20.541  1.00  0.00     0.293 HD
ENDBRANCH   8  24
TORSDOF 5
ENDMDL
