MODEL 1
REMARK VINA RESULT:    -6.403      0.000      0.000
REMARK INTER + INTRA:         -13.239
REMARK INTER:                 -10.520
REMARK INTRA:                  -2.719
REMARK UNBOUND:                -2.719
REMARK SMILES C[C@H]1O[C@H](OC[C@@H]2O[C@@H](Oc3c(-c4ccc(O)c(O)c4)oc4cc(O)cc(O)c4c3=O)[C@@H](O)[C@H](O)[C@H]2O)[C@@H](O)[C@H](O)[C@@H]1O
REMARK SMILES IDX 7 1 36 2 34 3 32 4 9 5 8 6 6 7 5 8 4 9 1 10 2 11 42 12 3 13
REMARK SMILES IDX 40 14 38 15 43 16 41 18 39 20 37 22 35 24 10 26 11 27 12 28
REMARK SMILES IDX 30 29 21 30 29 31 31 32 22 33 27 34 23 35 26 36 24 37 13 38
REMARK SMILES IDX 20 39 14 40 18 41 15 42 16 43 19 44 17 46 28 48 25 50 33 52
REMARK H PARENT 43 17 41 19 39 21 37 23 35 25 19 45 17 47 28 49 25 51 33 53
REMARK Flexibility Score: inf
ROOT
ATOM      1  C   UNL     1     -11.272  38.861  -2.452  1.00  0.00     0.180 C 
ATOM      2  C   UNL     1     -11.176  40.385  -2.717  1.00  0.00     0.177 C 
ATOM      3  C   UNL     1     -12.425  41.104  -2.172  1.00  0.00     0.180 C 
ATOM      4  C   UNL     1     -13.695  40.400  -2.663  1.00  0.00     0.214 C 
ATOM      5  C   UNL     1     -13.624  38.892  -2.351  1.00  0.00     0.339 C 
ATOM      6  O   UNL     1     -12.483  38.316  -2.963  1.00  0.00    -0.332 OA
ENDROOT
BRANCH   1   7
ATOM      7  C   UNL     1     -10.063  38.101  -3.062  1.00  0.00     0.198 C 
BRANCH   7   8
ATOM      8  O   UNL     1      -9.834  36.832  -2.468  1.00  0.00    -0.347 OA
BRANCH   8   9
ATOM      9  C   UNL     1      -9.393  35.872  -3.421  1.00  0.00     0.281 C 
ATOM     10  C   UNL     1      -9.187  32.849  -1.323  1.00  0.00     0.041 C 
ATOM     11  C   UNL     1      -9.860  34.021  -2.041  1.00  0.00     0.150 C 
ATOM     12  C   UNL     1     -11.009  33.520  -2.949  1.00  0.00     0.174 C 
ATOM     13  O   UNL     1      -8.875  34.695  -2.808  1.00  0.00    -0.344 OA
ATOM     14  C   UNL     1     -11.634  34.703  -3.706  1.00  0.00     0.179 C 
ATOM     15  C   UNL     1     -10.537  35.531  -4.398  1.00  0.00     0.202 C 
BRANCH  12  16
ATOM     16  O   UNL     1     -11.988  32.876  -2.168  1.00  0.00    -0.388 OA
ATOM     17  H   UNL     1     -12.273  32.073  -2.676  1.00  0.00     0.211 HD
ENDBRANCH  12  16
BRANCH  14  18
ATOM     18  O   UNL     1     -12.356  35.512  -2.810  1.00  0.00    -0.387 OA
ATOM     19  H   UNL     1     -12.104  35.229  -1.893  1.00  0.00     0.211 HD
ENDBRANCH  14  18
BRANCH  15  20
ATOM     20  O   UNL     1     -10.007  34.808  -5.479  1.00  0.00    -0.385 OA
ATOM     21  H   UNL     1      -9.153  35.247  -5.727  1.00  0.00     0.211 HD
ENDBRANCH  15  20
ENDBRANCH   8   9
ENDBRANCH   7   8
ENDBRANCH   1   7
BRANCH   2  22
ATOM     22  O   UNL     1     -10.029  40.898  -2.079  1.00  0.00    -0.387 OA
ATOM     23  H   UNL     1      -9.826  40.300  -1.315  1.00  0.00     0.211 HD
ENDBRANCH   2  22
BRANCH   3  24
ATOM     24  O   UNL     1     -12.442  42.437  -2.617  1.00  0.00    -0.387 OA
ATOM     25  H   UNL     1     -12.745  42.993  -1.853  1.00  0.00     0.211 HD
ENDBRANCH   3  24
BRANCH   5  26
ATOM     26  O   UNL     1     -13.615  38.655  -0.936  1.00  0.00    -0.454 OA
BRANCH  26  27
ATOM     27  C   UNL     1     -13.910  37.414  -0.360  1.00  0.00     0.214 A 
ATOM     28  C   UNL     1     -15.232  36.936  -0.289  1.00  0.00     0.180 A 
ATOM     29  C   UNL     1     -12.873  36.584   0.084  1.00  0.00     0.239 A 
ATOM     30  O   UNL     1     -15.477  35.718   0.184  1.00  0.00    -0.452 OA
ATOM     31  C   UNL     1     -13.168  35.303   0.593  1.00  0.00     0.111 A 
ATOM     32  O   UNL     1     -11.682  36.989   0.006  1.00  0.00    -0.285 OA
ATOM     33  C   UNL     1     -14.524  34.901   0.620  1.00  0.00     0.146 A 
ATOM     34  C   UNL     1     -12.174  34.409   1.060  1.00  0.00     0.134 A 
ATOM     35  C   UNL     1     -14.874  33.635   1.098  1.00  0.00     0.094 A 
ATOM     36  C   UNL     1     -12.544  33.142   1.534  1.00  0.00     0.093 A 
ATOM     37  C   UNL     1     -13.888  32.753   1.551  1.00  0.00     0.123 A 
BRANCH  28  38
ATOM     38  C   UNL     1     -16.372  37.731  -0.767  1.00  0.00     0.025 A 
ATOM     39  C   UNL     1     -16.805  37.638  -2.100  1.00  0.00     0.062 A 
ATOM     40  C   UNL     1     -16.954  38.680   0.090  1.00  0.00     0.016 A 
ATOM     41  C   UNL     1     -17.828  38.476  -2.568  1.00  0.00     0.158 A 
ATOM     42  C   UNL     1     -17.970  39.516  -0.376  1.00  0.00     0.051 A 
ATOM     43  C   UNL     1     -18.415  39.418  -1.700  1.00  0.00     0.157 A 
BRANCH  41  44
ATOM     44  O   UNL     1     -18.249  38.385  -3.890  1.00  0.00    -0.504 OA
ATOM     45  H   UNL     1     -19.117  37.918  -4.134  1.00  0.00     0.293 HD
ENDBRANCH  41  44
BRANCH  43  46
ATOM     46  O   UNL     1     -19.427  40.276  -2.135  1.00  0.00    -0.504 OA
ATOM     47  H   UNL     1     -19.725  40.300  -3.106  1.00  0.00     0.293 HD
ENDBRANCH  43  46
ENDBRANCH  28  38
BRANCH  34  48
ATOM     48  O   UNL     1     -10.825  34.769   1.054  1.00  0.00    -0.507 OA
ATOM     49  H   UNL     1     -10.087  34.077   0.969  1.00  0.00     0.293 HD
ENDBRANCH  34  48
BRANCH  37  50
ATOM     50  O   UNL     1     -14.258  31.494   2.020  1.00  0.00    -0.508 OA
ATOM     51  H   UNL     1     -15.142  31.072   1.762  1.00  0.00     0.293 HD
ENDBRANCH  37  50
ENDBRANCH  26  27
ENDBRANCH   5  26
BRANCH   4  52
ATOM     52  O   UNL     1     -14.817  40.984  -2.053  1.00  0.00    -0.384 OA
ATOM     53  H   UNL     1     -15.149  40.331  -1.385  1.00  0.00     0.211 HD
ENDBRANCH   4  52
TORSDOF 16
ENDMDL
MODEL 2
REMARK VINA RESULT:    -6.262      2.182      5.283
REMARK INTER + INTRA:         -13.007
REMARK INTER:                 -11.031
REMARK INTRA:                  -1.977
REMARK UNBOUND:                -2.719
REMARK SMILES C[C@H]1O[C@H](OC[C@@H]2O[C@@H](Oc3c(-c4ccc(O)c(O)c4)oc4cc(O)cc(O)c4c3=O)[C@@H](O)[C@H](O)[C@H]2O)[C@@H](O)[C@H](O)[C@@H]1O
REMARK SMILES IDX 7 1 36 2 34 3 32 4 9 5 8 6 6 7 5 8 4 9 1 10 2 11 42 12 3 13
REMARK SMILES IDX 40 14 38 15 43 16 41 18 39 20 37 22 35 24 10 26 11 27 12 28
REMARK SMILES IDX 30 29 21 30 29 31 31 32 22 33 27 34 23 35 26 36 24 37 13 38
REMARK SMILES IDX 20 39 14 40 18 41 15 42 16 43 19 44 17 46 28 48 25 50 33 52
REMARK H PARENT 43 17 41 19 39 21 37 23 35 25 19 45 17 47 28 49 25 51 33 53
REMARK Flexibility Score: inf
ROOT
ATOM      1  C   UNL     1     -15.351  39.039  -1.939  1.00  0.00     0.180 C 
ATOM      2  C   UNL     1     -16.793  39.608  -1.968  1.00  0.00     0.177 C 
ATOM      3  C   UNL     1     -17.797  38.507  -2.360  1.00  0.00     0.180 C 
ATOM      4  C   UNL     1     -17.318  37.784  -3.624  1.00  0.00     0.214 C 
ATOM      5  C   UNL     1     -15.864  37.305  -3.448  1.00  0.00     0.339 C 
ATOM      6  O   UNL     1     -15.014  38.406  -3.167  1.00  0.00    -0.332 OA
ENDROOT
BRANCH   1   7
ATOM      7  C   UNL     1     -14.310  40.147  -1.624  1.00  0.00     0.198 C 
BRANCH   7   8
ATOM      8  O   UNL     1     -13.163  40.100  -2.460  1.00  0.00    -0.347 OA
BRANCH   8   9
ATOM      9  C   UNL     1     -12.987  41.311  -3.185  1.00  0.00     0.281 C 
ATOM     10  C   UNL     1      -9.426  41.063  -4.102  1.00  0.00     0.041 C 
ATOM     11  C   UNL     1     -10.907  40.677  -4.091  1.00  0.00     0.150 C 
ATOM     12  C   UNL     1     -11.460  40.587  -5.533  1.00  0.00     0.174 C 
ATOM     13  O   UNL     1     -11.613  41.655  -3.344  1.00  0.00    -0.344 OA
ATOM     14  C   UNL     1     -12.961  40.256  -5.499  1.00  0.00     0.179 C 
ATOM     15  C   UNL     1     -13.697  41.219  -4.551  1.00  0.00     0.202 C 
BRANCH  12  16
ATOM     16  O   UNL     1     -10.764  39.596  -6.250  1.00  0.00    -0.388 OA
ATOM     17  H   UNL     1     -11.207  39.522  -7.135  1.00  0.00     0.211 HD
ENDBRANCH  12  16
BRANCH  14  18
ATOM     18  O   UNL     1     -13.146  38.928  -5.077  1.00  0.00    -0.387 OA
ATOM     19  H   UNL     1     -12.327  38.663  -4.582  1.00  0.00     0.211 HD
ENDBRANCH  14  18
BRANCH  15  20
ATOM     20  O   UNL     1     -13.747  42.502  -5.122  1.00  0.00    -0.385 OA
ATOM     21  H   UNL     1     -14.700  42.691  -5.320  1.00  0.00     0.211 HD
ENDBRANCH  15  20
ENDBRANCH   8   9
ENDBRANCH   7   8
ENDBRANCH   1   7
BRANCH   2  22
ATOM     22  O   UNL     1     -17.124  40.104  -0.691  1.00  0.00    -0.387 OA
ATOM     23  H   UNL     1     -16.274  40.337  -0.236  1.00  0.00     0.211 HD
ENDBRANCH   2  22
BRANCH   3  24
ATOM     24  O   UNL     1     -19.057  39.075  -2.610  1.00  0.00    -0.387 OA
ATOM     25  H   UNL     1     -19.662  38.767  -1.886  1.00  0.00     0.211 HD
ENDBRANCH   3  24
BRANCH   5  26
ATOM     26  O   UNL     1     -15.765  36.313  -2.417  1.00  0.00    -0.454 OA
BRANCH  26  27
ATOM     27  C   UNL     1     -14.548  35.865  -1.891  1.00  0.00     0.214 A 
ATOM     28  C   UNL     1     -14.344  35.765  -0.503  1.00  0.00     0.180 A 
ATOM     29  C   UNL     1     -13.533  35.425  -2.751  1.00  0.00     0.239 A 
ATOM     30  O   UNL     1     -13.211  35.255  -0.029  1.00  0.00    -0.452 OA
ATOM     31  C   UNL     1     -12.338  34.902  -2.216  1.00  0.00     0.111 A 
ATOM     32  O   UNL     1     -13.710  35.486  -3.997  1.00  0.00    -0.285 OA
ATOM     33  C   UNL     1     -12.222  34.831  -0.808  1.00  0.00     0.146 A 
ATOM     34  C   UNL     1     -11.269  34.438  -3.022  1.00  0.00     0.134 A 
ATOM     35  C   UNL     1     -11.067  34.305  -0.223  1.00  0.00     0.094 A 
ATOM     36  C   UNL     1     -10.119  33.912  -2.416  1.00  0.00     0.093 A 
ATOM     37  C   UNL     1     -10.017  33.842  -1.022  1.00  0.00     0.123 A 
BRANCH  28  38
ATOM     38  C   UNL     1     -15.373  36.171   0.465  1.00  0.00     0.025 A 
ATOM     39  C   UNL     1     -16.495  35.361   0.705  1.00  0.00     0.062 A 
ATOM     40  C   UNL     1     -15.289  37.440   1.063  1.00  0.00     0.016 A 
ATOM     41  C   UNL     1     -17.517  35.808   1.555  1.00  0.00     0.158 A 
ATOM     42  C   UNL     1     -16.308  37.887   1.907  1.00  0.00     0.051 A 
ATOM     43  C   UNL     1     -17.421  37.077   2.160  1.00  0.00     0.157 A 
BRANCH  41  44
ATOM     44  O   UNL     1     -18.629  35.005   1.784  1.00  0.00    -0.504 OA
ATOM     45  H   UNL     1     -18.780  34.153   1.253  1.00  0.00     0.293 HD
ENDBRANCH  41  44
BRANCH  43  46
ATOM     46  O   UNL     1     -18.426  37.558   3.001  1.00  0.00    -0.504 OA
ATOM     47  H   UNL     1     -18.219  37.927   3.925  1.00  0.00     0.293 HD
ENDBRANCH  43  46
ENDBRANCH  28  38
BRANCH  34  48
ATOM     48  O   UNL     1     -11.343  34.495  -4.414  1.00  0.00    -0.507 OA
ATOM     49  H   UNL     1     -10.948  33.767  -5.001  1.00  0.00     0.293 HD
ENDBRANCH  34  48
BRANCH  37  50
ATOM     50  O   UNL     1      -8.875  33.319  -0.418  1.00  0.00    -0.508 OA
ATOM     51  H   UNL     1      -8.340  32.576  -0.853  1.00  0.00     0.293 HD
ENDBRANCH  37  50
ENDBRANCH  26  27
ENDBRANCH   5  26
BRANCH   4  52
ATOM     52  O   UNL     1     -18.171  36.701  -3.893  1.00  0.00    -0.384 OA
ATOM     53  H   UNL     1     -18.615  36.897  -4.757  1.00  0.00     0.211 HD
ENDBRANCH   4  52
TORSDOF 16
ENDMDL
MODEL 3
REMARK VINA RESULT:    -6.232      2.840      8.016
REMARK INTER + INTRA:         -12.958
REMARK INTER:                  -9.824
REMARK INTRA:                  -3.134
REMARK UNBOUND:                -2.719
REMARK SMILES C[C@H]1O[C@H](OC[C@@H]2O[C@@H](Oc3c(-c4ccc(O)c(O)c4)oc4cc(O)cc(O)c4c3=O)[C@@H](O)[C@H](O)[C@H]2O)[C@@H](O)[C@H](O)[C@@H]1O
REMARK SMILES IDX 7 1 36 2 34 3 32 4 9 5 8 6 6 7 5 8 4 9 1 10 2 11 42 12 3 13
REMARK SMILES IDX 40 14 38 15 43 16 41 18 39 20 37 22 35 24 10 26 11 27 12 28
REMARK SMILES IDX 30 29 21 30 29 31 31 32 22 33 27 34 23 35 26 36 24 37 13 38
REMARK SMILES IDX 20 39 14 40 18 41 15 42 16 43 19 44 17 46 28 48 25 50 33 52
REMARK H PARENT 43 17 41 19 39 21 37 23 35 25 19 45 17 47 28 49 25 51 33 53
REMARK Flexibility Score: inf
ROOT
ATOM      1  C   UNL     1     -12.092  37.897  -0.542  1.00  0.00     0.180 C 
ATOM      2  C   UNL     1     -12.056  38.901   0.638  1.00  0.00     0.177 C 
ATOM      3  C   UNL     1     -11.414  40.229   0.194  1.00  0.00     0.180 C 
ATOM      4  C   UNL     1     -10.084  39.958  -0.519  1.00  0.00     0.214 C 
ATOM      5  C   UNL     1     -10.281  38.923  -1.643  1.00  0.00     0.339 C 
ATOM      6  O   UNL     1     -10.803  37.715  -1.114  1.00  0.00    -0.332 OA
ENDROOT
BRANCH   1   7
ATOM      7  C   UNL     1     -12.663  36.522  -0.102  1.00  0.00     0.198 C 
BRANCH   7   8
ATOM      8  O   UNL     1     -13.811  36.123  -0.836  1.00  0.00    -0.347 OA
BRANCH   8   9
ATOM      9  C   UNL     1     -15.016  36.446  -0.153  1.00  0.00     0.281 C 
ATOM     10  C   UNL     1     -16.107  39.424  -2.029  1.00  0.00     0.041 C 
ATOM     11  C   UNL     1     -15.763  37.950  -1.804  1.00  0.00     0.150 C 
ATOM     12  C   UNL     1     -16.943  37.042  -2.226  1.00  0.00     0.174 C 
ATOM     13  O   UNL     1     -15.461  37.771  -0.430  1.00  0.00    -0.344 OA
ATOM     14  C   UNL     1     -16.601  35.571  -1.938  1.00  0.00     0.179 C 
ATOM     15  C   UNL     1     -16.110  35.412  -0.488  1.00  0.00     0.202 C 
BRANCH  12  16
ATOM     16  O   UNL     1     -17.212  37.215  -3.597  1.00  0.00    -0.388 OA
ATOM     17  H   UNL     1     -16.477  36.764  -4.089  1.00  0.00     0.211 HD
ENDBRANCH  12  16
BRANCH  14  18
ATOM     18  O   UNL     1     -15.612  35.128  -2.834  1.00  0.00    -0.387 OA
ATOM     19  H   UNL     1     -15.988  35.212  -3.748  1.00  0.00     0.211 HD
ENDBRANCH  14  18
BRANCH  15  20
ATOM     20  O   UNL     1     -17.185  35.587   0.399  1.00  0.00    -0.385 OA
ATOM     21  H   UNL     1     -17.467  34.682   0.691  1.00  0.00     0.211 HD
ENDBRANCH  15  20
ENDBRANCH   8   9
ENDBRANCH   7   8
ENDBRANCH   1   7
BRANCH   2  22
ATOM     22  O   UNL     1     -13.371  39.147   1.081  1.00  0.00    -0.387 OA
ATOM     23  H   UNL     1     -13.388  38.983   2.060  1.00  0.00     0.211 HD
ENDBRANCH   2  22
BRANCH   3  24
ATOM     24  O   UNL     1     -11.174  41.042   1.314  1.00  0.00    -0.387 OA
ATOM     25  H   UNL     1     -10.530  40.555   1.892  1.00  0.00     0.211 HD
ENDBRANCH   3  24
BRANCH   5  26
ATOM     26  O   UNL     1     -11.135  39.434  -2.676  1.00  0.00    -0.454 OA
BRANCH  26  27
ATOM     27  C   UNL     1     -10.685  39.751  -3.963  1.00  0.00     0.214 A 
ATOM     28  C   UNL     1     -10.388  38.746  -4.901  1.00  0.00     0.180 A 
ATOM     29  C   UNL     1     -10.604  41.090  -4.367  1.00  0.00     0.239 A 
ATOM     30  O   UNL     1     -10.046  39.072  -6.144  1.00  0.00    -0.452 OA
ATOM     31  C   UNL     1     -10.224  41.403  -5.688  1.00  0.00     0.111 A 
ATOM     32  O   UNL     1     -10.889  42.001  -3.544  1.00  0.00    -0.285 OA
ATOM     33  C   UNL     1      -9.952  40.329  -6.567  1.00  0.00     0.146 A 
ATOM     34  C   UNL     1     -10.120  42.731  -6.168  1.00  0.00     0.134 A 
ATOM     35  C   UNL     1      -9.588  40.579  -7.893  1.00  0.00     0.094 A 
ATOM     36  C   UNL     1      -9.756  42.962  -7.502  1.00  0.00     0.093 A 
ATOM     37  C   UNL     1      -9.493  41.892  -8.364  1.00  0.00     0.123 A 
BRANCH  28  38
ATOM     38  C   UNL     1     -10.485  37.318  -4.567  1.00  0.00     0.025 A 
ATOM     39  C   UNL     1     -11.725  36.731  -4.269  1.00  0.00     0.062 A 
ATOM     40  C   UNL     1      -9.306  36.565  -4.429  1.00  0.00     0.016 A 
ATOM     41  C   UNL     1     -11.789  35.393  -3.853  1.00  0.00     0.158 A 
ATOM     42  C   UNL     1      -9.369  35.233  -4.013  1.00  0.00     0.051 A 
ATOM     43  C   UNL     1     -10.604  34.640  -3.728  1.00  0.00     0.157 A 
BRANCH  41  44
ATOM     44  O   UNL     1     -13.019  34.818  -3.552  1.00  0.00    -0.504 OA
ATOM     45  H   UNL     1     -13.803  35.386  -3.245  1.00  0.00     0.293 HD
ENDBRANCH  41  44
BRANCH  43  46
ATOM     46  O   UNL     1     -10.631  33.310  -3.305  1.00  0.00    -0.504 OA
ATOM     47  H   UNL     1     -10.044  32.979  -2.545  1.00  0.00     0.293 HD
ENDBRANCH  43  46
ENDBRANCH  28  38
BRANCH  34  48
ATOM     48  O   UNL     1     -10.376  43.819  -5.331  1.00  0.00    -0.507 OA
ATOM     49  H   UNL     1     -11.323  44.108  -5.104  1.00  0.00     0.293 HD
ENDBRANCH  34  48
BRANCH  37  50
ATOM     50  O   UNL     1      -9.133  42.119  -9.691  1.00  0.00    -0.508 OA
ATOM     51  H   UNL     1      -8.343  42.706  -9.931  1.00  0.00     0.293 HD
ENDBRANCH  37  50
ENDBRANCH  26  27
ENDBRANCH   5  26
BRANCH   4  52
ATOM     52  O   UNL     1      -9.577  41.163  -1.032  1.00  0.00    -0.384 OA
ATOM     53  H   UNL     1      -8.689  40.954  -1.420  1.00  0.00     0.211 HD
ENDBRANCH   4  52
TORSDOF 16
ENDMDL
MODEL 4
REMARK VINA RESULT:    -6.038      1.870      5.670
REMARK INTER + INTRA:         -12.640
REMARK INTER:                 -11.154
REMARK INTRA:                  -1.485
REMARK UNBOUND:                -2.719
REMARK SMILES C[C@H]1O[C@H](OC[C@@H]2O[C@@H](Oc3c(-c4ccc(O)c(O)c4)oc4cc(O)cc(O)c4c3=O)[C@@H](O)[C@H](O)[C@H]2O)[C@@H](O)[C@H](O)[C@@H]1O
REMARK SMILES IDX 7 1 36 2 34 3 32 4 9 5 8 6 6 7 5 8 4 9 1 10 2 11 42 12 3 13
REMARK SMILES IDX 40 14 38 15 43 16 41 18 39 20 37 22 35 24 10 26 11 27 12 28
REMARK SMILES IDX 30 29 21 30 29 31 31 32 22 33 27 34 23 35 26 36 24 37 13 38
REMARK SMILES IDX 20 39 14 40 18 41 15 42 16 43 19 44 17 46 28 48 25 50 33 52
REMARK H PARENT 43 17 41 19 39 21 37 23 35 25 19 45 17 47 28 49 25 51 33 53
REMARK Flexibility Score: inf
ROOT
ATOM      1  C   UNL     1     -13.319  35.500   0.740  1.00  0.00     0.180 C 
ATOM      2  C   UNL     1     -14.299  34.443   1.312  1.00  0.00     0.177 C 
ATOM      3  C   UNL     1     -15.657  35.093   1.639  1.00  0.00     0.180 C 
ATOM      4  C   UNL     1     -15.447  36.360   2.477  1.00  0.00     0.214 C 
ATOM      5  C   UNL     1     -14.430  37.291   1.790  1.00  0.00     0.339 C 
ATOM      6  O   UNL     1     -13.193  36.621   1.607  1.00  0.00    -0.332 OA
ENDROOT
BRANCH   1   7
ATOM      7  C   UNL     1     -11.917  34.889   0.475  1.00  0.00     0.198 C 
BRANCH   7   8
ATOM      8  O   UNL     1     -11.328  35.329  -0.740  1.00  0.00    -0.347 OA
BRANCH   8   9
ATOM      9  C   UNL     1     -11.636  34.461  -1.823  1.00  0.00     0.281 C 
ATOM     10  C   UNL     1     -12.471  36.901  -4.456  1.00  0.00     0.041 C 
ATOM     11  C   UNL     1     -11.586  36.170  -3.443  1.00  0.00     0.150 C 
ATOM     12  C   UNL     1     -10.318  35.608  -4.129  1.00  0.00     0.174 C 
ATOM     13  O   UNL     1     -12.348  35.123  -2.865  1.00  0.00    -0.344 OA
ATOM     14  C   UNL     1      -9.473  34.828  -3.109  1.00  0.00     0.179 C 
ATOM     15  C   UNL     1     -10.348  33.806  -2.362  1.00  0.00     0.202 C 
BRANCH  12  16
ATOM     16  O   UNL     1      -9.563  36.663  -4.675  1.00  0.00    -0.388 OA
ATOM     17  H   UNL     1      -8.882  36.248  -5.266  1.00  0.00     0.211 HD
ENDBRANCH  12  16
BRANCH  14  18
ATOM     18  O   UNL     1      -8.887  35.721  -2.195  1.00  0.00    -0.387 OA
ATOM     19  H   UNL     1      -8.051  35.299  -1.868  1.00  0.00     0.211 HD
ENDBRANCH  14  18
BRANCH  15  20
ATOM     20  O   UNL     1     -10.702  32.760  -3.230  1.00  0.00    -0.385 OA
ATOM     21  H   UNL     1     -10.113  32.833  -4.024  1.00  0.00     0.211 HD
ENDBRANCH  15  20
ENDBRANCH   8   9
ENDBRANCH   7   8
ENDBRANCH   1   7
BRANCH   2  22
ATOM     22  O   UNL     1     -14.490  33.422   0.361  1.00  0.00    -0.387 OA
ATOM     23  H   UNL     1     -15.122  33.769  -0.321  1.00  0.00     0.211 HD
ENDBRANCH   2  22
BRANCH   3  24
ATOM     24  O   UNL     1     -16.455  34.193   2.367  1.00  0.00    -0.387 OA
ATOM     25  H   UNL     1     -15.880  33.416   2.594  1.00  0.00     0.211 HD
ENDBRANCH   3  24
BRANCH   5  26
ATOM     26  O   UNL     1     -14.933  37.777   0.538  1.00  0.00    -0.454 OA
BRANCH  26  27
ATOM     27  C   UNL     1     -14.168  38.527  -0.363  1.00  0.00     0.214 A 
ATOM     28  C   UNL     1     -14.408  38.472  -1.748  1.00  0.00     0.180 A 
ATOM     29  C   UNL     1     -13.196  39.417   0.115  1.00  0.00     0.239 A 
ATOM     30  O   UNL     1     -13.726  39.259  -2.576  1.00  0.00    -0.452 OA
ATOM     31  C   UNL     1     -12.482  40.227  -0.791  1.00  0.00     0.111 A 
ATOM     32  O   UNL     1     -12.986  39.494   1.354  1.00  0.00    -0.285 OA
ATOM     33  C   UNL     1     -12.794  40.112  -2.166  1.00  0.00     0.146 A 
ATOM     34  C   UNL     1     -11.487  41.149  -0.384  1.00  0.00     0.134 A 
ATOM     35  C   UNL     1     -12.129  40.903  -3.107  1.00  0.00     0.094 A 
ATOM     36  C   UNL     1     -10.832  41.935  -1.342  1.00  0.00     0.093 A 
ATOM     37  C   UNL     1     -11.152  41.816  -2.700  1.00  0.00     0.123 A 
BRANCH  28  38
ATOM     38  C   UNL     1     -15.435  37.592  -2.325  1.00  0.00     0.025 A 
ATOM     39  C   UNL     1     -16.530  38.126  -3.023  1.00  0.00     0.062 A 
ATOM     40  C   UNL     1     -15.378  36.212  -2.067  1.00  0.00     0.016 A 
ATOM     41  C   UNL     1     -17.553  37.282  -3.479  1.00  0.00     0.158 A 
ATOM     42  C   UNL     1     -16.397  35.371  -2.518  1.00  0.00     0.051 A 
ATOM     43  C   UNL     1     -17.484  35.896  -3.227  1.00  0.00     0.157 A 
BRANCH  41  44
ATOM     44  O   UNL     1     -18.638  37.815  -4.165  1.00  0.00    -0.504 OA
ATOM     45  H   UNL     1     -19.061  38.693  -3.879  1.00  0.00     0.293 HD
ENDBRANCH  41  44
BRANCH  43  46
ATOM     46  O   UNL     1     -18.490  35.030  -3.656  1.00  0.00    -0.504 OA
ATOM     47  H   UNL     1     -19.103  35.264  -4.432  1.00  0.00     0.293 HD
ENDBRANCH  43  46
ENDBRANCH  28  38
BRANCH  34  48
ATOM     48  O   UNL     1     -11.146  41.288   0.963  1.00  0.00    -0.507 OA
ATOM     49  H   UNL     1     -11.840  41.515   1.669  1.00  0.00     0.293 HD
ENDBRANCH  34  48
BRANCH  37  50
ATOM     50  O   UNL     1     -10.504  42.598  -3.654  1.00  0.00    -0.508 OA
ATOM     51  H   UNL     1     -10.139  42.195  -4.509  1.00  0.00     0.293 HD
ENDBRANCH  37  50
ENDBRANCH  26  27
ENDBRANCH   5  26
BRANCH   4  52
ATOM     52  O   UNL     1     -16.679  37.010   2.654  1.00  0.00    -0.384 OA
ATOM     53  H   UNL     1     -16.996  37.270   1.752  1.00  0.00     0.211 HD
ENDBRANCH   4  52
TORSDOF 16
ENDMDL
MODEL 5
REMARK VINA RESULT:    -5.950      1.899      6.778
REMARK INTER + INTRA:         -12.496
REMARK INTER:                 -10.819
REMARK INTRA:                  -1.677
REMARK UNBOUND:                -2.719
REMARK SMILES C[C@H]1O[C@H](OC[C@@H]2O[C@@H](Oc3c(-c4ccc(O)c(O)c4)oc4cc(O)cc(O)c4c3=O)[C@@H](O)[C@H](O)[C@H]2O)[C@@H](O)[C@H](O)[C@@H]1O
REMARK SMILES IDX 7 1 36 2 34 3 32 4 9 5 8 6 6 7 5 8 4 9 1 10 2 11 42 12 3 13
REMARK SMILES IDX 40 14 38 15 43 16 41 18 39 20 37 22 35 24 10 26 11 27 12 28
REMARK SMILES IDX 30 29 21 30 29 31 31 32 22 33 27 34 23 35 26 36 24 37 13 38
REMARK SMILES IDX 20 39 14 40 18 41 15 42 16 43 19 44 17 46 28 48 25 50 33 52
REMARK H PARENT 43 17 41 19 39 21 37 23 35 25 19 45 17 47 28 49 25 51 33 53
REMARK Flexibility Score: inf
ROOT
ATOM      1  C   UNL     1     -11.349  37.201  -2.577  1.00  0.00     0.180 C 
ATOM      2  C   UNL     1     -10.333  36.653  -3.612  1.00  0.00     0.177 C 
ATOM      3  C   UNL     1     -10.606  35.163  -3.895  1.00  0.00     0.180 C 
ATOM      4  C   UNL     1     -10.728  34.390  -2.577  1.00  0.00     0.214 C 
ATOM      5  C   UNL     1     -11.752  35.074  -1.649  1.00  0.00     0.339 C 
ATOM      6  O   UNL     1     -11.365  36.414  -1.392  1.00  0.00    -0.332 OA
ENDROOT
BRANCH   1   7
ATOM      7  C   UNL     1     -11.048  38.680  -2.214  1.00  0.00     0.198 C 
BRANCH   7   8
ATOM      8  O   UNL     1     -11.229  39.578  -3.299  1.00  0.00    -0.347 OA
BRANCH   8   9
ATOM      9  C   UNL     1     -12.544  39.502  -3.835  1.00  0.00     0.281 C 
ATOM     10  C   UNL     1     -13.763  42.917  -3.177  1.00  0.00     0.041 C 
ATOM     11  C   UNL     1     -12.885  41.832  -3.805  1.00  0.00     0.150 C 
ATOM     12  C   UNL     1     -12.901  41.942  -5.349  1.00  0.00     0.174 C 
ATOM     13  O   UNL     1     -13.376  40.569  -3.388  1.00  0.00    -0.344 OA
ATOM     14  C   UNL     1     -12.062  40.809  -5.963  1.00  0.00     0.179 C 
ATOM     15  C   UNL     1     -12.488  39.452  -5.376  1.00  0.00     0.202 C 
BRANCH  12  16
ATOM     16  O   UNL     1     -12.388  43.192  -5.744  1.00  0.00    -0.388 OA
ATOM     17  H   UNL     1     -13.125  43.847  -5.636  1.00  0.00     0.211 HD
ENDBRANCH  12  16
BRANCH  14  18
ATOM     18  O   UNL     1     -10.698  41.038  -5.710  1.00  0.00    -0.387 OA
ATOM     19  H   UNL     1     -10.629  41.404  -4.790  1.00  0.00     0.211 HD
ENDBRANCH  14  18
BRANCH  15  20
ATOM     20  O   UNL     1     -13.758  39.101  -5.864  1.00  0.00    -0.385 OA
ATOM     21  H   UNL     1     -13.760  39.308  -6.834  1.00  0.00     0.211 HD
ENDBRANCH  15  20
ENDBRANCH   8   9
ENDBRANCH   7   8
ENDBRANCH   1   7
BRANCH   2  22
ATOM     22  O   UNL     1     -10.450  37.382  -4.812  1.00  0.00    -0.387 OA
ATOM     23  H   UNL     1     -10.451  36.726  -5.556  1.00  0.00     0.211 HD
ENDBRANCH   2  22
BRANCH   3  24
ATOM     24  O   UNL     1      -9.551  34.618  -4.646  1.00  0.00    -0.387 OA
ATOM     25  H   UNL     1      -9.166  35.358  -5.184  1.00  0.00     0.211 HD
ENDBRANCH   3  24
BRANCH   5  26
ATOM     26  O   UNL     1     -13.071  35.026  -2.208  1.00  0.00    -0.454 OA
BRANCH  26  27
ATOM     27  C   UNL     1     -14.125  35.837  -1.771  1.00  0.00     0.214 A 
ATOM     28  C   UNL     1     -14.584  35.785  -0.442  1.00  0.00     0.180 A 
ATOM     29  C   UNL     1     -14.689  36.782  -2.638  1.00  0.00     0.239 A 
ATOM     30  O   UNL     1     -15.527  36.626  -0.027  1.00  0.00    -0.452 OA
ATOM     31  C   UNL     1     -15.697  37.649  -2.171  1.00  0.00     0.111 A 
ATOM     32  O   UNL     1     -14.273  36.856  -3.825  1.00  0.00    -0.285 OA
ATOM     33  C   UNL     1     -16.091  37.533  -0.817  1.00  0.00     0.146 A 
ATOM     34  C   UNL     1     -16.313  38.629  -2.988  1.00  0.00     0.134 A 
ATOM     35  C   UNL     1     -17.074  38.379  -0.295  1.00  0.00     0.094 A 
ATOM     36  C   UNL     1     -17.296  39.469  -2.446  1.00  0.00     0.093 A 
ATOM     37  C   UNL     1     -17.675  39.348  -1.104  1.00  0.00     0.123 A 
BRANCH  28  38
ATOM     38  C   UNL     1     -14.019  34.848   0.540  1.00  0.00     0.025 A 
ATOM     39  C   UNL     1     -12.992  35.249   1.409  1.00  0.00     0.062 A 
ATOM     40  C   UNL     1     -14.431  33.505   0.520  1.00  0.00     0.016 A 
ATOM     41  C   UNL     1     -12.394  34.316   2.269  1.00  0.00     0.158 A 
ATOM     42  C   UNL     1     -13.834  32.575   1.374  1.00  0.00     0.051 A 
ATOM     43  C   UNL     1     -12.819  32.972   2.253  1.00  0.00     0.157 A 
BRANCH  41  44
ATOM     44  O   UNL     1     -11.372  34.716   3.124  1.00  0.00    -0.504 OA
ATOM     45  H   UNL     1     -10.779  35.509   2.899  1.00  0.00     0.293 HD
ENDBRANCH  41  44
BRANCH  43  46
ATOM     46  O   UNL     1     -12.238  32.016   3.086  1.00  0.00    -0.504 OA
ATOM     47  H   UNL     1     -11.991  31.091   2.747  1.00  0.00     0.293 HD
ENDBRANCH  43  46
ENDBRANCH  28  38
BRANCH  34  48
ATOM     48  O   UNL     1     -15.956  38.772  -4.329  1.00  0.00    -0.507 OA
ATOM     49  H   UNL     1     -15.036  39.102  -4.605  1.00  0.00     0.293 HD
ENDBRANCH  34  48
BRANCH  37  50
ATOM     50  O   UNL     1     -18.650  40.184  -0.562  1.00  0.00    -0.508 OA
ATOM     51  H   UNL     1     -18.418  41.099  -0.195  1.00  0.00     0.293 HD
ENDBRANCH  37  50
ENDBRANCH  26  27
ENDBRANCH   5  26
BRANCH   4  52
ATOM     52  O   UNL     1     -11.106  33.065  -2.846  1.00  0.00    -0.384 OA
ATOM     53  H   UNL     1     -10.513  32.485  -2.304  1.00  0.00     0.211 HD
ENDBRANCH   4  52
TORSDOF 16
ENDMDL
MODEL 6
REMARK VINA RESULT:    -5.864      2.197      5.622
REMARK INTER + INTRA:         -12.353
REMARK INTER:                 -10.096
REMARK INTRA:                  -2.257
REMARK UNBOUND:                -2.719
REMARK SMILES C[C@H]1O[C@H](OC[C@@H]2O[C@@H](Oc3c(-c4ccc(O)c(O)c4)oc4cc(O)cc(O)c4c3=O)[C@@H](O)[C@H](O)[C@H]2O)[C@@H](O)[C@H](O)[C@@H]1O
REMARK SMILES IDX 7 1 36 2 34 3 32 4 9 5 8 6 6 7 5 8 4 9 1 10 2 11 42 12 3 13
REMARK SMILES IDX 40 14 38 15 43 16 41 18 39 20 37 22 35 24 10 26 11 27 12 28
REMARK SMILES IDX 30 29 21 30 29 31 31 32 22 33 27 34 23 35 26 36 24 37 13 38
REMARK SMILES IDX 20 39 14 40 18 41 15 42 16 43 19 44 17 46 28 48 25 50 33 52
REMARK H PARENT 43 17 41 19 39 21 37 23 35 25 19 45 17 47 28 49 25 51 33 53
REMARK Flexibility Score: inf
ROOT
ATOM      1  C   UNL     1     -14.903  36.059  -0.951  1.00  0.00     0.180 C 
ATOM      2  C   UNL     1     -16.230  35.359  -0.557  1.00  0.00     0.177 C 
ATOM      3  C   UNL     1     -16.895  36.096   0.621  1.00  0.00     0.180 C 
ATOM      4  C   UNL     1     -15.877  36.321   1.745  1.00  0.00     0.214 C 
ATOM      5  C   UNL     1     -14.608  36.997   1.189  1.00  0.00     0.339 C 
ATOM      6  O   UNL     1     -14.034  36.200   0.166  1.00  0.00    -0.332 OA
ENDROOT
BRANCH   1   7
ATOM      7  C   UNL     1     -14.171  35.292  -2.085  1.00  0.00     0.198 C 
BRANCH   7   8
ATOM      8  O   UNL     1     -12.789  35.602  -2.178  1.00  0.00    -0.347 OA
BRANCH   8   9
ATOM      9  C   UNL     1     -12.288  35.399  -3.494  1.00  0.00     0.281 C 
ATOM     10  C   UNL     1     -12.327  38.847  -4.794  1.00  0.00     0.041 C 
ATOM     11  C   UNL     1     -11.898  37.687  -3.892  1.00  0.00     0.150 C 
ATOM     12  C   UNL     1     -10.360  37.514  -3.919  1.00  0.00     0.174 C 
ATOM     13  O   UNL     1     -12.542  36.510  -4.349  1.00  0.00    -0.344 OA
ATOM     14  C   UNL     1      -9.954  36.309  -3.054  1.00  0.00     0.179 C 
ATOM     15  C   UNL     1     -10.781  35.071  -3.443  1.00  0.00     0.202 C 
BRANCH  12  16
ATOM     16  O   UNL     1      -9.740  38.683  -3.439  1.00  0.00    -0.388 OA
ATOM     17  H   UNL     1      -9.722  39.325  -4.195  1.00  0.00     0.211 HD
ENDBRANCH  12  16
BRANCH  14  18
ATOM     18  O   UNL     1     -10.149  36.612  -1.695  1.00  0.00    -0.387 OA
ATOM     19  H   UNL     1      -9.704  35.897  -1.170  1.00  0.00     0.211 HD
ENDBRANCH  14  18
BRANCH  15  20
ATOM     20  O   UNL     1     -10.378  34.608  -4.707  1.00  0.00    -0.385 OA
ATOM     21  H   UNL     1     -10.613  35.315  -5.361  1.00  0.00     0.211 HD
ENDBRANCH  15  20
ENDBRANCH   8   9
ENDBRANCH   7   8
ENDBRANCH   1   7
BRANCH   2  22
ATOM     22  O   UNL     1     -17.105  35.364  -1.661  1.00  0.00    -0.387 OA
ATOM     23  H   UNL     1     -18.022  35.499  -1.309  1.00  0.00     0.211 HD
ENDBRANCH   2  22
BRANCH   3  24
ATOM     24  O   UNL     1     -17.963  35.332   1.121  1.00  0.00    -0.387 OA
ATOM     25  H   UNL     1     -18.582  35.168   0.362  1.00  0.00     0.211 HD
ENDBRANCH   3  24
BRANCH   5  26
ATOM     26  O   UNL     1     -14.893  38.316   0.704  1.00  0.00    -0.454 OA
BRANCH  26  27
ATOM     27  C   UNL     1     -13.956  39.111   0.034  1.00  0.00     0.214 A 
ATOM     28  C   UNL     1     -14.217  39.624  -1.250  1.00  0.00     0.180 A 
ATOM     29  C   UNL     1     -12.766  39.481   0.675  1.00  0.00     0.239 A 
ATOM     30  O   UNL     1     -13.349  40.448  -1.829  1.00  0.00    -0.452 OA
ATOM     31  C   UNL     1     -11.860  40.345   0.027  1.00  0.00     0.111 A 
ATOM     32  O   UNL     1     -12.529  39.048   1.834  1.00  0.00    -0.285 OA
ATOM     33  C   UNL     1     -12.207  40.819  -1.260  1.00  0.00     0.146 A 
ATOM     34  C   UNL     1     -10.639  40.762   0.610  1.00  0.00     0.134 A 
ATOM     35  C   UNL     1     -11.355  41.693  -1.942  1.00  0.00     0.094 A 
ATOM     36  C   UNL     1      -9.798  41.640  -0.088  1.00  0.00     0.093 A 
ATOM     37  C   UNL     1     -10.153  42.107  -1.359  1.00  0.00     0.123 A 
BRANCH  28  38
ATOM     38  C   UNL     1     -15.458  39.314  -1.973  1.00  0.00     0.025 A 
ATOM     39  C   UNL     1     -16.710  39.652  -1.433  1.00  0.00     0.062 A 
ATOM     40  C   UNL     1     -15.391  38.563  -3.159  1.00  0.00     0.016 A 
ATOM     41  C   UNL     1     -17.887  39.259  -2.086  1.00  0.00     0.158 A 
ATOM     42  C   UNL     1     -16.563  38.170  -3.808  1.00  0.00     0.051 A 
ATOM     43  C   UNL     1     -17.813  38.516  -3.282  1.00  0.00     0.157 A 
BRANCH  41  44
ATOM     44  O   UNL     1     -19.124  39.591  -1.544  1.00  0.00    -0.504 OA
ATOM     45  H   UNL     1     -19.372  40.556  -1.350  1.00  0.00     0.293 HD
ENDBRANCH  41  44
BRANCH  43  46
ATOM     46  O   UNL     1     -18.964  38.099  -3.950  1.00  0.00    -0.504 OA
ATOM     47  H   UNL     1     -19.878  38.490  -3.737  1.00  0.00     0.293 HD
ENDBRANCH  43  46
ENDBRANCH  28  38
BRANCH  34  48
ATOM     48  O   UNL     1     -10.258  40.312   1.876  1.00  0.00    -0.507 OA
ATOM     49  H   UNL     1     -10.618  40.737   2.725  1.00  0.00     0.293 HD
ENDBRANCH  34  48
BRANCH  37  50
ATOM     50  O   UNL     1      -9.320  42.981  -2.054  1.00  0.00    -0.508 OA
ATOM     51  H   UNL     1      -9.663  43.535  -2.830  1.00  0.00     0.293 HD
ENDBRANCH  37  50
ENDBRANCH  26  27
ENDBRANCH   5  26
BRANCH   4  52
ATOM     52  O   UNL     1     -16.460  37.106   2.752  1.00  0.00    -0.384 OA
ATOM     53  H   UNL     1     -17.031  37.775   2.295  1.00  0.00     0.211 HD
ENDBRANCH   4  52
TORSDOF 16
ENDMDL
MODEL 7
REMARK VINA RESULT:    -5.844      2.014      4.040
REMARK INTER + INTRA:         -12.321
REMARK INTER:                  -9.977
REMARK INTRA:                  -2.344
REMARK UNBOUND:                -2.719
REMARK SMILES C[C@H]1O[C@H](OC[C@@H]2O[C@@H](Oc3c(-c4ccc(O)c(O)c4)oc4cc(O)cc(O)c4c3=O)[C@@H](O)[C@H](O)[C@H]2O)[C@@H](O)[C@H](O)[C@@H]1O
REMARK SMILES IDX 7 1 36 2 34 3 32 4 9 5 8 6 6 7 5 8 4 9 1 10 2 11 42 12 3 13
REMARK SMILES IDX 40 14 38 15 43 16 41 18 39 20 37 22 35 24 10 26 11 27 12 28
REMARK SMILES IDX 30 29 21 30 29 31 31 32 22 33 27 34 23 35 26 36 24 37 13 38
REMARK SMILES IDX 20 39 14 40 18 41 15 42 16 43 19 44 17 46 28 48 25 50 33 52
REMARK H PARENT 43 17 41 19 39 21 37 23 35 25 19 45 17 47 28 49 25 51 33 53
REMARK Flexibility Score: inf
ROOT
ATOM      1  C   UNL     1     -15.427  38.124  -2.740  1.00  0.00     0.180 C 
ATOM      2  C   UNL     1     -16.759  38.645  -3.336  1.00  0.00     0.177 C 
ATOM      3  C   UNL     1     -17.883  37.614  -3.121  1.00  0.00     0.180 C 
ATOM      4  C   UNL     1     -17.420  36.226  -3.581  1.00  0.00     0.214 C 
ATOM      5  C   UNL     1     -16.074  35.868  -2.923  1.00  0.00     0.339 C 
ATOM      6  O   UNL     1     -15.092  36.839  -3.248  1.00  0.00    -0.332 OA
ENDROOT
BRANCH   1   7
ATOM      7  C   UNL     1     -14.259  39.110  -3.012  1.00  0.00     0.198 C 
BRANCH   7   8
ATOM      8  O   UNL     1     -13.043  38.737  -2.380  1.00  0.00    -0.347 OA
BRANCH   8   9
ATOM      9  C   UNL     1     -11.907  39.153  -3.127  1.00  0.00     0.281 C 
ATOM     10  C   UNL     1      -9.177  37.744  -1.092  1.00  0.00     0.041 C 
ATOM     11  C   UNL     1     -10.414  37.728  -1.994  1.00  0.00     0.150 C 
ATOM     12  C   UNL     1     -10.169  36.843  -3.240  1.00  0.00     0.174 C 
ATOM     13  O   UNL     1     -10.700  39.063  -2.377  1.00  0.00    -0.344 OA
ATOM     14  C   UNL     1     -11.399  36.886  -4.163  1.00  0.00     0.179 C 
ATOM     15  C   UNL     1     -11.808  38.344  -4.437  1.00  0.00     0.202 C 
BRANCH  12  16
ATOM     16  O   UNL     1      -9.912  35.518  -2.842  1.00  0.00    -0.388 OA
ATOM     17  H   UNL     1     -10.794  35.098  -2.667  1.00  0.00     0.211 HD
ENDBRANCH  12  16
BRANCH  14  18
ATOM     18  O   UNL     1     -12.465  36.190  -3.566  1.00  0.00    -0.387 OA
ATOM     19  H   UNL     1     -12.809  35.549  -4.240  1.00  0.00     0.211 HD
ENDBRANCH  14  18
BRANCH  15  20
ATOM     20  O   UNL     1     -10.859  38.954  -5.274  1.00  0.00    -0.385 OA
ATOM     21  H   UNL     1      -9.966  38.670  -4.950  1.00  0.00     0.211 HD
ENDBRANCH  15  20
ENDBRANCH   8   9
ENDBRANCH   7   8
ENDBRANCH   1   7
BRANCH   2  22
ATOM     22  O   UNL     1     -17.112  39.854  -2.705  1.00  0.00    -0.387 OA
ATOM     23  H   UNL     1     -17.992  40.132  -3.070  1.00  0.00     0.211 HD
ENDBRANCH   2  22
BRANCH   3  24
ATOM     24  O   UNL     1     -19.020  37.983  -3.861  1.00  0.00    -0.387 OA
ATOM     25  H   UNL     1     -19.700  38.295  -3.209  1.00  0.00     0.211 HD
ENDBRANCH   3  24
BRANCH   5  26
ATOM     26  O   UNL     1     -16.208  35.739  -1.501  1.00  0.00    -0.454 OA
BRANCH  26  27
ATOM     27  C   UNL     1     -15.119  35.694  -0.624  1.00  0.00     0.214 A 
ATOM     28  C   UNL     1     -15.158  36.341   0.625  1.00  0.00     0.180 A 
ATOM     29  C   UNL     1     -13.992  34.924  -0.945  1.00  0.00     0.239 A 
ATOM     30  O   UNL     1     -14.145  36.211   1.477  1.00  0.00    -0.452 OA
ATOM     31  C   UNL     1     -12.930  34.819  -0.024  1.00  0.00     0.111 A 
ATOM     32  O   UNL     1     -13.953  34.320  -2.049  1.00  0.00    -0.285 OA
ATOM     33  C   UNL     1     -13.058  35.496   1.211  1.00  0.00     0.146 A 
ATOM     34  C   UNL     1     -11.761  34.060  -0.278  1.00  0.00     0.134 A 
ATOM     35  C   UNL     1     -12.043  35.412   2.168  1.00  0.00     0.094 A 
ATOM     36  C   UNL     1     -10.755  33.986   0.695  1.00  0.00     0.093 A 
ATOM     37  C   UNL     1     -10.893  34.656   1.916  1.00  0.00     0.123 A 
BRANCH  28  38
ATOM     38  C   UNL     1     -16.318  37.137   1.052  1.00  0.00     0.025 A 
ATOM     39  C   UNL     1     -16.715  38.275   0.330  1.00  0.00     0.062 A 
ATOM     40  C   UNL     1     -16.958  36.820   2.262  1.00  0.00     0.016 A 
ATOM     41  C   UNL     1     -17.760  39.080   0.806  1.00  0.00     0.158 A 
ATOM     42  C   UNL     1     -17.996  37.623   2.738  1.00  0.00     0.051 A 
ATOM     43  C   UNL     1     -18.405  38.751   2.015  1.00  0.00     0.157 A 
BRANCH  41  44
ATOM     44  O   UNL     1     -18.145  40.209   0.092  1.00  0.00    -0.504 OA
ATOM     45  H   UNL     1     -18.073  40.241  -0.920  1.00  0.00     0.293 HD
ENDBRANCH  41  44
BRANCH  43  46
ATOM     46  O   UNL     1     -19.440  39.537   2.524  1.00  0.00    -0.504 OA
ATOM     47  H   UNL     1     -19.599  39.630   3.523  1.00  0.00     0.293 HD
ENDBRANCH  43  46
ENDBRANCH  28  38
BRANCH  34  48
ATOM     48  O   UNL     1     -11.595  33.381  -1.487  1.00  0.00    -0.507 OA
ATOM     49  H   UNL     1     -10.767  32.825  -1.678  1.00  0.00     0.293 HD
ENDBRANCH  34  48
BRANCH  37  50
ATOM     50  O   UNL     1      -9.895  34.583   2.885  1.00  0.00    -0.508 OA
ATOM     51  H   UNL     1      -9.495  35.418   3.296  1.00  0.00     0.293 HD
ENDBRANCH  37  50
ENDBRANCH  26  27
ENDBRANCH   5  26
BRANCH   4  52
ATOM     52  O   UNL     1     -18.403  35.277  -3.258  1.00  0.00    -0.384 OA
ATOM     53  H   UNL     1     -19.229  35.551  -3.731  1.00  0.00     0.211 HD
ENDBRANCH   4  52
TORSDOF 16
ENDMDL
MODEL 8
REMARK VINA RESULT:    -5.792      2.230      7.281
REMARK INTER + INTRA:         -12.236
REMARK INTER:                 -10.156
REMARK INTRA:                  -2.080
REMARK UNBOUND:                -2.719
REMARK SMILES C[C@H]1O[C@H](OC[C@@H]2O[C@@H](Oc3c(-c4ccc(O)c(O)c4)oc4cc(O)cc(O)c4c3=O)[C@@H](O)[C@H](O)[C@H]2O)[C@@H](O)[C@H](O)[C@@H]1O
REMARK SMILES IDX 7 1 36 2 34 3 32 4 9 5 8 6 6 7 5 8 4 9 1 10 2 11 42 12 3 13
REMARK SMILES IDX 40 14 38 15 43 16 41 18 39 20 37 22 35 24 10 26 11 27 12 28
REMARK SMILES IDX 30 29 21 30 29 31 31 32 22 33 27 34 23 35 26 36 24 37 13 38
REMARK SMILES IDX 20 39 14 40 18 41 15 42 16 43 19 44 17 46 28 48 25 50 33 52
REMARK H PARENT 43 17 41 19 39 21 37 23 35 25 19 45 17 47 28 49 25 51 33 53
REMARK Flexibility Score: inf
ROOT
ATOM      1  C   UNL     1     -14.530  37.909   0.236  1.00  0.00     0.180 C 
ATOM      2  C   UNL     1     -16.078  37.984   0.227  1.00  0.00     0.177 C 
ATOM      3  C   UNL     1     -16.579  38.592  -1.096  1.00  0.00     0.180 C 
ATOM      4  C   UNL     1     -15.826  39.894  -1.396  1.00  0.00     0.214 C 
ATOM      5  C   UNL     1     -14.305  39.660  -1.322  1.00  0.00     0.339 C 
ATOM      6  O   UNL     1     -13.943  39.175  -0.039  1.00  0.00    -0.332 OA
ENDROOT
BRANCH   1   7
ATOM      7  C   UNL     1     -13.995  37.372   1.590  1.00  0.00     0.198 C 
BRANCH   7   8
ATOM      8  O   UNL     1     -14.249  35.989   1.792  1.00  0.00    -0.347 OA
BRANCH   8   9
ATOM      9  C   UNL     1     -13.699  35.192   0.751  1.00  0.00     0.281 C 
ATOM     10  C   UNL     1     -10.926  33.538   2.526  1.00  0.00     0.041 C 
ATOM     11  C   UNL     1     -12.380  33.886   2.200  1.00  0.00     0.150 C 
ATOM     12  C   UNL     1     -13.205  32.602   1.942  1.00  0.00     0.174 C 
ATOM     13  O   UNL     1     -12.389  34.725   1.057  1.00  0.00    -0.344 OA
ATOM     14  C   UNL     1     -14.647  32.974   1.559  1.00  0.00     0.179 C 
ATOM     15  C   UNL     1     -14.645  34.017   0.427  1.00  0.00     0.202 C 
BRANCH  12  16
ATOM     16  O   UNL     1     -13.205  31.795   3.095  1.00  0.00    -0.388 OA
ATOM     17  H   UNL     1     -13.285  30.856   2.783  1.00  0.00     0.211 HD
ENDBRANCH  12  16
BRANCH  14  18
ATOM     18  O   UNL     1     -15.321  33.483   2.683  1.00  0.00    -0.387 OA
ATOM     19  H   UNL     1     -14.873  34.333   2.932  1.00  0.00     0.211 HD
ENDBRANCH  14  18
BRANCH  15  20
ATOM     20  O   UNL     1     -14.225  33.416  -0.772  1.00  0.00    -0.385 OA
ATOM     21  H   UNL     1     -13.469  32.817  -0.543  1.00  0.00     0.211 HD
ENDBRANCH  15  20
ENDBRANCH   8   9
ENDBRANCH   7   8
ENDBRANCH   1   7
BRANCH   2  22
ATOM     22  O   UNL     1     -16.609  36.687   0.372  1.00  0.00    -0.387 OA
ATOM     23  H   UNL     1     -17.562  36.726   0.097  1.00  0.00     0.211 HD
ENDBRANCH   2  22
BRANCH   3  24
ATOM     24  O   UNL     1     -17.953  38.872  -1.005  1.00  0.00    -0.387 OA
ATOM     25  H   UNL     1     -18.403  38.347  -1.718  1.00  0.00     0.211 HD
ENDBRANCH   3  24
BRANCH   5  26
ATOM     26  O   UNL     1     -13.868  38.758  -2.347  1.00  0.00    -0.454 OA
BRANCH  26  27
ATOM     27  C   UNL     1     -12.944  39.106  -3.340  1.00  0.00     0.214 A 
ATOM     28  C   UNL     1     -12.060  38.155  -3.881  1.00  0.00     0.180 A 
ATOM     29  C   UNL     1     -12.943  40.402  -3.873  1.00  0.00     0.239 A 
ATOM     30  O   UNL     1     -11.251  38.489  -4.883  1.00  0.00    -0.452 OA
ATOM     31  C   UNL     1     -12.064  40.727  -4.925  1.00  0.00     0.111 A 
ATOM     32  O   UNL     1     -13.745  41.258  -3.413  1.00  0.00    -0.285 OA
ATOM     33  C   UNL     1     -11.215  39.707  -5.414  1.00  0.00     0.146 A 
ATOM     34  C   UNL     1     -12.006  42.014  -5.514  1.00  0.00     0.134 A 
ATOM     35  C   UNL     1     -10.335  39.968  -6.468  1.00  0.00     0.094 A 
ATOM     36  C   UNL     1     -11.119  42.256  -6.572  1.00  0.00     0.093 A 
ATOM     37  C   UNL     1     -10.287  41.238  -7.051  1.00  0.00     0.123 A 
BRANCH  28  38
ATOM     38  C   UNL     1     -12.024  36.766  -3.403  1.00  0.00     0.025 A 
ATOM     39  C   UNL     1     -11.158  36.384  -2.365  1.00  0.00     0.062 A 
ATOM     40  C   UNL     1     -12.779  35.790  -4.075  1.00  0.00     0.016 A 
ATOM     41  C   UNL     1     -11.062  35.037  -1.989  1.00  0.00     0.158 A 
ATOM     42  C   UNL     1     -12.682  34.448  -3.703  1.00  0.00     0.051 A 
ATOM     43  C   UNL     1     -11.831  34.064  -2.660  1.00  0.00     0.157 A 
BRANCH  41  44
ATOM     44  O   UNL     1     -10.199  34.662  -0.965  1.00  0.00    -0.504 OA
ATOM     45  H   UNL     1     -10.108  33.690  -0.683  1.00  0.00     0.293 HD
ENDBRANCH  41  44
BRANCH  43  46
ATOM     46  O   UNL     1     -11.750  32.713  -2.319  1.00  0.00    -0.504 OA
ATOM     47  H   UNL     1     -11.110  32.080  -2.790  1.00  0.00     0.293 HD
ENDBRANCH  43  46
ENDBRANCH  28  38
BRANCH  34  48
ATOM     48  O   UNL     1     -12.824  43.049  -5.057  1.00  0.00    -0.507 OA
ATOM     49  H   UNL     1     -12.886  43.937  -5.546  1.00  0.00     0.293 HD
ENDBRANCH  34  48
BRANCH  37  50
ATOM     50  O   UNL     1      -9.405  41.476  -8.103  1.00  0.00    -0.508 OA
ATOM     51  H   UNL     1      -9.280  42.404  -8.489  1.00  0.00     0.293 HD
ENDBRANCH  37  50
ENDBRANCH  26  27
ENDBRANCH   5  26
BRANCH   4  52
ATOM     52  O   UNL     1     -16.198  40.366  -2.665  1.00  0.00    -0.384 OA
ATOM     53  H   UNL     1     -16.663  41.229  -2.521  1.00  0.00     0.211 HD
ENDBRANCH   4  52
TORSDOF 16
ENDMDL
MODEL 9
REMARK VINA RESULT:    -5.617      2.322      4.501
REMARK INTER + INTRA:         -11.947
REMARK INTER:                  -9.222
REMARK INTRA:                  -2.725
REMARK UNBOUND:                -2.719
REMARK SMILES C[C@H]1O[C@H](OC[C@@H]2O[C@@H](Oc3c(-c4ccc(O)c(O)c4)oc4cc(O)cc(O)c4c3=O)[C@@H](O)[C@H](O)[C@H]2O)[C@@H](O)[C@H](O)[C@@H]1O
REMARK SMILES IDX 7 1 36 2 34 3 32 4 9 5 8 6 6 7 5 8 4 9 1 10 2 11 42 12 3 13
REMARK SMILES IDX 40 14 38 15 43 16 41 18 39 20 37 22 35 24 10 26 11 27 12 28
REMARK SMILES IDX 30 29 21 30 29 31 31 32 22 33 27 34 23 35 26 36 24 37 13 38
REMARK SMILES IDX 20 39 14 40 18 41 15 42 16 43 19 44 17 46 28 48 25 50 33 52
REMARK H PARENT 43 17 41 19 39 21 37 23 35 25 19 45 17 47 28 49 25 51 33 53
REMARK Flexibility Score: inf
ROOT
ATOM      1  C   UNL     1     -10.729  38.596   0.107  1.00  0.00     0.180 C 
ATOM      2  C   UNL     1      -9.910  39.553   1.011  1.00  0.00     0.177 C 
ATOM      3  C   UNL     1     -10.474  40.984   0.925  1.00  0.00     0.180 C 
ATOM      4  C   UNL     1     -10.640  41.399  -0.541  1.00  0.00     0.214 C 
ATOM      5  C   UNL     1     -11.449  40.335  -1.309  1.00  0.00     0.339 C 
ATOM      6  O   UNL     1     -10.803  39.074  -1.231  1.00  0.00    -0.332 OA
ENDROOT
BRANCH   1   7
ATOM      7  C   UNL     1     -10.135  37.162   0.113  1.00  0.00     0.198 C 
BRANCH   7   8
ATOM      8  O   UNL     1     -11.068  36.160  -0.262  1.00  0.00    -0.347 OA
BRANCH   8   9
ATOM      9  C   UNL     1     -10.449  35.101  -0.981  1.00  0.00     0.281 C 
ATOM     10  C   UNL     1     -13.373  33.017  -1.811  1.00  0.00     0.041 C 
ATOM     11  C   UNL     1     -12.474  34.256  -1.837  1.00  0.00     0.150 C 
ATOM     12  C   UNL     1     -12.130  34.652  -3.293  1.00  0.00     0.174 C 
ATOM     13  O   UNL     1     -11.295  33.961  -1.107  1.00  0.00    -0.344 OA
ATOM     14  C   UNL     1     -11.180  35.861  -3.296  1.00  0.00     0.179 C 
ATOM     15  C   UNL     1      -9.983  35.600  -2.365  1.00  0.00     0.202 C 
BRANCH  12  16
ATOM     16  O   UNL     1     -13.311  34.965  -3.994  1.00  0.00    -0.388 OA
ATOM     17  H   UNL     1     -13.031  35.284  -4.891  1.00  0.00     0.211 HD
ENDBRANCH  12  16
BRANCH  14  18
ATOM     18  O   UNL     1     -11.873  37.012  -2.880  1.00  0.00    -0.387 OA
ATOM     19  H   UNL     1     -11.201  37.637  -2.502  1.00  0.00     0.211 HD
ENDBRANCH  14  18
BRANCH  15  20
ATOM     20  O   UNL     1      -9.141  34.631  -2.934  1.00  0.00    -0.385 OA
ATOM     21  H   UNL     1      -9.405  34.545  -3.886  1.00  0.00     0.211 HD
ENDBRANCH  15  20
ENDBRANCH   8   9
ENDBRANCH   7   8
ENDBRANCH   1   7
BRANCH   2  22
ATOM     22  O   UNL     1      -9.979  39.106   2.345  1.00  0.00    -0.387 OA
ATOM     23  H   UNL     1      -9.048  38.954   2.653  1.00  0.00     0.211 HD
ENDBRANCH   2  22
BRANCH   3  24
ATOM     24  O   UNL     1      -9.595  41.883   1.555  1.00  0.00    -0.387 OA
ATOM     25  H   UNL     1     -10.129  42.389   2.222  1.00  0.00     0.211 HD
ENDBRANCH   3  24
BRANCH   5  26
ATOM     26  O   UNL     1     -12.792  40.248  -0.814  1.00  0.00    -0.454 OA
BRANCH  26  27
ATOM     27  C   UNL     1     -13.770  39.419  -1.377  1.00  0.00     0.214 A 
ATOM     28  C   UNL     1     -14.227  39.617  -2.692  1.00  0.00     0.180 A 
ATOM     29  C   UNL     1     -14.252  38.317  -0.658  1.00  0.00     0.239 A 
ATOM     30  O   UNL     1     -15.092  38.765  -3.235  1.00  0.00    -0.452 OA
ATOM     31  C   UNL     1     -15.180  37.441  -1.257  1.00  0.00     0.111 A 
ATOM     32  O   UNL     1     -13.835  38.114   0.513  1.00  0.00    -0.285 OA
ATOM     33  C   UNL     1     -15.578  37.711  -2.587  1.00  0.00     0.146 A 
ATOM     34  C   UNL     1     -15.711  36.307  -0.594  1.00  0.00     0.134 A 
ATOM     35  C   UNL     1     -16.482  36.866  -3.237  1.00  0.00     0.094 A 
ATOM     36  C   UNL     1     -16.614  35.470  -1.263  1.00  0.00     0.093 A 
ATOM     37  C   UNL     1     -16.998  35.744  -2.581  1.00  0.00     0.123 A 
BRANCH  28  38
ATOM     38  C   UNL     1     -13.742  40.727  -3.525  1.00  0.00     0.025 A 
ATOM     39  C   UNL     1     -14.140  42.049  -3.264  1.00  0.00     0.062 A 
ATOM     40  C   UNL     1     -12.970  40.443  -4.664  1.00  0.00     0.016 A 
ATOM     41  C   UNL     1     -13.751  43.084  -4.127  1.00  0.00     0.158 A 
ATOM     42  C   UNL     1     -12.585  41.473  -5.525  1.00  0.00     0.051 A 
ATOM     43  C   UNL     1     -12.967  42.794  -5.262  1.00  0.00     0.157 A 
BRANCH  41  44
ATOM     44  O   UNL     1     -14.152  44.390  -3.869  1.00  0.00    -0.504 OA
ATOM     45  H   UNL     1     -14.397  45.023  -4.624  1.00  0.00     0.293 HD
ENDBRANCH  41  44
BRANCH  43  46
ATOM     46  O   UNL     1     -12.573  43.798  -6.148  1.00  0.00    -0.504 OA
ATOM     47  H   UNL     1     -12.931  44.746  -6.075  1.00  0.00     0.293 HD
ENDBRANCH  43  46
ENDBRANCH  28  38
BRANCH  34  48
ATOM     48  O   UNL     1     -15.346  36.008   0.720  1.00  0.00    -0.507 OA
ATOM     49  H   UNL     1     -15.736  35.212   1.215  1.00  0.00     0.293 HD
ENDBRANCH  34  48
BRANCH  37  50
ATOM     50  O   UNL     1     -17.895  34.912  -3.248  1.00  0.00    -0.508 OA
ATOM     51  H   UNL     1     -18.141  35.070  -4.219  1.00  0.00     0.293 HD
ENDBRANCH  37  50
ENDBRANCH  26  27
ENDBRANCH   5  26
BRANCH   4  52
ATOM     52  O   UNL     1     -11.275  42.649  -0.603  1.00  0.00    -0.384 OA
ATOM     53  H   UNL     1     -11.547  42.783  -1.547  1.00  0.00     0.211 HD
ENDBRANCH   4  52
TORSDOF 16
ENDMDL
