MODEL 1
REMARK VINA RESULT:    -3.080      0.000      0.000
REMARK INTER + INTRA:          -3.492
REMARK INTER:                  -3.440
REMARK INTRA:                  -0.052
REMARK UNBOUND:                -0.052
REMARK SMILES CCCC(=O)[O-]
REMARK SMILES IDX 3 1 4 2 5 3 6 4 2 5 1 6
REMARK H PARENT
REMARK Flexibility Score: inf
ROOT
ATOM      1  C   UNL     1      16.277 -38.125  27.767  1.00  0.00     0.052 C 
ENDROOT
BRANCH   1   2
ATOM      2  C   UNL     1      17.134 -37.441  26.749  1.00  0.00     0.041 C 
ATOM      3  O   UNL     1      16.879 -36.260  26.396  1.00  0.00    -0.550 OA
ATOM      4  O   UNL     1      18.187 -38.125  26.154  1.00  0.00    -0.550 OA
ENDBRANCH   1   2
BRANCH   1   5
ATOM      5  C   UNL     1      16.402 -37.428  29.125  1.00  0.00     0.003 C 
ATOM      6  C   UNL     1      17.596 -37.962  29.910  1.00  0.00     0.004 C 
ENDBRANCH   1   5
TORSDOF 2
ENDMDL
MODEL 2
REMARK VINA RESULT:    -2.988      9.472      9.805
REMARK INTER + INTRA:          -3.389
REMARK INTER:                  -3.357
REMARK INTRA:                  -0.032
REMARK UNBOUND:                -0.052
REMARK SMILES CCCC(=O)[O-]
REMARK SMILES IDX 3 1 4 2 5 3 6 4 2 5 1 6
REMARK H PARENT
REMARK Flexibility Score: inf
ROOT
ATOM      1  C   UNL     1      12.536 -30.672  22.306  1.00  0.00     0.052 C 
ENDROOT
BRANCH   1   2
ATOM      2  C   UNL     1      13.588 -31.058  21.316  1.00  0.00     0.041 C 
ATOM      3  O   UNL     1      14.642 -30.377  21.212  1.00  0.00    -0.550 OA
ATOM      4  O   UNL     1      13.386 -32.144  20.473  1.00  0.00    -0.550 OA
ENDBRANCH   1   2
BRANCH   1   5
ATOM      5  C   UNL     1      13.179 -30.160  23.598  1.00  0.00     0.003 C 
ATOM      6  C   UNL     1      12.562 -28.833  24.031  1.00  0.00     0.004 C 
ENDBRANCH   1   5
TORSDOF 2
ENDMDL
MODEL 3
REMARK VINA RESULT:    -2.986      9.124     10.041
REMARK INTER + INTRA:          -3.387
REMARK INTER:                  -3.341
REMARK INTRA:                  -0.046
REMARK UNBOUND:                -0.052
REMARK SMILES CCCC(=O)[O-]
REMARK SMILES IDX 3 1 4 2 5 3 6 4 2 5 1 6
REMARK H PARENT
REMARK Flexibility Score: inf
ROOT
ATOM      1  C   UNL     1      13.557 -29.378  23.337  1.00  0.00     0.052 C 
ENDROOT
BRANCH   1   2
ATOM      2  C   UNL     1      13.231 -30.803  23.023  1.00  0.00     0.041 C 
ATOM      3  O   UNL     1      13.439 -31.705  23.877  1.00  0.00    -0.550 OA
ATOM      4  O   UNL     1      12.740 -31.144  21.769  1.00  0.00    -0.550 OA
ENDBRANCH   1   2
BRANCH   1   5
ATOM      5  C   UNL     1      12.442 -28.746  24.176  1.00  0.00     0.003 C 
ATOM      6  C   UNL     1      11.251 -28.358  23.306  1.00  0.00     0.004 C 
ENDBRANCH   1   5
TORSDOF 2
ENDMDL
MODEL 4
REMARK VINA RESULT:    -2.930     14.126     15.027
REMARK INTER + INTRA:          -3.325
REMARK INTER:                  -3.287
REMARK INTRA:                  -0.039
REMARK UNBOUND:                -0.052
REMARK SMILES CCCC(=O)[O-]
REMARK SMILES IDX 3 1 4 2 5 3 6 4 2 5 1 6
REMARK H PARENT
REMARK Flexibility Score: inf
ROOT
ATOM      1  C   UNL     1      22.016 -25.220  20.691  1.00  0.00     0.052 C 
ENDROOT
BRANCH   1   2
ATOM      2  C   UNL     1      23.130 -25.565  19.754  1.00  0.00     0.041 C 
ATOM      3  O   UNL     1      23.658 -24.673  19.040  1.00  0.00    -0.550 OA
ATOM      4  O   UNL     1      23.554 -26.883  19.634  1.00  0.00    -0.550 OA
ENDBRANCH   1   2
BRANCH   1   5
ATOM      5  C   UNL     1      20.674 -25.690  20.123  1.00  0.00     0.003 C 
ATOM      6  C   UNL     1      20.186 -26.948  20.834  1.00  0.00     0.004 C 
ENDBRANCH   1   5
TORSDOF 2
ENDMDL
MODEL 5
REMARK VINA RESULT:    -2.916     10.112     10.660
REMARK INTER + INTRA:          -3.310
REMARK INTER:                  -3.297
REMARK INTRA:                  -0.013
REMARK UNBOUND:                -0.052
REMARK SMILES CCCC(=O)[O-]
REMARK SMILES IDX 3 1 4 2 5 3 6 4 2 5 1 6
REMARK H PARENT
REMARK Flexibility Score: inf
ROOT
ATOM      1  C   UNL     1      13.077 -30.099  23.402  1.00  0.00     0.052 C 
ENDROOT
BRANCH   1   2
ATOM      2  C   UNL     1      12.513 -28.766  23.779  1.00  0.00     0.041 C 
ATOM      3  O   UNL     1      13.165 -27.989  24.524  1.00  0.00    -0.550 OA
ATOM      4  O   UNL     1      11.244 -28.400  23.347  1.00  0.00    -0.550 OA
ENDBRANCH   1   2
BRANCH   1   5
ATOM      5  C   UNL     1      12.315 -30.685  22.211  1.00  0.00     0.003 C 
ATOM      6  C   UNL     1      13.257 -31.424  21.265  1.00  0.00     0.004 C 
ENDBRANCH   1   5
TORSDOF 2
ENDMDL
MODEL 6
REMARK VINA RESULT:    -2.916      9.052     10.028
REMARK INTER + INTRA:          -3.309
REMARK INTER:                  -3.281
REMARK INTRA:                  -0.027
REMARK UNBOUND:                -0.052
REMARK SMILES CCCC(=O)[O-]
REMARK SMILES IDX 3 1 4 2 5 3 6 4 2 5 1 6
REMARK H PARENT
REMARK Flexibility Score: inf
ROOT
ATOM      1  C   UNL     1      12.839 -30.090  23.041  1.00  0.00     0.052 C 
ENDROOT
BRANCH   1   2
ATOM      2  C   UNL     1      12.273 -28.865  23.688  1.00  0.00     0.041 C 
ATOM      3  O   UNL     1      12.777 -28.421  24.752  1.00  0.00    -0.550 OA
ATOM      4  O   UNL     1      11.159 -28.242  23.141  1.00  0.00    -0.550 OA
ENDBRANCH   1   2
BRANCH   1   5
ATOM      5  C   UNL     1      14.003 -30.642  23.867  1.00  0.00     0.003 C 
ATOM      6  C   UNL     1      13.833 -32.136  24.129  1.00  0.00     0.004 C 
ENDBRANCH   1   5
TORSDOF 2
ENDMDL
MODEL 7
REMARK VINA RESULT:    -2.883      8.747      9.647
REMARK INTER + INTRA:          -3.273
REMARK INTER:                  -3.235
REMARK INTRA:                  -0.038
REMARK UNBOUND:                -0.052
REMARK SMILES CCCC(=O)[O-]
REMARK SMILES IDX 3 1 4 2 5 3 6 4 2 5 1 6
REMARK H PARENT
REMARK Flexibility Score: inf
ROOT
ATOM      1  C   UNL     1      13.776 -29.264  23.318  1.00  0.00     0.052 C 
ENDROOT
BRANCH   1   2
ATOM      2  C   UNL     1      14.138 -30.690  23.592  1.00  0.00     0.041 C 
ATOM      3  O   UNL     1      13.250 -31.583  23.576  1.00  0.00    -0.550 OA
ATOM      4  O   UNL     1      15.447 -31.026  23.911  1.00  0.00    -0.550 OA
ENDBRANCH   1   2
BRANCH   1   5
ATOM      5  C   UNL     1      12.646 -28.811  24.246  1.00  0.00     0.003 C 
ATOM      6  C   UNL     1      11.405 -28.417  23.451  1.00  0.00     0.004 C 
ENDBRANCH   1   5
TORSDOF 2
ENDMDL
MODEL 8
REMARK VINA RESULT:    -2.871      8.367      9.244
REMARK INTER + INTRA:          -3.259
REMARK INTER:                  -3.188
REMARK INTRA:                  -0.072
REMARK UNBOUND:                -0.052
REMARK SMILES CCCC(=O)[O-]
REMARK SMILES IDX 3 1 4 2 5 3 6 4 2 5 1 6
REMARK H PARENT
REMARK Flexibility Score: inf
ROOT
ATOM      1  C   UNL     1      13.926 -30.366  22.422  1.00  0.00     0.052 C 
ENDROOT
BRANCH   1   2
ATOM      2  C   UNL     1      12.916 -31.022  21.534  1.00  0.00     0.041 C 
ATOM      3  O   UNL     1      11.697 -30.725  21.633  1.00  0.00    -0.550 OA
ATOM      4  O   UNL     1      13.315 -31.997  20.629  1.00  0.00    -0.550 OA
ENDBRANCH   1   2
BRANCH   1   5
ATOM      5  C   UNL     1      13.647 -30.703  23.889  1.00  0.00     0.003 C 
ATOM      6  C   UNL     1      13.902 -32.180  24.172  1.00  0.00     0.004 C 
ENDBRANCH   1   5
TORSDOF 2
ENDMDL
MODEL 9
REMARK VINA RESULT:    -2.848     15.005     15.913
REMARK INTER + INTRA:          -3.233
REMARK INTER:                  -3.199
REMARK INTRA:                  -0.033
REMARK UNBOUND:                -0.052
REMARK SMILES CCCC(=O)[O-]
REMARK SMILES IDX 3 1 4 2 5 3 6 4 2 5 1 6
REMARK H PARENT
REMARK Flexibility Score: inf
ROOT
ATOM      1  C   UNL     1      22.916 -25.365  19.611  1.00  0.00     0.052 C 
ENDROOT
BRANCH   1   2
ATOM      2  C   UNL     1      23.604 -24.283  20.382  1.00  0.00     0.041 C 
ATOM      3  O   UNL     1      23.277 -24.048  21.575  1.00  0.00    -0.550 OA
ATOM      4  O   UNL     1      24.576 -23.502  19.768  1.00  0.00    -0.550 OA
ENDBRANCH   1   2
BRANCH   1   5
ATOM      5  C   UNL     1      21.978 -26.158  20.525  1.00  0.00     0.003 C 
ATOM      6  C   UNL     1      20.518 -25.805  20.256  1.00  0.00     0.004 C 
ENDBRANCH   1   5
TORSDOF 2
ENDMDL
