MODEL 1
REMARK VINA RESULT:    -6.583      0.000      0.000
REMARK INTER + INTRA:          -8.506
REMARK INTER:                  -8.123
REMARK INTRA:                  -0.383
REMARK UNBOUND:                -0.383
REMARK SMILES Oc1cc(O)c2cc(O)c(-c3cc(O)c(O)c(O)c3)[o+]c2c1
REMARK SMILES IDX 10 1 20 2 21 3 22 4 2 5 3 6 4 7 6 8 7 9 8 10 11 11 12 12
REMARK SMILES IDX 13 13 19 14 15 15 17 16 14 17 16 19 18 21 9 23 1 25 5 27
REMARK H PARENT 14 18 16 20 18 22 9 24 1 26 5 28
REMARK Flexibility Score: inf
ROOT
ATOM      1  C   UNL     1     -22.045   7.504 -11.816  1.00  0.00     0.402 A 
ATOM      2  O   UNL     1     -22.718   6.455 -11.344  1.00  0.00    -0.202 OA
ATOM      3  C   UNL     1     -23.306   5.556 -12.127  1.00  0.00     0.368 A 
ATOM      4  C   UNL     1     -23.998   4.487 -11.553  1.00  0.00     0.162 A 
ATOM      5  C   UNL     1     -24.625   3.535 -12.364  1.00  0.00     0.128 A 
ATOM      6  C   UNL     1     -24.558   3.654 -13.760  1.00  0.00     0.093 A 
ATOM      7  C   UNL     1     -23.865   4.722 -14.349  1.00  0.00     0.136 A 
ATOM      8  C   UNL     1     -23.236   5.679 -13.531  1.00  0.00     0.125 A 
ATOM      9  C   UNL     1     -22.524   6.759 -14.065  1.00  0.00     0.078 A 
ATOM     10  C   UNL     1     -21.912   7.679 -13.209  1.00  0.00     0.223 A 
ENDROOT
BRANCH   1  11
ATOM     11  C   UNL     1     -21.440   8.443 -10.844  1.00  0.00     0.091 A 
ATOM     12  C   UNL     1     -22.163   9.537 -10.337  1.00  0.00     0.068 A 
ATOM     13  C   UNL     1     -21.581  10.402  -9.400  1.00  0.00     0.162 A 
ATOM     14  C   UNL     1     -20.139   8.206 -10.372  1.00  0.00     0.068 A 
ATOM     15  C   UNL     1     -20.269  10.171  -8.951  1.00  0.00     0.200 A 
ATOM     16  C   UNL     1     -19.552   9.065  -9.438  1.00  0.00     0.162 A 
BRANCH  13  17
ATOM     17  O   UNL     1     -22.304  11.488  -8.909  1.00  0.00    -0.504 OA
ATOM     18  H   UNL     1     -22.901  12.045  -9.510  1.00  0.00     0.293 HD
ENDBRANCH  13  17
BRANCH  15  19
ATOM     19  O   UNL     1     -19.674  11.025  -8.022  1.00  0.00    -0.502 OA
ATOM     20  H   UNL     1     -19.559  10.768  -7.049  1.00  0.00     0.293 HD
ENDBRANCH  15  19
BRANCH  16  21
ATOM     21  O   UNL     1     -18.251   8.803  -9.006  1.00  0.00    -0.504 OA
ATOM     22  H   UNL     1     -18.056   8.410  -8.093  1.00  0.00     0.293 HD
ENDBRANCH  16  21
ENDBRANCH   1  11
BRANCH  10  23
ATOM     23  O   UNL     1     -21.159   8.729 -13.734  1.00  0.00    -0.500 OA
ATOM     24  H   UNL     1     -21.595   9.580 -14.069  1.00  0.00     0.294 HD
ENDBRANCH  10  23
BRANCH   5  25
ATOM     25  O   UNL     1     -25.311   2.476 -11.775  1.00  0.00    -0.507 OA
ATOM     26  H   UNL     1     -26.296   2.317 -11.955  1.00  0.00     0.293 HD
ENDBRANCH   5  25
BRANCH   7  27
ATOM     27  O   UNL     1     -23.804   4.829 -15.739  1.00  0.00    -0.507 OA
ATOM     28  H   UNL     1     -24.144   4.090 -16.344  1.00  0.00     0.293 HD
ENDBRANCH   7  27
TORSDOF 7
ENDMDL
MODEL 2
REMARK VINA RESULT:    -6.534      0.426      1.835
REMARK INTER + INTRA:          -8.444
REMARK INTER:                  -8.090
REMARK INTRA:                  -0.355
REMARK UNBOUND:                -0.383
REMARK SMILES Oc1cc(O)c2cc(O)c(-c3cc(O)c(O)c(O)c3)[o+]c2c1
REMARK SMILES IDX 10 1 20 2 21 3 22 4 2 5 3 6 4 7 6 8 7 9 8 10 11 11 12 12
REMARK SMILES IDX 13 13 19 14 15 15 17 16 14 17 16 19 18 21 9 23 1 25 5 27
REMARK H PARENT 14 18 16 20 18 22 9 24 1 26 5 28
REMARK Flexibility Score: inf
ROOT
ATOM      1  C   UNL     1     -22.287   7.542 -11.913  1.00  0.00     0.402 A 
ATOM      2  O   UNL     1     -22.962   6.489 -11.451  1.00  0.00    -0.202 OA
ATOM      3  C   UNL     1     -23.472   5.548 -12.240  1.00  0.00     0.368 A 
ATOM      4  C   UNL     1     -24.172   4.478 -11.676  1.00  0.00     0.162 A 
ATOM      5  C   UNL     1     -24.717   3.483 -12.494  1.00  0.00     0.128 A 
ATOM      6  C   UNL     1     -24.560   3.558 -13.885  1.00  0.00     0.093 A 
ATOM      7  C   UNL     1     -23.858   4.626 -14.464  1.00  0.00     0.136 A 
ATOM      8  C   UNL     1     -23.311   5.627 -13.640  1.00  0.00     0.125 A 
ATOM      9  C   UNL     1     -22.595   6.710 -14.162  1.00  0.00     0.078 A 
ATOM     10  C   UNL     1     -22.066   7.674 -13.300  1.00  0.00     0.223 A 
ENDROOT
BRANCH   1  11
ATOM     11  C   UNL     1     -21.774   8.528 -10.936  1.00  0.00     0.091 A 
ATOM     12  C   UNL     1     -20.435   8.507 -10.509  1.00  0.00     0.068 A 
ATOM     13  C   UNL     1     -19.962   9.464  -9.600  1.00  0.00     0.162 A 
ATOM     14  C   UNL     1     -22.624   9.541 -10.467  1.00  0.00     0.068 A 
ATOM     15  C   UNL     1     -20.827  10.460  -9.117  1.00  0.00     0.200 A 
ATOM     16  C   UNL     1     -22.160  10.498  -9.559  1.00  0.00     0.162 A 
BRANCH  13  17
ATOM     17  O   UNL     1     -18.634   9.429  -9.179  1.00  0.00    -0.504 OA
ATOM     18  H   UNL     1     -18.114   8.560  -9.127  1.00  0.00     0.293 HD
ENDBRANCH  13  17
BRANCH  15  19
ATOM     19  O   UNL     1     -20.373  11.418  -8.209  1.00  0.00    -0.502 OA
ATOM     20  H   UNL     1     -19.706  12.134  -8.468  1.00  0.00     0.293 HD
ENDBRANCH  15  19
BRANCH  16  21
ATOM     21  O   UNL     1     -23.042  11.480  -9.106  1.00  0.00    -0.504 OA
ATOM     22  H   UNL     1     -23.738  11.900  -9.711  1.00  0.00     0.293 HD
ENDBRANCH  16  21
ENDBRANCH   1  11
BRANCH  10  23
ATOM     23  O   UNL     1     -21.309   8.729 -13.810  1.00  0.00    -0.500 OA
ATOM     24  H   UNL     1     -20.609   9.201 -13.250  1.00  0.00     0.294 HD
ENDBRANCH  10  23
BRANCH   5  25
ATOM     25  O   UNL     1     -25.412   2.424 -11.915  1.00  0.00    -0.507 OA
ATOM     26  H   UNL     1     -26.424   2.421 -11.860  1.00  0.00     0.293 HD
ENDBRANCH   5  25
BRANCH   7  27
ATOM     27  O   UNL     1     -23.707   4.690 -15.850  1.00  0.00    -0.507 OA
ATOM     28  H   UNL     1     -24.246   4.097 -16.471  1.00  0.00     0.293 HD
ENDBRANCH   7  27
TORSDOF 7
ENDMDL
MODEL 3
REMARK VINA RESULT:    -6.530      1.286      7.100
REMARK INTER + INTRA:          -8.440
REMARK INTER:                  -8.254
REMARK INTRA:                  -0.186
REMARK UNBOUND:                -0.383
REMARK SMILES Oc1cc(O)c2cc(O)c(-c3cc(O)c(O)c(O)c3)[o+]c2c1
REMARK SMILES IDX 10 1 20 2 21 3 22 4 2 5 3 6 4 7 6 8 7 9 8 10 11 11 12 12
REMARK SMILES IDX 13 13 19 14 15 15 17 16 14 17 16 19 18 21 9 23 1 25 5 27
REMARK H PARENT 14 18 16 20 18 22 9 24 1 26 5 28
REMARK Flexibility Score: inf
ROOT
ATOM      1  C   UNL     1     -22.065   7.342 -11.639  1.00  0.00     0.402 A 
ATOM      2  O   UNL     1     -22.697   8.312 -10.978  1.00  0.00    -0.202 OA
ATOM      3  C   UNL     1     -22.062   9.292 -10.342  1.00  0.00     0.368 A 
ATOM      4  C   UNL     1     -22.798  10.269  -9.667  1.00  0.00     0.162 A 
ATOM      5  C   UNL     1     -22.144  11.304  -8.991  1.00  0.00     0.128 A 
ATOM      6  C   UNL     1     -20.743  11.362  -8.991  1.00  0.00     0.093 A 
ATOM      7  C   UNL     1     -19.991  10.389  -9.666  1.00  0.00     0.136 A 
ATOM      8  C   UNL     1     -20.652   9.348 -10.345  1.00  0.00     0.125 A 
ATOM      9  C   UNL     1     -19.953   8.355 -11.042  1.00  0.00     0.078 A 
ATOM     10  C   UNL     1     -20.657   7.346 -11.706  1.00  0.00     0.223 A 
ENDROOT
BRANCH   1  11
ATOM     11  C   UNL     1     -22.882   6.300 -12.300  1.00  0.00     0.091 A 
ATOM     12  C   UNL     1     -22.837   6.110 -13.693  1.00  0.00     0.068 A 
ATOM     13  C   UNL     1     -23.600   5.102 -14.298  1.00  0.00     0.162 A 
ATOM     14  C   UNL     1     -23.676   5.446 -11.520  1.00  0.00     0.068 A 
ATOM     15  C   UNL     1     -24.411   4.267 -13.511  1.00  0.00     0.200 A 
ATOM     16  C   UNL     1     -24.442   4.439 -12.117  1.00  0.00     0.162 A 
BRANCH  13  17
ATOM     17  O   UNL     1     -23.553   4.927 -15.681  1.00  0.00    -0.504 OA
ATOM     18  H   UNL     1     -22.697   4.662 -16.155  1.00  0.00     0.293 HD
ENDBRANCH  13  17
BRANCH  15  19
ATOM     19  O   UNL     1     -25.180   3.262 -14.099  1.00  0.00    -0.502 OA
ATOM     20  H   UNL     1     -25.624   3.380 -15.002  1.00  0.00     0.293 HD
ENDBRANCH  15  19
BRANCH  16  21
ATOM     21  O   UNL     1     -25.229   3.621 -11.307  1.00  0.00    -0.504 OA
ATOM     22  H   UNL     1     -26.221   3.497 -11.468  1.00  0.00     0.293 HD
ENDBRANCH  16  21
ENDBRANCH   1  11
BRANCH  10  23
ATOM     23  O   UNL     1     -19.969   6.383 -12.443  1.00  0.00    -0.500 OA
ATOM     24  H   UNL     1     -19.892   6.439 -13.452  1.00  0.00     0.294 HD
ENDBRANCH  10  23
BRANCH   5  25
ATOM     25  O   UNL     1     -22.893  12.269  -8.323  1.00  0.00    -0.507 OA
ATOM     26  H   UNL     1     -22.578  12.674  -7.448  1.00  0.00     0.293 HD
ENDBRANCH   5  25
BRANCH   7  27
ATOM     27  O   UNL     1     -18.598  10.458  -9.661  1.00  0.00    -0.507 OA
ATOM     28  H   UNL     1     -18.024   9.624  -9.690  1.00  0.00     0.293 HD
ENDBRANCH   7  27
TORSDOF 7
ENDMDL
MODEL 4
REMARK VINA RESULT:    -6.239      1.164      7.146
REMARK INTER + INTRA:          -8.082
REMARK INTER:                  -7.700
REMARK INTRA:                  -0.382
REMARK UNBOUND:                -0.383
REMARK SMILES Oc1cc(O)c2cc(O)c(-c3cc(O)c(O)c(O)c3)[o+]c2c1
REMARK SMILES IDX 10 1 20 2 21 3 22 4 2 5 3 6 4 7 6 8 7 9 8 10 11 11 12 12
REMARK SMILES IDX 13 13 19 14 15 15 17 16 14 17 16 19 18 21 9 23 1 25 5 27
REMARK H PARENT 14 18 16 20 18 22 9 24 1 26 5 28
REMARK Flexibility Score: inf
ROOT
ATOM      1  C   UNL     1     -22.548   6.985 -11.573  1.00  0.00     0.402 A 
ATOM      2  O   UNL     1     -21.274   6.805 -11.224  1.00  0.00    -0.202 OA
ATOM      3  C   UNL     1     -20.559   7.723 -10.582  1.00  0.00     0.368 A 
ATOM      4  C   UNL     1     -19.226   7.458 -10.256  1.00  0.00     0.162 A 
ATOM      5  C   UNL     1     -18.461   8.417  -9.584  1.00  0.00     0.128 A 
ATOM      6  C   UNL     1     -19.033   9.648  -9.234  1.00  0.00     0.093 A 
ATOM      7  C   UNL     1     -20.370   9.927  -9.554  1.00  0.00     0.136 A 
ATOM      8  C   UNL     1     -21.139   8.961 -10.231  1.00  0.00     0.125 A 
ATOM      9  C   UNL     1     -22.479   9.182 -10.567  1.00  0.00     0.078 A 
ATOM     10  C   UNL     1     -23.201   8.188 -11.234  1.00  0.00     0.223 A 
ENDROOT
BRANCH   1  11
ATOM     11  C   UNL     1     -23.237   5.891 -12.293  1.00  0.00     0.091 A 
ATOM     12  C   UNL     1     -23.182   5.788 -13.694  1.00  0.00     0.068 A 
ATOM     13  C   UNL     1     -23.822   4.732 -14.357  1.00  0.00     0.162 A 
ATOM     14  C   UNL     1     -23.914   4.902 -11.563  1.00  0.00     0.068 A 
ATOM     15  C   UNL     1     -24.517   3.759 -13.619  1.00  0.00     0.200 A 
ATOM     16  C   UNL     1     -24.557   3.845 -12.217  1.00  0.00     0.162 A 
BRANCH  13  17
ATOM     17  O   UNL     1     -23.766   4.645 -15.747  1.00  0.00    -0.504 OA
ATOM     18  H   UNL     1     -23.725   5.472 -16.332  1.00  0.00     0.293 HD
ENDBRANCH  13  17
BRANCH  15  19
ATOM     19  O   UNL     1     -25.164   2.704 -14.264  1.00  0.00    -0.502 OA
ATOM     20  H   UNL     1     -24.708   1.816 -14.435  1.00  0.00     0.293 HD
ENDBRANCH  15  19
BRANCH  16  21
ATOM     21  O   UNL     1     -25.230   2.891 -11.455  1.00  0.00    -0.504 OA
ATOM     22  H   UNL     1     -25.817   3.145 -10.669  1.00  0.00     0.293 HD
ENDBRANCH  16  21
ENDBRANCH   1  11
BRANCH  10  23
ATOM     23  O   UNL     1     -24.550   8.381 -11.528  1.00  0.00    -0.500 OA
ATOM     24  H   UNL     1     -24.852   8.783 -12.407  1.00  0.00     0.294 HD
ENDBRANCH  10  23
BRANCH   5  25
ATOM     25  O   UNL     1     -17.134   8.136  -9.268  1.00  0.00    -0.507 OA
ATOM     26  H   UNL     1     -16.805   7.184  -9.157  1.00  0.00     0.293 HD
ENDBRANCH   5  25
BRANCH   7  27
ATOM     27  O   UNL     1     -20.929  11.155  -9.199  1.00  0.00    -0.507 OA
ATOM     28  H   UNL     1     -21.323  11.780  -9.893  1.00  0.00     0.293 HD
ENDBRANCH   7  27
TORSDOF 7
ENDMDL
MODEL 5
REMARK VINA RESULT:    -6.186      1.208      7.130
REMARK INTER + INTRA:          -8.015
REMARK INTER:                  -7.634
REMARK INTRA:                  -0.381
REMARK UNBOUND:                -0.383
REMARK SMILES Oc1cc(O)c2cc(O)c(-c3cc(O)c(O)c(O)c3)[o+]c2c1
REMARK SMILES IDX 10 1 20 2 21 3 22 4 2 5 3 6 4 7 6 8 7 9 8 10 11 11 12 12
REMARK SMILES IDX 13 13 19 14 15 15 17 16 14 17 16 19 18 21 9 23 1 25 5 27
REMARK H PARENT 14 18 16 20 18 22 9 24 1 26 5 28
REMARK Flexibility Score: inf
ROOT
ATOM      1  C   UNL     1     -22.519   6.908 -11.530  1.00  0.00     0.402 A 
ATOM      2  O   UNL     1     -21.249   6.712 -11.178  1.00  0.00    -0.202 OA
ATOM      3  C   UNL     1     -20.511   7.637 -10.572  1.00  0.00     0.368 A 
ATOM      4  C   UNL     1     -19.183   7.354 -10.239  1.00  0.00     0.162 A 
ATOM      5  C   UNL     1     -18.394   8.319  -9.605  1.00  0.00     0.128 A 
ATOM      6  C   UNL     1     -18.938   9.575  -9.300  1.00  0.00     0.093 A 
ATOM      7  C   UNL     1     -20.269   9.872  -9.626  1.00  0.00     0.136 A 
ATOM      8  C   UNL     1     -21.062   8.900 -10.265  1.00  0.00     0.125 A 
ATOM      9  C   UNL     1     -22.398   9.138 -10.607  1.00  0.00     0.078 A 
ATOM     10  C   UNL     1     -23.144   8.136 -11.235  1.00  0.00     0.223 A 
ENDROOT
BRANCH   1  11
ATOM     11  C   UNL     1     -23.235   5.803 -12.208  1.00  0.00     0.091 A 
ATOM     12  C   UNL     1     -23.939   4.830 -11.477  1.00  0.00     0.068 A 
ATOM     13  C   UNL     1     -24.629   3.805 -12.138  1.00  0.00     0.162 A 
ATOM     14  C   UNL     1     -23.262   5.756 -13.611  1.00  0.00     0.068 A 
ATOM     15  C   UNL     1     -24.631   3.751 -13.542  1.00  0.00     0.200 A 
ATOM     16  C   UNL     1     -23.948   4.735 -14.277  1.00  0.00     0.162 A 
BRANCH  13  17
ATOM     17  O   UNL     1     -25.318   2.841 -11.403  1.00  0.00    -0.504 OA
ATOM     18  H   UNL     1     -25.821   2.086 -11.854  1.00  0.00     0.293 HD
ENDBRANCH  13  17
BRANCH  15  19
ATOM     19  O   UNL     1     -25.311   2.735 -14.215  1.00  0.00    -0.502 OA
ATOM     20  H   UNL     1     -25.087   1.756 -14.082  1.00  0.00     0.293 HD
ENDBRANCH  15  19
BRANCH  16  21
ATOM     21  O   UNL     1     -23.938   4.716 -15.672  1.00  0.00    -0.504 OA
ATOM     22  H   UNL     1     -24.329   3.947 -16.203  1.00  0.00     0.293 HD
ENDBRANCH  16  21
ENDBRANCH   1  11
BRANCH  10  23
ATOM     23  O   UNL     1     -24.489   8.350 -11.532  1.00  0.00    -0.500 OA
ATOM     24  H   UNL     1     -25.094   7.595 -11.836  1.00  0.00     0.294 HD
ENDBRANCH  10  23
BRANCH   5  25
ATOM     25  O   UNL     1     -17.073   8.021  -9.282  1.00  0.00    -0.507 OA
ATOM     26  H   UNL     1     -16.843   7.330  -8.577  1.00  0.00     0.293 HD
ENDBRANCH   5  25
BRANCH   7  27
ATOM     27  O   UNL     1     -20.799  11.125  -9.316  1.00  0.00    -0.507 OA
ATOM     28  H   UNL     1     -20.752  11.505  -8.378  1.00  0.00     0.293 HD
ENDBRANCH   7  27
TORSDOF 7
ENDMDL
MODEL 6
REMARK VINA RESULT:    -6.033      1.713      3.052
REMARK INTER + INTRA:          -7.827
REMARK INTER:                  -7.744
REMARK INTRA:                  -0.083
REMARK UNBOUND:                -0.383
REMARK SMILES Oc1cc(O)c2cc(O)c(-c3cc(O)c(O)c(O)c3)[o+]c2c1
REMARK SMILES IDX 10 1 20 2 21 3 22 4 2 5 3 6 4 7 6 8 7 9 8 10 11 11 12 12
REMARK SMILES IDX 13 13 19 14 15 15 17 16 14 17 16 19 18 21 9 23 1 25 5 27
REMARK H PARENT 14 18 16 20 18 22 9 24 1 26 5 28
REMARK Flexibility Score: inf
ROOT
ATOM      1  C   UNL     1     -22.829   8.512 -10.218  1.00  0.00     0.402 A 
ATOM      2  O   UNL     1     -22.613   8.192 -11.494  1.00  0.00    -0.202 OA
ATOM      3  C   UNL     1     -23.146   7.121 -12.075  1.00  0.00     0.368 A 
ATOM      4  C   UNL     1     -22.866   6.852 -13.417  1.00  0.00     0.162 A 
ATOM      5  C   UNL     1     -23.417   5.727 -14.041  1.00  0.00     0.128 A 
ATOM      6  C   UNL     1     -24.254   4.867 -13.316  1.00  0.00     0.093 A 
ATOM      7  C   UNL     1     -24.545   5.126 -11.969  1.00  0.00     0.136 A 
ATOM      8  C   UNL     1     -23.989   6.258 -11.343  1.00  0.00     0.125 A 
ATOM      9  C   UNL     1     -24.251   6.570 -10.004  1.00  0.00     0.078 A 
ATOM     10  C   UNL     1     -23.679   7.710  -9.431  1.00  0.00     0.223 A 
ENDROOT
BRANCH   1  11
ATOM     11  C   UNL     1     -22.172   9.726  -9.681  1.00  0.00     0.091 A 
ATOM     12  C   UNL     1     -22.910  10.731  -9.033  1.00  0.00     0.068 A 
ATOM     13  C   UNL     1     -22.267  11.862  -8.511  1.00  0.00     0.162 A 
ATOM     14  C   UNL     1     -20.777   9.853  -9.770  1.00  0.00     0.068 A 
ATOM     15  C   UNL     1     -20.873  11.992  -8.625  1.00  0.00     0.200 A 
ATOM     16  C   UNL     1     -20.129  10.979  -9.253  1.00  0.00     0.162 A 
BRANCH  13  17
ATOM     17  O   UNL     1     -23.011  12.855  -7.875  1.00  0.00    -0.504 OA
ATOM     18  H   UNL     1     -22.574  13.690  -7.500  1.00  0.00     0.293 HD
ENDBRANCH  13  17
BRANCH  15  19
ATOM     19  O   UNL     1     -20.218  13.113  -8.114  1.00  0.00    -0.502 OA
ATOM     20  H   UNL     1     -19.212  13.218  -8.159  1.00  0.00     0.293 HD
ENDBRANCH  15  19
BRANCH  16  21
ATOM     21  O   UNL     1     -18.742  11.073  -9.374  1.00  0.00    -0.504 OA
ATOM     22  H   UNL     1     -18.128  10.298  -9.155  1.00  0.00     0.293 HD
ENDBRANCH  16  21
ENDBRANCH   1  11
BRANCH  10  23
ATOM     23  O   UNL     1     -23.976   8.053  -8.113  1.00  0.00    -0.500 OA
ATOM     24  H   UNL     1     -24.547   8.859  -7.888  1.00  0.00     0.294 HD
ENDBRANCH  10  23
BRANCH   5  25
ATOM     25  O   UNL     1     -23.127   5.474 -15.379  1.00  0.00    -0.507 OA
ATOM     26  H   UNL     1     -22.736   4.588 -15.678  1.00  0.00     0.293 HD
ENDBRANCH   5  25
BRANCH   7  27
ATOM     27  O   UNL     1     -25.380   4.264 -11.259  1.00  0.00    -0.507 OA
ATOM     28  H   UNL     1     -26.386   4.386 -11.249  1.00  0.00     0.293 HD
ENDBRANCH   7  27
TORSDOF 7
ENDMDL
MODEL 7
REMARK VINA RESULT:    -5.883      1.635      3.429
REMARK INTER + INTRA:          -7.641
REMARK INTER:                  -7.537
REMARK INTRA:                  -0.104
REMARK UNBOUND:                -0.383
REMARK SMILES Oc1cc(O)c2cc(O)c(-c3cc(O)c(O)c(O)c3)[o+]c2c1
REMARK SMILES IDX 10 1 20 2 21 3 22 4 2 5 3 6 4 7 6 8 7 9 8 10 11 11 12 12
REMARK SMILES IDX 13 13 19 14 15 15 17 16 14 17 16 19 18 21 9 23 1 25 5 27
REMARK H PARENT 14 18 16 20 18 22 9 24 1 26 5 28
REMARK Flexibility Score: inf
ROOT
ATOM      1  C   UNL     1     -22.724   8.331 -10.295  1.00  0.00     0.402 A 
ATOM      2  O   UNL     1     -22.522   8.005 -11.572  1.00  0.00    -0.202 OA
ATOM      3  C   UNL     1     -23.071   6.938 -12.145  1.00  0.00     0.368 A 
ATOM      4  C   UNL     1     -22.805   6.662 -13.489  1.00  0.00     0.162 A 
ATOM      5  C   UNL     1     -23.372   5.542 -14.105  1.00  0.00     0.128 A 
ATOM      6  C   UNL     1     -24.212   4.692 -13.371  1.00  0.00     0.093 A 
ATOM      7  C   UNL     1     -24.489   4.958 -12.022  1.00  0.00     0.136 A 
ATOM      8  C   UNL     1     -23.917   6.086 -11.404  1.00  0.00     0.125 A 
ATOM      9  C   UNL     1     -24.164   6.404 -10.064  1.00  0.00     0.078 A 
ATOM     10  C   UNL     1     -23.576   7.540  -9.499  1.00  0.00     0.223 A 
ENDROOT
BRANCH   1  11
ATOM     11  C   UNL     1     -22.050   9.539  -9.767  1.00  0.00     0.091 A 
ATOM     12  C   UNL     1     -20.658   9.705  -9.872  1.00  0.00     0.068 A 
ATOM     13  C   UNL     1     -20.041  10.866  -9.387  1.00  0.00     0.162 A 
ATOM     14  C   UNL     1     -22.820  10.567  -9.201  1.00  0.00     0.068 A 
ATOM     15  C   UNL     1     -20.817  11.880  -8.799  1.00  0.00     0.200 A 
ATOM     16  C   UNL     1     -22.211  11.728  -8.713  1.00  0.00     0.162 A 
BRANCH  13  17
ATOM     17  O   UNL     1     -18.659  11.017  -9.490  1.00  0.00    -0.504 OA
ATOM     18  H   UNL     1     -18.148  11.664  -8.900  1.00  0.00     0.293 HD
ENDBRANCH  13  17
BRANCH  15  19
ATOM     19  O   UNL     1     -20.218  13.041  -8.307  1.00  0.00    -0.502 OA
ATOM     20  H   UNL     1     -19.910  13.123  -7.346  1.00  0.00     0.293 HD
ENDBRANCH  15  19
BRANCH  16  21
ATOM     21  O   UNL     1     -23.011  12.720  -8.144  1.00  0.00    -0.504 OA
ATOM     22  H   UNL     1     -22.900  13.014  -7.181  1.00  0.00     0.293 HD
ENDBRANCH  16  21
ENDBRANCH   1  11
BRANCH  10  23
ATOM     23  O   UNL     1     -23.859   7.890  -8.179  1.00  0.00    -0.500 OA
ATOM     24  H   UNL     1     -23.339   8.614  -7.697  1.00  0.00     0.294 HD
ENDBRANCH  10  23
BRANCH   5  25
ATOM     25  O   UNL     1     -23.095   5.281 -15.444  1.00  0.00    -0.507 OA
ATOM     26  H   UNL     1     -23.040   4.334 -15.800  1.00  0.00     0.293 HD
ENDBRANCH   5  25
BRANCH   7  27
ATOM     27  O   UNL     1     -25.327   4.106 -11.302  1.00  0.00    -0.507 OA
ATOM     28  H   UNL     1     -25.322   3.104 -11.452  1.00  0.00     0.293 HD
ENDBRANCH   7  27
TORSDOF 7
ENDMDL
MODEL 8
REMARK VINA RESULT:    -5.479      1.859      7.069
REMARK INTER + INTRA:          -7.143
REMARK INTER:                  -7.073
REMARK INTRA:                  -0.070
REMARK UNBOUND:                -0.383
REMARK SMILES Oc1cc(O)c2cc(O)c(-c3cc(O)c(O)c(O)c3)[o+]c2c1
REMARK SMILES IDX 10 1 20 2 21 3 22 4 2 5 3 6 4 7 6 8 7 9 8 10 11 11 12 12
REMARK SMILES IDX 13 13 19 14 15 15 17 16 14 17 16 19 18 21 9 23 1 25 5 27
REMARK H PARENT 14 18 16 20 18 22 9 24 1 26 5 28
REMARK Flexibility Score: inf
ROOT
ATOM      1  C   UNL     1     -22.281   6.491 -11.326  1.00  0.00     0.402 A 
ATOM      2  O   UNL     1     -21.289   6.721 -12.186  1.00  0.00    -0.202 OA
ATOM      3  C   UNL     1     -20.457   7.752 -12.079  1.00  0.00     0.368 A 
ATOM      4  C   UNL     1     -19.445   7.925 -13.027  1.00  0.00     0.162 A 
ATOM      5  C   UNL     1     -18.565   9.008 -12.929  1.00  0.00     0.128 A 
ATOM      6  C   UNL     1     -18.699   9.924 -11.876  1.00  0.00     0.093 A 
ATOM      7  C   UNL     1     -19.710   9.762 -10.917  1.00  0.00     0.136 A 
ATOM      8  C   UNL     1     -20.594   8.672 -11.017  1.00  0.00     0.125 A 
ATOM      9  C   UNL     1     -21.616   8.456 -10.085  1.00  0.00     0.078 A 
ATOM     10  C   UNL     1     -22.464   7.354 -10.226  1.00  0.00     0.223 A 
ENDROOT
BRANCH   1  11
ATOM     11  C   UNL     1     -23.147   5.313 -11.554  1.00  0.00     0.091 A 
ATOM     12  C   UNL     1     -23.760   5.086 -12.799  1.00  0.00     0.068 A 
ATOM     13  C   UNL     1     -24.559   3.953 -13.004  1.00  0.00     0.162 A 
ATOM     14  C   UNL     1     -23.317   4.371 -10.528  1.00  0.00     0.068 A 
ATOM     15  C   UNL     1     -24.742   3.026 -11.963  1.00  0.00     0.200 A 
ATOM     16  C   UNL     1     -24.113   3.238 -10.724  1.00  0.00     0.162 A 
BRANCH  13  17
ATOM     17  O   UNL     1     -25.167   3.742 -14.240  1.00  0.00    -0.504 OA
ATOM     18  H   UNL     1     -25.893   4.357 -14.589  1.00  0.00     0.293 HD
ENDBRANCH  13  17
BRANCH  15  19
ATOM     19  O   UNL     1     -25.537   1.895 -12.149  1.00  0.00    -0.502 OA
ATOM     20  H   UNL     1     -25.725   1.238 -11.401  1.00  0.00     0.293 HD
ENDBRANCH  15  19
BRANCH  16  21
ATOM     21  O   UNL     1     -24.268   2.333  -9.674  1.00  0.00    -0.504 OA
ATOM     22  H   UNL     1     -24.435   2.636  -8.722  1.00  0.00     0.293 HD
ENDBRANCH  16  21
ENDBRANCH   1  11
BRANCH  10  23
ATOM     23  O   UNL     1     -23.451   7.106  -9.273  1.00  0.00    -0.500 OA
ATOM     24  H   UNL     1     -24.039   7.847  -8.909  1.00  0.00     0.294 HD
ENDBRANCH  10  23
BRANCH   5  25
ATOM     25  O   UNL     1     -17.563   9.165 -13.883  1.00  0.00    -0.507 OA
ATOM     26  H   UNL     1     -16.874   8.441 -14.052  1.00  0.00     0.293 HD
ENDBRANCH   5  25
BRANCH   7  27
ATOM     27  O   UNL     1     -19.832  10.679  -9.873  1.00  0.00    -0.507 OA
ATOM     28  H   UNL     1     -20.629  10.669  -9.247  1.00  0.00     0.293 HD
ENDBRANCH   7  27
TORSDOF 7
ENDMDL
MODEL 9
REMARK VINA RESULT:    -5.428      2.332      4.230
REMARK INTER + INTRA:          -7.080
REMARK INTER:                  -6.724
REMARK INTRA:                  -0.356
REMARK UNBOUND:                -0.383
REMARK SMILES Oc1cc(O)c2cc(O)c(-c3cc(O)c(O)c(O)c3)[o+]c2c1
REMARK SMILES IDX 10 1 20 2 21 3 22 4 2 5 3 6 4 7 6 8 7 9 8 10 11 11 12 12
REMARK SMILES IDX 13 13 19 14 15 15 17 16 14 17 16 19 18 21 9 23 1 25 5 27
REMARK H PARENT 14 18 16 20 18 22 9 24 1 26 5 28
REMARK Flexibility Score: inf
ROOT
ATOM      1  C   UNL     1     -21.980   7.111 -10.763  1.00  0.00     0.402 A 
ATOM      2  O   UNL     1     -22.490   5.975 -11.238  1.00  0.00    -0.202 OA
ATOM      3  C   UNL     1     -23.540   5.365 -10.695  1.00  0.00     0.368 A 
ATOM      4  C   UNL     1     -24.011   4.173 -11.251  1.00  0.00     0.162 A 
ATOM      5  C   UNL     1     -25.111   3.518 -10.688  1.00  0.00     0.128 A 
ATOM      6  C   UNL     1     -25.746   4.062  -9.562  1.00  0.00     0.093 A 
ATOM      7  C   UNL     1     -25.285   5.259  -8.995  1.00  0.00     0.136 A 
ATOM      8  C   UNL     1     -24.176   5.915  -9.562  1.00  0.00     0.125 A 
ATOM      9  C   UNL     1     -23.679   7.116  -9.043  1.00  0.00     0.078 A 
ATOM     10  C   UNL     1     -22.579   7.732  -9.648  1.00  0.00     0.223 A 
ENDROOT
BRANCH   1  11
ATOM     11  C   UNL     1     -20.804   7.690 -11.449  1.00  0.00     0.091 A 
ATOM     12  C   UNL     1     -19.510   7.565 -10.914  1.00  0.00     0.068 A 
ATOM     13  C   UNL     1     -18.405   8.101 -11.589  1.00  0.00     0.162 A 
ATOM     14  C   UNL     1     -20.971   8.330 -12.687  1.00  0.00     0.068 A 
ATOM     15  C   UNL     1     -18.585   8.760 -12.817  1.00  0.00     0.200 A 
ATOM     16  C   UNL     1     -19.873   8.868 -13.367  1.00  0.00     0.162 A 
BRANCH  13  17
ATOM     17  O   UNL     1     -17.127   7.976 -11.045  1.00  0.00    -0.504 OA
ATOM     18  H   UNL     1     -16.900   8.346 -10.130  1.00  0.00     0.293 HD
ENDBRANCH  13  17
BRANCH  15  19
ATOM     19  O   UNL     1     -17.495   9.302 -13.501  1.00  0.00    -0.502 OA
ATOM     20  H   UNL     1     -16.726   8.732 -13.828  1.00  0.00     0.293 HD
ENDBRANCH  15  19
BRANCH  16  21
ATOM     21  O   UNL     1     -20.085   9.508 -14.588  1.00  0.00    -0.504 OA
ATOM     22  H   UNL     1     -20.032   9.014 -15.471  1.00  0.00     0.293 HD
ENDBRANCH  16  21
ENDBRANCH   1  11
BRANCH  10  23
ATOM     23  O   UNL     1     -22.110   8.953  -9.166  1.00  0.00    -0.500 OA
ATOM     24  H   UNL     1     -21.893   9.092  -8.187  1.00  0.00     0.294 HD
ENDBRANCH  10  23
BRANCH   5  25
ATOM     25  O   UNL     1     -25.566   2.331 -11.255  1.00  0.00    -0.507 OA
ATOM     26  H   UNL     1     -25.704   2.239 -12.255  1.00  0.00     0.293 HD
ENDBRANCH   5  25
BRANCH   7  27
ATOM     27  O   UNL     1     -25.925   5.790  -7.875  1.00  0.00    -0.507 OA
ATOM     28  H   UNL     1     -26.512   5.220  -7.278  1.00  0.00     0.293 HD
ENDBRANCH   7  27
TORSDOF 7
ENDMDL
