MODEL 1
REMARK VINA RESULT:    -3.667      0.000      0.000
REMARK INTER + INTRA:          -4.921
REMARK INTER:                  -4.739
REMARK INTRA:                  -0.182
REMARK UNBOUND:                -0.182
REMARK SMILES CCO[C@@H]1O[C@H](CO)[C@H](O)[C@@H](O)[C@@H]1O
REMARK SMILES IDX 4 1 13 2 11 3 9 4 6 5 5 6 3 7 2 8 1 9 14 10 12 12 7 14 8 15
REMARK SMILES IDX 10 17
REMARK H PARENT 14 11 12 13 8 16 10 18
REMARK Flexibility Score: inf
ROOT
ATOM      1  C   UNL     1      19.551  -6.479   4.613  1.00  0.00     0.281 C 
ATOM      2  C   UNL     1      19.435  -7.948   4.145  1.00  0.00     0.202 C 
ATOM      3  C   UNL     1      18.418  -8.730   5.010  1.00  0.00     0.179 C 
ATOM      4  C   UNL     1      18.637  -8.467   6.516  1.00  0.00     0.177 C 
ATOM      5  C   UNL     1      18.796  -6.949   6.767  1.00  0.00     0.178 C 
ATOM      6  O   UNL     1      19.864  -6.421   5.998  1.00  0.00    -0.341 OA
ENDROOT
BRANCH   1   7
ATOM      7  O   UNL     1      20.583  -5.852   3.875  1.00  0.00    -0.350 OA
BRANCH   7   8
ATOM      8  C   UNL     1      21.221  -4.847   4.642  1.00  0.00     0.160 C 
ATOM      9  C   UNL     1      21.207  -3.521   3.889  1.00  0.00     0.035 C 
ENDBRANCH   7   8
ENDBRANCH   1   7
BRANCH   2  10
ATOM     10  O   UNL     1      20.686  -8.595   4.132  1.00  0.00    -0.385 OA
ATOM     11  H   UNL     1      21.357  -7.990   4.539  1.00  0.00     0.211 HD
ENDBRANCH   2  10
BRANCH   3  12
ATOM     12  O   UNL     1      17.110  -8.344   4.668  1.00  0.00    -0.387 OA
ATOM     13  H   UNL     1      16.812  -7.690   5.354  1.00  0.00     0.211 HD
ENDBRANCH   3  12
BRANCH   5  14
ATOM     14  C   UNL     1      19.038  -6.632   8.250  1.00  0.00     0.191 C 
BRANCH  14  15
ATOM     15  O   UNL     1      17.856  -6.196   8.864  1.00  0.00    -0.394 OA
ATOM     16  H   UNL     1      17.529  -6.960   9.405  1.00  0.00     0.210 HD
ENDBRANCH  14  15
ENDBRANCH   5  14
BRANCH   4  17
ATOM     17  O   UNL     1      19.776  -9.158   6.965  1.00  0.00    -0.387 OA
ATOM     18  H   UNL     1      20.383  -9.252   6.185  1.00  0.00     0.211 HD
ENDBRANCH   4  17
TORSDOF 7
ENDMDL
MODEL 2
REMARK VINA RESULT:    -3.550      1.760      2.377
REMARK INTER + INTRA:          -4.770
REMARK INTER:                  -4.398
REMARK INTRA:                  -0.372
REMARK UNBOUND:                -0.182
REMARK SMILES CCO[C@@H]1O[C@H](CO)[C@H](O)[C@@H](O)[C@@H]1O
REMARK SMILES IDX 4 1 13 2 11 3 9 4 6 5 5 6 3 7 2 8 1 9 14 10 12 12 7 14 8 15
REMARK SMILES IDX 10 17
REMARK H PARENT 14 11 12 13 8 16 10 18
REMARK Flexibility Score: inf
ROOT
ATOM      1  C   UNL     1      19.903  -6.742   4.949  1.00  0.00     0.281 C 
ATOM      2  C   UNL     1      20.241  -8.043   5.714  1.00  0.00     0.202 C 
ATOM      3  C   UNL     1      19.293  -9.194   5.302  1.00  0.00     0.179 C 
ATOM      4  C   UNL     1      17.820  -8.731   5.280  1.00  0.00     0.177 C 
ATOM      5  C   UNL     1      17.703  -7.384   4.529  1.00  0.00     0.178 C 
ATOM      6  O   UNL     1      18.536  -6.403   5.126  1.00  0.00    -0.341 OA
ENDROOT
BRANCH   1   7
ATOM      7  O   UNL     1      20.713  -5.698   5.458  1.00  0.00    -0.350 OA
BRANCH   7   8
ATOM      8  C   UNL     1      21.616  -5.228   4.475  1.00  0.00     0.160 C 
ATOM      9  C   UNL     1      21.110  -3.920   3.877  1.00  0.00     0.035 C 
ENDBRANCH   7   8
ENDBRANCH   1   7
BRANCH   2  10
ATOM     10  O   UNL     1      20.223  -7.852   7.109  1.00  0.00    -0.385 OA
ATOM     11  H   UNL     1      20.829  -7.099   7.332  1.00  0.00     0.211 HD
ENDBRANCH   2  10
BRANCH   3  12
ATOM     12  O   UNL     1      19.641  -9.660   4.022  1.00  0.00    -0.387 OA
ATOM     13  H   UNL     1      19.410 -10.625   3.992  1.00  0.00     0.211 HD
ENDBRANCH   3  12
BRANCH   5  14
ATOM     14  C   UNL     1      16.257  -6.866   4.496  1.00  0.00     0.191 C 
BRANCH  14  15
ATOM     15  O   UNL     1      15.964  -6.136   5.655  1.00  0.00    -0.394 OA
ATOM     16  H   UNL     1      15.088  -6.473   5.978  1.00  0.00     0.210 HD
ENDBRANCH  14  15
ENDBRANCH   5  14
BRANCH   4  17
ATOM     17  O   UNL     1      17.335  -8.602   6.593  1.00  0.00    -0.387 OA
ATOM     18  H   UNL     1      18.104  -8.330   7.159  1.00  0.00     0.211 HD
ENDBRANCH   4  17
TORSDOF 7
ENDMDL
MODEL 3
REMARK VINA RESULT:    -3.439      1.982      4.103
REMARK INTER + INTRA:          -4.626
REMARK INTER:                  -4.282
REMARK INTRA:                  -0.344
REMARK UNBOUND:                -0.182
REMARK SMILES CCO[C@@H]1O[C@H](CO)[C@H](O)[C@@H](O)[C@@H]1O
REMARK SMILES IDX 4 1 13 2 11 3 9 4 6 5 5 6 3 7 2 8 1 9 14 10 12 12 7 14 8 15
REMARK SMILES IDX 10 17
REMARK H PARENT 14 11 12 13 8 16 10 18
REMARK Flexibility Score: inf
ROOT
ATOM      1  C   UNL     1      17.659  -7.073   5.800  1.00  0.00     0.281 C 
ATOM      2  C   UNL     1      18.026  -8.569   5.941  1.00  0.00     0.202 C 
ATOM      3  C   UNL     1      19.462  -8.739   6.492  1.00  0.00     0.179 C 
ATOM      4  C   UNL     1      20.461  -7.816   5.760  1.00  0.00     0.177 C 
ATOM      5  C   UNL     1      19.881  -6.385   5.663  1.00  0.00     0.178 C 
ATOM      6  O   UNL     1      18.623  -6.397   5.007  1.00  0.00    -0.341 OA
ENDROOT
BRANCH   1   7
ATOM      7  O   UNL     1      16.392  -6.980   5.175  1.00  0.00    -0.350 OA
BRANCH   7   8
ATOM      8  C   UNL     1      15.348  -7.224   6.099  1.00  0.00     0.160 C 
ATOM      9  C   UNL     1      14.047  -7.517   5.359  1.00  0.00     0.035 C 
ENDBRANCH   7   8
ENDBRANCH   1   7
BRANCH   2  10
ATOM     10  O   UNL     1      17.867  -9.266   4.728  1.00  0.00    -0.385 OA
ATOM     11  H   UNL     1      18.765  -9.442   4.347  1.00  0.00     0.211 HD
ENDBRANCH   2  10
BRANCH   3  12
ATOM     12  O   UNL     1      19.484  -8.433   7.864  1.00  0.00    -0.387 OA
ATOM     13  H   UNL     1      18.992  -9.159   8.330  1.00  0.00     0.211 HD
ENDBRANCH   3  12
BRANCH   5  14
ATOM     14  C   UNL     1      20.827  -5.428   4.924  1.00  0.00     0.191 C 
BRANCH  14  15
ATOM     15  O   UNL     1      22.160  -5.671   5.284  1.00  0.00    -0.394 OA
ATOM     16  H   UNL     1      22.135  -6.005   6.218  1.00  0.00     0.210 HD
ENDBRANCH  14  15
ENDBRANCH   5  14
BRANCH   4  17
ATOM     17  O   UNL     1      20.733  -8.321   4.477  1.00  0.00    -0.387 OA
ATOM     18  H   UNL     1      20.484  -9.282   4.486  1.00  0.00     0.211 HD
ENDBRANCH   4  17
TORSDOF 7
ENDMDL
MODEL 4
REMARK VINA RESULT:    -3.402      2.129      3.702
REMARK INTER + INTRA:          -4.578
REMARK INTER:                  -4.268
REMARK INTRA:                  -0.310
REMARK UNBOUND:                -0.182
REMARK SMILES CCO[C@@H]1O[C@H](CO)[C@H](O)[C@@H](O)[C@@H]1O
REMARK SMILES IDX 4 1 13 2 11 3 9 4 6 5 5 6 3 7 2 8 1 9 14 10 12 12 7 14 8 15
REMARK SMILES IDX 10 17
REMARK H PARENT 14 11 12 13 8 16 10 18
REMARK Flexibility Score: inf
ROOT
ATOM      1  C   UNL     1      17.104  -7.196   5.444  1.00  0.00     0.281 C 
ATOM      2  C   UNL     1      18.081  -7.085   4.250  1.00  0.00     0.202 C 
ATOM      3  C   UNL     1      19.407  -7.825   4.545  1.00  0.00     0.179 C 
ATOM      4  C   UNL     1      19.944  -7.482   5.952  1.00  0.00     0.177 C 
ATOM      5  C   UNL     1      18.802  -7.588   6.991  1.00  0.00     0.178 C 
ATOM      6  O   UNL     1      17.723  -6.739   6.637  1.00  0.00    -0.341 OA
ENDROOT
BRANCH   1   7
ATOM      7  O   UNL     1      15.968  -6.397   5.170  1.00  0.00    -0.350 OA
BRANCH   7   8
ATOM      8  C   UNL     1      14.809  -7.195   5.014  1.00  0.00     0.160 C 
ATOM      9  C   UNL     1      14.446  -7.861   6.337  1.00  0.00     0.035 C 
ENDBRANCH   7   8
ENDBRANCH   1   7
BRANCH   2  10
ATOM     10  O   UNL     1      18.322  -5.744   3.892  1.00  0.00    -0.385 OA
ATOM     11  H   UNL     1      17.902  -5.574   3.011  1.00  0.00     0.211 HD
ENDBRANCH   2  10
BRANCH   3  12
ATOM     12  O   UNL     1      19.204  -9.214   4.463  1.00  0.00    -0.387 OA
ATOM     13  H   UNL     1      19.922  -9.644   4.997  1.00  0.00     0.211 HD
ENDBRANCH   3  12
BRANCH   5  14
ATOM     14  C   UNL     1      19.278  -7.237   8.408  1.00  0.00     0.191 C 
BRANCH  14  15
ATOM     15  O   UNL     1      18.899  -5.931   8.750  1.00  0.00    -0.394 OA
ATOM     16  H   UNL     1      19.607  -5.589   9.354  1.00  0.00     0.210 HD
ENDBRANCH  14  15
ENDBRANCH   5  14
BRANCH   4  17
ATOM     17  O   UNL     1      20.492  -6.188   5.958  1.00  0.00    -0.387 OA
ATOM     18  H   UNL     1      20.377  -5.822   5.042  1.00  0.00     0.211 HD
ENDBRANCH   4  17
TORSDOF 7
ENDMDL
MODEL 5
REMARK VINA RESULT:    -3.234      1.769      4.263
REMARK INTER + INTRA:          -4.361
REMARK INTER:                  -4.191
REMARK INTRA:                  -0.170
REMARK UNBOUND:                -0.182
REMARK SMILES CCO[C@@H]1O[C@H](CO)[C@H](O)[C@@H](O)[C@@H]1O
REMARK SMILES IDX 4 1 13 2 11 3 9 4 6 5 5 6 3 7 2 8 1 9 14 10 12 12 7 14 8 15
REMARK SMILES IDX 10 17
REMARK H PARENT 14 11 12 13 8 16 10 18
REMARK Flexibility Score: inf
ROOT
ATOM      1  C   UNL     1      19.768  -8.277   6.798  1.00  0.00     0.281 C 
ATOM      2  C   UNL     1      18.492  -8.830   6.123  1.00  0.00     0.202 C 
ATOM      3  C   UNL     1      18.557  -8.662   4.586  1.00  0.00     0.179 C 
ATOM      4  C   UNL     1      19.024  -7.243   4.193  1.00  0.00     0.177 C 
ATOM      5  C   UNL     1      20.268  -6.850   5.025  1.00  0.00     0.178 C 
ATOM      6  O   UNL     1      19.989  -6.928   6.413  1.00  0.00    -0.341 OA
ENDROOT
BRANCH   1   7
ATOM      7  O   UNL     1      19.596  -8.339   8.202  1.00  0.00    -0.350 OA
BRANCH   7   8
ATOM      8  C   UNL     1      19.856  -9.643   8.690  1.00  0.00     0.160 C 
ATOM      9  C   UNL     1      20.010  -9.617  10.207  1.00  0.00     0.035 C 
ENDBRANCH   7   8
ENDBRANCH   1   7
BRANCH   2  10
ATOM     10  O   UNL     1      17.324  -8.241   6.644  1.00  0.00    -0.385 OA
ATOM     11  H   UNL     1      16.721  -8.963   6.959  1.00  0.00     0.211 HD
ENDBRANCH   2  10
BRANCH   3  12
ATOM     12  O   UNL     1      19.452  -9.601   4.044  1.00  0.00    -0.387 OA
ATOM     13  H   UNL     1      18.960 -10.095   3.337  1.00  0.00     0.211 HD
ENDBRANCH   3  12
BRANCH   5  14
ATOM     14  C   UNL     1      20.764  -5.436   4.688  1.00  0.00     0.191 C 
BRANCH  14  15
ATOM     15  O   UNL     1      21.167  -4.762   5.848  1.00  0.00    -0.394 OA
ATOM     16  H   UNL     1      21.366  -3.830   5.569  1.00  0.00     0.210 HD
ENDBRANCH  14  15
ENDBRANCH   5  14
BRANCH   4  17
ATOM     17  O   UNL     1      17.987  -6.319   4.400  1.00  0.00    -0.387 OA
ATOM     18  H   UNL     1      18.360  -5.586   4.956  1.00  0.00     0.211 HD
ENDBRANCH   4  17
TORSDOF 7
ENDMDL
MODEL 6
REMARK VINA RESULT:    -3.139      1.842      4.002
REMARK INTER + INTRA:          -4.239
REMARK INTER:                  -3.827
REMARK INTRA:                  -0.412
REMARK UNBOUND:                -0.182
REMARK SMILES CCO[C@@H]1O[C@H](CO)[C@H](O)[C@@H](O)[C@@H]1O
REMARK SMILES IDX 4 1 13 2 11 3 9 4 6 5 5 6 3 7 2 8 1 9 14 10 12 12 7 14 8 15
REMARK SMILES IDX 10 17
REMARK H PARENT 14 11 12 13 8 16 10 18
REMARK Flexibility Score: inf
ROOT
ATOM      1  C   UNL     1      18.965  -8.516   4.869  1.00  0.00     0.281 C 
ATOM      2  C   UNL     1      18.690  -7.002   5.023  1.00  0.00     0.202 C 
ATOM      3  C   UNL     1      19.543  -6.394   6.161  1.00  0.00     0.179 C 
ATOM      4  C   UNL     1      19.494  -7.269   7.433  1.00  0.00     0.177 C 
ATOM      5  C   UNL     1      19.725  -8.752   7.059  1.00  0.00     0.178 C 
ATOM      6  O   UNL     1      18.768  -9.185   6.106  1.00  0.00    -0.341 OA
ENDROOT
BRANCH   1   7
ATOM      7  O   UNL     1      18.069  -9.039   3.907  1.00  0.00    -0.350 OA
BRANCH   7   8
ATOM      8  C   UNL     1      17.310 -10.108   4.445  1.00  0.00     0.160 C 
ATOM      9  C   UNL     1      15.824  -9.881   4.185  1.00  0.00     0.035 C 
ENDBRANCH   7   8
ENDBRANCH   1   7
BRANCH   2  10
ATOM     10  O   UNL     1      17.322  -6.733   5.222  1.00  0.00    -0.385 OA
ATOM     11  H   UNL     1      17.051  -6.009   4.601  1.00  0.00     0.211 HD
ENDBRANCH   2  10
BRANCH   3  12
ATOM     12  O   UNL     1      20.881  -6.277   5.742  1.00  0.00    -0.387 OA
ATOM     13  H   UNL     1      21.094  -7.097   5.224  1.00  0.00     0.211 HD
ENDBRANCH   3  12
BRANCH   5  14
ATOM     14  C   UNL     1      19.666  -9.672   8.287  1.00  0.00     0.191 C 
BRANCH  14  15
ATOM     15  O   UNL     1      19.732  -8.924   9.471  1.00  0.00    -0.394 OA
ATOM     16  H   UNL     1      20.665  -9.011   9.799  1.00  0.00     0.210 HD
ENDBRANCH  14  15
ENDBRANCH   5  14
BRANCH   4  17
ATOM     17  O   UNL     1      18.255  -7.115   8.077  1.00  0.00    -0.387 OA
ATOM     18  H   UNL     1      18.275  -7.695   8.882  1.00  0.00     0.211 HD
ENDBRANCH   4  17
TORSDOF 7
ENDMDL
MODEL 7
REMARK VINA RESULT:    -3.099      2.317      4.541
REMARK INTER + INTRA:          -4.187
REMARK INTER:                  -3.858
REMARK INTRA:                  -0.329
REMARK UNBOUND:                -0.182
REMARK SMILES CCO[C@@H]1O[C@H](CO)[C@H](O)[C@@H](O)[C@@H]1O
REMARK SMILES IDX 4 1 13 2 11 3 9 4 6 5 5 6 3 7 2 8 1 9 14 10 12 12 7 14 8 15
REMARK SMILES IDX 10 17
REMARK H PARENT 14 11 12 13 8 16 10 18
REMARK Flexibility Score: inf
ROOT
ATOM      1  C   UNL     1      16.860  -8.389   5.570  1.00  0.00     0.281 C 
ATOM      2  C   UNL     1      17.080  -6.899   5.921  1.00  0.00     0.202 C 
ATOM      3  C   UNL     1      18.588  -6.556   5.971  1.00  0.00     0.179 C 
ATOM      4  C   UNL     1      19.381  -7.612   6.772  1.00  0.00     0.177 C 
ATOM      5  C   UNL     1      18.970  -9.033   6.320  1.00  0.00     0.178 C 
ATOM      6  O   UNL     1      17.572  -9.223   6.472  1.00  0.00    -0.341 OA
ENDROOT
BRANCH   1   7
ATOM      7  O   UNL     1      15.476  -8.673   5.666  1.00  0.00    -0.350 OA
BRANCH   7   8
ATOM      8  C   UNL     1      14.775  -8.178   4.539  1.00  0.00     0.160 C 
ATOM      9  C   UNL     1      13.461  -7.539   4.976  1.00  0.00     0.035 C 
ENDBRANCH   7   8
ENDBRANCH   1   7
BRANCH   2  10
ATOM     10  O   UNL     1      16.444  -6.544   7.126  1.00  0.00    -0.385 OA
ATOM     11  H   UNL     1      16.689  -5.609   7.347  1.00  0.00     0.211 HD
ENDBRANCH   2  10
BRANCH   3  12
ATOM     12  O   UNL     1      19.104  -6.496   4.665  1.00  0.00    -0.387 OA
ATOM     13  H   UNL     1      20.080  -6.664   4.731  1.00  0.00     0.211 HD
ENDBRANCH   3  12
BRANCH   5  14
ATOM     14  C   UNL     1      19.715 -10.125   7.101  1.00  0.00     0.191 C 
BRANCH  14  15
ATOM     15  O   UNL     1      19.363 -10.093   8.457  1.00  0.00    -0.394 OA
ATOM     16  H   UNL     1      19.365  -9.136   8.720  1.00  0.00     0.210 HD
ENDBRANCH  14  15
ENDBRANCH   5  14
BRANCH   4  17
ATOM     17  O   UNL     1      19.147  -7.450   8.148  1.00  0.00    -0.387 OA
ATOM     18  H   UNL     1      18.348  -6.866   8.238  1.00  0.00     0.211 HD
ENDBRANCH   4  17
TORSDOF 7
ENDMDL
MODEL 8
REMARK VINA RESULT:    -3.058      2.474      3.347
REMARK INTER + INTRA:          -4.133
REMARK INTER:                  -3.817
REMARK INTRA:                  -0.317
REMARK UNBOUND:                -0.182
REMARK SMILES CCO[C@@H]1O[C@H](CO)[C@H](O)[C@@H](O)[C@@H]1O
REMARK SMILES IDX 4 1 13 2 11 3 9 4 6 5 5 6 3 7 2 8 1 9 14 10 12 12 7 14 8 15
REMARK SMILES IDX 10 17
REMARK H PARENT 14 11 12 13 8 16 10 18
REMARK Flexibility Score: inf
ROOT
ATOM      1  C   UNL     1      18.176  -8.345   4.756  1.00  0.00     0.281 C 
ATOM      2  C   UNL     1      16.682  -8.147   4.410  1.00  0.00     0.202 C 
ATOM      3  C   UNL     1      16.144  -6.821   5.000  1.00  0.00     0.179 C 
ATOM      4  C   UNL     1      16.574  -6.643   6.472  1.00  0.00     0.177 C 
ATOM      5  C   UNL     1      18.083  -6.950   6.621  1.00  0.00     0.178 C 
ATOM      6  O   UNL     1      18.377  -8.258   6.160  1.00  0.00    -0.341 OA
ENDROOT
BRANCH   1   7
ATOM      7  O   UNL     1      18.576  -9.625   4.305  1.00  0.00    -0.350 OA
BRANCH   7   8
ATOM      8  C   UNL     1      19.968  -9.816   4.479  1.00  0.00     0.160 C 
ATOM      9  C   UNL     1      20.739  -8.647   3.875  1.00  0.00     0.035 C 
ENDBRANCH   7   8
ENDBRANCH   1   7
BRANCH   2  10
ATOM     10  O   UNL     1      15.896  -9.238   4.829  1.00  0.00    -0.385 OA
ATOM     11  H   UNL     1      14.968  -8.920   4.973  1.00  0.00     0.211 HD
ENDBRANCH   2  10
BRANCH   3  12
ATOM     12  O   UNL     1      16.633  -5.736   4.250  1.00  0.00    -0.387 OA
ATOM     13  H   UNL     1      16.066  -4.952   4.472  1.00  0.00     0.211 HD
ENDBRANCH   3  12
BRANCH   5  14
ATOM     14  C   UNL     1      18.560  -6.807   8.073  1.00  0.00     0.191 C 
BRANCH  14  15
ATOM     15  O   UNL     1      17.650  -6.050   8.823  1.00  0.00    -0.394 OA
ATOM     16  H   UNL     1      17.595  -6.488   9.711  1.00  0.00     0.210 HD
ENDBRANCH  14  15
ENDBRANCH   5  14
BRANCH   4  17
ATOM     17  O   UNL     1      15.820  -7.490   7.301  1.00  0.00    -0.387 OA
ATOM     18  H   UNL     1      14.873  -7.404   7.016  1.00  0.00     0.211 HD
ENDBRANCH   4  17
TORSDOF 7
ENDMDL
MODEL 9
REMARK VINA RESULT:    -2.888      2.555      4.781
REMARK INTER + INTRA:          -3.913
REMARK INTER:                  -3.519
REMARK INTRA:                  -0.394
REMARK UNBOUND:                -0.182
REMARK SMILES CCO[C@@H]1O[C@H](CO)[C@H](O)[C@@H](O)[C@@H]1O
REMARK SMILES IDX 4 1 13 2 11 3 9 4 6 5 5 6 3 7 2 8 1 9 14 10 12 12 7 14 8 15
REMARK SMILES IDX 10 17
REMARK H PARENT 14 11 12 13 8 16 10 18
REMARK Flexibility Score: inf
ROOT
ATOM      1  C   UNL     1      17.844  -8.520   5.697  1.00  0.00     0.281 C 
ATOM      2  C   UNL     1      17.780  -6.978   5.797  1.00  0.00     0.202 C 
ATOM      3  C   UNL     1      16.393  -6.509   6.298  1.00  0.00     0.179 C 
ATOM      4  C   UNL     1      15.250  -7.232   5.554  1.00  0.00     0.177 C 
ATOM      5  C   UNL     1      15.533  -8.752   5.504  1.00  0.00     0.178 C 
ATOM      6  O   UNL     1      16.784  -9.010   4.888  1.00  0.00    -0.341 OA
ENDROOT
BRANCH   1   7
ATOM      7  O   UNL     1      19.082  -8.881   5.114  1.00  0.00    -0.350 OA
BRANCH   7   8
ATOM      8  C   UNL     1      19.550 -10.112   5.633  1.00  0.00     0.160 C 
ATOM      9  C   UNL     1      19.425 -10.125   7.153  1.00  0.00     0.035 C 
ENDBRANCH   7   8
ENDBRANCH   1   7
BRANCH   2  10
ATOM     10  O   UNL     1      18.108  -6.358   4.576  1.00  0.00    -0.385 OA
ATOM     11  H   UNL     1      17.346  -6.471   3.951  1.00  0.00     0.211 HD
ENDBRANCH   2  10
BRANCH   3  12
ATOM     12  O   UNL     1      16.274  -6.769   7.675  1.00  0.00    -0.387 OA
ATOM     13  H   UNL     1      16.569  -5.949   8.151  1.00  0.00     0.211 HD
ENDBRANCH   3  12
BRANCH   5  14
ATOM     14  C   UNL     1      14.434  -9.519   4.755  1.00  0.00     0.191 C 
BRANCH  14  15
ATOM     15  O   UNL     1      13.246  -8.777   4.721  1.00  0.00    -0.394 OA
ATOM     16  H   UNL     1      12.651  -9.179   5.406  1.00  0.00     0.210 HD
ENDBRANCH  14  15
ENDBRANCH   5  14
BRANCH   4  17
ATOM     17  O   UNL     1      15.119  -6.717   4.253  1.00  0.00    -0.387 OA
ATOM     18  H   UNL     1      14.477  -7.304   3.774  1.00  0.00     0.211 HD
ENDBRANCH   4  17
TORSDOF 7
ENDMDL
