MODEL 1
REMARK VINA RESULT:    -5.642      0.000      0.000
REMARK INTER + INTRA:          -8.906
REMARK INTER:                  -8.280
REMARK INTRA:                  -0.626
REMARK UNBOUND:                -0.626
REMARK SMILES O=C([O-])CCCCCCCC(=O)[O-]
REMARK SMILES IDX 7 1 6 2 5 3 4 4 2 5 1 6 3 7 8 8 9 9 10 10 11 11 12 12 13 13
REMARK H PARENT
REMARK Flexibility Score: inf
ROOT
ATOM      1  C   UNL     1     -16.906  -8.270  -8.303  1.00  0.00     0.000 C 
ENDROOT
BRANCH   1   2
ATOM      2  C   UNL     1     -15.770  -8.531  -7.299  1.00  0.00     0.000 C 
BRANCH   2   3
ATOM      3  C   UNL     1     -16.098  -9.665  -6.310  1.00  0.00     0.006 C 
BRANCH   3   4
ATOM      4  C   UNL     1     -15.848 -11.079  -6.859  1.00  0.00     0.053 C 
BRANCH   4   5
ATOM      5  C   UNL     1     -14.467 -11.231  -7.416  1.00  0.00     0.041 C 
ATOM      6  O   UNL     1     -14.300 -11.477  -8.639  1.00  0.00    -0.550 OA
ATOM      7  O   UNL     1     -13.364 -11.133  -6.578  1.00  0.00    -0.550 OA
ENDBRANCH   4   5
ENDBRANCH   3   4
ENDBRANCH   2   3
ENDBRANCH   1   2
BRANCH   1   8
ATOM      8  C   UNL     1     -16.596  -8.804  -9.714  1.00  0.00     0.000 C 
BRANCH   8   9
ATOM      9  C   UNL     1     -17.382 -10.062 -10.125  1.00  0.00     0.006 C 
BRANCH   9  10
ATOM     10  C   UNL     1     -18.878  -9.794 -10.329  1.00  0.00     0.053 C 
BRANCH  10  11
ATOM     11  C   UNL     1     -19.403 -10.603 -11.473  1.00  0.00     0.041 C 
ATOM     12  O   UNL     1     -20.250 -10.108 -12.263  1.00  0.00    -0.550 OA
ATOM     13  O   UNL     1     -18.921 -11.887 -11.696  1.00  0.00    -0.550 OA
ENDBRANCH  10  11
ENDBRANCH   9  10
ENDBRANCH   8   9
ENDBRANCH   1   8
TORSDOF 8
ENDMDL
MODEL 2
REMARK VINA RESULT:    -5.629      0.138      5.499
REMARK INTER + INTRA:          -8.889
REMARK INTER:                  -8.295
REMARK INTRA:                  -0.593
REMARK UNBOUND:                -0.626
REMARK SMILES O=C([O-])CCCCCCCC(=O)[O-]
REMARK SMILES IDX 7 1 6 2 5 3 4 4 2 5 1 6 3 7 8 8 9 9 10 10 11 11 12 12 13 13
REMARK H PARENT
REMARK Flexibility Score: inf
ROOT
ATOM      1  C   UNL     1     -17.005  -8.327  -8.307  1.00  0.00     0.000 C 
ENDROOT
BRANCH   1   2
ATOM      2  C   UNL     1     -16.619  -8.740  -9.737  1.00  0.00     0.000 C 
BRANCH   2   3
ATOM      3  C   UNL     1     -17.361 -10.003 -10.213  1.00  0.00     0.006 C 
BRANCH   3   4
ATOM      4  C   UNL     1     -18.881  -9.827 -10.367  1.00  0.00     0.053 C 
BRANCH   4   5
ATOM      5  C   UNL     1     -19.431 -10.645 -11.494  1.00  0.00     0.041 C 
ATOM      6  O   UNL     1     -20.351 -10.186 -12.220  1.00  0.00    -0.550 OA
ATOM      7  O   UNL     1     -18.950 -11.928 -11.722  1.00  0.00    -0.550 OA
ENDBRANCH   4   5
ENDBRANCH   3   4
ENDBRANCH   2   3
ENDBRANCH   1   2
BRANCH   1   8
ATOM      8  C   UNL     1     -15.820  -8.383  -7.325  1.00  0.00     0.000 C 
BRANCH   8   9
ATOM      9  C   UNL     1     -15.907  -9.488  -6.257  1.00  0.00     0.006 C 
BRANCH   9  10
ATOM     10  C   UNL     1     -15.880 -10.901  -6.853  1.00  0.00     0.053 C 
BRANCH  10  11
ATOM     11  C   UNL     1     -14.519 -11.215  -7.390  1.00  0.00     0.041 C 
ATOM     12  O   UNL     1     -13.527 -11.263  -6.616  1.00  0.00    -0.550 OA
ATOM     13  O   UNL     1     -14.354 -11.505  -8.740  1.00  0.00    -0.550 OA
ENDBRANCH  10  11
ENDBRANCH   9  10
ENDBRANCH   8   9
ENDBRANCH   1   8
TORSDOF 8
ENDMDL
MODEL 3
REMARK VINA RESULT:    -5.619      1.072      1.574
REMARK INTER + INTRA:          -8.874
REMARK INTER:                  -8.349
REMARK INTRA:                  -0.525
REMARK UNBOUND:                -0.626
REMARK SMILES O=C([O-])CCCCCCCC(=O)[O-]
REMARK SMILES IDX 7 1 6 2 5 3 4 4 2 5 1 6 3 7 8 8 9 9 10 10 11 11 12 12 13 13
REMARK H PARENT
REMARK Flexibility Score: inf
ROOT
ATOM      1  C   UNL     1     -16.945  -8.737  -7.301  1.00  0.00     0.000 C 
ENDROOT
BRANCH   1   2
ATOM      2  C   UNL     1     -15.655  -8.813  -6.465  1.00  0.00     0.000 C 
BRANCH   2   3
ATOM      3  C   UNL     1     -14.396  -9.009  -7.329  1.00  0.00     0.006 C 
BRANCH   3   4
ATOM      4  C   UNL     1     -13.754 -10.401  -7.211  1.00  0.00     0.053 C 
BRANCH   4   5
ATOM      5  C   UNL     1     -14.557 -11.452  -7.913  1.00  0.00     0.041 C 
ATOM      6  O   UNL     1     -14.367 -11.682  -9.136  1.00  0.00    -0.550 OA
ATOM      7  O   UNL     1     -15.536 -12.155  -7.225  1.00  0.00    -0.550 OA
ENDBRANCH   4   5
ENDBRANCH   3   4
ENDBRANCH   2   3
ENDBRANCH   1   2
BRANCH   1   8
ATOM      8  C   UNL     1     -16.700  -8.240  -8.738  1.00  0.00     0.000 C 
BRANCH   8   9
ATOM      9  C   UNL     1     -17.075  -9.239  -9.848  1.00  0.00     0.006 C 
BRANCH   9  10
ATOM     10  C   UNL     1     -18.583  -9.505  -9.929  1.00  0.00     0.053 C 
BRANCH  10  11
ATOM     11  C   UNL     1     -18.889 -10.442 -11.054  1.00  0.00     0.041 C 
ATOM     12  O   UNL     1     -18.175 -11.463 -11.241  1.00  0.00    -0.550 OA
ATOM     13  O   UNL     1     -19.992 -10.216 -11.868  1.00  0.00    -0.550 OA
ENDBRANCH  10  11
ENDBRANCH   9  10
ENDBRANCH   8   9
ENDBRANCH   1   8
TORSDOF 8
ENDMDL
MODEL 4
REMARK VINA RESULT:    -5.515      2.665      3.942
REMARK INTER + INTRA:          -8.721
REMARK INTER:                  -8.084
REMARK INTRA:                  -0.637
REMARK UNBOUND:                -0.626
REMARK SMILES O=C([O-])CCCCCCCC(=O)[O-]
REMARK SMILES IDX 7 1 6 2 5 3 4 4 2 5 1 6 3 7 8 8 9 9 10 10 11 11 12 12 13 13
REMARK H PARENT
REMARK Flexibility Score: inf
ROOT
ATOM      1  C   UNL     1     -17.672 -11.189 -10.592  1.00  0.00     0.000 C 
ENDROOT
BRANCH   1   2
ATOM      2  C   UNL     1     -16.283 -11.756 -10.933  1.00  0.00     0.000 C 
BRANCH   2   3
ATOM      3  C   UNL     1     -15.177 -11.220 -10.004  1.00  0.00     0.006 C 
BRANCH   3   4
ATOM      4  C   UNL     1     -14.624 -12.256  -9.012  1.00  0.00     0.053 C 
BRANCH   4   5
ATOM      5  C   UNL     1     -14.608 -11.738  -7.607  1.00  0.00     0.041 C 
ATOM      6  O   UNL     1     -15.589 -11.941  -6.846  1.00  0.00    -0.550 OA
ATOM      7  O   UNL     1     -13.522 -11.003  -7.149  1.00  0.00    -0.550 OA
ENDBRANCH   4   5
ENDBRANCH   3   4
ENDBRANCH   2   3
ENDBRANCH   1   2
BRANCH   1   8
ATOM      8  C   UNL     1     -17.692  -9.650 -10.525  1.00  0.00     0.000 C 
BRANCH   8   9
ATOM      9  C   UNL     1     -18.172  -9.061  -9.186  1.00  0.00     0.006 C 
BRANCH   9  10
ATOM     10  C   UNL     1     -17.120  -8.170  -8.512  1.00  0.00     0.053 C 
BRANCH  10  11
ATOM     11  C   UNL     1     -16.798  -8.684  -7.145  1.00  0.00     0.041 C 
ATOM     12  O   UNL     1     -15.734  -8.333  -6.570  1.00  0.00    -0.550 OA
ATOM     13  O   UNL     1     -17.696  -9.512  -6.483  1.00  0.00    -0.550 OA
ENDBRANCH  10  11
ENDBRANCH   9  10
ENDBRANCH   8   9
ENDBRANCH   1   8
TORSDOF 8
ENDMDL
MODEL 5
REMARK VINA RESULT:    -5.462      1.340      5.449
REMARK INTER + INTRA:          -8.644
REMARK INTER:                  -7.953
REMARK INTRA:                  -0.690
REMARK UNBOUND:                -0.626
REMARK SMILES O=C([O-])CCCCCCCC(=O)[O-]
REMARK SMILES IDX 7 1 6 2 5 3 4 4 2 5 1 6 3 7 8 8 9 9 10 10 11 11 12 12 13 13
REMARK H PARENT
REMARK Flexibility Score: inf
ROOT
ATOM      1  C   UNL     1     -17.421  -9.458  -7.361  1.00  0.00     0.000 C 
ENDROOT
BRANCH   1   2
ATOM      2  C   UNL     1     -16.900  -8.437  -8.386  1.00  0.00     0.000 C 
BRANCH   2   3
ATOM      3  C   UNL     1     -16.887  -8.990  -9.824  1.00  0.00     0.006 C 
BRANCH   3   4
ATOM      4  C   UNL     1     -18.112  -9.846 -10.186  1.00  0.00     0.053 C 
BRANCH   4   5
ATOM      5  C   UNL     1     -17.724 -11.126 -10.860  1.00  0.00     0.041 C 
ATOM      6  O   UNL     1     -18.547 -11.728 -11.598  1.00  0.00    -0.550 OA
ATOM      7  O   UNL     1     -16.464 -11.671 -10.647  1.00  0.00    -0.550 OA
ENDBRANCH   4   5
ENDBRANCH   3   4
ENDBRANCH   2   3
ENDBRANCH   1   2
BRANCH   1   8
ATOM      8  C   UNL     1     -16.309 -10.024  -6.458  1.00  0.00     0.000 C 
BRANCH   8   9
ATOM      9  C   UNL     1     -15.690 -11.350  -6.936  1.00  0.00     0.006 C 
BRANCH   9  10
ATOM     10  C   UNL     1     -14.382 -11.155  -7.714  1.00  0.00     0.053 C 
BRANCH  10  11
ATOM     11  C   UNL     1     -13.354 -10.497  -6.850  1.00  0.00     0.041 C 
ATOM     12  O   UNL     1     -12.888 -11.099  -5.847  1.00  0.00    -0.550 OA
ATOM     13  O   UNL     1     -12.872  -9.236  -7.180  1.00  0.00    -0.550 OA
ENDBRANCH  10  11
ENDBRANCH   9  10
ENDBRANCH   8   9
ENDBRANCH   1   8
TORSDOF 8
ENDMDL
MODEL 6
REMARK VINA RESULT:    -5.458      1.306      2.002
REMARK INTER + INTRA:          -8.636
REMARK INTER:                  -7.957
REMARK INTRA:                  -0.679
REMARK UNBOUND:                -0.626
REMARK SMILES O=C([O-])CCCCCCCC(=O)[O-]
REMARK SMILES IDX 7 1 6 2 5 3 4 4 2 5 1 6 3 7 8 8 9 9 10 10 11 11 12 12 13 13
REMARK H PARENT
REMARK Flexibility Score: inf
ROOT
ATOM      1  C   UNL     1     -17.393  -9.324  -7.342  1.00  0.00     0.000 C 
ENDROOT
BRANCH   1   2
ATOM      2  C   UNL     1     -16.293  -9.948  -6.466  1.00  0.00     0.000 C 
BRANCH   2   3
ATOM      3  C   UNL     1     -15.819 -11.316  -6.992  1.00  0.00     0.006 C 
BRANCH   3   4
ATOM      4  C   UNL     1     -14.459 -11.284  -7.708  1.00  0.00     0.053 C 
BRANCH   4   5
ATOM      5  C   UNL     1     -13.422 -10.551  -6.916  1.00  0.00     0.041 C 
ATOM      6  O   UNL     1     -12.896 -11.091  -5.908  1.00  0.00    -0.550 OA
ATOM      7  O   UNL     1     -13.059  -9.258  -7.271  1.00  0.00    -0.550 OA
ENDBRANCH   4   5
ENDBRANCH   3   4
ENDBRANCH   2   3
ENDBRANCH   1   2
BRANCH   1   8
ATOM      8  C   UNL     1     -16.833  -8.414  -8.452  1.00  0.00     0.000 C 
BRANCH   8   9
ATOM      9  C   UNL     1     -16.787  -9.046  -9.855  1.00  0.00     0.006 C 
BRANCH   9  10
ATOM     10  C   UNL     1     -18.066  -9.817 -10.207  1.00  0.00     0.053 C 
BRANCH  10  11
ATOM     11  C   UNL     1     -17.728 -11.105 -10.888  1.00  0.00     0.041 C 
ATOM     12  O   UNL     1     -16.592 -11.626 -10.732  1.00  0.00    -0.550 OA
ATOM     13  O   UNL     1     -18.684 -11.756 -11.658  1.00  0.00    -0.550 OA
ENDBRANCH  10  11
ENDBRANCH   9  10
ENDBRANCH   8   9
ENDBRANCH   1   8
TORSDOF 8
ENDMDL
MODEL 7
REMARK VINA RESULT:    -5.425      2.774      4.122
REMARK INTER + INTRA:          -8.588
REMARK INTER:                  -7.759
REMARK INTRA:                  -0.830
REMARK UNBOUND:                -0.626
REMARK SMILES O=C([O-])CCCCCCCC(=O)[O-]
REMARK SMILES IDX 7 1 6 2 5 3 4 4 2 5 1 6 3 7 8 8 9 9 10 10 11 11 12 12 13 13
REMARK H PARENT
REMARK Flexibility Score: inf
ROOT
ATOM      1  C   UNL     1     -18.054 -10.190 -10.209  1.00  0.00     0.000 C 
ENDROOT
BRANCH   1   2
ATOM      2  C   UNL     1     -17.083  -9.027  -9.938  1.00  0.00     0.000 C 
BRANCH   2   3
ATOM      3  C   UNL     1     -17.168  -8.506  -8.491  1.00  0.00     0.006 C 
BRANCH   3   4
ATOM      4  C   UNL     1     -17.939  -9.424  -7.529  1.00  0.00     0.053 C 
BRANCH   4   5
ATOM      5  C   UNL     1     -17.040 -10.060  -6.515  1.00  0.00     0.041 C 
ATOM      6  O   UNL     1     -17.297 -11.210  -6.073  1.00  0.00    -0.550 OA
ATOM      7  O   UNL     1     -15.936  -9.369  -6.033  1.00  0.00    -0.550 OA
ENDBRANCH   4   5
ENDBRANCH   3   4
ENDBRANCH   2   3
ENDBRANCH   1   2
BRANCH   1   8
ATOM      8  C   UNL     1     -17.399 -11.350 -10.982  1.00  0.00     0.000 C 
BRANCH   8   9
ATOM      9  C   UNL     1     -15.867 -11.436 -10.858  1.00  0.00     0.006 C 
BRANCH   9  10
ATOM     10  C   UNL     1     -15.405 -12.522  -9.878  1.00  0.00     0.053 C 
BRANCH  10  11
ATOM     11  C   UNL     1     -14.820 -11.902  -8.649  1.00  0.00     0.041 C 
ATOM     12  O   UNL     1     -14.726 -12.569  -7.585  1.00  0.00    -0.550 OA
ATOM     13  O   UNL     1     -14.332 -10.601  -8.691  1.00  0.00    -0.550 OA
ENDBRANCH  10  11
ENDBRANCH   9  10
ENDBRANCH   8   9
ENDBRANCH   1   8
TORSDOF 8
ENDMDL
MODEL 8
REMARK VINA RESULT:    -5.376      2.753      5.411
REMARK INTER + INTRA:          -8.516
REMARK INTER:                  -7.856
REMARK INTRA:                  -0.661
REMARK UNBOUND:                -0.626
REMARK SMILES O=C([O-])CCCCCCCC(=O)[O-]
REMARK SMILES IDX 7 1 6 2 5 3 4 4 2 5 1 6 3 7 8 8 9 9 10 10 11 11 12 12 13 13
REMARK H PARENT
REMARK Flexibility Score: inf
ROOT
ATOM      1  C   UNL     1     -16.296 -10.476 -10.201  1.00  0.00     0.000 C 
ENDROOT
BRANCH   1   2
ATOM      2  C   UNL     1     -17.808 -10.238 -10.050  1.00  0.00     0.000 C 
BRANCH   2   3
ATOM      3  C   UNL     1     -18.134  -9.033  -9.148  1.00  0.00     0.006 C 
BRANCH   3   4
ATOM      4  C   UNL     1     -16.902  -8.335  -8.550  1.00  0.00     0.053 C 
BRANCH   4   5
ATOM      5  C   UNL     1     -16.712  -8.670  -7.103  1.00  0.00     0.041 C 
ATOM      6  O   UNL     1     -15.788  -8.127  -6.443  1.00  0.00    -0.550 OA
ATOM      7  O   UNL     1     -17.534  -9.607  -6.492  1.00  0.00    -0.550 OA
ENDBRANCH   4   5
ENDBRANCH   3   4
ENDBRANCH   2   3
ENDBRANCH   1   2
BRANCH   1   8
ATOM      8  C   UNL     1     -15.771 -11.599  -9.286  1.00  0.00     0.000 C 
BRANCH   8   9
ATOM      9  C   UNL     1     -14.384 -11.345  -8.669  1.00  0.00     0.006 C 
BRANCH   9  10
ATOM     10  C   UNL     1     -14.370 -11.501  -7.143  1.00  0.00     0.053 C 
BRANCH  10  11
ATOM     11  C   UNL     1     -13.276 -10.675  -6.544  1.00  0.00     0.041 C 
ATOM     12  O   UNL     1     -12.668 -11.077  -5.516  1.00  0.00    -0.550 OA
ATOM     13  O   UNL     1     -12.894  -9.483  -7.147  1.00  0.00    -0.550 OA
ENDBRANCH  10  11
ENDBRANCH   9  10
ENDBRANCH   8   9
ENDBRANCH   1   8
TORSDOF 8
ENDMDL
MODEL 9
REMARK VINA RESULT:    -5.194      1.303      1.881
REMARK INTER + INTRA:          -8.250
REMARK INTER:                  -7.915
REMARK INTRA:                  -0.335
REMARK UNBOUND:                -0.626
REMARK SMILES O=C([O-])CCCCCCCC(=O)[O-]
REMARK SMILES IDX 7 1 6 2 5 3 4 4 2 5 1 6 3 7 8 8 9 9 10 10 11 11 12 12 13 13
REMARK H PARENT
REMARK Flexibility Score: inf
ROOT
ATOM      1  C   UNL     1     -18.512  -9.143  -9.123  1.00  0.00     0.000 C 
ENDROOT
BRANCH   1   2
ATOM      2  C   UNL     1     -17.381  -8.437  -8.357  1.00  0.00     0.000 C 
BRANCH   2   3
ATOM      3  C   UNL     1     -15.982  -8.818  -8.875  1.00  0.00     0.006 C 
BRANCH   3   4
ATOM      4  C   UNL     1     -14.991  -9.239  -7.777  1.00  0.00     0.053 C 
BRANCH   4   5
ATOM      5  C   UNL     1     -14.482 -10.632  -7.982  1.00  0.00     0.041 C 
ATOM      6  O   UNL     1     -14.517 -11.158  -9.125  1.00  0.00    -0.550 OA
ATOM      7  O   UNL     1     -13.998 -11.362  -6.904  1.00  0.00    -0.550 OA
ENDBRANCH   4   5
ENDBRANCH   3   4
ENDBRANCH   2   3
ENDBRANCH   1   2
BRANCH   1   8
ATOM      8  C   UNL     1     -18.092  -9.587 -10.537  1.00  0.00     0.000 C 
BRANCH   8   9
ATOM      9  C   UNL     1     -18.678 -10.934 -11.001  1.00  0.00     0.006 C 
BRANCH   9  10
ATOM     10  C   UNL     1     -18.868 -11.012 -12.521  1.00  0.00     0.053 C 
BRANCH  10  11
ATOM     11  C   UNL     1     -20.318 -10.907 -12.873  1.00  0.00     0.041 C 
ATOM     12  O   UNL     1     -20.987  -9.903 -12.511  1.00  0.00    -0.550 OA
ATOM     13  O   UNL     1     -20.921 -11.894 -13.643  1.00  0.00    -0.550 OA
ENDBRANCH  10  11
ENDBRANCH   9  10
ENDBRANCH   8   9
ENDBRANCH   1   8
TORSDOF 8
ENDMDL
