MODEL 1
REMARK VINA RESULT:    -6.076      0.000      0.000
REMARK INTER + INTRA:          -6.572
REMARK INTER:                  -6.431
REMARK INTRA:                  -0.141
REMARK UNBOUND:                -0.141
REMARK SMILES C=C1CC=C(C(C)C)CC1
REMARK SMILES IDX 5 1 4 2 3 3 2 4 1 5 10 6 9 7 6 8 7 9 8 10
REMARK H PARENT
REMARK Flexibility Score: inf
ROOT
ATOM      1  C   UNL     1      17.515  29.899  25.002  1.00  0.00    -0.071 C 
ATOM      2  C   UNL     1      17.630  28.632  25.451  1.00  0.00    -0.023 C 
ATOM      3  C   UNL     1      18.831  28.193  26.248  1.00  0.00     0.057 C 
ATOM      4  C   UNL     1      19.306  29.303  27.163  1.00  0.00    -0.073 C 
ATOM      5  C   UNL     1      19.959  29.010  28.296  1.00  0.00     0.008 C 
ATOM      6  C   UNL     1      19.076  30.751  26.779  1.00  0.00     0.035 C 
ATOM      7  C   UNL     1      18.626  30.881  25.317  1.00  0.00     0.035 C 
ENDROOT
BRANCH   1   8
ATOM      8  C   UNL     1      16.261  30.338  24.261  1.00  0.00     0.008 C 
ATOM      9  C   UNL     1      16.570  31.494  23.304  1.00  0.00     0.012 C 
ATOM     10  C   UNL     1      15.617  29.162  23.517  1.00  0.00     0.012 C 
ENDBRANCH   1   8
TORSDOF 1
ENDMDL
MODEL 2
REMARK VINA RESULT:    -5.711      0.900      4.490
REMARK INTER + INTRA:          -6.186
REMARK INTER:                  -6.046
REMARK INTRA:                  -0.140
REMARK UNBOUND:                -0.141
REMARK SMILES C=C1CC=C(C(C)C)CC1
REMARK SMILES IDX 5 1 4 2 3 3 2 4 1 5 10 6 9 7 6 8 7 9 8 10
REMARK H PARENT
REMARK Flexibility Score: inf
ROOT
ATOM      1  C   UNL     1      18.189  29.366  25.490  1.00  0.00    -0.071 C 
ATOM      2  C   UNL     1      18.631  30.589  25.128  1.00  0.00    -0.023 C 
ATOM      3  C   UNL     1      18.089  31.285  23.906  1.00  0.00     0.057 C 
ATOM      4  C   UNL     1      16.612  30.997  23.733  1.00  0.00    -0.073 C 
ATOM      5  C   UNL     1      15.825  31.875  23.095  1.00  0.00     0.008 C 
ATOM      6  C   UNL     1      16.027  29.698  24.250  1.00  0.00     0.035 C 
ATOM      7  C   UNL     1      17.128  28.700  24.636  1.00  0.00     0.035 C 
ENDROOT
BRANCH   1   8
ATOM      8  C   UNL     1      18.698  28.714  26.766  1.00  0.00     0.008 C 
ATOM      9  C   UNL     1      19.626  27.537  26.444  1.00  0.00     0.012 C 
ATOM     10  C   UNL     1      19.397  29.737  27.670  1.00  0.00     0.012 C 
ENDBRANCH   1   8
TORSDOF 1
ENDMDL
MODEL 3
REMARK VINA RESULT:    -5.492      0.956      2.171
REMARK INTER + INTRA:          -5.954
REMARK INTER:                  -5.812
REMARK INTRA:                  -0.142
REMARK UNBOUND:                -0.141
REMARK SMILES C=C1CC=C(C(C)C)CC1
REMARK SMILES IDX 5 1 4 2 3 3 2 4 1 5 10 6 9 7 6 8 7 9 8 10
REMARK H PARENT
REMARK Flexibility Score: inf
ROOT
ATOM      1  C   UNL     1      17.971  29.541  25.692  1.00  0.00    -0.071 C 
ATOM      2  C   UNL     1      18.210  30.519  26.590  1.00  0.00    -0.023 C 
ATOM      3  C   UNL     1      18.736  30.203  27.967  1.00  0.00     0.057 C 
ATOM      4  C   UNL     1      19.713  29.047  27.918  1.00  0.00    -0.073 C 
ATOM      5  C   UNL     1      20.674  28.937  28.845  1.00  0.00     0.008 C 
ATOM      6  C   UNL     1      19.582  27.989  26.840  1.00  0.00     0.035 C 
ATOM      7  C   UNL     1      18.244  28.105  26.097  1.00  0.00     0.035 C 
ENDROOT
BRANCH   1   8
ATOM      8  C   UNL     1      17.509  29.889  24.285  1.00  0.00     0.008 C 
ATOM      9  C   UNL     1      16.001  29.665  24.136  1.00  0.00     0.012 C 
ATOM     10  C   UNL     1      17.894  31.327  23.916  1.00  0.00     0.012 C 
ENDBRANCH   1   8
TORSDOF 1
ENDMDL
MODEL 4
REMARK VINA RESULT:    -5.159      7.321      9.626
REMARK INTER + INTRA:          -5.601
REMARK INTER:                  -5.459
REMARK INTRA:                  -0.143
REMARK UNBOUND:                -0.141
REMARK SMILES C=C1CC=C(C(C)C)CC1
REMARK SMILES IDX 5 1 4 2 3 3 2 4 1 5 10 6 9 7 6 8 7 9 8 10
REMARK H PARENT
REMARK Flexibility Score: inf
ROOT
ATOM      1  C   UNL     1      10.706  33.496  22.372  1.00  0.00    -0.071 C 
ATOM      2  C   UNL     1      10.926  33.321  23.691  1.00  0.00    -0.023 C 
ATOM      3  C   UNL     1       9.880  33.693  24.712  1.00  0.00     0.057 C 
ATOM      4  C   UNL     1       8.490  33.396  24.191  1.00  0.00    -0.073 C 
ATOM      5  C   UNL     1       7.492  33.130  25.045  1.00  0.00     0.008 C 
ATOM      6  C   UNL     1       8.214  33.435  22.701  1.00  0.00     0.035 C 
ATOM      7  C   UNL     1       9.376  34.077  21.931  1.00  0.00     0.035 C 
ENDROOT
BRANCH   1   8
ATOM      8  C   UNL     1      11.747  33.048  21.356  1.00  0.00     0.008 C 
ATOM      9  C   UNL     1      11.540  33.760  20.015  1.00  0.00     0.012 C 
ATOM     10  C   UNL     1      13.168  33.269  21.886  1.00  0.00     0.012 C 
ENDBRANCH   1   8
TORSDOF 1
ENDMDL
MODEL 5
REMARK VINA RESULT:    -5.113      8.512     10.313
REMARK INTER + INTRA:          -5.553
REMARK INTER:                  -5.410
REMARK INTRA:                  -0.143
REMARK UNBOUND:                -0.141
REMARK SMILES C=C1CC=C(C(C)C)CC1
REMARK SMILES IDX 5 1 4 2 3 3 2 4 1 5 10 6 9 7 6 8 7 9 8 10
REMARK H PARENT
REMARK Flexibility Score: inf
ROOT
ATOM      1  C   UNL     1       8.433  33.470  22.796  1.00  0.00    -0.071 C 
ATOM      2  C   UNL     1       9.678  33.897  23.094  1.00  0.00    -0.023 C 
ATOM      3  C   UNL     1      10.147  33.999  24.523  1.00  0.00     0.057 C 
ATOM      4  C   UNL     1       9.577  32.871  25.359  1.00  0.00    -0.073 C 
ATOM      5  C   UNL     1      10.232  32.441  26.446  1.00  0.00     0.008 C 
ATOM      6  C   UNL     1       8.244  32.252  24.988  1.00  0.00     0.035 C 
ATOM      7  C   UNL     1       7.506  33.092  23.937  1.00  0.00     0.035 C 
ENDROOT
BRANCH   1   8
ATOM      8  C   UNL     1       8.005  33.307  21.346  1.00  0.00     0.008 C 
ATOM      9  C   UNL     1       6.478  33.249  21.232  1.00  0.00     0.012 C 
ATOM     10  C   UNL     1       8.583  34.424  20.470  1.00  0.00     0.012 C 
ENDBRANCH   1   8
TORSDOF 1
ENDMDL
MODEL 6
REMARK VINA RESULT:    -5.060      8.460     10.694
REMARK INTER + INTRA:          -5.497
REMARK INTER:                  -5.331
REMARK INTRA:                  -0.166
REMARK UNBOUND:                -0.141
REMARK SMILES C=C1CC=C(C(C)C)CC1
REMARK SMILES IDX 5 1 4 2 3 3 2 4 1 5 10 6 9 7 6 8 7 9 8 10
REMARK H PARENT
REMARK Flexibility Score: inf
ROOT
ATOM      1  C   UNL     1       8.384  32.830  23.868  1.00  0.00    -0.071 C 
ATOM      2  C   UNL     1       8.318  32.191  25.054  1.00  0.00    -0.023 C 
ATOM      3  C   UNL     1       7.293  31.114  25.305  1.00  0.00     0.057 C 
ATOM      4  C   UNL     1       7.060  30.292  24.054  1.00  0.00    -0.073 C 
ATOM      5  C   UNL     1       6.645  29.021  24.151  1.00  0.00     0.008 C 
ATOM      6  C   UNL     1       7.259  30.916  22.688  1.00  0.00     0.035 C 
ATOM      7  C   UNL     1       7.399  32.442  22.782  1.00  0.00     0.035 C 
ENDROOT
BRANCH   1   8
ATOM      8  C   UNL     1       9.472  33.862  23.614  1.00  0.00     0.008 C 
ATOM      9  C   UNL     1       9.483  34.925  24.718  1.00  0.00     0.012 C 
ATOM     10  C   UNL     1      10.846  33.195  23.475  1.00  0.00     0.012 C 
ENDBRANCH   1   8
TORSDOF 1
ENDMDL
MODEL 7
REMARK VINA RESULT:    -5.053      8.230      9.952
REMARK INTER + INTRA:          -5.489
REMARK INTER:                  -5.301
REMARK INTRA:                  -0.188
REMARK UNBOUND:                -0.141
REMARK SMILES C=C1CC=C(C(C)C)CC1
REMARK SMILES IDX 5 1 4 2 3 3 2 4 1 5 10 6 9 7 6 8 7 9 8 10
REMARK H PARENT
REMARK Flexibility Score: inf
ROOT
ATOM      1  C   UNL     1       9.251  33.340  24.207  1.00  0.00    -0.071 C 
ATOM      2  C   UNL     1       8.490  33.665  23.142  1.00  0.00    -0.023 C 
ATOM      3  C   UNL     1       9.108  34.203  21.877  1.00  0.00     0.057 C 
ATOM      4  C   UNL     1      10.442  33.538  21.605  1.00  0.00    -0.073 C 
ATOM      5  C   UNL     1      10.901  33.436  20.350  1.00  0.00     0.008 C 
ATOM      6  C   UNL     1      11.280  33.021  22.757  1.00  0.00     0.035 C 
ATOM      7  C   UNL     1      10.753  33.526  24.107  1.00  0.00     0.035 C 
ENDROOT
BRANCH   1   8
ATOM      8  C   UNL     1       8.613  32.732  25.448  1.00  0.00     0.008 C 
ATOM      9  C   UNL     1       7.754  31.518  25.079  1.00  0.00     0.012 C 
ATOM     10  C   UNL     1       9.673  32.364  26.491  1.00  0.00     0.012 C 
ENDBRANCH   1   8
TORSDOF 1
ENDMDL
MODEL 8
REMARK VINA RESULT:    -4.977      5.385      8.607
REMARK INTER + INTRA:          -5.409
REMARK INTER:                  -5.271
REMARK INTRA:                  -0.138
REMARK UNBOUND:                -0.141
REMARK SMILES C=C1CC=C(C(C)C)CC1
REMARK SMILES IDX 5 1 4 2 3 3 2 4 1 5 10 6 9 7 6 8 7 9 8 10
REMARK H PARENT
REMARK Flexibility Score: inf
ROOT
ATOM      1  C   UNL     1      13.053  33.023  21.600  1.00  0.00    -0.071 C 
ATOM      2  C   UNL     1      12.392  33.620  20.587  1.00  0.00    -0.023 C 
ATOM      3  C   UNL     1      10.886  33.589  20.511  1.00  0.00     0.057 C 
ATOM      4  C   UNL     1      10.275  33.682  21.894  1.00  0.00    -0.073 C 
ATOM      5  C   UNL     1       9.049  34.198  22.056  1.00  0.00     0.008 C 
ATOM      6  C   UNL     1      11.035  33.156  23.095  1.00  0.00     0.035 C 
ATOM      7  C   UNL     1      12.246  32.313  22.670  1.00  0.00     0.035 C 
ENDROOT
BRANCH   1   8
ATOM      8  C   UNL     1      14.567  33.129  21.694  1.00  0.00     0.008 C 
ATOM      9  C   UNL     1      15.186  31.773  22.051  1.00  0.00     0.012 C 
ATOM     10  C   UNL     1      15.165  33.686  20.397  1.00  0.00     0.012 C 
ENDBRANCH   1   8
TORSDOF 1
ENDMDL
MODEL 9
REMARK VINA RESULT:    -4.913      7.114      9.059
REMARK INTER + INTRA:          -5.341
REMARK INTER:                  -5.203
REMARK INTRA:                  -0.138
REMARK UNBOUND:                -0.141
REMARK SMILES C=C1CC=C(C(C)C)CC1
REMARK SMILES IDX 5 1 4 2 3 3 2 4 1 5 10 6 9 7 6 8 7 9 8 10
REMARK H PARENT
REMARK Flexibility Score: inf
ROOT
ATOM      1  C   UNL     1      10.478  33.580  22.005  1.00  0.00    -0.071 C 
ATOM      2  C   UNL     1      11.477  33.193  22.824  1.00  0.00    -0.023 C 
ATOM      3  C   UNL     1      12.755  32.610  22.276  1.00  0.00     0.057 C 
ATOM      4  C   UNL     1      13.141  33.286  20.976  1.00  0.00    -0.073 C 
ATOM      5  C   UNL     1      14.426  33.339  20.600  1.00  0.00     0.008 C 
ATOM      6  C   UNL     1      12.069  33.871  20.079  1.00  0.00     0.035 C 
ATOM      7  C   UNL     1      10.666  33.417  20.508  1.00  0.00     0.035 C 
ENDROOT
BRANCH   1   8
ATOM      8  C   UNL     1       9.228  34.231  22.576  1.00  0.00     0.008 C 
ATOM      9  C   UNL     1       7.981  33.409  22.235  1.00  0.00     0.012 C 
ATOM     10  C   UNL     1       9.355  34.440  24.090  1.00  0.00     0.012 C 
ENDBRANCH   1   8
TORSDOF 1
ENDMDL
