MODEL 1
REMARK VINA RESULT:    -4.511      0.000      0.000
REMARK INTER + INTRA:          -2.797
REMARK INTER:                  -5.565
REMARK INTRA:                   2.768
REMARK UNBOUND:                 2.768
REMARK SMILES C=C1CC[C@H]2[C@H]([C@H]3[C@@H]1CC[C@@H]3C)C2(C)C
REMARK SMILES IDX 3 1 2 2 1 3 8 4 12 5 11 6 10 7 7 8 9 9 4 11 5 12 6 13 13 14
REMARK SMILES IDX 14 16 15 17
REMARK H PARENT
REMARK Flexibility Score: 80.00
ROOT
ATOM      1  C   UNL     1     105.093 103.657 128.515  1.00  0.00     0.031 C 
ENDROOT
BRANCH   1   2
ATOM      2  C   UNL     1     105.288 102.564 127.464  1.00  0.00    -0.074 C 
ATOM      3  C   UNL     1     105.232 101.285 127.890  1.00  0.00     0.008 C 
BRANCH   2   4
ATOM      4  C   UNL     1     105.650 102.943 125.998  1.00  0.00     0.018 C 
ATOM      5  C   UNL     1     104.480 104.427 122.746  1.00  0.00     0.008 C 
ATOM      6  C   UNL     1     104.463 103.363 123.851  1.00  0.00    -0.010 C 
ATOM      7  C   UNL     1     105.570 102.336 123.653  1.00  0.00     0.004 C 
ATOM      8  C   UNL     1     104.690 103.942 125.264  1.00  0.00     0.003 CG0
ATOM      9  C   UNL     1     105.781 101.755 125.033  1.00  0.00     0.008 C 
ATOM     10  G   UNL     1     103.360 104.078 126.026  1.00  0.00     0.000 G0
ENDBRANCH   2   4
ENDBRANCH   1   2
BRANCH   1  11
ATOM     11  C   UNL     1     103.689 104.290 128.466  1.00  0.00     0.009 C 
BRANCH  11  12
ATOM     12  C   UNL     1     103.592 105.095 127.174  1.00  0.00    -0.001 C 
ATOM     13  C   UNL     1     103.351 104.082 126.025  1.00  0.00     0.002 CG0
ATOM     14  C   UNL     1     102.416 105.275 126.225  1.00  0.00    -0.029 C 
ATOM     15  G   UNL     1     104.685 103.973 125.264  1.00  0.00     0.000 G0
ATOM     16  C   UNL     1     102.529 106.436 125.233  1.00  0.00     0.011 C 
ATOM     17  C   UNL     1     101.029 104.986 126.808  1.00  0.00     0.011 C 
ENDBRANCH  11  12
ENDBRANCH   1  11
TORSDOF 0
ENDMDL
MODEL 2
REMARK VINA RESULT:    -4.472      6.011      7.394
REMARK INTER + INTRA:          -2.749
REMARK INTER:                  -5.479
REMARK INTRA:                   2.730
REMARK UNBOUND:                 2.768
REMARK SMILES C=C1CC[C@H]2[C@H]([C@H]3[C@@H]1CC[C@@H]3C)C2(C)C
REMARK SMILES IDX 3 1 2 2 1 3 8 4 12 5 11 6 10 7 7 8 9 9 4 11 5 12 6 13 13 14
REMARK SMILES IDX 14 16 15 17
REMARK H PARENT
REMARK Flexibility Score: 80.00
ROOT
ATOM      1  C   UNL     1     107.515 108.657 128.812  1.00  0.00     0.031 C 
ENDROOT
BRANCH   1   2
ATOM      2  C   UNL     1     107.356 109.780 127.788  1.00  0.00    -0.074 C 
ATOM      3  C   UNL     1     107.440 111.047 128.246  1.00  0.00     0.008 C 
BRANCH   2   4
ATOM      4  C   UNL     1     106.998 109.447 126.309  1.00  0.00     0.018 C 
ATOM      5  C   UNL     1     108.166 108.034 123.025  1.00  0.00     0.008 C 
ATOM      6  C   UNL     1     108.193 109.066 124.159  1.00  0.00    -0.010 C 
ATOM      7  C   UNL     1     107.105 110.117 123.982  1.00  0.00     0.004 C 
ATOM      8  C   UNL     1     107.947 108.453 125.554  1.00  0.00     0.003 CG0
ATOM      9  C   UNL     1     106.893 110.664 125.376  1.00  0.00     0.008 C 
ATOM     10  G   UNL     1     109.269 108.274 126.322  1.00  0.00     0.000 G0
ENDBRANCH   2   4
ENDBRANCH   1   2
BRANCH   1  11
ATOM     11  C   UNL     1     108.908 108.000 128.767  1.00  0.00     0.009 C 
BRANCH  11  12
ATOM     12  C   UNL     1     109.013 107.231 127.454  1.00  0.00    -0.001 C 
ATOM     13  C   UNL     1     109.283 108.273 126.339  1.00  0.00     0.002 CG0
ATOM     14  C   UNL     1     110.200 107.062 126.517  1.00  0.00    -0.029 C 
ATOM     15  G   UNL     1     107.962 108.423 125.563  1.00  0.00     0.000 G0
ATOM     16  C   UNL     1     110.086 105.932 125.491  1.00  0.00     0.011 C 
ATOM     17  C   UNL     1     111.582 107.316 127.127  1.00  0.00     0.011 C 
ENDBRANCH  11  12
ENDBRANCH   1  11
TORSDOF 0
ENDMDL
MODEL 3
REMARK VINA RESULT:    -4.446      3.940      5.185
REMARK INTER + INTRA:          -2.717
REMARK INTER:                  -5.457
REMARK INTRA:                   2.740
REMARK UNBOUND:                 2.768
REMARK SMILES C=C1CC[C@H]2[C@H]([C@H]3[C@@H]1CC[C@@H]3C)C2(C)C
REMARK SMILES IDX 3 1 2 2 1 3 8 4 12 5 11 6 10 7 7 8 9 9 4 11 5 12 6 13 13 14
REMARK SMILES IDX 14 16 15 17
REMARK H PARENT
REMARK Flexibility Score: 80.00
ROOT
ATOM      1  C   UNL     1     109.030 105.245 128.714  1.00  0.00     0.031 C 
ENDROOT
BRANCH   1   2
ATOM      2  C   UNL     1     110.026 105.309 127.558  1.00  0.00    -0.074 C 
ATOM      3  C   UNL     1     111.338 105.275 127.874  1.00  0.00     0.008 C 
BRANCH   2   4
ATOM      4  C   UNL     1     109.522 105.521 126.099  1.00  0.00     0.018 C 
ATOM      5  C   UNL     1     107.739 104.045 123.136  1.00  0.00     0.008 C 
ATOM      6  C   UNL     1     108.896 104.121 124.138  1.00  0.00    -0.010 C 
ATOM      7  C   UNL     1     109.916 105.177 123.733  1.00  0.00     0.004 C 
ATOM      8  C   UNL     1     108.450 104.511 125.564  1.00  0.00     0.003 CG0
ATOM      9  C   UNL     1     110.621 105.522 125.025  1.00  0.00     0.008 C 
ATOM     10  G   UNL     1     108.365 103.273 126.475  1.00  0.00     0.000 G0
ENDBRANCH   2   4
ENDBRANCH   1   2
BRANCH   1  11
ATOM     11  C   UNL     1     108.381 103.856 128.868  1.00  0.00     0.009 C 
BRANCH  11  12
ATOM     12  C   UNL     1     107.462 103.641 127.670  1.00  0.00    -0.001 C 
ATOM     13  C   UNL     1     108.364 103.247 126.472  1.00  0.00     0.002 CG0
ATOM     14  C   UNL     1     107.176 102.374 126.877  1.00  0.00    -0.029 C 
ATOM     15  G   UNL     1     108.430 104.486 125.560  1.00  0.00     0.000 G0
ATOM     16  C   UNL     1     105.934 102.411 125.983  1.00  0.00     0.011 C 
ATOM     17  C   UNL     1     107.490 101.051 127.584  1.00  0.00     0.011 C 
ENDBRANCH  11  12
ENDBRANCH   1  11
TORSDOF 0
ENDMDL
MODEL 4
REMARK VINA RESULT:    -4.423      4.888      6.383
REMARK INTER + INTRA:          -2.689
REMARK INTER:                  -5.452
REMARK INTRA:                   2.763
REMARK UNBOUND:                 2.768
REMARK SMILES C=C1CC[C@H]2[C@H]([C@H]3[C@@H]1CC[C@@H]3C)C2(C)C
REMARK SMILES IDX 3 1 2 2 1 3 8 4 12 5 11 6 10 7 7 8 9 9 4 11 5 12 6 13 13 14
REMARK SMILES IDX 14 16 15 17
REMARK H PARENT
REMARK Flexibility Score: 80.00
ROOT
ATOM      1  C   UNL     1     104.687 110.803 128.565  1.00  0.00     0.031 C 
ENDROOT
BRANCH   1   2
ATOM      2  C   UNL     1     105.860 111.098 127.630  1.00  0.00    -0.074 C 
ATOM      3  C   UNL     1     106.991 111.570 128.194  1.00  0.00     0.008 C 
BRANCH   2   4
ATOM      4  C   UNL     1     105.687 110.960 126.089  1.00  0.00     0.018 C 
ATOM      5  C   UNL     1     105.294 108.638 123.157  1.00  0.00     0.008 C 
ATOM      6  C   UNL     1     106.074 109.240 124.332  1.00  0.00    -0.010 C 
ATOM      7  C   UNL     1     106.740 110.553 123.944  1.00  0.00     0.004 C 
ATOM      8  C   UNL     1     105.187 109.576 125.550  1.00  0.00     0.003 CG0
ATOM      9  C   UNL     1     106.947 111.263 125.264  1.00  0.00     0.008 C 
ATOM     10  G   UNL     1     105.308 108.493 126.638  1.00  0.00     0.000 G0
ENDBRANCH   2   4
ENDBRANCH   1   2
BRANCH   1  11
ATOM     11  C   UNL     1     104.514 109.299 128.851  1.00  0.00     0.009 C 
BRANCH  11  12
ATOM     12  C   UNL     1     104.053 108.634 127.558  1.00  0.00    -0.001 C 
ATOM     13  C   UNL     1     105.302 108.486 126.652  1.00  0.00     0.002 CG0
ATOM     14  C   UNL     1     104.422 107.278 126.974  1.00  0.00    -0.029 C 
ATOM     15  G   UNL     1     105.166 109.560 125.557  1.00  0.00     0.000 G0
ATOM     16  C   UNL     1     103.505 106.756 125.865  1.00  0.00     0.011 C 
ATOM     17  C   UNL     1     104.982 106.249 127.961  1.00  0.00     0.011 C 
ENDBRANCH  11  12
ENDBRANCH   1  11
TORSDOF 0
ENDMDL
MODEL 5
REMARK VINA RESULT:    -4.333      2.985      4.693
REMARK INTER + INTRA:          -2.577
REMARK INTER:                  -5.312
REMARK INTRA:                   2.735
REMARK UNBOUND:                 2.768
REMARK SMILES C=C1CC[C@H]2[C@H]([C@H]3[C@@H]1CC[C@@H]3C)C2(C)C
REMARK SMILES IDX 3 1 2 2 1 3 8 4 12 5 11 6 10 7 7 8 9 9 4 11 5 12 6 13 13 14
REMARK SMILES IDX 14 16 15 17
REMARK H PARENT
REMARK Flexibility Score: 80.00
ROOT
ATOM      1  C   UNL     1     104.286 104.117 128.853  1.00  0.00     0.031 C 
ENDROOT
BRANCH   1   2
ATOM      2  C   UNL     1     105.352 105.201 128.695  1.00  0.00    -0.074 C 
ATOM      3  C   UNL     1     105.496 106.074 129.714  1.00  0.00     0.008 C 
BRANCH   2   4
ATOM      4  C   UNL     1     106.139 105.338 127.358  1.00  0.00     0.018 C 
ATOM      5  C   UNL     1     108.762 103.892 125.084  1.00  0.00     0.008 C 
ATOM      6  C   UNL     1     108.289 104.542 126.390  1.00  0.00    -0.010 C 
ATOM      7  C   UNL     1     108.172 106.053 126.250  1.00  0.00     0.004 C 
ATOM      8  C   UNL     1     106.893 104.064 126.844  1.00  0.00     0.003 CG0
ATOM      9  C   UNL     1     107.200 106.449 127.340  1.00  0.00     0.008 C 
ATOM     10  G   UNL     1     107.005 103.010 127.961  1.00  0.00     0.000 G0
ENDBRANCH   2   4
ENDBRANCH   1   2
BRANCH   1  11
ATOM     11  C   UNL     1     104.881 102.744 129.221  1.00  0.00     0.009 C 
BRANCH  11  12
ATOM     12  C   UNL     1     105.656 102.238 128.009  1.00  0.00    -0.001 C 
ATOM     13  C   UNL     1     107.005 103.002 127.982  1.00  0.00     0.002 CG0
ATOM     14  C   UNL     1     106.970 101.474 127.943  1.00  0.00    -0.029 C 
ATOM     15  G   UNL     1     106.889 104.033 126.845  1.00  0.00     0.000 G0
ATOM     16  C   UNL     1     107.282 100.792 126.608  1.00  0.00     0.011 C 
ATOM     17  C   UNL     1     107.384 100.733 129.220  1.00  0.00     0.011 C 
ENDBRANCH  11  12
ENDBRANCH   1  11
TORSDOF 0
ENDMDL
MODEL 6
REMARK VINA RESULT:    -4.263      5.449      6.910
REMARK INTER + INTRA:          -2.492
REMARK INTER:                  -5.308
REMARK INTRA:                   2.816
REMARK UNBOUND:                 2.768
REMARK SMILES C=C1CC[C@H]2[C@H]([C@H]3[C@@H]1CC[C@@H]3C)C2(C)C
REMARK SMILES IDX 3 1 2 2 1 3 8 4 12 5 11 6 10 7 7 8 9 9 4 11 5 12 6 13 13 14
REMARK SMILES IDX 14 16 15 17
REMARK H PARENT
REMARK Flexibility Score: 80.00
ROOT
ATOM      1  C   UNL     1     106.813 110.565 124.705  1.00  0.00     0.031 C 
ENDROOT
BRANCH   1   2
ATOM      2  C   UNL     1     106.981 109.085 125.044  1.00  0.00    -0.074 C 
ATOM      3  C   UNL     1     108.108 108.479 124.613  1.00  0.00     0.008 C 
BRANCH   2   4
ATOM      4  C   UNL     1     105.833 108.308 125.753  1.00  0.00     0.018 C 
ATOM      5  C   UNL     1     103.914 107.735 128.937  1.00  0.00     0.008 C 
ATOM      6  C   UNL     1     105.180 107.687 128.074  1.00  0.00    -0.010 C 
ATOM      7  C   UNL     1     105.200 106.454 127.180  1.00  0.00     0.004 C 
ATOM      8  C   UNL     1     105.317 108.889 127.115  1.00  0.00     0.003 CG0
ATOM      9  C   UNL     1     106.136 106.832 126.054  1.00  0.00     0.008 C 
ATOM     10  G   UNL     1     106.305 109.931 127.671  1.00  0.00     0.000 G0
ENDBRANCH   2   4
ENDBRANCH   1   2
BRANCH   1  11
ATOM     11  C   UNL     1     107.098 111.489 125.906  1.00  0.00     0.009 C 
BRANCH  11  12
ATOM     12  C   UNL     1     105.990 111.268 126.930  1.00  0.00    -0.001 C 
ATOM     13  C   UNL     1     106.311 109.943 127.668  1.00  0.00     0.002 CG0
ATOM     14  C   UNL     1     106.061 111.233 128.449  1.00  0.00    -0.029 C 
ATOM     15  G   UNL     1     105.323 108.898 127.121  1.00  0.00     0.000 G0
ATOM     16  C   UNL     1     104.724 111.367 129.184  1.00  0.00     0.011 C 
ATOM     17  C   UNL     1     107.279 111.914 129.083  1.00  0.00     0.011 C 
ENDBRANCH  11  12
ENDBRANCH   1  11
TORSDOF 0
ENDMDL
MODEL 7
REMARK VINA RESULT:    -4.232      5.615      6.038
REMARK INTER + INTRA:          -2.453
REMARK INTER:                  -5.319
REMARK INTRA:                   2.866
REMARK UNBOUND:                 2.768
REMARK SMILES C=C1CC[C@H]2[C@H]([C@H]3[C@@H]1CC[C@@H]3C)C2(C)C
REMARK SMILES IDX 3 1 2 2 1 3 8 4 12 5 11 6 10 7 7 8 9 9 4 11 5 12 6 13 13 14
REMARK SMILES IDX 14 16 15 17
REMARK H PARENT
REMARK Flexibility Score: 80.00
ROOT
ATOM      1  C   UNL     1     110.471 107.868 128.455  1.00  0.00     0.031 C 
ENDROOT
BRANCH   1   2
ATOM      2  C   UNL     1     110.839 106.617 127.657  1.00  0.00    -0.074 C 
ATOM      3  C   UNL     1     111.246 105.538 128.357  1.00  0.00     0.008 C 
BRANCH   2   4
ATOM      4  C   UNL     1     110.846 106.656 126.100  1.00  0.00     0.018 C 
ATOM      5  C   UNL     1     108.809 106.810 122.942  1.00  0.00     0.008 C 
ATOM      6  C   UNL     1     109.287 106.132 124.231  1.00  0.00    -0.010 C 
ATOM      7  C   UNL     1     110.619 105.422 124.026  1.00  0.00     0.004 C 
ATOM      8  C   UNL     1     109.525 107.119 125.394  1.00  0.00     0.003 CG0
ATOM      9  C   UNL     1     111.201 105.325 125.419  1.00  0.00     0.008 C 
ATOM     10  G   UNL     1     108.346 107.103 126.383  1.00  0.00     0.000 G0
ENDBRANCH   2   4
ENDBRANCH   1   2
BRANCH   1  11
ATOM     11  C   UNL     1     108.949 108.083 128.561  1.00  0.00     0.009 C 
BRANCH  11  12
ATOM     12  C   UNL     1     108.436 108.437 127.170  1.00  0.00    -0.001 C 
ATOM     13  C   UNL     1     108.344 107.113 126.368  1.00  0.00     0.002 CG0
ATOM     14  C   UNL     1     107.137 108.044 126.482  1.00  0.00    -0.029 C 
ATOM     15  G   UNL     1     109.528 107.125 125.385  1.00  0.00     0.000 G0
ATOM     16  C   UNL     1     106.759 108.865 125.246  1.00  0.00     0.011 C 
ATOM     17  C   UNL     1     105.995 107.598 127.401  1.00  0.00     0.011 C 
ENDBRANCH  11  12
ENDBRANCH   1  11
TORSDOF 0
ENDMDL
MODEL 8
REMARK VINA RESULT:    -4.201      1.398      3.704
REMARK INTER + INTRA:          -2.415
REMARK INTER:                  -5.225
REMARK INTRA:                   2.810
REMARK UNBOUND:                 2.768
REMARK SMILES C=C1CC[C@H]2[C@H]([C@H]3[C@@H]1CC[C@@H]3C)C2(C)C
REMARK SMILES IDX 3 1 2 2 1 3 8 4 12 5 11 6 10 7 7 8 9 9 4 11 5 12 6 13 13 14
REMARK SMILES IDX 14 16 15 17
REMARK H PARENT
REMARK Flexibility Score: 80.00
ROOT
ATOM      1  C   UNL     1     105.700 101.279 124.914  1.00  0.00     0.031 C 
ENDROOT
BRANCH   1   2
ATOM      2  C   UNL     1     106.167 101.528 126.347  1.00  0.00    -0.074 C 
ATOM      3  C   UNL     1     107.385 101.056 126.688  1.00  0.00     0.008 C 
BRANCH   2   4
ATOM      4  C   UNL     1     105.211 102.196 127.378  1.00  0.00     0.018 C 
ATOM      5  C   UNL     1     103.493 105.348 128.501  1.00  0.00     0.008 C 
ATOM      6  C   UNL     1     104.731 104.480 128.244  1.00  0.00    -0.010 C 
ATOM      7  C   UNL     1     104.986 103.519 129.397  1.00  0.00     0.004 C 
ATOM      8  C   UNL     1     104.607 103.590 126.989  1.00  0.00     0.003 CG0
ATOM      9  C   UNL     1     105.810 102.413 128.776  1.00  0.00     0.008 C 
ATOM     10  G   UNL     1     105.371 104.200 125.800  1.00  0.00     0.000 G0
ENDBRANCH   2   4
ENDBRANCH   1   2
BRANCH   1  11
ATOM     11  C   UNL     1     105.819 102.529 124.020  1.00  0.00     0.009 C 
BRANCH  11  12
ATOM     12  C   UNL     1     104.796 103.547 124.515  1.00  0.00    -0.001 C 
ATOM     13  C   UNL     1     105.387 104.200 125.791  1.00  0.00     0.002 CG0
ATOM     14  C   UNL     1     104.904 105.061 124.623  1.00  0.00    -0.029 C 
ATOM     15  G   UNL     1     104.612 103.598 126.977  1.00  0.00     0.000 G0
ATOM     16  C   UNL     1     103.582 105.814 124.799  1.00  0.00     0.011 C 
ATOM     17  C   UNL     1     105.977 105.725 123.754  1.00  0.00     0.011 C 
ENDBRANCH  11  12
ENDBRANCH   1  11
TORSDOF 0
ENDMDL
MODEL 9
REMARK VINA RESULT:    -4.122      5.515      7.085
REMARK INTER + INTRA:          -2.318
REMARK INTER:                  -5.130
REMARK INTRA:                   2.812
REMARK UNBOUND:                 2.768
REMARK SMILES C=C1CC[C@H]2[C@H]([C@H]3[C@@H]1CC[C@@H]3C)C2(C)C
REMARK SMILES IDX 3 1 2 2 1 3 8 4 12 5 11 6 10 7 7 8 9 9 4 11 5 12 6 13 13 14
REMARK SMILES IDX 14 16 15 17
REMARK H PARENT
REMARK Flexibility Score: 80.00
ROOT
ATOM      1  C   UNL     1     105.305 111.457 126.738  1.00  0.00     0.031 C 
ENDROOT
BRANCH   1   2
ATOM      2  C   UNL     1     105.735 110.579 127.912  1.00  0.00    -0.074 C 
ATOM      3  C   UNL     1     104.832 110.382 128.896  1.00  0.00     0.008 C 
BRANCH   2   4
ATOM      4  C   UNL     1     107.196 110.047 127.999  1.00  0.00     0.018 C 
ATOM      5  C   UNL     1     109.771 107.671 126.631  1.00  0.00     0.008 C 
ATOM      6  C   UNL     1     108.459 108.002 127.354  1.00  0.00    -0.010 C 
ATOM      7  C   UNL     1     108.699 108.333 128.820  1.00  0.00     0.004 C 
ATOM      8  C   UNL     1     107.729 109.231 126.772  1.00  0.00     0.003 CG0
ATOM      9  C   UNL     1     107.492 109.154 129.214  1.00  0.00     0.008 C 
ATOM     10  G   UNL     1     106.567 108.803 125.857  1.00  0.00     0.000 G0
ENDBRANCH   2   4
ENDBRANCH   1   2
BRANCH   1  11
ATOM     11  C   UNL     1     104.951 110.640 125.480  1.00  0.00     0.009 C 
BRANCH  11  12
ATOM     12  C   UNL     1     106.242 110.020 124.955  1.00  0.00    -0.001 C 
ATOM     13  C   UNL     1     106.555 108.795 125.852  1.00  0.00     0.002 CG0
ATOM     14  C   UNL     1     106.483 108.653 124.332  1.00  0.00    -0.029 C 
ATOM     15  G   UNL     1     107.721 109.219 126.763  1.00  0.00     0.000 G0
ATOM     16  C   UNL     1     107.802 108.487 123.573  1.00  0.00     0.011 C 
ATOM     17  C   UNL     1     105.250 107.949 123.753  1.00  0.00     0.011 C 
ENDBRANCH  11  12
ENDBRANCH   1  11
TORSDOF 0
ENDMDL
