MODEL 1
REMARK VINA RESULT:    -2.766      0.000      0.000
REMARK INTER + INTRA:          -3.362
REMARK INTER:                  -3.251
REMARK INTRA:                  -0.111
REMARK UNBOUND:                -0.111
REMARK SMILES O=C([O-])CCC(=O)[O-]
REMARK SMILES IDX 4 1 2 2 1 3 3 4 5 5 6 6 7 7 8 8
REMARK H PARENT
REMARK Flexibility Score: inf
ROOT
ATOM      1  C   UNL     1      72.336  31.315  59.442  1.00  0.00     0.059 C 
ENDROOT
BRANCH   1   2
ATOM      2  C   UNL     1      72.114  32.798  59.451  1.00  0.00     0.042 C 
ATOM      3  O   UNL     1      72.108  33.444  58.370  1.00  0.00    -0.550 OA
ATOM      4  O   UNL     1      71.956  33.470  60.656  1.00  0.00    -0.550 OA
ENDBRANCH   1   2
BRANCH   1   5
ATOM      5  C   UNL     1      73.476  30.909  60.383  1.00  0.00     0.059 C 
BRANCH   5   6
ATOM      6  C   UNL     1      72.962  30.210  61.605  1.00  0.00     0.042 C 
ATOM      7  O   UNL     1      71.733  29.971  61.727  1.00  0.00    -0.550 OA
ATOM      8  O   UNL     1      73.837  29.861  62.626  1.00  0.00    -0.550 OA
ENDBRANCH   5   6
ENDBRANCH   1   5
TORSDOF 3
ENDMDL
MODEL 2
REMARK VINA RESULT:    -2.742      0.119      1.622
REMARK INTER + INTRA:          -3.334
REMARK INTER:                  -3.226
REMARK INTRA:                  -0.108
REMARK UNBOUND:                -0.111
REMARK SMILES O=C([O-])CCC(=O)[O-]
REMARK SMILES IDX 4 1 2 2 1 3 3 4 5 5 6 6 7 7 8 8
REMARK H PARENT
REMARK Flexibility Score: inf
ROOT
ATOM      1  C   UNL     1      72.327  31.344  59.438  1.00  0.00     0.059 C 
ENDROOT
BRANCH   1   2
ATOM      2  C   UNL     1      72.117  32.828  59.461  1.00  0.00     0.042 C 
ATOM      3  O   UNL     1      71.941  33.426  60.555  1.00  0.00    -0.550 OA
ATOM      4  O   UNL     1      72.074  33.543  58.271  1.00  0.00    -0.550 OA
ENDBRANCH   1   2
BRANCH   1   5
ATOM      5  C   UNL     1      73.451  30.918  60.389  1.00  0.00     0.059 C 
BRANCH   5   6
ATOM      6  C   UNL     1      72.915  30.214  61.598  1.00  0.00     0.042 C 
ATOM      7  O   UNL     1      73.700  29.797  62.489  1.00  0.00    -0.550 OA
ATOM      8  O   UNL     1      71.550  29.984  61.721  1.00  0.00    -0.550 OA
ENDBRANCH   5   6
ENDBRANCH   1   5
TORSDOF 3
ENDMDL
MODEL 3
REMARK VINA RESULT:    -2.731      0.493      3.822
REMARK INTER + INTRA:          -3.320
REMARK INTER:                  -3.240
REMARK INTRA:                  -0.081
REMARK UNBOUND:                -0.111
REMARK SMILES O=C([O-])CCC(=O)[O-]
REMARK SMILES IDX 4 1 2 2 1 3 3 4 5 5 6 6 7 7 8 8
REMARK H PARENT
REMARK Flexibility Score: inf
ROOT
ATOM      1  C   UNL     1      73.747  30.878  60.408  1.00  0.00     0.059 C 
ENDROOT
BRANCH   1   2
ATOM      2  C   UNL     1      73.416  30.191  61.698  1.00  0.00     0.042 C 
ATOM      3  O   UNL     1      72.470  29.361  61.749  1.00  0.00    -0.550 OA
ATOM      4  O   UNL     1      74.125  30.498  62.852  1.00  0.00    -0.550 OA
ENDBRANCH   1   2
BRANCH   1   5
ATOM      5  C   UNL     1      72.488  31.169  59.583  1.00  0.00     0.059 C 
BRANCH   5   6
ATOM      6  C   UNL     1      72.208  32.639  59.501  1.00  0.00     0.042 C 
ATOM      7  O   UNL     1      72.086  33.198  58.381  1.00  0.00    -0.550 OA
ATOM      8  O   UNL     1      72.124  33.397  60.662  1.00  0.00    -0.550 OA
ENDBRANCH   5   6
ENDBRANCH   1   5
TORSDOF 3
ENDMDL
MODEL 4
REMARK VINA RESULT:    -2.638      1.075      4.010
REMARK INTER + INTRA:          -3.211
REMARK INTER:                  -3.110
REMARK INTRA:                  -0.102
REMARK UNBOUND:                -0.111
REMARK SMILES O=C([O-])CCC(=O)[O-]
REMARK SMILES IDX 4 1 2 2 1 3 3 4 5 5 6 6 7 7 8 8
REMARK H PARENT
REMARK Flexibility Score: inf
ROOT
ATOM      1  C   UNL     1      73.550  30.885  60.465  1.00  0.00     0.059 C 
ENDROOT
BRANCH   1   2
ATOM      2  C   UNL     1      73.173  29.917  61.545  1.00  0.00     0.042 C 
ATOM      3  O   UNL     1      73.784  29.928  62.647  1.00  0.00    -0.550 OA
ATOM      4  O   UNL     1      72.176  28.977  61.321  1.00  0.00    -0.550 OA
ENDBRANCH   1   2
BRANCH   1   5
ATOM      5  C   UNL     1      72.622  32.106  60.452  1.00  0.00     0.059 C 
BRANCH   5   6
ATOM      6  C   UNL     1      71.907  32.242  59.142  1.00  0.00     0.042 C 
ATOM      7  O   UNL     1      71.109  31.346  58.761  1.00  0.00    -0.550 OA
ATOM      8  O   UNL     1      72.153  33.338  58.325  1.00  0.00    -0.550 OA
ENDBRANCH   5   6
ENDBRANCH   1   5
TORSDOF 3
ENDMDL
MODEL 5
REMARK VINA RESULT:    -2.478     22.316     23.070
REMARK INTER + INTRA:          -3.023
REMARK INTER:                  -2.916
REMARK INTRA:                  -0.107
REMARK UNBOUND:                -0.111
REMARK SMILES O=C([O-])CCC(=O)[O-]
REMARK SMILES IDX 4 1 2 2 1 3 3 4 5 5 6 6 7 7 8 8
REMARK H PARENT
REMARK Flexibility Score: inf
ROOT
ATOM      1  C   UNL     1      57.838  18.183  50.179  1.00  0.00     0.059 C 
ENDROOT
BRANCH   1   2
ATOM      2  C   UNL     1      58.277  16.792  49.838  1.00  0.00     0.042 C 
ATOM      3  O   UNL     1      58.644  16.003  50.749  1.00  0.00    -0.550 OA
ATOM      4  O   UNL     1      58.320  16.380  48.513  1.00  0.00    -0.550 OA
ENDBRANCH   1   2
BRANCH   1   5
ATOM      5  C   UNL     1      56.321  18.262  50.387  1.00  0.00     0.059 C 
BRANCH   5   6
ATOM      6  C   UNL     1      55.977  18.676  51.786  1.00  0.00     0.042 C 
ATOM      7  O   UNL     1      55.054  19.506  51.991  1.00  0.00    -0.550 OA
ATOM      8  O   UNL     1      56.703  18.174  52.859  1.00  0.00    -0.550 OA
ENDBRANCH   5   6
ENDBRANCH   1   5
TORSDOF 3
ENDMDL
MODEL 6
REMARK VINA RESULT:    -2.457     21.897     22.773
REMARK INTER + INTRA:          -2.999
REMARK INTER:                  -2.899
REMARK INTRA:                  -0.100
REMARK UNBOUND:                -0.111
REMARK SMILES O=C([O-])CCC(=O)[O-]
REMARK SMILES IDX 4 1 2 2 1 3 3 4 5 5 6 6 7 7 8 8
REMARK H PARENT
REMARK Flexibility Score: inf
ROOT
ATOM      1  C   UNL     1      57.444  18.759  51.524  1.00  0.00     0.059 C 
ENDROOT
BRANCH   1   2
ATOM      2  C   UNL     1      55.950  18.821  51.421  1.00  0.00     0.042 C 
ATOM      3  O   UNL     1      55.243  18.834  52.463  1.00  0.00    -0.550 OA
ATOM      4  O   UNL     1      55.338  18.822  50.174  1.00  0.00    -0.550 OA
ENDBRANCH   1   2
BRANCH   1   5
ATOM      5  C   UNL     1      57.997  17.454  50.940  1.00  0.00     0.059 C 
BRANCH   5   6
ATOM      6  C   UNL     1      58.643  17.676  49.606  1.00  0.00     0.042 C 
ATOM      7  O   UNL     1      59.056  18.821  49.285  1.00  0.00    -0.550 OA
ATOM      8  O   UNL     1      58.751  16.627  48.702  1.00  0.00    -0.550 OA
ENDBRANCH   5   6
ENDBRANCH   1   5
TORSDOF 3
ENDMDL
MODEL 7
REMARK VINA RESULT:    -2.448     22.060     22.964
REMARK INTER + INTRA:          -2.988
REMARK INTER:                  -2.907
REMARK INTRA:                  -0.081
REMARK UNBOUND:                -0.111
REMARK SMILES O=C([O-])CCC(=O)[O-]
REMARK SMILES IDX 4 1 2 2 1 3 3 4 5 5 6 6 7 7 8 8
REMARK H PARENT
REMARK Flexibility Score: inf
ROOT
ATOM      1  C   UNL     1      58.693  18.122  49.679  1.00  0.00     0.059 C 
ENDROOT
BRANCH   1   2
ATOM      2  C   UNL     1      58.892  16.702  49.244  1.00  0.00     0.042 C 
ATOM      3  O   UNL     1      59.637  15.934  49.909  1.00  0.00    -0.550 OA
ATOM      4  O   UNL     1      58.288  16.238  48.083  1.00  0.00    -0.550 OA
ENDBRANCH   1   2
BRANCH   1   5
ATOM      5  C   UNL     1      58.266  18.208  51.149  1.00  0.00     0.059 C 
BRANCH   5   6
ATOM      6  C   UNL     1      56.784  18.390  51.284  1.00  0.00     0.042 C 
ATOM      7  O   UNL     1      56.275  18.623  52.411  1.00  0.00    -0.550 OA
ATOM      8  O   UNL     1      55.963  18.260  50.170  1.00  0.00    -0.550 OA
ENDBRANCH   5   6
ENDBRANCH   1   5
TORSDOF 3
ENDMDL
MODEL 8
REMARK VINA RESULT:    -2.341      1.431      3.639
REMARK INTER + INTRA:          -2.863
REMARK INTER:                  -2.708
REMARK INTRA:                  -0.155
REMARK UNBOUND:                -0.111
REMARK SMILES O=C([O-])CCC(=O)[O-]
REMARK SMILES IDX 4 1 2 2 1 3 3 4 5 5 6 6 7 7 8 8
REMARK H PARENT
REMARK Flexibility Score: inf
ROOT
ATOM      1  C   UNL     1      72.470  30.276  59.598  1.00  0.00     0.059 C 
ENDROOT
BRANCH   1   2
ATOM      2  C   UNL     1      71.134  29.882  60.151  1.00  0.00     0.042 C 
ATOM      3  O   UNL     1      71.036  29.462  61.334  1.00  0.00    -0.550 OA
ATOM      4  O   UNL     1      70.004  29.939  59.346  1.00  0.00    -0.550 OA
ENDBRANCH   1   2
BRANCH   1   5
ATOM      5  C   UNL     1      73.017  31.533  60.285  1.00  0.00     0.059 C 
BRANCH   5   6
ATOM      6  C   UNL     1      72.271  32.762  59.861  1.00  0.00     0.042 C 
ATOM      7  O   UNL     1      72.031  32.968  58.642  1.00  0.00    -0.550 OA
ATOM      8  O   UNL     1      71.879  33.700  60.808  1.00  0.00    -0.550 OA
ENDBRANCH   5   6
ENDBRANCH   1   5
TORSDOF 3
ENDMDL
MODEL 9
REMARK VINA RESULT:    -1.351      1.739      2.173
REMARK INTER + INTRA:          -1.699
REMARK INTER:                  -1.587
REMARK INTRA:                  -0.112
REMARK UNBOUND:                -0.111
REMARK SMILES O=C([O-])CCC(=O)[O-]
REMARK SMILES IDX 4 1 2 2 1 3 3 4 5 5 6 6 7 7 8 8
REMARK H PARENT
REMARK Flexibility Score: inf
ROOT
ATOM      1  C   UNL     1      72.687  30.465  59.566  1.00  0.00     0.059 C 
ENDROOT
BRANCH   1   2
ATOM      2  C   UNL     1      71.211  30.677  59.419  1.00  0.00     0.042 C 
ATOM      3  O   UNL     1      70.401  29.810  59.842  1.00  0.00    -0.550 OA
ATOM      4  O   UNL     1      70.730  31.812  58.779  1.00  0.00    -0.550 OA
ENDBRANCH   1   2
BRANCH   1   5
ATOM      5  C   UNL     1      73.230  31.128  60.837  1.00  0.00     0.059 C 
BRANCH   5   6
ATOM      6  C   UNL     1      73.601  30.113  61.874  1.00  0.00     0.042 C 
ATOM      7  O   UNL     1      73.406  28.888  61.660  1.00  0.00    -0.550 OA
ATOM      8  O   UNL     1      74.125  30.523  63.094  1.00  0.00    -0.550 OA
ENDBRANCH   5   6
ENDBRANCH   1   5
TORSDOF 3
ENDMDL
