MODEL 1
REMARK VINA RESULT:    -4.438      0.000      0.000
REMARK INTER + INTRA:         -16.371
REMARK INTER:                 -11.701
REMARK INTRA:                  -4.669
REMARK UNBOUND:                -4.669
REMARK SMILES CCCCCCCCCCCCCCCCCCCCCCCCCCCCCC(=O)[O-]
REMARK SMILES IDX 16 1 17 2 18 3 19 4 20 5 21 6 22 7 23 8 24 9 25 10 26 11
REMARK SMILES IDX 27 12 28 13 29 14 30 15 31 16 32 17 15 18 14 19 13 20 12 21
REMARK SMILES IDX 11 22 10 23 9 24 8 25 7 26 6 27 5 28 4 29 3 30 2 31 1 32
REMARK H PARENT
REMARK Flexibility Score: inf
ROOT
ATOM      1  C   UNL     1      14.852   4.039   0.319  1.00  0.00     0.000 C 
ENDROOT
BRANCH   1   2
ATOM      2  C   UNL     1      14.831   4.131  -1.216  1.00  0.00     0.000 C 
BRANCH   2   3
ATOM      3  C   UNL     1      14.991   2.760  -1.897  1.00  0.00     0.000 C 
BRANCH   3   4
ATOM      4  C   UNL     1      16.245   2.003  -1.428  1.00  0.00     0.000 C 
BRANCH   4   5
ATOM      5  C   UNL     1      16.457   0.681  -2.188  1.00  0.00     0.000 C 
BRANCH   5   6
ATOM      6  C   UNL     1      15.145  -0.091  -2.421  1.00  0.00     0.000 C 
BRANCH   6   7
ATOM      7  C   UNL     1      14.593  -0.838  -1.190  1.00  0.00     0.000 C 
BRANCH   7   8
ATOM      8  C   UNL     1      13.056  -0.864  -1.069  1.00  0.00     0.000 C 
BRANCH   8   9
ATOM      9  C   UNL     1      12.439   0.315  -0.293  1.00  0.00     0.000 C 
BRANCH   9  10
ATOM     10  C   UNL     1      11.737   1.329  -1.213  1.00  0.00     0.000 C 
BRANCH  10  11
ATOM     11  C   UNL     1      10.441   1.896  -0.604  1.00  0.00     0.000 C 
BRANCH  11  12
ATOM     12  C   UNL     1      10.296   1.716   0.919  1.00  0.00     0.000 C 
BRANCH  12  13
ATOM     13  C   UNL     1       9.206   2.613   1.531  1.00  0.00     0.006 C 
BRANCH  13  14
ATOM     14  C   UNL     1       8.906   3.839   0.657  1.00  0.00     0.053 C 
BRANCH  14  15
ATOM     15  C   UNL     1       9.341   5.112   1.315  1.00  0.00     0.041 C 
ATOM     16  O   UNL     1      10.438   5.166   1.933  1.00  0.00    -0.550 OA
ATOM     17  O   UNL     1       8.548   6.250   1.220  1.00  0.00    -0.550 OA
ENDBRANCH  14  15
ENDBRANCH  13  14
ENDBRANCH  12  13
ENDBRANCH  11  12
ENDBRANCH  10  11
ENDBRANCH   9  10
ENDBRANCH   8   9
ENDBRANCH   7   8
ENDBRANCH   6   7
ENDBRANCH   5   6
ENDBRANCH   4   5
ENDBRANCH   3   4
ENDBRANCH   2   3
ENDBRANCH   1   2
BRANCH   1  18
ATOM     18  C   UNL     1      13.502   3.693   0.982  1.00  0.00     0.000 C 
BRANCH  18  19
ATOM     19  C   UNL     1      13.629   3.071   2.390  1.00  0.00     0.000 C 
BRANCH  19  20
ATOM     20  C   UNL     1      14.819   2.101   2.514  1.00  0.00     0.000 C 
BRANCH  20  21
ATOM     21  C   UNL     1      14.419   0.696   3.005  1.00  0.00     0.000 C 
BRANCH  21  22
ATOM     22  C   UNL     1      12.905   0.491   3.234  1.00  0.00     0.000 C 
BRANCH  22  23
ATOM     23  C   UNL     1      12.494  -0.706   4.119  1.00  0.00     0.000 C 
BRANCH  23  24
ATOM     24  C   UNL     1      11.495  -0.399   5.251  1.00  0.00    -0.000 C 
BRANCH  24  25
ATOM     25  C   UNL     1      12.131  -0.491   6.649  1.00  0.00    -0.000 C 
BRANCH  25  26
ATOM     26  C   UNL     1      12.980   0.741   7.000  1.00  0.00    -0.000 C 
BRANCH  26  27
ATOM     27  C   UNL     1      14.471   0.556   6.672  1.00  0.00    -0.000 C 
BRANCH  27  28
ATOM     28  C   UNL     1      15.165   1.913   6.495  1.00  0.00    -0.000 C 
BRANCH  28  29
ATOM     29  C   UNL     1      16.634   1.782   6.056  1.00  0.00    -0.000 C 
BRANCH  29  30
ATOM     30  C   UNL     1      17.154   0.329   6.054  1.00  0.00    -0.000 C 
BRANCH  30  31
ATOM     31  C   UNL     1      18.429   0.168   6.896  1.00  0.00    -0.003 C 
ATOM     32  C   UNL     1      18.511   1.234   7.985  1.00  0.00     0.004 C 
ENDBRANCH  30  31
ENDBRANCH  29  30
ENDBRANCH  28  29
ENDBRANCH  27  28
ENDBRANCH  26  27
ENDBRANCH  25  26
ENDBRANCH  24  25
ENDBRANCH  23  24
ENDBRANCH  22  23
ENDBRANCH  21  22
ENDBRANCH  20  21
ENDBRANCH  19  20
ENDBRANCH  18  19
ENDBRANCH   1  18
TORSDOF 28
ENDMDL
MODEL 2
REMARK VINA RESULT:    -4.355      3.458      8.180
REMARK INTER + INTRA:         -16.152
REMARK INTER:                 -11.576
REMARK INTRA:                  -4.576
REMARK UNBOUND:                -4.669
REMARK SMILES CCCCCCCCCCCCCCCCCCCCCCCCCCCCCC(=O)[O-]
REMARK SMILES IDX 16 1 17 2 18 3 19 4 20 5 21 6 22 7 23 8 24 9 25 10 26 11
REMARK SMILES IDX 27 12 28 13 29 14 30 15 31 16 32 17 15 18 14 19 13 20 12 21
REMARK SMILES IDX 11 22 10 23 9 24 8 25 7 26 6 27 5 28 4 29 3 30 2 31 1 32
REMARK H PARENT
REMARK Flexibility Score: inf
ROOT
ATOM      1  C   UNL     1      14.255   2.314   1.872  1.00  0.00     0.000 C 
ENDROOT
BRANCH   1   2
ATOM      2  C   UNL     1      14.944   1.483   2.968  1.00  0.00     0.000 C 
BRANCH   2   3
ATOM      3  C   UNL     1      14.267   0.118   3.191  1.00  0.00     0.000 C 
BRANCH   3   4
ATOM      4  C   UNL     1      12.736   0.182   3.064  1.00  0.00     0.000 C 
BRANCH   4   5
ATOM      5  C   UNL     1      12.035  -1.003   3.751  1.00  0.00     0.000 C 
BRANCH   5   6
ATOM      6  C   UNL     1      10.665  -0.625   4.345  1.00  0.00     0.000 C 
BRANCH   6   7
ATOM      7  C   UNL     1      10.493  -0.926   5.847  1.00  0.00     0.000 C 
BRANCH   7   8
ATOM      8  C   UNL     1      11.804  -1.094   6.641  1.00  0.00     0.000 C 
BRANCH   8   9
ATOM      9  C   UNL     1      12.401   0.208   7.205  1.00  0.00     0.000 C 
BRANCH   9  10
ATOM     10  C   UNL     1      13.871   0.413   6.801  1.00  0.00     0.000 C 
BRANCH  10  11
ATOM     11  C   UNL     1      14.207   1.881   6.477  1.00  0.00     0.000 C 
BRANCH  11  12
ATOM     12  C   UNL     1      15.707   2.229   6.477  1.00  0.00     0.000 C 
BRANCH  12  13
ATOM     13  C   UNL     1      16.604   1.034   6.843  1.00  0.00     0.006 C 
BRANCH  13  14
ATOM     14  C   UNL     1      18.094   1.347   6.649  1.00  0.00     0.053 C 
BRANCH  14  15
ATOM     15  C   UNL     1      18.951   0.609   7.631  1.00  0.00     0.041 C 
ATOM     16  O   UNL     1      19.448   1.211   8.619  1.00  0.00    -0.550 OA
ATOM     17  O   UNL     1      19.178  -0.753   7.469  1.00  0.00    -0.550 OA
ENDBRANCH  14  15
ENDBRANCH  13  14
ENDBRANCH  12  13
ENDBRANCH  11  12
ENDBRANCH  10  11
ENDBRANCH   9  10
ENDBRANCH   8   9
ENDBRANCH   7   8
ENDBRANCH   6   7
ENDBRANCH   5   6
ENDBRANCH   4   5
ENDBRANCH   3   4
ENDBRANCH   2   3
ENDBRANCH   1   2
BRANCH   1  18
ATOM     18  C   UNL     1      14.861   3.710   1.617  1.00  0.00     0.000 C 
BRANCH  18  19
ATOM     19  C   UNL     1      15.237   3.977   0.142  1.00  0.00     0.000 C 
BRANCH  19  20
ATOM     20  C   UNL     1      16.117   2.868  -0.465  1.00  0.00     0.000 C 
BRANCH  20  21
ATOM     21  C   UNL     1      15.542   2.270  -1.764  1.00  0.00     0.000 C 
BRANCH  21  22
ATOM     22  C   UNL     1      14.002   2.153  -1.803  1.00  0.00     0.000 C 
BRANCH  22  23
ATOM     23  C   UNL     1      13.420   0.735  -1.989  1.00  0.00     0.000 C 
BRANCH  23  24
ATOM     24  C   UNL     1      13.022  -0.008  -0.699  1.00  0.00    -0.000 C 
BRANCH  24  25
ATOM     25  C   UNL     1      11.646  -0.686  -0.800  1.00  0.00    -0.000 C 
BRANCH  25  26
ATOM     26  C   UNL     1      10.720  -0.006  -1.820  1.00  0.00    -0.000 C 
BRANCH  26  27
ATOM     27  C   UNL     1       9.462   0.602  -1.179  1.00  0.00    -0.000 C 
BRANCH  27  28
ATOM     28  C   UNL     1       9.601   2.123  -1.033  1.00  0.00    -0.000 C 
BRANCH  28  29
ATOM     29  C   UNL     1      10.216   2.543   0.314  1.00  0.00    -0.000 C 
BRANCH  29  30
ATOM     30  C   UNL     1      11.228   3.703   0.197  1.00  0.00    -0.000 C 
BRANCH  30  31
ATOM     31  C   UNL     1      10.820   4.916   1.049  1.00  0.00    -0.003 C 
ATOM     32  C   UNL     1      11.570   4.934   2.379  1.00  0.00     0.004 C 
ENDBRANCH  30  31
ENDBRANCH  29  30
ENDBRANCH  28  29
ENDBRANCH  27  28
ENDBRANCH  26  27
ENDBRANCH  25  26
ENDBRANCH  24  25
ENDBRANCH  23  24
ENDBRANCH  22  23
ENDBRANCH  21  22
ENDBRANCH  20  21
ENDBRANCH  19  20
ENDBRANCH  18  19
ENDBRANCH   1  18
TORSDOF 28
ENDMDL
MODEL 3
REMARK VINA RESULT:    -4.347      1.675      6.328
REMARK INTER + INTRA:         -16.131
REMARK INTER:                 -11.572
REMARK INTRA:                  -4.559
REMARK UNBOUND:                -4.669
REMARK SMILES CCCCCCCCCCCCCCCCCCCCCCCCCCCCCC(=O)[O-]
REMARK SMILES IDX 16 1 17 2 18 3 19 4 20 5 21 6 22 7 23 8 24 9 25 10 26 11
REMARK SMILES IDX 27 12 28 13 29 14 30 15 31 16 32 17 15 18 14 19 13 20 12 21
REMARK SMILES IDX 11 22 10 23 9 24 8 25 7 26 6 27 5 28 4 29 3 30 2 31 1 32
REMARK H PARENT
REMARK Flexibility Score: inf
ROOT
ATOM      1  C   UNL     1      12.734   0.285   6.510  1.00  0.00     0.000 C 
ENDROOT
BRANCH   1   2
ATOM      2  C   UNL     1      13.990   1.115   6.825  1.00  0.00     0.000 C 
BRANCH   2   3
ATOM      3  C   UNL     1      15.289   0.299   6.695  1.00  0.00     0.000 C 
BRANCH   3   4
ATOM      4  C   UNL     1      16.430   1.094   6.038  1.00  0.00     0.000 C 
BRANCH   4   5
ATOM      5  C   UNL     1      15.916   2.195   5.093  1.00  0.00     0.000 C 
BRANCH   5   6
ATOM      6  C   UNL     1      15.443   1.644   3.735  1.00  0.00     0.000 C 
BRANCH   6   7
ATOM      7  C   UNL     1      14.323   2.453   3.051  1.00  0.00     0.000 C 
BRANCH   7   8
ATOM      8  C   UNL     1      14.769   3.311   1.850  1.00  0.00     0.000 C 
BRANCH   8   9
ATOM      9  C   UNL     1      13.906   4.558   1.579  1.00  0.00     0.000 C 
BRANCH   9  10
ATOM     10  C   UNL     1      12.537   4.498   2.279  1.00  0.00     0.000 C 
BRANCH  10  11
ATOM     11  C   UNL     1      11.377   4.939   1.367  1.00  0.00     0.000 C 
BRANCH  11  12
ATOM     12  C   UNL     1       9.969   4.789   1.975  1.00  0.00     0.000 C 
BRANCH  12  13
ATOM     13  C   UNL     1       8.855   5.315   1.053  1.00  0.00     0.006 C 
BRANCH  13  14
ATOM     14  C   UNL     1       9.414   6.105  -0.139  1.00  0.00     0.053 C 
BRANCH  14  15
ATOM     15  C   UNL     1       9.097   5.442  -1.444  1.00  0.00     0.041 C 
ATOM     16  O   UNL     1       9.081   6.112  -2.511  1.00  0.00    -0.550 OA
ATOM     17  O   UNL     1       8.847   4.075  -1.486  1.00  0.00    -0.550 OA
ENDBRANCH  14  15
ENDBRANCH  13  14
ENDBRANCH  12  13
ENDBRANCH  11  12
ENDBRANCH  10  11
ENDBRANCH   9  10
ENDBRANCH   8   9
ENDBRANCH   7   8
ENDBRANCH   6   7
ENDBRANCH   5   6
ENDBRANCH   4   5
ENDBRANCH   3   4
ENDBRANCH   2   3
ENDBRANCH   1   2
BRANCH   1  18
ATOM     18  C   UNL     1      12.562  -0.126   5.033  1.00  0.00     0.000 C 
BRANCH  18  19
ATOM     19  C   UNL     1      11.327  -1.014   4.761  1.00  0.00     0.000 C 
BRANCH  19  20
ATOM     20  C   UNL     1      10.057  -0.512   5.474  1.00  0.00     0.000 C 
BRANCH  20  21
ATOM     21  C   UNL     1       8.945  -0.064   4.505  1.00  0.00     0.000 C 
BRANCH  21  22
ATOM     22  C   UNL     1       9.296  -0.189   3.006  1.00  0.00     0.000 C 
BRANCH  22  23
ATOM     23  C   UNL     1       9.371   1.126   2.200  1.00  0.00     0.000 C 
BRANCH  23  24
ATOM     24  C   UNL     1       9.328   0.984   0.666  1.00  0.00    -0.000 C 
BRANCH  24  25
ATOM     25  C   UNL     1      10.597   1.519  -0.019  1.00  0.00    -0.000 C 
BRANCH  25  26
ATOM     26  C   UNL     1      11.872   1.254   0.798  1.00  0.00    -0.000 C 
BRANCH  26  27
ATOM     27  C   UNL     1      12.875   0.346   0.069  1.00  0.00    -0.000 C 
BRANCH  27  28
ATOM     28  C   UNL     1      12.641   0.376  -1.447  1.00  0.00    -0.000 C 
BRANCH  28  29
ATOM     29  C   UNL     1      13.802   1.024  -2.221  1.00  0.00    -0.000 C 
BRANCH  29  30
ATOM     30  C   UNL     1      15.145   0.998  -1.460  1.00  0.00    -0.000 C 
BRANCH  30  31
ATOM     31  C   UNL     1      15.855   2.360  -1.489  1.00  0.00    -0.003 C 
ATOM     32  C   UNL     1      14.880   3.484  -1.831  1.00  0.00     0.004 C 
ENDBRANCH  30  31
ENDBRANCH  29  30
ENDBRANCH  28  29
ENDBRANCH  27  28
ENDBRANCH  26  27
ENDBRANCH  25  26
ENDBRANCH  24  25
ENDBRANCH  23  24
ENDBRANCH  22  23
ENDBRANCH  21  22
ENDBRANCH  20  21
ENDBRANCH  19  20
ENDBRANCH  18  19
ENDBRANCH   1  18
TORSDOF 28
ENDMDL
MODEL 4
REMARK VINA RESULT:    -4.311      1.386      2.077
REMARK INTER + INTRA:         -16.037
REMARK INTER:                 -11.007
REMARK INTRA:                  -5.031
REMARK UNBOUND:                -4.669
REMARK SMILES CCCCCCCCCCCCCCCCCCCCCCCCCCCCCC(=O)[O-]
REMARK SMILES IDX 16 1 17 2 18 3 19 4 20 5 21 6 22 7 23 8 24 9 25 10 26 11
REMARK SMILES IDX 27 12 28 13 29 14 30 15 31 16 32 17 15 18 14 19 13 20 12 21
REMARK SMILES IDX 11 22 10 23 9 24 8 25 7 26 6 27 5 28 4 29 3 30 2 31 1 32
REMARK H PARENT
REMARK Flexibility Score: inf
ROOT
ATOM      1  C   UNL     1      14.691   4.276   0.633  1.00  0.00     0.000 C 
ENDROOT
BRANCH   1   2
ATOM      2  C   UNL     1      13.970   3.758  -0.623  1.00  0.00     0.000 C 
BRANCH   2   3
ATOM      3  C   UNL     1      14.944   3.359  -1.746  1.00  0.00     0.000 C 
BRANCH   3   4
ATOM      4  C   UNL     1      16.279   2.811  -1.212  1.00  0.00     0.000 C 
BRANCH   4   5
ATOM      5  C   UNL     1      16.389   1.283  -1.354  1.00  0.00     0.000 C 
BRANCH   5   6
ATOM      6  C   UNL     1      15.526   0.725  -2.501  1.00  0.00     0.000 C 
BRANCH   6   7
ATOM      7  C   UNL     1      14.509  -0.360  -2.092  1.00  0.00     0.000 C 
BRANCH   7   8
ATOM      8  C   UNL     1      13.130   0.165  -1.642  1.00  0.00     0.000 C 
BRANCH   8   9
ATOM      9  C   UNL     1      12.231  -0.871  -0.942  1.00  0.00     0.000 C 
BRANCH   9  10
ATOM     10  C   UNL     1      10.742  -0.701  -1.295  1.00  0.00     0.000 C 
BRANCH  10  11
ATOM     11  C   UNL     1      10.390   0.730  -1.743  1.00  0.00     0.000 C 
BRANCH  11  12
ATOM     12  C   UNL     1       9.355   1.459  -0.866  1.00  0.00     0.000 C 
BRANCH  12  13
ATOM     13  C   UNL     1       9.555   2.984  -0.838  1.00  0.00     0.006 C 
BRANCH  13  14
ATOM     14  C   UNL     1      10.456   3.429   0.323  1.00  0.00     0.053 C 
BRANCH  14  15
ATOM     15  C   UNL     1      10.076   4.785   0.834  1.00  0.00     0.041 C 
ATOM     16  O   UNL     1       9.697   5.682   0.035  1.00  0.00    -0.550 OA
ATOM     17  O   UNL     1      10.114   5.049   2.198  1.00  0.00    -0.550 OA
ENDBRANCH  14  15
ENDBRANCH  13  14
ENDBRANCH  12  13
ENDBRANCH  11  12
ENDBRANCH  10  11
ENDBRANCH   9  10
ENDBRANCH   8   9
ENDBRANCH   7   8
ENDBRANCH   6   7
ENDBRANCH   5   6
ENDBRANCH   4   5
ENDBRANCH   3   4
ENDBRANCH   2   3
ENDBRANCH   1   2
BRANCH   1  18
ATOM     18  C   UNL     1      14.277   3.608   1.960  1.00  0.00     0.000 C 
BRANCH  18  19
ATOM     19  C   UNL     1      14.997   2.272   2.249  1.00  0.00     0.000 C 
BRANCH  19  20
ATOM     20  C   UNL     1      14.223   1.047   1.726  1.00  0.00     0.000 C 
BRANCH  20  21
ATOM     21  C   UNL     1      12.715   1.095   2.036  1.00  0.00     0.000 C 
BRANCH  21  22
ATOM     22  C   UNL     1      12.127  -0.207   2.625  1.00  0.00     0.000 C 
BRANCH  22  23
ATOM     23  C   UNL     1      10.604  -0.410   2.476  1.00  0.00     0.000 C 
BRANCH  23  24
ATOM     24  C   UNL     1       9.751  -0.067   3.712  1.00  0.00    -0.000 C 
BRANCH  24  25
ATOM     25  C   UNL     1       9.922  -1.080   4.856  1.00  0.00    -0.000 C 
BRANCH  25  26
ATOM     26  C   UNL     1      10.544  -0.457   6.116  1.00  0.00    -0.000 C 
BRANCH  26  27
ATOM     27  C   UNL     1      12.077  -0.569   6.149  1.00  0.00    -0.000 C 
BRANCH  27  28
ATOM     28  C   UNL     1      12.662   0.248   7.308  1.00  0.00    -0.000 C 
BRANCH  28  29
ATOM     29  C   UNL     1      13.388   1.521   6.839  1.00  0.00    -0.000 C 
BRANCH  29  30
ATOM     30  C   UNL     1      14.125   1.354   5.493  1.00  0.00    -0.000 C 
BRANCH  30  31
ATOM     31  C   UNL     1      15.623   1.069   5.683  1.00  0.00    -0.003 C 
ATOM     32  C   UNL     1      16.398   2.353   5.970  1.00  0.00     0.004 C 
ENDBRANCH  30  31
ENDBRANCH  29  30
ENDBRANCH  28  29
ENDBRANCH  27  28
ENDBRANCH  26  27
ENDBRANCH  25  26
ENDBRANCH  24  25
ENDBRANCH  23  24
ENDBRANCH  22  23
ENDBRANCH  21  22
ENDBRANCH  20  21
ENDBRANCH  19  20
ENDBRANCH  18  19
ENDBRANCH   1  18
TORSDOF 28
ENDMDL
MODEL 5
REMARK VINA RESULT:    -4.203      2.498      4.446
REMARK INTER + INTRA:         -15.751
REMARK INTER:                 -11.090
REMARK INTRA:                  -4.662
REMARK UNBOUND:                -4.669
REMARK SMILES CCCCCCCCCCCCCCCCCCCCCCCCCCCCCC(=O)[O-]
REMARK SMILES IDX 16 1 17 2 18 3 19 4 20 5 21 6 22 7 23 8 24 9 25 10 26 11
REMARK SMILES IDX 27 12 28 13 29 14 30 15 31 16 32 17 15 18 14 19 13 20 12 21
REMARK SMILES IDX 11 22 10 23 9 24 8 25 7 26 6 27 5 28 4 29 3 30 2 31 1 32
REMARK H PARENT
REMARK Flexibility Score: inf
ROOT
ATOM      1  C   UNL     1      15.201   2.901   1.219  1.00  0.00     0.000 C 
ENDROOT
BRANCH   1   2
ATOM      2  C   UNL     1      14.037   3.745   0.673  1.00  0.00     0.000 C 
BRANCH   2   3
ATOM      3  C   UNL     1      13.651   4.902   1.612  1.00  0.00     0.000 C 
BRANCH   3   4
ATOM      4  C   UNL     1      12.198   4.808   2.109  1.00  0.00     0.000 C 
BRANCH   4   5
ATOM      5  C   UNL     1      11.283   4.059   1.123  1.00  0.00     0.000 C 
BRANCH   5   6
ATOM      6  C   UNL     1      10.032   4.869   0.736  1.00  0.00     0.000 C 
BRANCH   6   7
ATOM      7  C   UNL     1       9.467   4.576  -0.669  1.00  0.00     0.000 C 
BRANCH   7   8
ATOM      8  C   UNL     1       9.518   3.098  -1.106  1.00  0.00     0.000 C 
BRANCH   8   9
ATOM      9  C   UNL     1       8.469   2.183  -0.448  1.00  0.00     0.000 C 
BRANCH   9  10
ATOM     10  C   UNL     1       8.855   0.695  -0.510  1.00  0.00     0.000 C 
BRANCH  10  11
ATOM     11  C   UNL     1       9.851   0.378  -1.641  1.00  0.00     0.000 C 
BRANCH  11  12
ATOM     12  C   UNL     1      10.896  -0.705  -1.315  1.00  0.00     0.000 C 
BRANCH  12  13
ATOM     13  C   UNL     1      12.046  -0.188  -0.435  1.00  0.00     0.006 C 
BRANCH  13  14
ATOM     14  C   UNL     1      12.855   0.918  -1.127  1.00  0.00     0.053 C 
BRANCH  14  15
ATOM     15  C   UNL     1      14.196   0.427  -1.580  1.00  0.00     0.041 C 
ATOM     16  O   UNL     1      15.096   1.245  -1.905  1.00  0.00    -0.550 OA
ATOM     17  O   UNL     1      14.460  -0.938  -1.615  1.00  0.00    -0.550 OA
ENDBRANCH  14  15
ENDBRANCH  13  14
ENDBRANCH  12  13
ENDBRANCH  11  12
ENDBRANCH  10  11
ENDBRANCH   9  10
ENDBRANCH   8   9
ENDBRANCH   7   8
ENDBRANCH   6   7
ENDBRANCH   5   6
ENDBRANCH   4   5
ENDBRANCH   3   4
ENDBRANCH   2   3
ENDBRANCH   1   2
BRANCH   1  18
ATOM     18  C   UNL     1      15.049   2.426   2.679  1.00  0.00     0.000 C 
BRANCH  18  19
ATOM     19  C   UNL     1      13.812   1.535   2.931  1.00  0.00     0.000 C 
BRANCH  19  20
ATOM     20  C   UNL     1      14.171   0.049   3.125  1.00  0.00     0.000 C 
BRANCH  20  21
ATOM     21  C   UNL     1      12.940  -0.867   3.269  1.00  0.00     0.000 C 
BRANCH  21  22
ATOM     22  C   UNL     1      11.580  -0.133   3.301  1.00  0.00     0.000 C 
BRANCH  22  23
ATOM     23  C   UNL     1      10.374  -0.933   3.840  1.00  0.00     0.000 C 
BRANCH  23  24
ATOM     24  C   UNL     1       9.944  -0.617   5.285  1.00  0.00    -0.000 C 
BRANCH  24  25
ATOM     25  C   UNL     1      10.951  -1.121   6.332  1.00  0.00    -0.000 C 
BRANCH  25  26
ATOM     26  C   UNL     1      10.815  -0.403   7.684  1.00  0.00    -0.000 C 
BRANCH  26  27
ATOM     27  C   UNL     1      12.171  -0.075   8.329  1.00  0.00    -0.000 C 
BRANCH  27  28
ATOM     28  C   UNL     1      13.269   0.048   7.264  1.00  0.00    -0.000 C 
BRANCH  28  29
ATOM     29  C   UNL     1      13.323   1.443   6.616  1.00  0.00    -0.000 C 
BRANCH  29  30
ATOM     30  C   UNL     1      14.753   2.006   6.474  1.00  0.00    -0.000 C 
BRANCH  30  31
ATOM     31  C   UNL     1      15.816   0.896   6.481  1.00  0.00    -0.003 C 
ATOM     32  C   UNL     1      17.203   1.458   6.175  1.00  0.00     0.004 C 
ENDBRANCH  30  31
ENDBRANCH  29  30
ENDBRANCH  28  29
ENDBRANCH  27  28
ENDBRANCH  26  27
ENDBRANCH  25  26
ENDBRANCH  24  25
ENDBRANCH  23  24
ENDBRANCH  22  23
ENDBRANCH  21  22
ENDBRANCH  20  21
ENDBRANCH  19  20
ENDBRANCH  18  19
ENDBRANCH   1  18
TORSDOF 28
ENDMDL
MODEL 6
REMARK VINA RESULT:    -4.182      2.253      4.793
REMARK INTER + INTRA:         -15.697
REMARK INTER:                 -12.298
REMARK INTRA:                  -3.399
REMARK UNBOUND:                -4.669
REMARK SMILES CCCCCCCCCCCCCCCCCCCCCCCCCCCCCC(=O)[O-]
REMARK SMILES IDX 16 1 17 2 18 3 19 4 20 5 21 6 22 7 23 8 24 9 25 10 26 11
REMARK SMILES IDX 27 12 28 13 29 14 30 15 31 16 32 17 15 18 14 19 13 20 12 21
REMARK SMILES IDX 11 22 10 23 9 24 8 25 7 26 6 27 5 28 4 29 3 30 2 31 1 32
REMARK H PARENT
REMARK Flexibility Score: inf
ROOT
ATOM      1  C   UNL     1      11.625   5.103   1.408  1.00  0.00     0.000 C 
ENDROOT
BRANCH   1   2
ATOM      2  C   UNL     1      10.263   4.874   2.086  1.00  0.00     0.000 C 
BRANCH   2   3
ATOM      3  C   UNL     1       9.079   5.066   1.120  1.00  0.00     0.000 C 
BRANCH   3   4
ATOM      4  C   UNL     1       9.519   5.529  -0.279  1.00  0.00     0.000 C 
BRANCH   4   5
ATOM      5  C   UNL     1       9.407   4.413  -1.334  1.00  0.00     0.000 C 
BRANCH   5   6
ATOM      6  C   UNL     1       8.695   3.156  -0.800  1.00  0.00     0.000 C 
BRANCH   6   7
ATOM      7  C   UNL     1       9.596   1.919  -0.610  1.00  0.00     0.000 C 
BRANCH   7   8
ATOM      8  C   UNL     1       9.266   0.717  -1.518  1.00  0.00     0.000 C 
BRANCH   8   9
ATOM      9  C   UNL     1      10.080  -0.559  -1.237  1.00  0.00     0.000 C 
BRANCH   9  10
ATOM     10  C   UNL     1      11.420  -0.269  -0.538  1.00  0.00     0.000 C 
BRANCH  10  11
ATOM     11  C   UNL     1      12.622  -0.319  -1.499  1.00  0.00     0.000 C 
BRANCH  11  12
ATOM     12  C   UNL     1      13.889   0.404  -1.006  1.00  0.00     0.000 C 
BRANCH  12  13
ATOM     13  C   UNL     1      14.543   1.282  -2.087  1.00  0.00     0.006 C 
BRANCH  13  14
ATOM     14  C   UNL     1      15.714   2.107  -1.535  1.00  0.00     0.053 C 
BRANCH  14  15
ATOM     15  C   UNL     1      15.338   3.542  -1.332  1.00  0.00     0.041 C 
ATOM     16  O   UNL     1      15.841   4.203  -0.385  1.00  0.00    -0.550 OA
ATOM     17  O   UNL     1      14.452   4.159  -2.208  1.00  0.00    -0.550 OA
ENDBRANCH  14  15
ENDBRANCH  13  14
ENDBRANCH  12  13
ENDBRANCH  11  12
ENDBRANCH  10  11
ENDBRANCH   9  10
ENDBRANCH   8   9
ENDBRANCH   7   8
ENDBRANCH   6   7
ENDBRANCH   5   6
ENDBRANCH   4   5
ENDBRANCH   3   4
ENDBRANCH   2   3
ENDBRANCH   1   2
BRANCH   1  18
ATOM     18  C   UNL     1      12.752   4.142   1.839  1.00  0.00     0.000 C 
BRANCH  18  19
ATOM     19  C   UNL     1      12.441   2.649   1.590  1.00  0.00     0.000 C 
BRANCH  19  20
ATOM     20  C   UNL     1      13.542   1.709   2.119  1.00  0.00     0.000 C 
BRANCH  20  21
ATOM     21  C   UNL     1      14.857   2.436   2.464  1.00  0.00     0.000 C 
BRANCH  21  22
ATOM     22  C   UNL     1      15.378   2.196   3.899  1.00  0.00     0.000 C 
BRANCH  22  23
ATOM     23  C   UNL     1      14.337   1.751   4.949  1.00  0.00     0.000 C 
BRANCH  23  24
ATOM     24  C   UNL     1      14.477   0.308   5.471  1.00  0.00    -0.000 C 
BRANCH  24  25
ATOM     25  C   UNL     1      15.576  -0.486   4.745  1.00  0.00    -0.000 C 
BRANCH  25  26
ATOM     26  C   UNL     1      16.791  -0.777   5.641  1.00  0.00    -0.000 C 
BRANCH  26  27
ATOM     27  C   UNL     1      16.863   0.140   6.873  1.00  0.00    -0.000 C 
BRANCH  27  28
ATOM     28  C   UNL     1      18.177   0.932   6.889  1.00  0.00    -0.000 C 
BRANCH  28  29
ATOM     29  C   UNL     1      19.294   0.226   7.679  1.00  0.00    -0.000 C 
BRANCH  29  30
ATOM     30  C   UNL     1      19.871   1.075   8.831  1.00  0.00    -0.000 C 
BRANCH  30  31
ATOM     31  C   UNL     1      21.195   0.506   9.364  1.00  0.00    -0.003 C 
ATOM     32  C   UNL     1      21.775  -0.534   8.409  1.00  0.00     0.004 C 
ENDBRANCH  30  31
ENDBRANCH  29  30
ENDBRANCH  28  29
ENDBRANCH  27  28
ENDBRANCH  26  27
ENDBRANCH  25  26
ENDBRANCH  24  25
ENDBRANCH  23  24
ENDBRANCH  22  23
ENDBRANCH  21  22
ENDBRANCH  20  21
ENDBRANCH  19  20
ENDBRANCH  18  19
ENDBRANCH   1  18
TORSDOF 28
ENDMDL
MODEL 7
REMARK VINA RESULT:    -4.180      3.155      7.858
REMARK INTER + INTRA:         -15.691
REMARK INTER:                 -11.187
REMARK INTRA:                  -4.504
REMARK UNBOUND:                -4.669
REMARK SMILES CCCCCCCCCCCCCCCCCCCCCCCCCCCCCC(=O)[O-]
REMARK SMILES IDX 16 1 17 2 18 3 19 4 20 5 21 6 22 7 23 8 24 9 25 10 26 11
REMARK SMILES IDX 27 12 28 13 29 14 30 15 31 16 32 17 15 18 14 19 13 20 12 21
REMARK SMILES IDX 11 22 10 23 9 24 8 25 7 26 6 27 5 28 4 29 3 30 2 31 1 32
REMARK H PARENT
REMARK Flexibility Score: inf
ROOT
ATOM      1  C   UNL     1      15.515   3.384  -1.063  1.00  0.00     0.000 C 
ENDROOT
BRANCH   1   2
ATOM      2  C   UNL     1      15.379   3.507   0.465  1.00  0.00     0.000 C 
BRANCH   2   3
ATOM      3  C   UNL     1      14.264   4.482   0.885  1.00  0.00     0.000 C 
BRANCH   3   4
ATOM      4  C   UNL     1      13.409   3.946   2.046  1.00  0.00     0.000 C 
BRANCH   4   5
ATOM      5  C   UNL     1      13.217   2.420   1.984  1.00  0.00     0.000 C 
BRANCH   5   6
ATOM      6  C   UNL     1      13.921   1.683   3.138  1.00  0.00     0.000 C 
BRANCH   6   7
ATOM      7  C   UNL     1      14.307   0.218   2.845  1.00  0.00     0.000 C 
BRANCH   7   8
ATOM      8  C   UNL     1      13.553  -0.841   3.674  1.00  0.00     0.000 C 
BRANCH   8   9
ATOM      9  C   UNL     1      12.402  -0.299   4.541  1.00  0.00     0.000 C 
BRANCH   9  10
ATOM     10  C   UNL     1      12.573  -0.634   6.033  1.00  0.00     0.000 C 
BRANCH  10  11
ATOM     11  C   UNL     1      12.770   0.616   6.911  1.00  0.00     0.000 C 
BRANCH  11  12
ATOM     12  C   UNL     1      14.048   1.426   6.626  1.00  0.00     0.000 C 
BRANCH  12  13
ATOM     13  C   UNL     1      15.321   0.561   6.616  1.00  0.00     0.006 C 
BRANCH  13  14
ATOM     14  C   UNL     1      16.588   1.397   6.386  1.00  0.00     0.053 C 
BRANCH  14  15
ATOM     15  C   UNL     1      17.793   0.765   7.012  1.00  0.00     0.041 C 
ATOM     16  O   UNL     1      18.454   1.386   7.887  1.00  0.00    -0.550 OA
ATOM     17  O   UNL     1      18.170  -0.523   6.649  1.00  0.00    -0.550 OA
ENDBRANCH  14  15
ENDBRANCH  13  14
ENDBRANCH  12  13
ENDBRANCH  11  12
ENDBRANCH  10  11
ENDBRANCH   9  10
ENDBRANCH   8   9
ENDBRANCH   7   8
ENDBRANCH   6   7
ENDBRANCH   5   6
ENDBRANCH   4   5
ENDBRANCH   3   4
ENDBRANCH   2   3
ENDBRANCH   1   2
BRANCH   1  18
ATOM     18  C   UNL     1      14.575   2.360  -1.733  1.00  0.00     0.000 C 
BRANCH  18  19
ATOM     19  C   UNL     1      14.802   0.900  -1.281  1.00  0.00     0.000 C 
BRANCH  19  20
ATOM     20  C   UNL     1      13.502   0.196  -0.846  1.00  0.00     0.000 C 
BRANCH  20  21
ATOM     21  C   UNL     1      12.225   0.926  -1.306  1.00  0.00     0.000 C 
BRANCH  21  22
ATOM     22  C   UNL     1      10.906   0.165  -1.041  1.00  0.00     0.000 C 
BRANCH  22  23
ATOM     23  C   UNL     1       9.642   0.704  -1.744  1.00  0.00     0.000 C 
BRANCH  23  24
ATOM     24  C   UNL     1       8.347   0.693  -0.909  1.00  0.00    -0.000 C 
BRANCH  24  25
ATOM     25  C   UNL     1       7.938   2.093  -0.421  1.00  0.00    -0.000 C 
BRANCH  25  26
ATOM     26  C   UNL     1       8.227   2.311   1.073  1.00  0.00    -0.000 C 
BRANCH  26  27
ATOM     27  C   UNL     1       9.668   2.773   1.344  1.00  0.00    -0.000 C 
BRANCH  27  28
ATOM     28  C   UNL     1      10.100   3.843   0.333  1.00  0.00    -0.000 C 
BRANCH  28  29
ATOM     29  C   UNL     1      10.091   5.265   0.921  1.00  0.00    -0.000 C 
BRANCH  29  30
ATOM     30  C   UNL     1       9.089   6.214   0.231  1.00  0.00    -0.000 C 
BRANCH  30  31
ATOM     31  C   UNL     1       8.482   5.595  -1.038  1.00  0.00    -0.003 C 
ATOM     32  C   UNL     1       9.189   6.102  -2.293  1.00  0.00     0.004 C 
ENDBRANCH  30  31
ENDBRANCH  29  30
ENDBRANCH  28  29
ENDBRANCH  27  28
ENDBRANCH  26  27
ENDBRANCH  25  26
ENDBRANCH  24  25
ENDBRANCH  23  24
ENDBRANCH  22  23
ENDBRANCH  21  22
ENDBRANCH  20  21
ENDBRANCH  19  20
ENDBRANCH  18  19
ENDBRANCH   1  18
TORSDOF 28
ENDMDL
MODEL 8
REMARK VINA RESULT:    -4.179      2.034      4.589
REMARK INTER + INTRA:         -15.688
REMARK INTER:                 -11.326
REMARK INTRA:                  -4.362
REMARK UNBOUND:                -4.669
REMARK SMILES CCCCCCCCCCCCCCCCCCCCCCCCCCCCCC(=O)[O-]
REMARK SMILES IDX 16 1 17 2 18 3 19 4 20 5 21 6 22 7 23 8 24 9 25 10 26 11
REMARK SMILES IDX 27 12 28 13 29 14 30 15 31 16 32 17 15 18 14 19 13 20 12 21
REMARK SMILES IDX 11 22 10 23 9 24 8 25 7 26 6 27 5 28 4 29 3 30 2 31 1 32
REMARK H PARENT
REMARK Flexibility Score: inf
ROOT
ATOM      1  C   UNL     1      11.924   4.574   1.421  1.00  0.00     0.000 C 
ENDROOT
BRANCH   1   2
ATOM      2  C   UNL     1      10.618   4.892   2.169  1.00  0.00     0.000 C 
BRANCH   2   3
ATOM      3  C   UNL     1       9.384   4.867   1.248  1.00  0.00     0.000 C 
BRANCH   3   4
ATOM      4  C   UNL     1       9.676   5.427  -0.155  1.00  0.00     0.000 C 
BRANCH   4   5
ATOM      5  C   UNL     1       9.546   4.359  -1.256  1.00  0.00     0.000 C 
BRANCH   5   6
ATOM      6  C   UNL     1       8.927   3.045  -0.745  1.00  0.00     0.000 C 
BRANCH   6   7
ATOM      7  C   UNL     1       9.901   1.854  -0.641  1.00  0.00     0.000 C 
BRANCH   7   8
ATOM      8  C   UNL     1      11.332   2.126  -1.149  1.00  0.00     0.000 C 
BRANCH   8   9
ATOM      9  C   UNL     1      11.924   1.031  -2.055  1.00  0.00     0.000 C 
BRANCH   9  10
ATOM     10  C   UNL     1      12.414  -0.195  -1.265  1.00  0.00     0.000 C 
BRANCH  10  11
ATOM     11  C   UNL     1      13.948  -0.265  -1.155  1.00  0.00     0.000 C 
BRANCH  11  12
ATOM     12  C   UNL     1      14.719   0.146  -2.424  1.00  0.00     0.000 C 
BRANCH  12  13
ATOM     13  C   UNL     1      15.822   1.183  -2.150  1.00  0.00     0.006 C 
BRANCH  13  14
ATOM     14  C   UNL     1      15.593   1.939  -0.833  1.00  0.00     0.053 C 
BRANCH  14  15
ATOM     15  C   UNL     1      15.377   3.403  -1.062  1.00  0.00     0.041 C 
ATOM     16  O   UNL     1      15.951   4.253  -0.331  1.00  0.00    -0.550 OA
ATOM     17  O   UNL     1      14.563   3.831  -2.105  1.00  0.00    -0.550 OA
ENDBRANCH  14  15
ENDBRANCH  13  14
ENDBRANCH  12  13
ENDBRANCH  11  12
ENDBRANCH  10  11
ENDBRANCH   9  10
ENDBRANCH   8   9
ENDBRANCH   7   8
ENDBRANCH   6   7
ENDBRANCH   5   6
ENDBRANCH   4   5
ENDBRANCH   3   4
ENDBRANCH   2   3
ENDBRANCH   1   2
BRANCH   1  18
ATOM     18  C   UNL     1      13.071   4.022   2.293  1.00  0.00     0.000 C 
BRANCH  18  19
ATOM     19  C   UNL     1      13.526   2.595   1.912  1.00  0.00     0.000 C 
BRANCH  19  20
ATOM     20  C   UNL     1      12.446   1.529   2.177  1.00  0.00     0.000 C 
BRANCH  20  21
ATOM     21  C   UNL     1      13.003   0.230   2.791  1.00  0.00     0.000 C 
BRANCH  21  22
ATOM     22  C   UNL     1      12.060  -0.991   2.701  1.00  0.00     0.000 C 
BRANCH  22  23
ATOM     23  C   UNL     1      10.961  -1.099   3.781  1.00  0.00     0.000 C 
BRANCH  23  24
ATOM     24  C   UNL     1      11.216  -0.321   5.086  1.00  0.00    -0.000 C 
BRANCH  24  25
ATOM     25  C   UNL     1      10.389  -0.851   6.269  1.00  0.00    -0.000 C 
BRANCH  25  26
ATOM     26  C   UNL     1      11.187  -0.896   7.581  1.00  0.00    -0.000 C 
BRANCH  26  27
ATOM     27  C   UNL     1      12.411   0.035   7.573  1.00  0.00    -0.000 C 
BRANCH  27  28
ATOM     28  C   UNL     1      13.715  -0.774   7.583  1.00  0.00    -0.000 C 
BRANCH  28  29
ATOM     29  C   UNL     1      14.810  -0.157   6.695  1.00  0.00    -0.000 C 
BRANCH  29  30
ATOM     30  C   UNL     1      14.433   1.221   6.111  1.00  0.00    -0.000 C 
BRANCH  30  31
ATOM     31  C   UNL     1      15.668   2.084   5.815  1.00  0.00    -0.003 C 
ATOM     32  C   UNL     1      16.924   1.486   6.444  1.00  0.00     0.004 C 
ENDBRANCH  30  31
ENDBRANCH  29  30
ENDBRANCH  28  29
ENDBRANCH  27  28
ENDBRANCH  26  27
ENDBRANCH  25  26
ENDBRANCH  24  25
ENDBRANCH  23  24
ENDBRANCH  22  23
ENDBRANCH  21  22
ENDBRANCH  20  21
ENDBRANCH  19  20
ENDBRANCH  18  19
ENDBRANCH   1  18
TORSDOF 28
ENDMDL
MODEL 9
REMARK VINA RESULT:    -4.106      2.595      7.548
REMARK INTER + INTRA:         -15.496
REMARK INTER:                 -10.815
REMARK INTRA:                  -4.681
REMARK UNBOUND:                -4.669
REMARK SMILES CCCCCCCCCCCCCCCCCCCCCCCCCCCCCC(=O)[O-]
REMARK SMILES IDX 16 1 17 2 18 3 19 4 20 5 21 6 22 7 23 8 24 9 25 10 26 11
REMARK SMILES IDX 27 12 28 13 29 14 30 15 31 16 32 17 15 18 14 19 13 20 12 21
REMARK SMILES IDX 11 22 10 23 9 24 8 25 7 26 6 27 5 28 4 29 3 30 2 31 1 32
REMARK H PARENT
REMARK Flexibility Score: inf
ROOT
ATOM      1  C   UNL     1      13.520   2.538   2.485  1.00  0.00     0.000 C 
ENDROOT
BRANCH   1   2
ATOM      2  C   UNL     1      13.433   1.013   2.298  1.00  0.00     0.000 C 
BRANCH   2   3
ATOM      3  C   UNL     1      12.323   0.373   3.150  1.00  0.00     0.000 C 
BRANCH   3   4
ATOM      4  C   UNL     1      10.960   0.349   2.435  1.00  0.00     0.000 C 
BRANCH   4   5
ATOM      5  C   UNL     1       9.906  -0.471   3.200  1.00  0.00     0.000 C 
BRANCH   5   6
ATOM      6  C   UNL     1       8.694   0.374   3.636  1.00  0.00     0.000 C 
BRANCH   6   7
ATOM      7  C   UNL     1       8.309   0.252   5.125  1.00  0.00     0.000 C 
BRANCH   7   8
ATOM      8  C   UNL     1       8.876  -0.982   5.855  1.00  0.00     0.000 C 
BRANCH   8   9
ATOM      9  C   UNL     1       9.868  -0.673   6.991  1.00  0.00     0.000 C 
BRANCH   9  10
ATOM     10  C   UNL     1      11.332  -0.659   6.515  1.00  0.00     0.000 C 
BRANCH  10  11
ATOM     11  C   UNL     1      12.262   0.128   7.456  1.00  0.00     0.000 C 
BRANCH  11  12
ATOM     12  C   UNL     1      13.730   0.225   7.001  1.00  0.00     0.000 C 
BRANCH  12  13
ATOM     13  C   UNL     1      14.111   1.624   6.485  1.00  0.00     0.006 C 
BRANCH  13  14
ATOM     14  C   UNL     1      15.300   1.580   5.516  1.00  0.00     0.053 C 
BRANCH  14  15
ATOM     15  C   UNL     1      16.546   2.132   6.137  1.00  0.00     0.041 C 
ATOM     16  O   UNL     1      17.107   1.524   7.087  1.00  0.00    -0.550 OA
ATOM     17  O   UNL     1      17.105   3.307   5.646  1.00  0.00    -0.550 OA
ENDBRANCH  14  15
ENDBRANCH  13  14
ENDBRANCH  12  13
ENDBRANCH  11  12
ENDBRANCH  10  11
ENDBRANCH   9  10
ENDBRANCH   8   9
ENDBRANCH   7   8
ENDBRANCH   6   7
ENDBRANCH   5   6
ENDBRANCH   4   5
ENDBRANCH   3   4
ENDBRANCH   2   3
ENDBRANCH   1   2
BRANCH   1  18
ATOM     18  C   UNL     1      12.830   3.382   1.394  1.00  0.00     0.000 C 
BRANCH  18  19
ATOM     19  C   UNL     1      12.263   4.728   1.897  1.00  0.00     0.000 C 
BRANCH  19  20
ATOM     20  C   UNL     1      10.870   5.047   1.321  1.00  0.00     0.000 C 
BRANCH  20  21
ATOM     21  C   UNL     1       9.738   4.215   1.955  1.00  0.00     0.000 C 
BRANCH  21  22
ATOM     22  C   UNL     1       9.007   3.260   0.984  1.00  0.00     0.000 C 
BRANCH  22  23
ATOM     23  C   UNL     1       9.156   3.559  -0.524  1.00  0.00     0.000 C 
BRANCH  23  24
ATOM     24  C   UNL     1       9.520   2.359  -1.419  1.00  0.00    -0.000 C 
BRANCH  24  25
ATOM     25  C   UNL     1      10.428   1.339  -0.711  1.00  0.00    -0.000 C 
BRANCH  25  26
ATOM     26  C   UNL     1      11.713   1.037  -1.498  1.00  0.00    -0.000 C 
BRANCH  26  27
ATOM     27  C   UNL     1      12.316  -0.336  -1.160  1.00  0.00    -0.000 C 
BRANCH  27  28
ATOM     28  C   UNL     1      13.839  -0.241  -1.001  1.00  0.00    -0.000 C 
BRANCH  28  29
ATOM     29  C   UNL     1      14.539   0.327  -2.248  1.00  0.00    -0.000 C 
BRANCH  29  30
ATOM     30  C   UNL     1      15.758   1.217  -1.924  1.00  0.00    -0.000 C 
BRANCH  30  31
ATOM     31  C   UNL     1      15.348   2.654  -1.568  1.00  0.00    -0.003 C 
ATOM     32  C   UNL     1      16.048   3.129  -0.297  1.00  0.00     0.004 C 
ENDBRANCH  30  31
ENDBRANCH  29  30
ENDBRANCH  28  29
ENDBRANCH  27  28
ENDBRANCH  26  27
ENDBRANCH  25  26
ENDBRANCH  24  25
ENDBRANCH  23  24
ENDBRANCH  22  23
ENDBRANCH  21  22
ENDBRANCH  20  21
ENDBRANCH  19  20
ENDBRANCH  18  19
ENDBRANCH   1  18
TORSDOF 28
ENDMDL
