MODEL 1
REMARK VINA RESULT:    -4.592      0.000      0.000
REMARK INTER + INTRA:          -7.055
REMARK INTER:                  -6.203
REMARK INTRA:                  -0.853
REMARK UNBOUND:                -0.853
REMARK SMILES C=CC(C)=CCC=C(C)CCC=C(C)C
REMARK SMILES IDX 8 1 7 2 9 3 10 4 11 5 12 6 14 7 13 8 15 9 6 10 5 11 3 12
REMARK SMILES IDX 4 13 2 14 1 15
REMARK H PARENT
REMARK Flexibility Score: inf
ROOT
ATOM      1  C   UNL     1      58.460  44.406  41.441  1.00  0.00    -0.077 C 
ATOM      2  C   UNL     1      57.785  45.489  41.890  1.00  0.00    -0.024 C 
ATOM      3  C   UNL     1      59.349  44.564  40.235  1.00  0.00     0.039 C 
ENDROOT
BRANCH   1   4
ATOM      4  C   UNL     1      58.373  43.048  42.115  1.00  0.00     0.034 C 
BRANCH   4   5
ATOM      5  C   UNL     1      59.014  43.055  43.511  1.00  0.00     0.032 C 
BRANCH   5   6
ATOM      6  C   UNL     1      60.328  43.799  43.523  1.00  0.00    -0.028 C 
ATOM      7  C   UNL     1      61.692  41.742  43.099  1.00  0.00     0.039 C 
ATOM      8  C   UNL     1      61.534  43.229  43.309  1.00  0.00    -0.080 C 
ATOM      9  C   UNL     1      62.753  44.114  43.300  1.00  0.00     0.039 C 
ENDBRANCH   5   6
ENDBRANCH   4   5
ENDBRANCH   1   4
BRANCH   2  10
ATOM     10  C   UNL     1      56.835  45.463  43.063  1.00  0.00     0.055 C 
BRANCH  10  11
ATOM     11  C   UNL     1      55.423  45.773  42.638  1.00  0.00    -0.020 C 
ATOM     12  C   UNL     1      54.463  44.852  42.409  1.00  0.00    -0.055 C 
ATOM     13  C   UNL     1      54.724  43.367  42.540  1.00  0.00     0.044 C 
BRANCH  12  14
ATOM     14  C   UNL     1      53.134  45.336  41.952  1.00  0.00    -0.005 C 
ATOM     15  C   UNL     1      52.394  46.214  42.629  1.00  0.00     0.009 C 
ENDBRANCH  12  14
ENDBRANCH  10  11
ENDBRANCH   2  10
TORSDOF 6
ENDMDL
MODEL 2
REMARK VINA RESULT:    -4.434     19.924     21.009
REMARK INTER + INTRA:          -6.842
REMARK INTER:                  -5.962
REMARK INTRA:                  -0.880
REMARK UNBOUND:                -0.853
REMARK SMILES C=CC(C)=CCC=C(C)CCC=C(C)C
REMARK SMILES IDX 8 1 7 2 9 3 10 4 11 5 12 6 14 7 13 8 15 9 6 10 5 11 3 12
REMARK SMILES IDX 4 13 2 14 1 15
REMARK H PARENT
REMARK Flexibility Score: inf
ROOT
ATOM      1  C   UNL     1      53.167  30.322  25.972  1.00  0.00    -0.077 C 
ATOM      2  C   UNL     1      52.372  31.274  26.512  1.00  0.00    -0.024 C 
ATOM      3  C   UNL     1      54.253  30.753  25.019  1.00  0.00     0.039 C 
ENDROOT
BRANCH   1   4
ATOM      4  C   UNL     1      53.023  28.847  26.302  1.00  0.00     0.034 C 
BRANCH   4   5
ATOM      5  C   UNL     1      53.966  28.416  27.437  1.00  0.00     0.032 C 
BRANCH   5   6
ATOM      6  C   UNL     1      55.183  27.693  26.913  1.00  0.00    -0.028 C 
ATOM      7  C   UNL     1      56.748  29.566  27.473  1.00  0.00     0.039 C 
ATOM      8  C   UNL     1      56.441  28.183  26.950  1.00  0.00    -0.080 C 
ATOM      9  C   UNL     1      57.563  27.319  26.434  1.00  0.00     0.039 C 
ENDBRANCH   5   6
ENDBRANCH   4   5
ENDBRANCH   1   4
BRANCH   2  10
ATOM     10  C   UNL     1      51.226  30.979  27.450  1.00  0.00     0.055 C 
BRANCH  10  11
ATOM     11  C   UNL     1      50.955  32.138  28.373  1.00  0.00    -0.020 C 
ATOM     12  C   UNL     1      50.204  32.078  29.493  1.00  0.00    -0.055 C 
ATOM     13  C   UNL     1      49.517  30.804  29.935  1.00  0.00     0.044 C 
BRANCH  12  14
ATOM     14  C   UNL     1      50.007  33.334  30.264  1.00  0.00    -0.005 C 
ATOM     15  C   UNL     1      51.002  34.146  30.621  1.00  0.00     0.009 C 
ENDBRANCH  12  14
ENDBRANCH  10  11
ENDBRANCH   2  10
TORSDOF 6
ENDMDL
MODEL 3
REMARK VINA RESULT:    -4.398     20.045     22.019
REMARK INTER + INTRA:          -6.793
REMARK INTER:                  -5.999
REMARK INTRA:                  -0.794
REMARK UNBOUND:                -0.853
REMARK SMILES C=CC(C)=CCC=C(C)CCC=C(C)C
REMARK SMILES IDX 8 1 7 2 9 3 10 4 11 5 12 6 14 7 13 8 15 9 6 10 5 11 3 12
REMARK SMILES IDX 4 13 2 14 1 15
REMARK H PARENT
REMARK Flexibility Score: inf
ROOT
ATOM      1  C   UNL     1      51.656  29.455  27.443  1.00  0.00    -0.077 C 
ATOM      2  C   UNL     1      52.778  28.768  27.133  1.00  0.00    -0.024 C 
ATOM      3  C   UNL     1      50.558  28.738  28.187  1.00  0.00     0.039 C 
ENDROOT
BRANCH   1   4
ATOM      4  C   UNL     1      51.466  30.920  27.091  1.00  0.00     0.034 C 
BRANCH   4   5
ATOM      5  C   UNL     1      50.224  31.520  27.768  1.00  0.00     0.032 C 
BRANCH   5   6
ATOM      6  C   UNL     1      50.565  32.737  28.593  1.00  0.00    -0.028 C 
ATOM      7  C   UNL     1      50.350  31.528  30.776  1.00  0.00     0.039 C 
ATOM      8  C   UNL     1      50.656  32.749  29.941  1.00  0.00    -0.080 C 
ATOM      9  C   UNL     1      51.059  34.031  30.621  1.00  0.00     0.039 C 
ENDBRANCH   5   6
ENDBRANCH   4   5
ENDBRANCH   1   4
BRANCH   2  10
ATOM     10  C   UNL     1      53.937  29.353  26.361  1.00  0.00     0.055 C 
BRANCH  10  11
ATOM     11  C   UNL     1      55.087  28.384  26.274  1.00  0.00    -0.020 C 
ATOM     12  C   UNL     1      56.301  28.571  26.834  1.00  0.00    -0.055 C 
ATOM     13  C   UNL     1      56.645  29.823  27.611  1.00  0.00     0.044 C 
BRANCH  12  14
ATOM     14  C   UNL     1      57.336  27.527  26.610  1.00  0.00    -0.005 C 
ATOM     15  C   UNL     1      57.590  26.982  25.421  1.00  0.00     0.009 C 
ENDBRANCH  12  14
ENDBRANCH  10  11
ENDBRANCH   2  10
TORSDOF 6
ENDMDL
MODEL 4
REMARK VINA RESULT:    -4.337      1.396      7.039
REMARK INTER + INTRA:          -6.710
REMARK INTER:                  -6.033
REMARK INTRA:                  -0.677
REMARK UNBOUND:                -0.853
REMARK SMILES C=CC(C)=CCC=C(C)CCC=C(C)C
REMARK SMILES IDX 8 1 7 2 9 3 10 4 11 5 12 6 14 7 13 8 15 9 6 10 5 11 3 12
REMARK SMILES IDX 4 13 2 14 1 15
REMARK H PARENT
REMARK Flexibility Score: inf
ROOT
ATOM      1  C   UNL     1      59.263  43.853  41.596  1.00  0.00    -0.077 C 
ATOM      2  C   UNL     1      60.431  43.803  42.275  1.00  0.00    -0.024 C 
ATOM      3  C   UNL     1      59.112  44.880  40.503  1.00  0.00     0.039 C 
ENDROOT
BRANCH   1   4
ATOM      4  C   UNL     1      58.109  42.905  41.876  1.00  0.00     0.034 C 
BRANCH   4   5
ATOM      5  C   UNL     1      57.311  43.321  43.122  1.00  0.00     0.032 C 
BRANCH   5   6
ATOM      6  C   UNL     1      56.247  44.339  42.793  1.00  0.00    -0.028 C 
ATOM      7  C   UNL     1      54.472  42.614  42.409  1.00  0.00     0.039 C 
ATOM      8  C   UNL     1      54.962  44.040  42.502  1.00  0.00    -0.080 C 
ATOM      9  C   UNL     1      54.002  45.172  42.247  1.00  0.00     0.039 C 
ENDBRANCH   5   6
ENDBRANCH   4   5
ENDBRANCH   1   4
BRANCH   2  10
ATOM     10  C   UNL     1      60.702  42.850  43.415  1.00  0.00     0.055 C 
BRANCH  10  11
ATOM     11  C   UNL     1      61.440  41.624  42.946  1.00  0.00    -0.020 C 
ATOM     12  C   UNL     1      62.770  41.426  43.068  1.00  0.00    -0.055 C 
ATOM     13  C   UNL     1      63.685  42.460  43.689  1.00  0.00     0.044 C 
BRANCH  12  14
ATOM     14  C   UNL     1      63.338  40.172  42.508  1.00  0.00    -0.005 C 
ATOM     15  C   UNL     1      62.961  38.953  42.892  1.00  0.00     0.009 C 
ENDBRANCH  12  14
ENDBRANCH  10  11
ENDBRANCH   2  10
TORSDOF 6
ENDMDL
MODEL 5
REMARK VINA RESULT:    -4.272     20.092     21.989
REMARK INTER + INTRA:          -6.623
REMARK INTER:                  -5.921
REMARK INTRA:                  -0.702
REMARK UNBOUND:                -0.853
REMARK SMILES C=CC(C)=CCC=C(C)CCC=C(C)C
REMARK SMILES IDX 8 1 7 2 9 3 10 4 11 5 12 6 14 7 13 8 15 9 6 10 5 11 3 12
REMARK SMILES IDX 4 13 2 14 1 15
REMARK H PARENT
REMARK Flexibility Score: inf
ROOT
ATOM      1  C   UNL     1      52.469  30.600  26.364  1.00  0.00    -0.077 C 
ATOM      2  C   UNL     1      53.596  29.855  26.320  1.00  0.00    -0.024 C 
ATOM      3  C   UNL     1      52.293  31.694  25.342  1.00  0.00     0.039 C 
ENDROOT
BRANCH   1   4
ATOM      4  C   UNL     1      51.370  30.367  27.386  1.00  0.00     0.034 C 
BRANCH   4   5
ATOM      5  C   UNL     1      50.428  31.576  27.505  1.00  0.00     0.032 C 
BRANCH   5   6
ATOM      6  C   UNL     1      50.488  32.202  28.877  1.00  0.00    -0.028 C 
ATOM      7  C   UNL     1      51.308  34.409  28.022  1.00  0.00     0.039 C 
ATOM      8  C   UNL     1      50.851  33.480  29.122  1.00  0.00    -0.080 C 
ATOM      9  C   UNL     1      50.810  33.977  30.544  1.00  0.00     0.039 C 
ENDBRANCH   5   6
ENDBRANCH   4   5
ENDBRANCH   1   4
BRANCH   2  10
ATOM     10  C   UNL     1      53.916  28.753  27.303  1.00  0.00     0.055 C 
BRANCH  10  11
ATOM     11  C   UNL     1      55.092  27.930  26.847  1.00  0.00    -0.020 C 
ATOM     12  C   UNL     1      56.387  28.284  26.988  1.00  0.00    -0.055 C 
ATOM     13  C   UNL     1      56.799  29.596  27.620  1.00  0.00     0.044 C 
BRANCH  12  14
ATOM     14  C   UNL     1      57.420  27.367  26.439  1.00  0.00    -0.005 C 
ATOM     15  C   UNL     1      57.585  27.135  25.137  1.00  0.00     0.009 C 
ENDBRANCH  12  14
ENDBRANCH  10  11
ENDBRANCH   2  10
TORSDOF 6
ENDMDL
MODEL 6
REMARK VINA RESULT:    -4.209     19.581     21.589
REMARK INTER + INTRA:          -6.538
REMARK INTER:                  -5.597
REMARK INTRA:                  -0.941
REMARK UNBOUND:                -0.853
REMARK SMILES C=CC(C)=CCC=C(C)CCC=C(C)C
REMARK SMILES IDX 8 1 7 2 9 3 10 4 11 5 12 6 14 7 13 8 15 9 6 10 5 11 3 12
REMARK SMILES IDX 4 13 2 14 1 15
REMARK H PARENT
REMARK Flexibility Score: inf
ROOT
ATOM      1  C   UNL     1      51.699  32.400  27.030  1.00  0.00    -0.077 C 
ATOM      2  C   UNL     1      52.900  32.491  26.416  1.00  0.00    -0.024 C 
ATOM      3  C   UNL     1      51.180  33.606  27.771  1.00  0.00     0.039 C 
ENDROOT
BRANCH   1   4
ATOM      4  C   UNL     1      50.847  31.144  26.987  1.00  0.00     0.034 C 
BRANCH   4   5
ATOM      5  C   UNL     1      50.929  30.347  28.299  1.00  0.00     0.032 C 
BRANCH   5   6
ATOM      6  C   UNL     1      49.633  30.401  29.071  1.00  0.00    -0.028 C 
ATOM      7  C   UNL     1      50.617  31.717  30.962  1.00  0.00     0.039 C 
ATOM      8  C   UNL     1      49.470  31.038  30.252  1.00  0.00    -0.080 C 
ATOM      9  C   UNL     1      48.099  31.048  30.877  1.00  0.00     0.039 C 
ENDBRANCH   5   6
ENDBRANCH   4   5
ENDBRANCH   1   4
BRANCH   2  10
ATOM     10  C   UNL     1      53.553  31.349  25.672  1.00  0.00     0.055 C 
BRANCH  10  11
ATOM     11  C   UNL     1      54.593  30.662  26.518  1.00  0.00    -0.020 C 
ATOM     12  C   UNL     1      55.776  30.197  26.064  1.00  0.00    -0.055 C 
ATOM     13  C   UNL     1      56.179  30.302  24.609  1.00  0.00     0.044 C 
BRANCH  12  14
ATOM     14  C   UNL     1      56.666  29.505  27.033  1.00  0.00    -0.005 C 
ATOM     15  C   UNL     1      57.002  28.218  26.940  1.00  0.00     0.009 C 
ENDBRANCH  12  14
ENDBRANCH  10  11
ENDBRANCH   2  10
TORSDOF 6
ENDMDL
MODEL 7
REMARK VINA RESULT:    -4.087     21.146     22.791
REMARK INTER + INTRA:          -6.373
REMARK INTER:                  -4.613
REMARK INTRA:                  -1.760
REMARK UNBOUND:                -0.853
REMARK SMILES C=CC(C)=CCC=C(C)CCC=C(C)C
REMARK SMILES IDX 8 1 7 2 9 3 10 4 11 5 12 6 14 7 13 8 15 9 6 10 5 11 3 12
REMARK SMILES IDX 4 13 2 14 1 15
REMARK H PARENT
REMARK Flexibility Score: inf
ROOT
ATOM      1  C   UNL     1      51.708  31.442  26.393  1.00  0.00    -0.077 C 
ATOM      2  C   UNL     1      52.961  31.936  26.515  1.00  0.00    -0.024 C 
ATOM      3  C   UNL     1      50.631  31.992  27.292  1.00  0.00     0.039 C 
ENDROOT
BRANCH   1   4
ATOM      4  C   UNL     1      51.341  30.374  25.378  1.00  0.00     0.034 C 
BRANCH   4   5
ATOM      5  C   UNL     1      50.847  29.084  26.052  1.00  0.00     0.032 C 
BRANCH   5   6
ATOM      6  C   UNL     1      51.802  28.605  27.118  1.00  0.00    -0.028 C 
ATOM      7  C   UNL     1      53.214  27.303  25.510  1.00  0.00     0.039 C 
ATOM      8  C   UNL     1      52.885  27.831  26.886  1.00  0.00    -0.080 C 
ATOM      9  C   UNL     1      53.775  27.477  28.049  1.00  0.00     0.039 C 
ENDBRANCH   5   6
ENDBRANCH   4   5
ENDBRANCH   1   4
BRANCH   2  10
ATOM     10  C   UNL     1      54.140  31.449  25.705  1.00  0.00     0.055 C 
BRANCH  10  11
ATOM     11  C   UNL     1      55.040  30.558  26.520  1.00  0.00    -0.020 C 
ATOM     12  C   UNL     1      56.124  29.909  26.044  1.00  0.00    -0.055 C 
ATOM     13  C   UNL     1      56.543  29.997  24.593  1.00  0.00     0.044 C 
BRANCH  12  14
ATOM     14  C   UNL     1      56.874  29.034  26.983  1.00  0.00    -0.005 C 
ATOM     15  C   UNL     1      57.256  27.791  26.690  1.00  0.00     0.009 C 
ENDBRANCH  12  14
ENDBRANCH  10  11
ENDBRANCH   2  10
TORSDOF 6
ENDMDL
MODEL 8
REMARK VINA RESULT:    -4.083     20.130     21.252
REMARK INTER + INTRA:          -6.368
REMARK INTER:                  -5.805
REMARK INTRA:                  -0.563
REMARK UNBOUND:                -0.853
REMARK SMILES C=CC(C)=CCC=C(C)CCC=C(C)C
REMARK SMILES IDX 8 1 7 2 9 3 10 4 11 5 12 6 14 7 13 8 15 9 6 10 5 11 3 12
REMARK SMILES IDX 4 13 2 14 1 15
REMARK H PARENT
REMARK Flexibility Score: inf
ROOT
ATOM      1  C   UNL     1      53.312  29.934  26.433  1.00  0.00    -0.077 C 
ATOM      2  C   UNL     1      52.079  30.428  26.685  1.00  0.00    -0.024 C 
ATOM      3  C   UNL     1      53.511  28.441  26.486  1.00  0.00     0.039 C 
ENDROOT
BRANCH   1   4
ATOM      4  C   UNL     1      54.495  30.819  26.080  1.00  0.00     0.034 C 
BRANCH   4   5
ATOM      5  C   UNL     1      55.835  30.164  26.450  1.00  0.00     0.032 C 
BRANCH   5   6
ATOM      6  C   UNL     1      56.468  29.473  25.266  1.00  0.00    -0.028 C 
ATOM      7  C   UNL     1      57.267  27.520  26.616  1.00  0.00     0.039 C 
ATOM      8  C   UNL     1      57.087  28.273  25.319  1.00  0.00    -0.080 C 
ATOM      9  C   UNL     1      57.625  27.687  24.040  1.00  0.00     0.039 C 
ENDBRANCH   5   6
ENDBRANCH   4   5
ENDBRANCH   1   4
BRANCH   2  10
ATOM     10  C   UNL     1      51.750  31.903  26.701  1.00  0.00     0.055 C 
BRANCH  10  11
ATOM     11  C   UNL     1      51.213  32.334  28.041  1.00  0.00    -0.020 C 
ATOM     12  C   UNL     1      50.424  33.409  28.249  1.00  0.00    -0.055 C 
ATOM     13  C   UNL     1      50.007  34.332  27.125  1.00  0.00     0.044 C 
BRANCH  12  14
ATOM     14  C   UNL     1      50.021  33.712  29.648  1.00  0.00    -0.005 C 
ATOM     15  C   UNL     1      50.884  34.026  30.614  1.00  0.00     0.009 C 
ENDBRANCH  12  14
ENDBRANCH  10  11
ENDBRANCH   2  10
TORSDOF 6
ENDMDL
