MODEL 1
REMARK VINA RESULT:    -5.470      0.000      0.000
REMARK INTER + INTRA:          -6.120
REMARK INTER:                  -6.429
REMARK INTRA:                   0.310
REMARK UNBOUND:                 0.310
REMARK SMILES O=C([O-])C=Cc1ccc(O)c(O)c1
REMARK SMILES IDX 6 1 13 2 7 3 11 4 8 5 9 6 5 7 4 8 2 9 1 10 3 11 12 12 10 14
REMARK H PARENT 12 13 10 15
REMARK Flexibility Score: inf
ROOT
ATOM      1  C   UNL     1     -21.945 -22.639 -44.578  1.00  0.00    -0.022 A 
ATOM      2  C   UNL     1     -22.616 -23.797 -45.007  1.00  0.00     0.058 A 
ATOM      3  C   UNL     1     -21.761 -22.420 -43.206  1.00  0.00     0.012 A 
ATOM      4  C   UNL     1     -23.053 -24.751 -44.076  1.00  0.00     0.157 A 
ATOM      5  C   UNL     1     -22.195 -23.369 -42.276  1.00  0.00     0.051 A 
ATOM      6  C   UNL     1     -22.836 -24.537 -42.704  1.00  0.00     0.157 A 
ENDROOT
BRANCH   1   7
ATOM      7  C   UNL     1     -21.524 -21.598 -45.539  1.00  0.00     0.010 C 
ATOM      8  C   UNL     1     -20.420 -21.644 -46.301  1.00  0.00     0.025 C 
BRANCH   8   9
ATOM      9  C   UNL     1     -19.338 -22.640 -46.179  1.00  0.00     0.064 C 
ATOM     10  O   UNL     1     -19.197 -23.266 -45.097  1.00  0.00    -0.545 OA
ATOM     11  O   UNL     1     -18.517 -22.955 -47.255  1.00  0.00    -0.545 OA
ENDBRANCH   8   9
ENDBRANCH   1   7
BRANCH   4  12
ATOM     12  O   UNL     1     -23.703 -25.906 -44.509  1.00  0.00    -0.504 OA
ATOM     13  H   UNL     1     -23.322 -26.827 -44.334  1.00  0.00     0.293 HD
ENDBRANCH   4  12
BRANCH   6  14
ATOM     14  O   UNL     1     -23.255 -25.468 -41.754  1.00  0.00    -0.504 OA
ATOM     15  H   UNL     1     -23.894 -26.219 -41.982  1.00  0.00     0.293 HD
ENDBRANCH   6  14
TORSDOF 4
ENDMDL
MODEL 2
REMARK VINA RESULT:    -5.314      1.334      1.985
REMARK INTER + INTRA:          -5.936
REMARK INTER:                  -6.373
REMARK INTRA:                   0.437
REMARK UNBOUND:                 0.310
REMARK SMILES O=C([O-])C=Cc1ccc(O)c(O)c1
REMARK SMILES IDX 6 1 13 2 7 3 11 4 8 5 9 6 5 7 4 8 2 9 1 10 3 11 12 12 10 14
REMARK H PARENT 12 13 10 15
REMARK Flexibility Score: inf
ROOT
ATOM      1  C   UNL     1     -22.234 -23.287 -42.693  1.00  0.00    -0.022 A 
ATOM      2  C   UNL     1     -22.877 -23.975 -43.737  1.00  0.00     0.058 A 
ATOM      3  C   UNL     1     -22.272 -23.818 -41.396  1.00  0.00     0.012 A 
ATOM      4  C   UNL     1     -23.505 -25.206 -43.496  1.00  0.00     0.157 A 
ATOM      5  C   UNL     1     -22.897 -25.044 -41.154  1.00  0.00     0.051 A 
ATOM      6  C   UNL     1     -23.509 -25.744 -42.199  1.00  0.00     0.157 A 
ENDROOT
BRANCH   1   7
ATOM      7  C   UNL     1     -21.613 -21.965 -42.916  1.00  0.00     0.010 C 
ATOM      8  C   UNL     1     -21.104 -21.531 -44.078  1.00  0.00     0.025 C 
BRANCH   8   9
ATOM      9  C   UNL     1     -20.900 -22.358 -45.283  1.00  0.00     0.064 C 
ATOM     10  O   UNL     1     -21.739 -22.298 -46.219  1.00  0.00    -0.545 OA
ATOM     11  O   UNL     1     -19.765 -23.145 -45.441  1.00  0.00    -0.545 OA
ENDBRANCH   8   9
ENDBRANCH   1   7
BRANCH   4  12
ATOM     12  O   UNL     1     -24.125 -25.891 -44.540  1.00  0.00    -0.504 OA
ATOM     13  H   UNL     1     -23.647 -26.622 -45.053  1.00  0.00     0.293 HD
ENDBRANCH   4  12
BRANCH   6  14
ATOM     14  O   UNL     1     -24.122 -26.967 -41.927  1.00  0.00    -0.504 OA
ATOM     15  H   UNL     1     -24.106 -27.384 -41.005  1.00  0.00     0.293 HD
ENDBRANCH   6  14
TORSDOF 4
ENDMDL
MODEL 3
REMARK VINA RESULT:    -5.267      0.747      1.819
REMARK INTER + INTRA:          -5.881
REMARK INTER:                  -6.116
REMARK INTRA:                   0.235
REMARK UNBOUND:                 0.310
REMARK SMILES O=C([O-])C=Cc1ccc(O)c(O)c1
REMARK SMILES IDX 6 1 13 2 7 3 11 4 8 5 9 6 5 7 4 8 2 9 1 10 3 11 12 12 10 14
REMARK H PARENT 12 13 10 15
REMARK Flexibility Score: inf
ROOT
ATOM      1  C   UNL     1     -22.069 -22.668 -44.893  1.00  0.00    -0.022 A 
ATOM      2  C   UNL     1     -21.955 -22.688 -43.492  1.00  0.00     0.058 A 
ATOM      3  C   UNL     1     -22.671 -23.751 -45.548  1.00  0.00     0.012 A 
ATOM      4  C   UNL     1     -22.486 -23.755 -42.751  1.00  0.00     0.157 A 
ATOM      5  C   UNL     1     -23.200 -24.814 -44.813  1.00  0.00     0.051 A 
ATOM      6  C   UNL     1     -23.116 -24.820 -43.416  1.00  0.00     0.157 A 
ENDROOT
BRANCH   1   7
ATOM      7  C   UNL     1     -21.471 -21.579 -45.694  1.00  0.00     0.010 C 
ATOM      8  C   UNL     1     -20.282 -21.633 -46.313  1.00  0.00     0.025 C 
BRANCH   8   9
ATOM      9  C   UNL     1     -19.280 -22.704 -46.150  1.00  0.00     0.064 C 
ATOM     10  O   UNL     1     -19.187 -23.295 -45.043  1.00  0.00    -0.545 OA
ATOM     11  O   UNL     1     -18.488 -23.125 -47.211  1.00  0.00    -0.545 OA
ENDBRANCH   8   9
ENDBRANCH   1   7
BRANCH   4  12
ATOM     12  O   UNL     1     -22.385 -23.760 -41.361  1.00  0.00    -0.504 OA
ATOM     13  H   UNL     1     -22.994 -24.331 -40.787  1.00  0.00     0.293 HD
ENDBRANCH   4  12
BRANCH   6  14
ATOM     14  O   UNL     1     -23.656 -25.894 -42.709  1.00  0.00    -0.504 OA
ATOM     15  H   UNL     1     -24.647 -26.101 -42.719  1.00  0.00     0.293 HD
ENDBRANCH   6  14
TORSDOF 4
ENDMDL
MODEL 4
REMARK VINA RESULT:    -4.500      1.503      4.911
REMARK INTER + INTRA:          -4.979
REMARK INTER:                  -4.789
REMARK INTRA:                  -0.190
REMARK UNBOUND:                 0.310
REMARK SMILES O=C([O-])C=Cc1ccc(O)c(O)c1
REMARK SMILES IDX 6 1 13 2 7 3 11 4 8 5 9 6 5 7 4 8 2 9 1 10 3 11 12 12 10 14
REMARK H PARENT 12 13 10 15
REMARK Flexibility Score: inf
ROOT
ATOM      1  C   UNL     1     -22.356 -23.906 -45.019  1.00  0.00    -0.022 A 
ATOM      2  C   UNL     1     -22.440 -22.539 -45.338  1.00  0.00     0.058 A 
ATOM      3  C   UNL     1     -21.138 -24.577 -45.190  1.00  0.00     0.012 A 
ATOM      4  C   UNL     1     -21.304 -21.841 -45.774  1.00  0.00     0.157 A 
ATOM      5  C   UNL     1     -20.005 -23.884 -45.623  1.00  0.00     0.051 A 
ATOM      6  C   UNL     1     -20.080 -22.517 -45.911  1.00  0.00     0.157 A 
ENDROOT
BRANCH   1   7
ATOM      7  C   UNL     1     -23.553 -24.671 -44.609  1.00  0.00     0.010 C 
ATOM      8  C   UNL     1     -23.853 -25.029 -43.352  1.00  0.00     0.025 C 
BRANCH   8   9
ATOM      9  C   UNL     1     -22.957 -24.894 -42.187  1.00  0.00     0.064 C 
ATOM     10  O   UNL     1     -22.418 -25.924 -41.703  1.00  0.00    -0.545 OA
ATOM     11  O   UNL     1     -22.638 -23.650 -41.657  1.00  0.00    -0.545 OA
ENDBRANCH   8   9
ENDBRANCH   1   7
BRANCH   4  12
ATOM     12  O   UNL     1     -21.390 -20.482 -46.072  1.00  0.00    -0.504 OA
ATOM     13  H   UNL     1     -20.747 -20.038 -46.716  1.00  0.00     0.293 HD
ENDBRANCH   4  12
BRANCH   6  14
ATOM     14  O   UNL     1     -18.932 -21.850 -46.339  1.00  0.00    -0.504 OA
ATOM     15  H   UNL     1     -18.967 -21.103 -47.022  1.00  0.00     0.293 HD
ENDBRANCH   6  14
TORSDOF 4
ENDMDL
MODEL 5
REMARK VINA RESULT:    -4.424      1.654      4.724
REMARK INTER + INTRA:          -4.891
REMARK INTER:                  -5.226
REMARK INTRA:                   0.335
REMARK UNBOUND:                 0.310
REMARK SMILES O=C([O-])C=Cc1ccc(O)c(O)c1
REMARK SMILES IDX 6 1 13 2 7 3 11 4 8 5 9 6 5 7 4 8 2 9 1 10 3 11 12 12 10 14
REMARK H PARENT 12 13 10 15
REMARK Flexibility Score: inf
ROOT
ATOM      1  C   UNL     1     -22.456 -23.040 -42.675  1.00  0.00    -0.022 A 
ATOM      2  C   UNL     1     -23.008 -23.600 -43.841  1.00  0.00     0.058 A 
ATOM      3  C   UNL     1     -21.310 -22.240 -42.774  1.00  0.00     0.012 A 
ATOM      4  C   UNL     1     -22.448 -23.321 -45.096  1.00  0.00     0.157 A 
ATOM      5  C   UNL     1     -20.751 -21.960 -44.024  1.00  0.00     0.051 A 
ATOM      6  C   UNL     1     -21.317 -22.492 -45.187  1.00  0.00     0.157 A 
ENDROOT
BRANCH   1   7
ATOM      7  C   UNL     1     -22.999 -23.365 -41.340  1.00  0.00     0.010 C 
ATOM      8  C   UNL     1     -23.182 -24.602 -40.855  1.00  0.00     0.025 C 
BRANCH   8   9
ATOM      9  C   UNL     1     -23.057 -25.851 -41.630  1.00  0.00     0.064 C 
ATOM     10  O   UNL     1     -21.940 -26.160 -42.122  1.00  0.00    -0.545 OA
ATOM     11  O   UNL     1     -24.124 -26.731 -41.768  1.00  0.00    -0.545 OA
ENDBRANCH   8   9
ENDBRANCH   1   7
BRANCH   4  12
ATOM     12  O   UNL     1     -23.010 -23.866 -46.250  1.00  0.00    -0.504 OA
ATOM     13  H   UNL     1     -23.944 -24.258 -46.252  1.00  0.00     0.293 HD
ENDBRANCH   4  12
BRANCH   6  14
ATOM     14  O   UNL     1     -20.740 -22.192 -46.421  1.00  0.00    -0.504 OA
ATOM     15  H   UNL     1     -20.602 -21.239 -46.733  1.00  0.00     0.293 HD
ENDBRANCH   6  14
TORSDOF 4
ENDMDL
MODEL 6
REMARK VINA RESULT:    -4.420      1.724      2.779
REMARK INTER + INTRA:          -4.885
REMARK INTER:                  -5.685
REMARK INTRA:                   0.800
REMARK UNBOUND:                 0.310
REMARK SMILES O=C([O-])C=Cc1ccc(O)c(O)c1
REMARK SMILES IDX 6 1 13 2 7 3 11 4 8 5 9 6 5 7 4 8 2 9 1 10 3 11 12 12 10 14
REMARK H PARENT 12 13 10 15
REMARK Flexibility Score: inf
ROOT
ATOM      1  C   UNL     1     -23.193 -24.406 -44.417  1.00  0.00    -0.022 A 
ATOM      2  C   UNL     1     -22.646 -24.010 -43.184  1.00  0.00     0.058 A 
ATOM      3  C   UNL     1     -23.909 -25.608 -44.496  1.00  0.00     0.012 A 
ATOM      4  C   UNL     1     -22.858 -24.782 -42.032  1.00  0.00     0.157 A 
ATOM      5  C   UNL     1     -24.122 -26.379 -43.350  1.00  0.00     0.051 A 
ATOM      6  C   UNL     1     -23.605 -25.970 -42.116  1.00  0.00     0.157 A 
ENDROOT
BRANCH   1   7
ATOM      7  C   UNL     1     -22.936 -23.635 -45.651  1.00  0.00     0.010 C 
ATOM      8  C   UNL     1     -21.858 -22.869 -45.878  1.00  0.00     0.025 C 
BRANCH   8   9
ATOM      9  C   UNL     1     -20.838 -22.509 -44.876  1.00  0.00     0.064 C 
ATOM     10  O   UNL     1     -19.680 -22.991 -44.977  1.00  0.00    -0.545 OA
ATOM     11  O   UNL     1     -21.104 -21.594 -43.864  1.00  0.00    -0.545 OA
ENDBRANCH   8   9
ENDBRANCH   1   7
BRANCH   4  12
ATOM     12  O   UNL     1     -22.328 -24.375 -40.809  1.00  0.00    -0.504 OA
ATOM     13  H   UNL     1     -22.650 -23.535 -40.344  1.00  0.00     0.293 HD
ENDBRANCH   4  12
BRANCH   6  14
ATOM     14  O   UNL     1     -23.837 -26.758 -40.989  1.00  0.00    -0.504 OA
ATOM     15  H   UNL     1     -24.222 -27.691 -41.055  1.00  0.00     0.293 HD
ENDBRANCH   6  14
TORSDOF 4
ENDMDL
MODEL 7
REMARK VINA RESULT:    -4.277      1.150      4.898
REMARK INTER + INTRA:          -4.717
REMARK INTER:                  -4.463
REMARK INTRA:                  -0.254
REMARK UNBOUND:                 0.310
REMARK SMILES O=C([O-])C=Cc1ccc(O)c(O)c1
REMARK SMILES IDX 6 1 13 2 7 3 11 4 8 5 9 6 5 7 4 8 2 9 1 10 3 11 12 12 10 14
REMARK H PARENT 12 13 10 15
REMARK Flexibility Score: inf
ROOT
ATOM      1  C   UNL     1     -21.223 -22.291 -43.851  1.00  0.00    -0.022 A 
ATOM      2  C   UNL     1     -19.911 -22.762 -44.036  1.00  0.00     0.058 A 
ATOM      3  C   UNL     1     -21.914 -21.741 -44.939  1.00  0.00     0.012 A 
ATOM      4  C   UNL     1     -19.317 -22.730 -45.306  1.00  0.00     0.157 A 
ATOM      5  C   UNL     1     -21.324 -21.709 -46.206  1.00  0.00     0.051 A 
ATOM      6  C   UNL     1     -20.030 -22.206 -46.397  1.00  0.00     0.157 A 
ENDROOT
BRANCH   1   7
ATOM      7  C   UNL     1     -21.846 -22.267 -42.512  1.00  0.00     0.010 C 
ATOM      8  C   UNL     1     -22.462 -23.303 -41.922  1.00  0.00     0.025 C 
BRANCH   8   9
ATOM      9  C   UNL     1     -22.795 -24.583 -42.575  1.00  0.00     0.064 C 
ATOM     10  O   UNL     1     -22.282 -25.647 -42.139  1.00  0.00    -0.545 OA
ATOM     11  O   UNL     1     -23.716 -24.652 -43.613  1.00  0.00    -0.545 OA
ENDBRANCH   8   9
ENDBRANCH   1   7
BRANCH   4  12
ATOM     12  O   UNL     1     -18.022 -23.215 -45.486  1.00  0.00    -0.504 OA
ATOM     13  H   UNL     1     -17.631 -23.924 -44.877  1.00  0.00     0.293 HD
ENDBRANCH   4  12
BRANCH   6  14
ATOM     14  O   UNL     1     -19.469 -22.164 -47.673  1.00  0.00    -0.504 OA
ATOM     15  H   UNL     1     -19.306 -23.002 -48.217  1.00  0.00     0.293 HD
ENDBRANCH   6  14
TORSDOF 4
ENDMDL
MODEL 8
REMARK VINA RESULT:    -3.928      1.341      2.584
REMARK INTER + INTRA:          -4.307
REMARK INTER:                  -5.096
REMARK INTRA:                   0.789
REMARK UNBOUND:                 0.310
REMARK SMILES O=C([O-])C=Cc1ccc(O)c(O)c1
REMARK SMILES IDX 6 1 13 2 7 3 11 4 8 5 9 6 5 7 4 8 2 9 1 10 3 11 12 12 10 14
REMARK H PARENT 12 13 10 15
REMARK Flexibility Score: inf
ROOT
ATOM      1  C   UNL     1     -22.359 -23.488 -42.947  1.00  0.00    -0.022 A 
ATOM      2  C   UNL     1     -22.743 -24.221 -41.810  1.00  0.00     0.058 A 
ATOM      3  C   UNL     1     -22.530 -24.055 -44.218  1.00  0.00     0.012 A 
ATOM      4  C   UNL     1     -23.338 -25.484 -41.945  1.00  0.00     0.157 A 
ATOM      5  C   UNL     1     -23.123 -25.313 -44.355  1.00  0.00     0.051 A 
ATOM      6  C   UNL     1     -23.533 -26.029 -43.226  1.00  0.00     0.157 A 
ENDROOT
BRANCH   1   7
ATOM      7  C   UNL     1     -21.684 -22.180 -42.823  1.00  0.00     0.010 C 
ATOM      8  C   UNL     1     -21.044 -21.539 -43.812  1.00  0.00     0.025 C 
BRANCH   8   9
ATOM      9  C   UNL     1     -20.737 -22.104 -45.140  1.00  0.00     0.064 C 
ATOM     10  O   UNL     1     -21.432 -21.759 -46.131  1.00  0.00    -0.545 OA
ATOM     11  O   UNL     1     -19.654 -22.953 -45.336  1.00  0.00    -0.545 OA
ENDBRANCH   8   9
ENDBRANCH   1   7
BRANCH   4  12
ATOM     12  O   UNL     1     -23.731 -26.197 -40.814  1.00  0.00    -0.504 OA
ATOM     13  H   UNL     1     -23.143 -26.255 -39.992  1.00  0.00     0.293 HD
ENDBRANCH   4  12
BRANCH   6  14
ATOM     14  O   UNL     1     -24.125 -27.280 -43.394  1.00  0.00    -0.504 OA
ATOM     15  H   UNL     1     -25.044 -27.390 -43.804  1.00  0.00     0.293 HD
ENDBRANCH   6  14
TORSDOF 4
ENDMDL
MODEL 9
REMARK VINA RESULT:    -3.883      1.517      2.121
REMARK INTER + INTRA:          -4.254
REMARK INTER:                  -4.697
REMARK INTRA:                   0.442
REMARK UNBOUND:                 0.310
REMARK SMILES O=C([O-])C=Cc1ccc(O)c(O)c1
REMARK SMILES IDX 6 1 13 2 7 3 11 4 8 5 9 6 5 7 4 8 2 9 1 10 3 11 12 12 10 14
REMARK H PARENT 12 13 10 15
REMARK Flexibility Score: inf
ROOT
ATOM      1  C   UNL     1     -23.093 -24.089 -44.129  1.00  0.00    -0.022 A 
ATOM      2  C   UNL     1     -23.614 -25.315 -43.679  1.00  0.00     0.058 A 
ATOM      3  C   UNL     1     -22.628 -23.156 -43.192  1.00  0.00     0.012 A 
ATOM      4  C   UNL     1     -23.622 -25.624 -42.311  1.00  0.00     0.157 A 
ATOM      5  C   UNL     1     -22.635 -23.462 -41.828  1.00  0.00     0.051 A 
ATOM      6  C   UNL     1     -23.125 -24.694 -41.382  1.00  0.00     0.157 A 
ENDROOT
BRANCH   1   7
ATOM      7  C   UNL     1     -23.123 -23.724 -45.560  1.00  0.00     0.010 C 
ATOM      8  C   UNL     1     -22.183 -23.014 -46.202  1.00  0.00     0.025 C 
BRANCH   8   9
ATOM      9  C   UNL     1     -21.055 -22.312 -45.560  1.00  0.00     0.064 C 
ATOM     10  O   UNL     1     -21.139 -21.073 -45.354  1.00  0.00    -0.545 OA
ATOM     11  O   UNL     1     -19.933 -22.999 -45.111  1.00  0.00    -0.545 OA
ENDBRANCH   8   9
ENDBRANCH   1   7
BRANCH   4  12
ATOM     12  O   UNL     1     -24.125 -26.848 -41.873  1.00  0.00    -0.504 OA
ATOM     13  H   UNL     1     -24.054 -27.135 -40.904  1.00  0.00     0.293 HD
ENDBRANCH   4  12
BRANCH   6  14
ATOM     14  O   UNL     1     -23.117 -24.972 -40.016  1.00  0.00    -0.504 OA
ATOM     15  H   UNL     1     -23.873 -25.471 -39.564  1.00  0.00     0.293 HD
ENDBRANCH   6  14
TORSDOF 4
ENDMDL
