MODEL 1
REMARK VINA RESULT:    -3.850      0.000      0.000
REMARK INTER + INTRA:          -5.160
REMARK INTER:                  -4.750
REMARK INTRA:                  -0.410
REMARK UNBOUND:                -0.410
REMARK SMILES COC(=O)c1ccccc1C(=O)OC
REMARK SMILES IDX 5 1 6 2 7 3 8 4 9 5 10 6 3 7 4 8 2 9 1 10 11 11 12 12 13 13
REMARK SMILES IDX 14 14
REMARK H PARENT
REMARK Flexibility Score: inf
ROOT
ATOM      1  C   UNL     1       2.916   2.915  -4.419  1.00  0.00     0.074 A 
ATOM      2  C   UNL     1       4.178   2.407  -4.063  1.00  0.00     0.016 A 
ATOM      3  C   UNL     1       4.297   1.174  -3.421  1.00  0.00     0.001 A 
ATOM      4  C   UNL     1       3.158   0.428  -3.124  1.00  0.00     0.001 A 
ATOM      5  C   UNL     1       1.898   0.902  -3.488  1.00  0.00     0.016 A 
ATOM      6  C   UNL     1       1.756   2.133  -4.156  1.00  0.00     0.074 A 
ENDROOT
BRANCH   1   7
ATOM      7  C   UNL     1       2.853   4.277  -4.993  1.00  0.00     0.338 C 
ATOM      8  O   UNL     1       2.965   4.450  -6.238  1.00  0.00    -0.246 OA
BRANCH   7   9
ATOM      9  O   UNL     1       2.614   5.369  -4.152  1.00  0.00    -0.465 OA
ATOM     10  C   UNL     1       1.436   6.161  -4.241  1.00  0.00     0.282 C 
ENDBRANCH   7   9
ENDBRANCH   1   7
BRANCH   6  11
ATOM     11  C   UNL     1       0.406   2.527  -4.621  1.00  0.00     0.338 C 
ATOM     12  O   UNL     1       0.058   2.283  -5.809  1.00  0.00    -0.246 OA
BRANCH  11  13
ATOM     13  O   UNL     1      -0.458   3.215  -3.764  1.00  0.00    -0.465 OA
ATOM     14  C   UNL     1      -1.646   3.850  -4.220  1.00  0.00     0.282 C 
ENDBRANCH  11  13
ENDBRANCH   6  11
TORSDOF 4
ENDMDL
MODEL 2
REMARK VINA RESULT:    -3.808      0.680      3.152
REMARK INTER + INTRA:          -5.109
REMARK INTER:                  -4.623
REMARK INTRA:                  -0.486
REMARK UNBOUND:                -0.410
REMARK SMILES COC(=O)c1ccccc1C(=O)OC
REMARK SMILES IDX 5 1 6 2 7 3 8 4 9 5 10 6 3 7 4 8 2 9 1 10 11 11 12 12 13 13
REMARK SMILES IDX 14 14
REMARK H PARENT
REMARK Flexibility Score: inf
ROOT
ATOM      1  C   UNL     1       1.802   2.089  -4.117  1.00  0.00     0.074 A 
ATOM      2  C   UNL     1       1.982   0.863  -3.451  1.00  0.00     0.016 A 
ATOM      3  C   UNL     1       3.261   0.397  -3.143  1.00  0.00     0.001 A 
ATOM      4  C   UNL     1       4.381   1.149  -3.495  1.00  0.00     0.001 A 
ATOM      5  C   UNL     1       4.225   2.378  -4.135  1.00  0.00     0.016 A 
ATOM      6  C   UNL     1       2.943   2.876  -4.437  1.00  0.00     0.074 A 
ENDROOT
BRANCH   1   7
ATOM      7  C   UNL     1       0.428   2.466  -4.514  1.00  0.00     0.338 C 
ATOM      8  O   UNL     1      -0.359   2.984  -3.674  1.00  0.00    -0.246 OA
BRANCH   7   9
ATOM      9  O   UNL     1       0.023   2.298  -5.843  1.00  0.00    -0.465 OA
ATOM     10  C   UNL     1      -0.460   3.373  -6.639  1.00  0.00     0.282 C 
ENDBRANCH   7   9
ENDBRANCH   1   7
BRANCH   6  11
ATOM     11  C   UNL     1       2.837   4.238  -5.009  1.00  0.00     0.338 C 
ATOM     12  O   UNL     1       3.059   4.419  -6.238  1.00  0.00    -0.246 OA
BRANCH  11  13
ATOM     13  O   UNL     1       2.546   5.326  -4.180  1.00  0.00    -0.465 OA
ATOM     14  C   UNL     1       1.338   6.069  -4.286  1.00  0.00     0.282 C 
ENDBRANCH  11  13
ENDBRANCH   6  11
TORSDOF 4
ENDMDL
MODEL 3
REMARK VINA RESULT:    -3.589      1.965      4.442
REMARK INTER + INTRA:          -4.839
REMARK INTER:                  -4.476
REMARK INTRA:                  -0.363
REMARK UNBOUND:                -0.410
REMARK SMILES COC(=O)c1ccccc1C(=O)OC
REMARK SMILES IDX 5 1 6 2 7 3 8 4 9 5 10 6 3 7 4 8 2 9 1 10 11 11 12 12 13 13
REMARK SMILES IDX 14 14
REMARK H PARENT
REMARK Flexibility Score: inf
ROOT
ATOM      1  C   UNL     1       0.823   2.803  -5.770  1.00  0.00     0.074 A 
ATOM      2  C   UNL     1       0.071   2.552  -6.932  1.00  0.00     0.016 A 
ATOM      3  C   UNL     1       0.578   2.868  -8.194  1.00  0.00     0.001 A 
ATOM      4  C   UNL     1       1.843   3.440  -8.315  1.00  0.00     0.001 A 
ATOM      5  C   UNL     1       2.615   3.676  -7.178  1.00  0.00     0.016 A 
ATOM      6  C   UNL     1       2.132   3.346  -5.897  1.00  0.00     0.074 A 
ENDROOT
BRANCH   1   7
ATOM      7  C   UNL     1       0.181   2.551  -4.461  1.00  0.00     0.338 C 
ATOM      8  O   UNL     1       0.303   1.429  -3.897  1.00  0.00    -0.246 OA
BRANCH   7   9
ATOM      9  O   UNL     1      -0.517   3.584  -3.825  1.00  0.00    -0.465 OA
ATOM     10  C   UNL     1      -1.819   3.990  -4.227  1.00  0.00     0.282 C 
ENDBRANCH   7   9
ENDBRANCH   1   7
BRANCH   6  11
ATOM     11  C   UNL     1       3.043   3.511  -4.741  1.00  0.00     0.338 C 
ATOM     12  O   UNL     1       3.032   4.588  -4.084  1.00  0.00    -0.246 OA
BRANCH  11  13
ATOM     13  O   UNL     1       3.949   2.498  -4.413  1.00  0.00    -0.465 OA
ATOM     14  C   UNL     1       3.791   1.669  -3.268  1.00  0.00     0.282 C 
ENDBRANCH  11  13
ENDBRANCH   6  11
TORSDOF 4
ENDMDL
MODEL 4
REMARK VINA RESULT:    -3.589      1.962      3.354
REMARK INTER + INTRA:          -4.838
REMARK INTER:                  -4.458
REMARK INTRA:                  -0.380
REMARK UNBOUND:                -0.410
REMARK SMILES COC(=O)c1ccccc1C(=O)OC
REMARK SMILES IDX 5 1 6 2 7 3 8 4 9 5 10 6 3 7 4 8 2 9 1 10 11 11 12 12 13 13
REMARK SMILES IDX 14 14
REMARK H PARENT
REMARK Flexibility Score: inf
ROOT
ATOM      1  C   UNL     1       2.143   3.391  -5.906  1.00  0.00     0.074 A 
ATOM      2  C   UNL     1       2.637   3.710  -7.183  1.00  0.00     0.016 A 
ATOM      3  C   UNL     1       1.884   3.445  -8.328  1.00  0.00     0.001 A 
ATOM      4  C   UNL     1       0.625   2.856  -8.215  1.00  0.00     0.001 A 
ATOM      5  C   UNL     1       0.107   2.552  -6.956  1.00  0.00     0.016 A 
ATOM      6  C   UNL     1       0.840   2.830  -5.787  1.00  0.00     0.074 A 
ENDROOT
BRANCH   1   7
ATOM      7  C   UNL     1       3.039   3.593  -4.746  1.00  0.00     0.338 C 
ATOM      8  O   UNL     1       2.952   4.640  -4.048  1.00  0.00    -0.246 OA
BRANCH   7   9
ATOM      9  O   UNL     1       3.947   2.588  -4.392  1.00  0.00    -0.465 OA
ATOM     10  C   UNL     1       3.718   1.694  -3.311  1.00  0.00     0.282 C 
ENDBRANCH   7   9
ENDBRANCH   1   7
BRANCH   6  11
ATOM     11  C   UNL     1       0.189   2.595  -4.478  1.00  0.00     0.338 C 
ATOM     12  O   UNL     1       0.221   1.444  -3.961  1.00  0.00    -0.246 OA
BRANCH  11  13
ATOM     13  O   UNL     1      -0.505   3.630  -3.844  1.00  0.00    -0.465 OA
ATOM     14  C   UNL     1      -1.823   4.010  -4.217  1.00  0.00     0.282 C 
ENDBRANCH  11  13
ENDBRANCH   6  11
TORSDOF 4
ENDMDL
MODEL 5
REMARK VINA RESULT:    -3.587      2.492      4.151
REMARK INTER + INTRA:          -4.835
REMARK INTER:                  -4.431
REMARK INTRA:                  -0.404
REMARK UNBOUND:                -0.410
REMARK SMILES COC(=O)c1ccccc1C(=O)OC
REMARK SMILES IDX 5 1 6 2 7 3 8 4 9 5 10 6 3 7 4 8 2 9 1 10 11 11 12 12 13 13
REMARK SMILES IDX 14 14
REMARK H PARENT
REMARK Flexibility Score: inf
ROOT
ATOM      1  C   UNL     1       0.323   3.030  -5.933  1.00  0.00     0.074 A 
ATOM      2  C   UNL     1       1.461   3.116  -6.755  1.00  0.00     0.016 A 
ATOM      3  C   UNL     1       1.349   3.015  -8.143  1.00  0.00     0.001 A 
ATOM      4  C   UNL     1       0.099   2.828  -8.731  1.00  0.00     0.001 A 
ATOM      5  C   UNL     1      -1.045   2.763  -7.935  1.00  0.00     0.016 A 
ATOM      6  C   UNL     1      -0.958   2.883  -6.536  1.00  0.00     0.074 A 
ENDROOT
BRANCH   1   7
ATOM      7  C   UNL     1       0.526   3.030  -4.467  1.00  0.00     0.338 C 
ATOM      8  O   UNL     1       0.620   4.119  -3.836  1.00  0.00    -0.246 OA
BRANCH   7   9
ATOM      9  O   UNL     1       0.556   1.814  -3.776  1.00  0.00    -0.465 OA
ATOM     10  C   UNL     1       1.767   1.125  -3.490  1.00  0.00     0.282 C 
ENDBRANCH   7   9
ENDBRANCH   1   7
BRANCH   6  11
ATOM     11  C   UNL     1      -2.216   2.926  -5.756  1.00  0.00     0.338 C 
ATOM     12  O   UNL     1      -2.717   1.855  -5.317  1.00  0.00    -0.246 OA
BRANCH  11  13
ATOM     13  O   UNL     1      -2.874   4.144  -5.555  1.00  0.00    -0.465 OA
ATOM     14  C   UNL     1      -2.991   4.750  -4.274  1.00  0.00     0.282 C 
ENDBRANCH  11  13
ENDBRANCH   6  11
TORSDOF 4
ENDMDL
MODEL 6
REMARK VINA RESULT:    -3.474     12.012     13.253
REMARK INTER + INTRA:          -4.696
REMARK INTER:                  -4.378
REMARK INTRA:                  -0.318
REMARK UNBOUND:                -0.410
REMARK SMILES COC(=O)c1ccccc1C(=O)OC
REMARK SMILES IDX 5 1 6 2 7 3 8 4 9 5 10 6 3 7 4 8 2 9 1 10 11 11 12 12 13 13
REMARK SMILES IDX 14 14
REMARK H PARENT
REMARK Flexibility Score: inf
ROOT
ATOM      1  C   UNL     1      -1.407   1.885   8.360  1.00  0.00     0.074 A 
ATOM      2  C   UNL     1      -2.054   2.523   9.434  1.00  0.00     0.016 A 
ATOM      3  C   UNL     1      -3.447   2.526   9.529  1.00  0.00     0.001 A 
ATOM      4  C   UNL     1      -4.215   1.892   8.555  1.00  0.00     0.001 A 
ATOM      5  C   UNL     1      -3.593   1.233   7.494  1.00  0.00     0.016 A 
ATOM      6  C   UNL     1      -2.190   1.200   7.389  1.00  0.00     0.074 A 
ENDROOT
BRANCH   1   7
ATOM      7  C   UNL     1       0.063   2.018   8.259  1.00  0.00     0.338 C 
ATOM      8  O   UNL     1       0.582   3.122   7.937  1.00  0.00    -0.246 OA
BRANCH   7   9
ATOM      9  O   UNL     1       0.878   0.926   8.578  1.00  0.00    -0.465 OA
ATOM     10  C   UNL     1       0.518  -0.037   9.560  1.00  0.00     0.282 C 
ENDBRANCH   7   9
ENDBRANCH   1   7
BRANCH   6  11
ATOM     11  C   UNL     1      -1.587   0.386   6.309  1.00  0.00     0.338 C 
ATOM     12  O   UNL     1      -1.072   0.957   5.308  1.00  0.00    -0.246 OA
BRANCH  11  13
ATOM     13  O   UNL     1      -1.636  -1.010   6.372  1.00  0.00    -0.465 OA
ATOM     14  C   UNL     1      -0.473  -1.824   6.287  1.00  0.00     0.282 C 
ENDBRANCH  11  13
ENDBRANCH   6  11
TORSDOF 4
ENDMDL
MODEL 7
REMARK VINA RESULT:    -3.431     11.656     12.946
REMARK INTER + INTRA:          -4.643
REMARK INTER:                  -4.301
REMARK INTRA:                  -0.342
REMARK UNBOUND:                -0.410
REMARK SMILES COC(=O)c1ccccc1C(=O)OC
REMARK SMILES IDX 5 1 6 2 7 3 8 4 9 5 10 6 3 7 4 8 2 9 1 10 11 11 12 12 13 13
REMARK SMILES IDX 14 14
REMARK H PARENT
REMARK Flexibility Score: inf
ROOT
ATOM      1  C   UNL     1      -2.584   0.865   7.444  1.00  0.00     0.074 A 
ATOM      2  C   UNL     1      -3.772   0.770   8.191  1.00  0.00     0.016 A 
ATOM      3  C   UNL     1      -4.372  -0.469   8.424  1.00  0.00     0.001 A 
ATOM      4  C   UNL     1      -3.795  -1.631   7.916  1.00  0.00     0.001 A 
ATOM      5  C   UNL     1      -2.605  -1.561   7.192  1.00  0.00     0.016 A 
ATOM      6  C   UNL     1      -1.972  -0.325   6.963  1.00  0.00     0.074 A 
ENDROOT
BRANCH   1   7
ATOM      7  C   UNL     1      -2.065   2.217   7.138  1.00  0.00     0.338 C 
ATOM      8  O   UNL     1      -2.719   2.997   6.392  1.00  0.00    -0.246 OA
BRANCH   7   9
ATOM      9  O   UNL     1      -0.871   2.647   7.727  1.00  0.00    -0.465 OA
ATOM     10  C   UNL     1      -0.558   2.402   9.092  1.00  0.00     0.282 C 
ENDBRANCH   7   9
ENDBRANCH   1   7
BRANCH   6  11
ATOM     11  C   UNL     1      -0.652  -0.328   6.291  1.00  0.00     0.338 C 
ATOM     12  O   UNL     1      -0.590  -0.341   5.031  1.00  0.00    -0.246 OA
BRANCH  11  13
ATOM     13  O   UNL     1       0.521  -0.370   7.052  1.00  0.00    -0.465 OA
ATOM     14  C   UNL     1       1.294  -1.554   7.205  1.00  0.00     0.282 C 
ENDBRANCH  11  13
ENDBRANCH   6  11
TORSDOF 4
ENDMDL
MODEL 8
REMARK VINA RESULT:    -3.399     11.433     12.998
REMARK INTER + INTRA:          -4.604
REMARK INTER:                  -4.126
REMARK INTRA:                  -0.479
REMARK UNBOUND:                -0.410
REMARK SMILES COC(=O)c1ccccc1C(=O)OC
REMARK SMILES IDX 5 1 6 2 7 3 8 4 9 5 10 6 3 7 4 8 2 9 1 10 11 11 12 12 13 13
REMARK SMILES IDX 14 14
REMARK H PARENT
REMARK Flexibility Score: inf
ROOT
ATOM      1  C   UNL     1      -0.792  -0.126   6.722  1.00  0.00     0.074 A 
ATOM      2  C   UNL     1      -1.665   0.901   6.319  1.00  0.00     0.016 A 
ATOM      3  C   UNL     1      -1.822   2.051   7.094  1.00  0.00     0.001 A 
ATOM      4  C   UNL     1      -1.109   2.194   8.283  1.00  0.00     0.001 A 
ATOM      5  C   UNL     1      -0.221   1.199   8.690  1.00  0.00     0.016 A 
ATOM      6  C   UNL     1      -0.032   0.040   7.913  1.00  0.00     0.074 A 
ENDROOT
BRANCH   1   7
ATOM      7  C   UNL     1      -0.760  -1.365   5.914  1.00  0.00     0.338 C 
ATOM      8  O   UNL     1      -1.481  -2.351   6.231  1.00  0.00    -0.246 OA
BRANCH   7   9
ATOM      9  O   UNL     1       0.031  -1.417   4.761  1.00  0.00    -0.465 OA
ATOM     10  C   UNL     1       1.317  -2.024   4.741  1.00  0.00     0.282 C 
ENDBRANCH   7   9
ENDBRANCH   1   7
BRANCH   6  11
ATOM     11  C   UNL     1       1.010  -0.924   8.334  1.00  0.00     0.338 C 
ATOM     12  O   UNL     1       2.205  -0.756   7.966  1.00  0.00    -0.246 OA
BRANCH  11  13
ATOM     13  O   UNL     1       0.661  -2.046   9.093  1.00  0.00    -0.465 OA
ATOM     14  C   UNL     1       0.904  -3.376   8.652  1.00  0.00     0.282 C 
ENDBRANCH  11  13
ENDBRANCH   6  11
TORSDOF 4
ENDMDL
MODEL 9
REMARK VINA RESULT:    -3.397      2.879      5.202
REMARK INTER + INTRA:          -4.602
REMARK INTER:                  -4.150
REMARK INTRA:                  -0.452
REMARK UNBOUND:                -0.410
REMARK SMILES COC(=O)c1ccccc1C(=O)OC
REMARK SMILES IDX 5 1 6 2 7 3 8 4 9 5 10 6 3 7 4 8 2 9 1 10 11 11 12 12 13 13
REMARK SMILES IDX 14 14
REMARK H PARENT
REMARK Flexibility Score: inf
ROOT
ATOM      1  C   UNL     1       3.130   1.409  -3.414  1.00  0.00     0.074 A 
ATOM      2  C   UNL     1       1.769   1.058  -3.474  1.00  0.00     0.016 A 
ATOM      3  C   UNL     1       0.860   1.843  -4.185  1.00  0.00     0.001 A 
ATOM      4  C   UNL     1       1.296   2.990  -4.847  1.00  0.00     0.001 A 
ATOM      5  C   UNL     1       2.645   3.344  -4.819  1.00  0.00     0.016 A 
ATOM      6  C   UNL     1       3.582   2.555  -4.125  1.00  0.00     0.074 A 
ENDROOT
BRANCH   1   7
ATOM      7  C   UNL     1       4.017   0.598  -2.550  1.00  0.00     0.338 C 
ATOM      8  O   UNL     1       4.313   0.995  -1.389  1.00  0.00    -0.246 OA
BRANCH   7   9
ATOM      9  O   UNL     1       4.480  -0.641  -3.006  1.00  0.00    -0.465 OA
ATOM     10  C   UNL     1       5.614  -0.770  -3.854  1.00  0.00     0.282 C 
ENDBRANCH   7   9
ENDBRANCH   1   7
BRANCH   6  11
ATOM     11  C   UNL     1       5.015   2.915  -4.231  1.00  0.00     0.338 C 
ATOM     12  O   UNL     1       5.703   2.471  -5.190  1.00  0.00    -0.246 OA
BRANCH  11  13
ATOM     13  O   UNL     1       5.615   3.700  -3.241  1.00  0.00    -0.465 OA
ATOM     14  C   UNL     1       6.764   3.277  -2.518  1.00  0.00     0.282 C 
ENDBRANCH  11  13
ENDBRANCH   6  11
TORSDOF 4
ENDMDL
