MODEL 1
REMARK VINA RESULT:    -3.482      0.000      0.000
REMARK INTER + INTRA:          -3.583
REMARK INTER:                  -3.583
REMARK INTRA:                   0.000
REMARK UNBOUND:                 0.000
REMARK SMILES Nc1ncnc2nc[nH]c12
REMARK SMILES IDX 8 1 7 2 6 3 5 4 4 5 3 6 2 7 10 8 9 9 1 11
REMARK H PARENT 9 10 1 12 1 13
REMARK Flexibility Score: inf
ROOT
ATOM      1  C   UNL     1     -16.261  14.840  -9.058  1.00  0.00     0.199 A 
ATOM      2  N   UNL     1     -15.325  13.886  -8.802  1.00  0.00    -0.217 NA
ATOM      3  C   UNL     1     -14.640  14.425  -7.780  1.00  0.00     0.182 A 
ATOM      4  N   UNL     1     -13.582  13.875  -7.137  1.00  0.00    -0.215 NA
ATOM      5  C   UNL     1     -13.010  14.581  -6.114  1.00  0.00     0.226 A 
ATOM      6  N   UNL     1     -13.501  15.812  -5.758  1.00  0.00    -0.217 NA
ATOM      7  C   UNL     1     -14.568  16.369  -6.406  1.00  0.00     0.152 A 
ATOM      8  C   UNL     1     -15.138  15.637  -7.444  1.00  0.00     0.127 A 
ATOM      9  N   UNL     1     -16.173  15.923  -8.245  1.00  0.00    -0.340 N 
ATOM     10  H   UNL     1     -16.776  16.775  -8.253  1.00  0.00     0.168 HD
ENDROOT
BRANCH   7  11
ATOM     11  N   UNL     1     -15.061  17.651  -6.018  1.00  0.00    -0.382 N 
ATOM     12  H   UNL     1     -15.471  17.787  -5.068  1.00  0.00     0.158 HD
ATOM     13  H   UNL     1     -15.023  18.467  -6.668  1.00  0.00     0.158 HD
ENDBRANCH   7  11
TORSDOF 1
ENDMDL
MODEL 2
REMARK VINA RESULT:    -3.394     18.279     20.028
REMARK INTER + INTRA:          -3.493
REMARK INTER:                  -3.493
REMARK INTRA:                   0.000
REMARK UNBOUND:                 0.000
REMARK SMILES Nc1ncnc2nc[nH]c12
REMARK SMILES IDX 8 1 7 2 6 3 5 4 4 5 3 6 2 7 10 8 9 9 1 11
REMARK H PARENT 9 10 1 12 1 13
REMARK Flexibility Score: inf
ROOT
ATOM      1  C   UNL     1     -13.897  23.435   8.613  1.00  0.00     0.199 A 
ATOM      2  N   UNL     1     -14.556  24.554   9.023  1.00  0.00    -0.217 NA
ATOM      3  C   UNL     1     -13.616  25.191   9.741  1.00  0.00     0.182 A 
ATOM      4  N   UNL     1     -13.755  26.376  10.381  1.00  0.00    -0.215 NA
ATOM      5  C   UNL     1     -12.678  26.869  11.067  1.00  0.00     0.226 A 
ATOM      6  N   UNL     1     -11.495  26.174  11.098  1.00  0.00    -0.217 NA
ATOM      7  C   UNL     1     -11.354  24.978  10.453  1.00  0.00     0.152 A 
ATOM      8  C   UNL     1     -12.459  24.491   9.760  1.00  0.00     0.127 A 
ATOM      9  N   UNL     1     -12.614  23.367   9.048  1.00  0.00    -0.340 N 
ATOM     10  H   UNL     1     -11.919  22.610   8.864  1.00  0.00     0.168 HD
ENDROOT
BRANCH   7  11
ATOM     11  N   UNL     1     -10.114  24.273  10.500  1.00  0.00    -0.382 N 
ATOM     12  H   UNL     1      -9.927  23.499   9.825  1.00  0.00     0.158 HD
ATOM     13  H   UNL     1      -9.379  24.512  11.201  1.00  0.00     0.158 HD
ENDBRANCH   7  11
TORSDOF 1
ENDMDL
MODEL 3
REMARK VINA RESULT:    -3.375     18.599     19.312
REMARK INTER + INTRA:          -3.474
REMARK INTER:                  -3.474
REMARK INTRA:                   0.000
REMARK UNBOUND:                 0.000
REMARK SMILES Nc1ncnc2nc[nH]c12
REMARK SMILES IDX 8 1 7 2 6 3 5 4 4 5 3 6 2 7 10 8 9 9 1 11
REMARK H PARENT 9 10 1 12 1 13
REMARK Flexibility Score: inf
ROOT
ATOM      1  C   UNL     1     -16.882  20.521  10.637  1.00  0.00     0.199 A 
ATOM      2  N   UNL     1     -15.578  20.495  10.247  1.00  0.00    -0.217 NA
ATOM      3  C   UNL     1     -15.252  21.798  10.254  1.00  0.00     0.182 A 
ATOM      4  N   UNL     1     -14.047  22.331   9.938  1.00  0.00    -0.215 NA
ATOM      5  C   UNL     1     -13.906  23.690  10.003  1.00  0.00     0.226 A 
ATOM      6  N   UNL     1     -14.961  24.483  10.378  1.00  0.00    -0.217 NA
ATOM      7  C   UNL     1     -16.177  23.947  10.697  1.00  0.00     0.152 A 
ATOM      8  C   UNL     1     -16.304  22.562  10.626  1.00  0.00     0.127 A 
ATOM      9  N   UNL     1     -17.356  21.770  10.875  1.00  0.00    -0.340 N 
ATOM     10  H   UNL     1     -18.317  22.038  11.180  1.00  0.00     0.168 HD
ENDROOT
BRANCH   7  11
ATOM     11  N   UNL     1     -17.261  24.791  11.083  1.00  0.00    -0.382 N 
ATOM     12  H   UNL     1     -17.202  25.822  10.927  1.00  0.00     0.158 HD
ATOM     13  H   UNL     1     -18.123  24.402  11.525  1.00  0.00     0.158 HD
ENDBRANCH   7  11
TORSDOF 1
ENDMDL
MODEL 4
REMARK VINA RESULT:    -3.332     18.512     20.337
REMARK INTER + INTRA:          -3.430
REMARK INTER:                  -3.430
REMARK INTRA:                   0.000
REMARK UNBOUND:                 0.000
REMARK SMILES Nc1ncnc2nc[nH]c12
REMARK SMILES IDX 8 1 7 2 6 3 5 4 4 5 3 6 2 7 10 8 9 9 1 11
REMARK H PARENT 9 10 1 12 1 13
REMARK Flexibility Score: inf
ROOT
ATOM      1  C   UNL     1     -13.146  27.399  11.035  1.00  0.00     0.199 A 
ATOM      2  N   UNL     1     -14.161  26.832  10.328  1.00  0.00    -0.217 NA
ATOM      3  C   UNL     1     -13.614  25.674   9.921  1.00  0.00     0.182 A 
ATOM      4  N   UNL     1     -14.211  24.718   9.170  1.00  0.00    -0.215 NA
ATOM      5  C   UNL     1     -13.488  23.601   8.854  1.00  0.00     0.226 A 
ATOM      6  N   UNL     1     -12.194  23.462   9.290  1.00  0.00    -0.217 NA
ATOM      7  C   UNL     1     -11.590  24.426  10.048  1.00  0.00     0.152 A 
ATOM      8  C   UNL     1     -12.340  25.557  10.361  1.00  0.00     0.127 A 
ATOM      9  N   UNL     1     -12.019  26.645  11.073  1.00  0.00    -0.340 N 
ATOM     10  H   UNL     1     -11.119  26.870  11.550  1.00  0.00     0.168 HD
ENDROOT
BRANCH   7  11
ATOM     11  N   UNL     1     -10.243  24.260  10.490  1.00  0.00    -0.382 N 
ATOM     12  H   UNL     1      -9.830  24.936  11.170  1.00  0.00     0.158 HD
ATOM     13  H   UNL     1      -9.652  23.471  10.148  1.00  0.00     0.158 HD
ENDBRANCH   7  11
TORSDOF 1
ENDMDL
MODEL 5
REMARK VINA RESULT:    -3.268     20.153     20.717
REMARK INTER + INTRA:          -3.363
REMARK INTER:                  -3.363
REMARK INTRA:                   0.000
REMARK UNBOUND:                 0.000
REMARK SMILES Nc1ncnc2nc[nH]c12
REMARK SMILES IDX 8 1 7 2 6 3 5 4 4 5 3 6 2 7 10 8 9 9 1 11
REMARK H PARENT 9 10 1 12 1 13
REMARK Flexibility Score: inf
ROOT
ATOM      1  C   UNL     1     -10.862  23.276  10.749  1.00  0.00     0.199 A 
ATOM      2  N   UNL     1     -12.212  23.375  10.890  1.00  0.00    -0.217 NA
ATOM      3  C   UNL     1     -12.436  24.666  10.596  1.00  0.00     0.182 A 
ATOM      4  N   UNL     1     -13.635  25.297  10.587  1.00  0.00    -0.215 NA
ATOM      5  C   UNL     1     -13.663  26.625  10.261  1.00  0.00     0.226 A 
ATOM      6  N   UNL     1     -12.504  27.291   9.953  1.00  0.00    -0.217 NA
ATOM      7  C   UNL     1     -11.293  26.657   9.963  1.00  0.00     0.152 A 
ATOM      8  C   UNL     1     -11.282  25.305  10.297  1.00  0.00     0.127 A 
ATOM      9  N   UNL     1     -10.264  24.439  10.388  1.00  0.00    -0.340 N 
ATOM     10  H   UNL     1      -9.248  24.607  10.222  1.00  0.00     0.168 HD
ENDROOT
BRANCH   7  11
ATOM     11  N   UNL     1     -10.100  27.371   9.640  1.00  0.00    -0.382 N 
ATOM     12  H   UNL     1      -9.242  26.851   9.352  1.00  0.00     0.158 HD
ATOM     13  H   UNL     1     -10.061  28.413   9.685  1.00  0.00     0.158 HD
ENDBRANCH   7  11
TORSDOF 1
ENDMDL
MODEL 6
REMARK VINA RESULT:    -3.253     18.580     18.892
REMARK INTER + INTRA:          -3.348
REMARK INTER:                  -3.348
REMARK INTRA:                   0.000
REMARK UNBOUND:                 0.000
REMARK SMILES Nc1ncnc2nc[nH]c12
REMARK SMILES IDX 8 1 7 2 6 3 5 4 4 5 3 6 2 7 10 8 9 9 1 11
REMARK H PARENT 9 10 1 12 1 13
REMARK Flexibility Score: inf
ROOT
ATOM      1  C   UNL     1     -14.261  24.594   9.067  1.00  0.00     0.199 A 
ATOM      2  N   UNL     1     -13.217  23.725   9.150  1.00  0.00    -0.217 NA
ATOM      3  C   UNL     1     -13.783  22.652   9.727  1.00  0.00     0.182 A 
ATOM      4  N   UNL     1     -13.171  21.486  10.040  1.00  0.00    -0.215 NA
ATOM      5  C   UNL     1     -13.918  20.502  10.628  1.00  0.00     0.226 A 
ATOM      6  N   UNL     1     -15.250  20.701  10.889  1.00  0.00    -0.217 NA
ATOM      7  C   UNL     1     -15.869  21.878  10.574  1.00  0.00     0.152 A 
ATOM      8  C   UNL     1     -15.095  22.868   9.976  1.00  0.00     0.127 A 
ATOM      9  N   UNL     1     -15.423  24.100   9.564  1.00  0.00    -0.340 N 
ATOM     10  H   UNL     1     -16.350  24.578   9.609  1.00  0.00     0.168 HD
ENDROOT
BRANCH   7  11
ATOM     11  N   UNL     1     -17.257  22.063  10.855  1.00  0.00    -0.382 N 
ATOM     12  H   UNL     1     -17.677  21.638  11.712  1.00  0.00     0.158 HD
ATOM     13  H   UNL     1     -17.871  22.618  10.220  1.00  0.00     0.158 HD
ENDBRANCH   7  11
TORSDOF 1
ENDMDL
MODEL 7
REMARK VINA RESULT:    -3.238     17.884     18.823
REMARK INTER + INTRA:          -3.332
REMARK INTER:                  -3.332
REMARK INTRA:                   0.000
REMARK UNBOUND:                 0.000
REMARK SMILES Nc1ncnc2nc[nH]c12
REMARK SMILES IDX 8 1 7 2 6 3 5 4 4 5 3 6 2 7 10 8 9 9 1 11
REMARK H PARENT 9 10 1 12 1 13
REMARK Flexibility Score: inf
ROOT
ATOM      1  C   UNL     1     -16.370  23.407  10.762  1.00  0.00     0.199 A 
ATOM      2  N   UNL     1     -15.033  23.199  10.911  1.00  0.00    -0.217 NA
ATOM      3  C   UNL     1     -14.915  21.892  10.624  1.00  0.00     0.182 A 
ATOM      4  N   UNL     1     -13.772  21.165  10.623  1.00  0.00    -0.215 NA
ATOM      5  C   UNL     1     -13.851  19.837  10.304  1.00  0.00     0.226 A 
ATOM      6  N   UNL     1     -15.059  19.267   9.993  1.00  0.00    -0.217 NA
ATOM      7  C   UNL     1     -16.214  19.998   9.993  1.00  0.00     0.152 A 
ATOM      8  C   UNL     1     -16.116  21.348  10.321  1.00  0.00     0.127 A 
ATOM      9  N   UNL     1     -17.059  22.295  10.403  1.00  0.00    -0.340 N 
ATOM     10  H   UNL     1     -18.085  22.210  10.232  1.00  0.00     0.168 HD
ENDROOT
BRANCH   7  11
ATOM     11  N   UNL     1     -17.460  19.383   9.668  1.00  0.00    -0.382 N 
ATOM     12  H   UNL     1     -17.552  18.344   9.695  1.00  0.00     0.158 HD
ATOM     13  H   UNL     1     -18.293  19.951   9.399  1.00  0.00     0.158 HD
ENDBRANCH   7  11
TORSDOF 1
ENDMDL
MODEL 8
REMARK VINA RESULT:    -3.198     18.488     20.421
REMARK INTER + INTRA:          -3.292
REMARK INTER:                  -3.292
REMARK INTRA:                   0.000
REMARK UNBOUND:                 0.000
REMARK SMILES Nc1ncnc2nc[nH]c12
REMARK SMILES IDX 8 1 7 2 6 3 5 4 4 5 3 6 2 7 10 8 9 9 1 11
REMARK H PARENT 9 10 1 12 1 13
REMARK Flexibility Score: inf
ROOT
ATOM      1  C   UNL     1     -10.249  25.723  10.550  1.00  0.00     0.199 A 
ATOM      2  N   UNL     1     -11.214  26.516  11.092  1.00  0.00    -0.217 NA
ATOM      3  C   UNL     1     -12.342  25.910  10.687  1.00  0.00     0.182 A 
ATOM      4  N   UNL     1     -13.610  26.300  10.958  1.00  0.00    -0.215 NA
ATOM      5  C   UNL     1     -14.638  25.550  10.454  1.00  0.00     0.226 A 
ATOM      6  N   UNL     1     -14.380  24.435   9.698  1.00  0.00    -0.217 NA
ATOM      7  C   UNL     1     -13.100  24.039   9.424  1.00  0.00     0.152 A 
ATOM      8  C   UNL     1     -12.067  24.814   9.943  1.00  0.00     0.127 A 
ATOM      9  N   UNL     1     -10.738  24.675   9.842  1.00  0.00    -0.340 N 
ATOM     10  H   UNL     1     -10.196  23.938   9.339  1.00  0.00     0.168 HD
ENDROOT
BRANCH   7  11
ATOM     11  N   UNL     1     -12.856  22.876   8.633  1.00  0.00    -0.382 N 
ATOM     12  H   UNL     1     -13.655  22.287   8.310  1.00  0.00     0.158 HD
ATOM     13  H   UNL     1     -11.888  22.594   8.366  1.00  0.00     0.158 HD
ENDBRANCH   7  11
TORSDOF 1
ENDMDL
MODEL 9
REMARK VINA RESULT:    -3.178     18.491     20.051
REMARK INTER + INTRA:          -3.271
REMARK INTER:                  -3.271
REMARK INTRA:                   0.000
REMARK UNBOUND:                 0.000
REMARK SMILES Nc1ncnc2nc[nH]c12
REMARK SMILES IDX 8 1 7 2 6 3 5 4 4 5 3 6 2 7 10 8 9 9 1 11
REMARK H PARENT 9 10 1 12 1 13
REMARK Flexibility Score: inf
ROOT
ATOM      1  C   UNL     1     -14.104  27.041  10.811  1.00  0.00     0.199 A 
ATOM      2  N   UNL     1     -13.075  26.388  10.205  1.00  0.00    -0.217 NA
ATOM      3  C   UNL     1     -13.605  25.177   9.970  1.00  0.00     0.182 A 
ATOM      4  N   UNL     1     -12.990  24.127   9.375  1.00  0.00    -0.215 NA
ATOM      5  C   UNL     1     -13.696  22.965   9.224  1.00  0.00     0.226 A 
ATOM      6  N   UNL     1     -14.992  22.876   9.666  1.00  0.00    -0.217 NA
ATOM      7  C   UNL     1     -15.614  23.934  10.268  1.00  0.00     0.152 A 
ATOM      8  C   UNL     1     -14.881  25.108  10.414  1.00  0.00     0.127 A 
ATOM      9  N   UNL     1     -15.222  26.286  10.954  1.00  0.00    -0.340 N 
ATOM     10  H   UNL     1     -16.129  26.568  11.386  1.00  0.00     0.168 HD
ENDROOT
BRANCH   7  11
ATOM     11  N   UNL     1     -16.963  23.817  10.721  1.00  0.00    -0.382 N 
ATOM     12  H   UNL     1     -17.389  24.578  11.294  1.00  0.00     0.158 HD
ATOM     13  H   UNL     1     -17.543  22.980  10.492  1.00  0.00     0.158 HD
ENDBRANCH   7  11
TORSDOF 1
ENDMDL
