MODEL 1
REMARK VINA RESULT:    -1.623      0.000      0.000
REMARK INTER + INTRA:          -2.952
REMARK INTER:                  -2.856
REMARK INTRA:                  -0.096
REMARK UNBOUND:                -0.096
REMARK SMILES CCCCCCC=CCCCCCCCC(=O)[O-]
REMARK SMILES IDX 10 1 11 2 12 3 13 4 14 5 15 6 16 7 17 8 18 9 9 10 8 11 7 12
REMARK SMILES IDX 6 13 5 14 4 15 3 16 2 17 1 18
REMARK H PARENT
REMARK Flexibility Score: inf
ROOT
ATOM      1  C   UNL     1      -3.267  29.260  28.638  1.00  0.00     0.004 C 
ENDROOT
BRANCH   1   2
ATOM      2  C   UNL     1      -3.101  29.861  30.046  1.00  0.00     0.000 C 
BRANCH   2   3
ATOM      3  C   UNL     1      -3.992  29.179  31.099  1.00  0.00     0.000 C 
BRANCH   3   4
ATOM      4  C   UNL     1      -4.451  27.778  30.663  1.00  0.00     0.000 C 
BRANCH   4   5
ATOM      5  C   UNL     1      -3.491  26.667  31.125  1.00  0.00     0.006 C 
BRANCH   5   6
ATOM      6  C   UNL     1      -2.025  27.115  31.081  1.00  0.00     0.053 C 
BRANCH   6   7
ATOM      7  C   UNL     1      -1.098  25.955  30.885  1.00  0.00     0.041 C 
ATOM      8  O   UNL     1      -1.556  24.787  30.777  1.00  0.00    -0.550 OA
ATOM      9  O   UNL     1       0.271  26.168  30.785  1.00  0.00    -0.550 OA
ENDBRANCH   6   7
ENDBRANCH   5   6
ENDBRANCH   4   5
ENDBRANCH   3   4
ENDBRANCH   2   3
ENDBRANCH   1   2
BRANCH   1  10
ATOM     10  C   UNL     1      -4.692  29.342  28.062  1.00  0.00     0.027 C 
BRANCH  10  11
ATOM     11  C   UNL     1      -4.789  28.707  26.694  1.00  0.00    -0.031 C 
ATOM     12  C   UNL     1      -4.507  27.421  26.409  1.00  0.00    -0.031 C 
BRANCH  12  13
ATOM     13  C   UNL     1      -4.018  26.396  27.401  1.00  0.00     0.027 C 
BRANCH  13  14
ATOM     14  C   UNL     1      -2.496  26.476  27.592  1.00  0.00     0.004 C 
BRANCH  14  15
ATOM     15  C   UNL     1      -1.747  26.692  26.269  1.00  0.00     0.000 C 
BRANCH  15  16
ATOM     16  C   UNL     1      -1.069  28.072  26.194  1.00  0.00    -0.000 C 
BRANCH  16  17
ATOM     17  C   UNL     1       0.381  27.988  25.692  1.00  0.00    -0.003 C 
ATOM     18  C   UNL     1       1.118  26.756  26.219  1.00  0.00     0.004 C 
ENDBRANCH  16  17
ENDBRANCH  15  16
ENDBRANCH  14  15
ENDBRANCH  13  14
ENDBRANCH  12  13
ENDBRANCH  10  11
ENDBRANCH   1  10
TORSDOF 13
ENDMDL
MODEL 2
REMARK VINA RESULT:    -1.575      2.011      4.389
REMARK INTER + INTRA:          -2.868
REMARK INTER:                  -2.569
REMARK INTRA:                  -0.300
REMARK UNBOUND:                -0.096
REMARK SMILES CCCCCCC=CCCCCCCCC(=O)[O-]
REMARK SMILES IDX 10 1 11 2 12 3 13 4 14 5 15 6 16 7 17 8 18 9 9 10 8 11 7 12
REMARK SMILES IDX 6 13 5 14 4 15 3 16 2 17 1 18
REMARK H PARENT
REMARK Flexibility Score: inf
ROOT
ATOM      1  C   UNL     1      -2.994  29.567  28.384  1.00  0.00     0.004 C 
ENDROOT
BRANCH   1   2
ATOM      2  C   UNL     1      -4.326  28.969  27.898  1.00  0.00     0.000 C 
BRANCH   2   3
ATOM      3  C   UNL     1      -4.173  28.125  26.619  1.00  0.00     0.000 C 
BRANCH   3   4
ATOM      4  C   UNL     1      -2.952  27.192  26.673  1.00  0.00     0.000 C 
BRANCH   4   5
ATOM      5  C   UNL     1      -1.847  27.602  25.683  1.00  0.00     0.006 C 
BRANCH   5   6
ATOM      6  C   UNL     1      -0.625  28.197  26.396  1.00  0.00     0.053 C 
BRANCH   6   7
ATOM      7  C   UNL     1       0.629  27.450  26.059  1.00  0.00     0.041 C 
ATOM      8  O   UNL     1       0.699  26.207  26.249  1.00  0.00    -0.550 OA
ATOM      9  O   UNL     1       1.709  28.121  25.501  1.00  0.00    -0.550 OA
ENDBRANCH   6   7
ENDBRANCH   5   6
ENDBRANCH   4   5
ENDBRANCH   3   4
ENDBRANCH   2   3
ENDBRANCH   1   2
BRANCH   1  10
ATOM     10  C   UNL     1      -2.910  29.815  29.902  1.00  0.00     0.027 C 
BRANCH  10  11
ATOM     11  C   UNL     1      -4.238  29.588  30.587  1.00  0.00    -0.031 C 
ATOM     12  C   UNL     1      -4.650  28.424  31.125  1.00  0.00    -0.031 C 
BRANCH  12  13
ATOM     13  C   UNL     1      -3.868  27.134  31.111  1.00  0.00     0.027 C 
BRANCH  13  14
ATOM     14  C   UNL     1      -3.774  26.546  29.695  1.00  0.00     0.004 C 
BRANCH  14  15
ATOM     15  C   UNL     1      -2.673  25.483  29.571  1.00  0.00     0.000 C 
BRANCH  15  16
ATOM     16  C   UNL     1      -1.263  26.099  29.521  1.00  0.00    -0.000 C 
BRANCH  16  17
ATOM     17  C   UNL     1      -0.661  26.305  30.919  1.00  0.00    -0.003 C 
ATOM     18  C   UNL     1       0.660  25.561  31.109  1.00  0.00     0.004 C 
ENDBRANCH  16  17
ENDBRANCH  15  16
ENDBRANCH  14  15
ENDBRANCH  13  14
ENDBRANCH  12  13
ENDBRANCH  10  11
ENDBRANCH   1  10
TORSDOF 13
ENDMDL
MODEL 3
REMARK VINA RESULT:    -0.769      1.068      1.853
REMARK INTER + INTRA:          -1.450
REMARK INTER:                  -3.347
REMARK INTRA:                   1.897
REMARK UNBOUND:                -0.096
REMARK SMILES CCCCCCC=CCCCCCCCC(=O)[O-]
REMARK SMILES IDX 10 1 11 2 12 3 13 4 14 5 15 6 16 7 17 8 18 9 9 10 8 11 7 12
REMARK SMILES IDX 6 13 5 14 4 15 3 16 2 17 1 18
REMARK H PARENT
REMARK Flexibility Score: inf
ROOT
ATOM      1  C   UNL     1      -4.595  28.806  28.972  1.00  0.00     0.004 C 
ENDROOT
BRANCH   1   2
ATOM      2  C   UNL     1      -4.544  30.028  29.907  1.00  0.00     0.000 C 
BRANCH   2   3
ATOM      3  C   UNL     1      -3.465  29.905  30.998  1.00  0.00     0.000 C 
BRANCH   3   4
ATOM      4  C   UNL     1      -2.918  28.473  31.125  1.00  0.00     0.000 C 
BRANCH   4   5
ATOM      5  C   UNL     1      -1.412  28.383  30.818  1.00  0.00     0.006 C 
BRANCH   5   6
ATOM      6  C   UNL     1      -1.077  27.187  29.917  1.00  0.00     0.053 C 
BRANCH   6   7
ATOM      7  C   UNL     1      -1.090  25.899  30.681  1.00  0.00     0.041 C 
ATOM      8  O   UNL     1      -0.017  25.412  31.124  1.00  0.00    -0.550 OA
ATOM      9  O   UNL     1      -2.293  25.253  30.935  1.00  0.00    -0.550 OA
ENDBRANCH   6   7
ENDBRANCH   5   6
ENDBRANCH   4   5
ENDBRANCH   3   4
ENDBRANCH   2   3
ENDBRANCH   1   2
BRANCH   1  10
ATOM     10  C   UNL     1      -4.488  27.443  29.680  1.00  0.00     0.027 C 
BRANCH  10  11
ATOM     11  C   UNL     1      -4.285  26.309  28.701  1.00  0.00    -0.031 C 
ATOM     12  C   UNL     1      -4.466  26.388  27.369  1.00  0.00    -0.031 C 
BRANCH  12  13
ATOM     13  C   UNL     1      -4.929  27.615  26.623  1.00  0.00     0.027 C 
BRANCH  13  14
ATOM     14  C   UNL     1      -3.825  28.172  25.712  1.00  0.00     0.004 C 
BRANCH  14  15
ATOM     15  C   UNL     1      -2.486  28.340  26.445  1.00  0.00     0.000 C 
BRANCH  15  16
ATOM     16  C   UNL     1      -1.462  27.257  26.058  1.00  0.00    -0.000 C 
BRANCH  16  17
ATOM     17  C   UNL     1      -0.058  27.832  25.824  1.00  0.00    -0.003 C 
ATOM     18  C   UNL     1       1.052  26.875  26.260  1.00  0.00     0.004 C 
ENDBRANCH  16  17
ENDBRANCH  15  16
ENDBRANCH  14  15
ENDBRANCH  13  14
ENDBRANCH  12  13
ENDBRANCH  10  11
ENDBRANCH   1  10
TORSDOF 13
ENDMDL
MODEL 4
REMARK VINA RESULT:     0.091      0.978      1.576
REMARK INTER + INTRA:           0.065
REMARK INTER:                  -0.507
REMARK INTRA:                   0.571
REMARK UNBOUND:                -0.096
REMARK SMILES CCCCCCC=CCCCCCCCC(=O)[O-]
REMARK SMILES IDX 10 1 11 2 12 3 13 4 14 5 15 6 16 7 17 8 18 9 9 10 8 11 7 12
REMARK SMILES IDX 6 13 5 14 4 15 3 16 2 17 1 18
REMARK H PARENT
REMARK Flexibility Score: inf
ROOT
ATOM      1  C   UNL     1      -3.672  28.999  27.779  1.00  0.00     0.004 C 
ENDROOT
BRANCH   1   2
ATOM      2  C   UNL     1      -3.565  29.983  28.958  1.00  0.00     0.000 C 
BRANCH   2   3
ATOM      3  C   UNL     1      -4.482  29.611  30.136  1.00  0.00     0.000 C 
BRANCH   3   4
ATOM      4  C   UNL     1      -3.952  28.412  30.939  1.00  0.00     0.000 C 
BRANCH   4   5
ATOM      5  C   UNL     1      -2.422  28.436  31.102  1.00  0.00     0.006 C 
BRANCH   5   6
ATOM      6  C   UNL     1      -1.717  27.537  30.077  1.00  0.00     0.053 C 
BRANCH   6   7
ATOM      7  C   UNL     1      -1.247  26.256  30.697  1.00  0.00     0.041 C 
ATOM      8  O   UNL     1      -0.046  26.126  31.052  1.00  0.00    -0.550 OA
ATOM      9  O   UNL     1      -2.144  25.219  30.914  1.00  0.00    -0.550 OA
ENDBRANCH   6   7
ENDBRANCH   5   6
ENDBRANCH   4   5
ENDBRANCH   3   4
ENDBRANCH   2   3
ENDBRANCH   1   2
BRANCH   1  10
ATOM     10  C   UNL     1      -5.080  28.424  27.540  1.00  0.00     0.027 C 
BRANCH  10  11
ATOM     11  C   UNL     1      -5.125  26.928  27.752  1.00  0.00    -0.031 C 
ATOM     12  C   UNL     1      -4.079  26.089  27.621  1.00  0.00    -0.031 C 
BRANCH  12  13
ATOM     13  C   UNL     1      -2.684  26.494  27.212  1.00  0.00     0.027 C 
BRANCH  13  14
ATOM     14  C   UNL     1      -2.663  27.094  25.799  1.00  0.00     0.004 C 
BRANCH  14  15
ATOM     15  C   UNL     1      -1.335  27.795  25.477  1.00  0.00     0.000 C 
BRANCH  15  16
ATOM     16  C   UNL     1      -0.231  27.464  26.498  1.00  0.00    -0.000 C 
BRANCH  16  17
ATOM     17  C   UNL     1       1.162  27.391  25.856  1.00  0.00    -0.003 C 
ATOM     18  C   UNL     1       1.708  28.766  25.472  1.00  0.00     0.004 C 
ENDBRANCH  16  17
ENDBRANCH  15  16
ENDBRANCH  14  15
ENDBRANCH  13  14
ENDBRANCH  12  13
ENDBRANCH  10  11
ENDBRANCH   1  10
TORSDOF 13
ENDMDL
MODEL 5
REMARK VINA RESULT:     0.567      2.288      4.006
REMARK INTER + INTRA:           0.901
REMARK INTER:                   0.369
REMARK INTRA:                   0.532
REMARK UNBOUND:                -0.096
REMARK SMILES CCCCCCC=CCCCCCCCC(=O)[O-]
REMARK SMILES IDX 10 1 11 2 12 3 13 4 14 5 15 6 16 7 17 8 18 9 9 10 8 11 7 12
REMARK SMILES IDX 6 13 5 14 4 15 3 16 2 17 1 18
REMARK H PARENT
REMARK Flexibility Score: inf
ROOT
ATOM      1  C   UNL     1      -3.312  26.132  30.346  1.00  0.00     0.004 C 
ENDROOT
BRANCH   1   2
ATOM      2  C   UNL     1      -3.984  27.366  30.974  1.00  0.00     0.000 C 
BRANCH   2   3
ATOM      3  C   UNL     1      -3.041  28.580  31.068  1.00  0.00     0.000 C 
BRANCH   3   4
ATOM      4  C   UNL     1      -3.487  29.741  30.164  1.00  0.00     0.000 C 
BRANCH   4   5
ATOM      5  C   UNL     1      -4.611  29.342  29.193  1.00  0.00     0.006 C 
BRANCH   5   6
ATOM      6  C   UNL     1      -4.209  29.550  27.727  1.00  0.00     0.053 C 
BRANCH   6   7
ATOM      7  C   UNL     1      -4.726  28.450  26.851  1.00  0.00     0.041 C 
ATOM      8  O   UNL     1      -4.976  28.670  25.637  1.00  0.00    -0.550 OA
ATOM      9  O   UNL     1      -4.898  27.173  27.368  1.00  0.00    -0.550 OA
ENDBRANCH   6   7
ENDBRANCH   5   6
ENDBRANCH   4   5
ENDBRANCH   3   4
ENDBRANCH   2   3
ENDBRANCH   1   2
BRANCH   1  10
ATOM     10  C   UNL     1      -2.102  25.584  31.125  1.00  0.00     0.027 C 
BRANCH  10  11
ATOM     11  C   UNL     1      -0.869  25.480  30.257  1.00  0.00    -0.031 C 
ATOM     12  C   UNL     1      -0.699  26.086  29.066  1.00  0.00    -0.031 C 
BRANCH  12  13
ATOM     13  C   UNL     1      -1.724  26.951  28.375  1.00  0.00     0.027 C 
BRANCH  13  14
ATOM     14  C   UNL     1      -2.192  26.325  27.053  1.00  0.00     0.004 C 
BRANCH  14  15
ATOM     15  C   UNL     1      -1.960  27.249  25.849  1.00  0.00     0.000 C 
BRANCH  15  16
ATOM     16  C   UNL     1      -0.819  28.254  26.090  1.00  0.00    -0.000 C 
BRANCH  16  17
ATOM     17  C   UNL     1       0.506  27.803  25.456  1.00  0.00    -0.003 C 
ATOM     18  C   UNL     1       1.194  26.694  26.253  1.00  0.00     0.004 C 
ENDBRANCH  16  17
ENDBRANCH  15  16
ENDBRANCH  14  15
ENDBRANCH  13  14
ENDBRANCH  12  13
ENDBRANCH  10  11
ENDBRANCH   1  10
TORSDOF 13
ENDMDL
MODEL 6
REMARK VINA RESULT:     0.600      1.997      5.031
REMARK INTER + INTRA:           0.960
REMARK INTER:                   0.624
REMARK INTRA:                   0.336
REMARK UNBOUND:                -0.096
REMARK SMILES CCCCCCC=CCCCCCCCC(=O)[O-]
REMARK SMILES IDX 10 1 11 2 12 3 13 4 14 5 15 6 16 7 17 8 18 9 9 10 8 11 7 12
REMARK SMILES IDX 6 13 5 14 4 15 3 16 2 17 1 18
REMARK H PARENT
REMARK Flexibility Score: inf
ROOT
ATOM      1  C   UNL     1      -1.467  25.869  30.775  1.00  0.00     0.004 C 
ENDROOT
BRANCH   1   2
ATOM      2  C   UNL     1      -1.370  25.544  29.273  1.00  0.00     0.000 C 
BRANCH   2   3
ATOM      3  C   UNL     1      -2.427  26.279  28.430  1.00  0.00     0.000 C 
BRANCH   3   4
ATOM      4  C   UNL     1      -1.825  27.427  27.603  1.00  0.00     0.000 C 
BRANCH   4   5
ATOM      5  C   UNL     1      -1.360  26.974  26.208  1.00  0.00     0.006 C 
BRANCH   5   6
ATOM      6  C   UNL     1      -0.349  27.949  25.591  1.00  0.00     0.053 C 
BRANCH   6   7
ATOM      7  C   UNL     1       1.061  27.559  25.912  1.00  0.00     0.041 C 
ATOM      8  O   UNL     1       1.292  26.621  26.719  1.00  0.00    -0.550 OA
ATOM      9  O   UNL     1       2.121  28.210  25.294  1.00  0.00    -0.550 OA
ENDBRANCH   6   7
ENDBRANCH   5   6
ENDBRANCH   4   5
ENDBRANCH   3   4
ENDBRANCH   2   3
ENDBRANCH   1   2
BRANCH   1  10
ATOM     10  C   UNL     1      -2.396  27.046  31.125  1.00  0.00     0.027 C 
BRANCH  10  11
ATOM     11  C   UNL     1      -1.755  28.383  30.827  1.00  0.00    -0.031 C 
ATOM     12  C   UNL     1      -2.390  29.570  30.832  1.00  0.00    -0.031 C 
BRANCH  12  13
ATOM     13  C   UNL     1      -3.859  29.772  31.107  1.00  0.00     0.027 C 
BRANCH  13  14
ATOM     14  C   UNL     1      -4.731  29.045  30.072  1.00  0.00     0.004 C 
BRANCH  14  15
ATOM     15  C   UNL     1      -4.351  29.402  28.627  1.00  0.00     0.000 C 
BRANCH  15  16
ATOM     16  C   UNL     1      -4.990  28.451  27.599  1.00  0.00    -0.000 C 
BRANCH  16  17
ATOM     17  C   UNL     1      -4.201  28.392  26.283  1.00  0.00    -0.003 C 
ATOM     18  C   UNL     1      -4.916  29.105  25.134  1.00  0.00     0.004 C 
ENDBRANCH  16  17
ENDBRANCH  15  16
ENDBRANCH  14  15
ENDBRANCH  13  14
ENDBRANCH  12  13
ENDBRANCH  10  11
ENDBRANCH   1  10
TORSDOF 13
ENDMDL
MODEL 7
REMARK VINA RESULT:     0.749      1.047      2.230
REMARK INTER + INTRA:           1.221
REMARK INTER:                   0.898
REMARK INTRA:                   0.324
REMARK UNBOUND:                -0.096
REMARK SMILES CCCCCCC=CCCCCCCCC(=O)[O-]
REMARK SMILES IDX 10 1 11 2 12 3 13 4 14 5 15 6 16 7 17 8 18 9 9 10 8 11 7 12
REMARK SMILES IDX 6 13 5 14 4 15 3 16 2 17 1 18
REMARK H PARENT
REMARK Flexibility Score: inf
ROOT
ATOM      1  C   UNL     1      -4.745  26.899  27.239  1.00  0.00     0.004 C 
ENDROOT
BRANCH   1   2
ATOM      2  C   UNL     1      -4.036  26.177  28.399  1.00  0.00     0.000 C 
BRANCH   2   3
ATOM      3  C   UNL     1      -4.801  26.287  29.730  1.00  0.00     0.000 C 
BRANCH   3   4
ATOM      4  C   UNL     1      -3.904  26.762  30.886  1.00  0.00     0.000 C 
BRANCH   4   5
ATOM      5  C   UNL     1      -2.647  25.892  31.059  1.00  0.00     0.006 C 
BRANCH   5   6
ATOM      6  C   UNL     1      -1.355  26.705  30.899  1.00  0.00     0.053 C 
BRANCH   6   7
ATOM      7  C   UNL     1      -0.145  25.822  30.888  1.00  0.00     0.041 C 
ATOM      8  O   UNL     1      -0.257  24.594  30.634  1.00  0.00    -0.550 OA
ATOM      9  O   UNL     1       1.112  26.362  31.124  1.00  0.00    -0.550 OA
ENDBRANCH   6   7
ENDBRANCH   5   6
ENDBRANCH   4   5
ENDBRANCH   3   4
ENDBRANCH   2   3
ENDBRANCH   1   2
BRANCH   1  10
ATOM     10  C   UNL     1      -4.321  28.364  27.031  1.00  0.00     0.027 C 
BRANCH  10  11
ATOM     11  C   UNL     1      -4.718  29.240  28.197  1.00  0.00    -0.031 C 
ATOM     12  C   UNL     1      -3.879  29.713  29.139  1.00  0.00    -0.031 C 
BRANCH  12  13
ATOM     13  C   UNL     1      -2.400  29.426  29.211  1.00  0.00     0.027 C 
BRANCH  13  14
ATOM     14  C   UNL     1      -1.840  29.007  27.843  1.00  0.00     0.004 C 
BRANCH  14  15
ATOM     15  C   UNL     1      -1.321  27.562  27.837  1.00  0.00     0.000 C 
BRANCH  15  16
ATOM     16  C   UNL     1      -1.058  27.037  26.413  1.00  0.00    -0.000 C 
BRANCH  16  17
ATOM     17  C   UNL     1       0.053  27.817  25.695  1.00  0.00    -0.003 C 
ATOM     18  C   UNL     1       1.447  27.258  25.982  1.00  0.00     0.004 C 
ENDBRANCH  16  17
ENDBRANCH  15  16
ENDBRANCH  14  15
ENDBRANCH  13  14
ENDBRANCH  12  13
ENDBRANCH  10  11
ENDBRANCH   1  10
TORSDOF 13
ENDMDL
MODEL 8
REMARK VINA RESULT:     0.796      2.114      4.669
REMARK INTER + INTRA:           1.304
REMARK INTER:                   1.941
REMARK INTRA:                  -0.637
REMARK UNBOUND:                -0.096
REMARK SMILES CCCCCCC=CCCCCCCCC(=O)[O-]
REMARK SMILES IDX 10 1 11 2 12 3 13 4 14 5 15 6 16 7 17 8 18 9 9 10 8 11 7 12
REMARK SMILES IDX 6 13 5 14 4 15 3 16 2 17 1 18
REMARK H PARENT
REMARK Flexibility Score: inf
ROOT
ATOM      1  C   UNL     1      -2.456  25.434  30.791  1.00  0.00     0.004 C 
ENDROOT
BRANCH   1   2
ATOM      2  C   UNL     1      -1.372  26.475  31.125  1.00  0.00     0.000 C 
BRANCH   2   3
ATOM      3  C   UNL     1      -0.000  26.129  30.520  1.00  0.00     0.000 C 
BRANCH   3   4
ATOM      4  C   UNL     1      -0.117  25.470  29.135  1.00  0.00     0.000 C 
BRANCH   4   5
ATOM      5  C   UNL     1      -0.747  26.402  28.085  1.00  0.00     0.006 C 
BRANCH   5   6
ATOM      6  C   UNL     1       0.067  26.439  26.784  1.00  0.00     0.053 C 
BRANCH   6   7
ATOM      7  C   UNL     1       0.097  27.815  26.191  1.00  0.00     0.041 C 
ATOM      8  O   UNL     1      -0.930  28.542  26.221  1.00  0.00    -0.550 OA
ATOM      9  O   UNL     1       1.271  28.307  25.636  1.00  0.00    -0.550 OA
ENDBRANCH   6   7
ENDBRANCH   5   6
ENDBRANCH   4   5
ENDBRANCH   3   4
ENDBRANCH   2   3
ENDBRANCH   1   2
BRANCH   1  10
ATOM     10  C   UNL     1      -3.750  26.013  30.191  1.00  0.00     0.027 C 
BRANCH  10  11
ATOM     11  C   UNL     1      -4.414  27.000  31.123  1.00  0.00    -0.031 C 
ATOM     12  C   UNL     1      -4.260  28.338  31.083  1.00  0.00    -0.031 C 
BRANCH  12  13
ATOM     13  C   UNL     1      -3.374  29.083  30.116  1.00  0.00     0.027 C 
BRANCH  13  14
ATOM     14  C   UNL     1      -4.198  29.874  29.090  1.00  0.00     0.004 C 
BRANCH  14  15
ATOM     15  C   UNL     1      -4.879  28.966  28.056  1.00  0.00     0.000 C 
BRANCH  15  16
ATOM     16  C   UNL     1      -4.075  28.858  26.747  1.00  0.00    -0.000 C 
BRANCH  16  17
ATOM     17  C   UNL     1      -3.729  27.405  26.388  1.00  0.00    -0.003 C 
ATOM     18  C   UNL     1      -4.319  26.397  27.373  1.00  0.00     0.004 C 
ENDBRANCH  16  17
ENDBRANCH  15  16
ENDBRANCH  14  15
ENDBRANCH  13  14
ENDBRANCH  12  13
ENDBRANCH  10  11
ENDBRANCH   1  10
TORSDOF 13
ENDMDL
MODEL 9
REMARK VINA RESULT:     0.939      2.131      4.759
REMARK INTER + INTRA:           1.557
REMARK INTER:                   3.044
REMARK INTRA:                  -1.487
REMARK UNBOUND:                -0.096
REMARK SMILES CCCCCCC=CCCCCCCCC(=O)[O-]
REMARK SMILES IDX 10 1 11 2 12 3 13 4 14 5 15 6 16 7 17 8 18 9 9 10 8 11 7 12
REMARK SMILES IDX 6 13 5 14 4 15 3 16 2 17 1 18
REMARK H PARENT
REMARK Flexibility Score: inf
ROOT
ATOM      1  C   UNL     1      -4.581  28.501  27.175  1.00  0.00     0.004 C 
ENDROOT
BRANCH   1   2
ATOM      2  C   UNL     1      -4.328  27.107  27.777  1.00  0.00     0.000 C 
BRANCH   2   3
ATOM      3  C   UNL     1      -3.142  26.376  27.122  1.00  0.00     0.000 C 
BRANCH   3   4
ATOM      4  C   UNL     1      -2.627  27.099  25.866  1.00  0.00     0.000 C 
BRANCH   4   5
ATOM      5  C   UNL     1      -1.332  27.890  26.124  1.00  0.00     0.006 C 
BRANCH   5   6
ATOM      6  C   UNL     1      -0.228  27.011  26.726  1.00  0.00     0.053 C 
BRANCH   6   7
ATOM      7  C   UNL     1       1.071  27.181  25.998  1.00  0.00     0.041 C 
ATOM      8  O   UNL     1       1.500  28.333  25.726  1.00  0.00    -0.550 OA
ATOM      9  O   UNL     1       1.825  26.068  25.651  1.00  0.00    -0.550 OA
ENDBRANCH   6   7
ENDBRANCH   5   6
ENDBRANCH   4   5
ENDBRANCH   3   4
ENDBRANCH   2   3
ENDBRANCH   1   2
BRANCH   1  10
ATOM     10  C   UNL     1      -4.154  29.680  28.068  1.00  0.00     0.027 C 
BRANCH  10  11
ATOM     11  C   UNL     1      -4.753  29.589  29.453  1.00  0.00    -0.031 C 
ATOM     12  C   UNL     1      -4.058  29.605  30.606  1.00  0.00    -0.031 C 
BRANCH  12  13
ATOM     13  C   UNL     1      -2.556  29.688  30.717  1.00  0.00     0.027 C 
BRANCH  13  14
ATOM     14  C   UNL     1      -1.943  28.335  31.108  1.00  0.00     0.004 C 
BRANCH  14  15
ATOM     15  C   UNL     1      -2.896  27.159  30.845  1.00  0.00     0.000 C 
BRANCH  15  16
ATOM     16  C   UNL     1      -2.181  25.797  30.902  1.00  0.00    -0.000 C 
BRANCH  16  17
ATOM     17  C   UNL     1      -0.667  25.937  31.125  1.00  0.00    -0.003 C 
ATOM     18  C   UNL     1       0.146  24.953  30.284  1.00  0.00     0.004 C 
ENDBRANCH  16  17
ENDBRANCH  15  16
ENDBRANCH  14  15
ENDBRANCH  13  14
ENDBRANCH  12  13
ENDBRANCH  10  11
ENDBRANCH   1  10
TORSDOF 13
ENDMDL
