MODEL 1
REMARK VINA RESULT:    -6.650      0.000      0.000
REMARK INTER + INTRA:          -8.040
REMARK INTER:                  -7.816
REMARK INTRA:                  -0.224
REMARK UNBOUND:                -0.224
REMARK SMILES O=c1c(O)c(-c2ccc(O)cc2)oc2cc(O)cc(O)c12
REMARK SMILES IDX 5 1 3 2 2 3 1 4 21 5 19 6 18 7 16 8 15 9 14 10 13 11 6 12
REMARK SMILES IDX 7 13 8 14 9 15 12 16 11 17 10 18 4 20 20 22 17 24
REMARK H PARENT 10 19 4 21 20 23 17 25
REMARK Flexibility Score: inf
ROOT
ATOM      1  C   UNL     1     170.083 143.951 153.443  1.00  0.00     0.180 A 
ATOM      2  C   UNL     1     171.089 144.702 154.081  1.00  0.00     0.208 A 
ATOM      3  C   UNL     1     171.050 144.840 155.477  1.00  0.00     0.238 A 
ATOM      4  O   UNL     1     171.953 145.501 156.060  1.00  0.00    -0.285 OA
ATOM      5  C   UNL     1     170.000 144.247 156.207  1.00  0.00     0.111 A 
ATOM      6  C   UNL     1     169.885 144.343 157.615  1.00  0.00     0.134 A 
ATOM      7  C   UNL     1     168.804 143.732 158.268  1.00  0.00     0.093 A 
ATOM      8  C   UNL     1     167.839 143.031 157.543  1.00  0.00     0.123 A 
ATOM      9  C   UNL     1     167.947 142.932 156.153  1.00  0.00     0.094 A 
ATOM     10  C   UNL     1     169.018 143.532 155.483  1.00  0.00     0.146 A 
ATOM     11  O   UNL     1     169.100 143.419 154.162  1.00  0.00    -0.452 OA
ENDROOT
BRANCH   1  12
ATOM     12  C   UNL     1     170.066 143.744 151.977  1.00  0.00     0.021 A 
ATOM     13  C   UNL     1     170.484 142.511 151.448  1.00  0.00     0.016 A 
ATOM     14  C   UNL     1     170.498 142.301 150.066  1.00  0.00     0.047 A 
ATOM     15  C   UNL     1     170.109 143.326 149.194  1.00  0.00     0.115 A 
ATOM     16  C   UNL     1     169.697 144.775 151.094  1.00  0.00     0.016 A 
ATOM     17  C   UNL     1     169.713 144.563 149.713  1.00  0.00     0.047 A 
BRANCH  15  18
ATOM     18  O   UNL     1     170.119 143.128 147.816  1.00  0.00    -0.508 OA
ATOM     19  H   UNL     1     170.111 142.198 147.414  1.00  0.00     0.293 HD
ENDBRANCH  15  18
ENDBRANCH   1  12
BRANCH   2  20
ATOM     20  O   UNL     1     172.092 145.321 153.329  1.00  0.00    -0.502 OA
ATOM     21  H   UNL     1     173.017 145.501 153.702  1.00  0.00     0.293 HD
ENDBRANCH   2  20
BRANCH   6  22
ATOM     22  O   UNL     1     170.832 145.038 158.367  1.00  0.00    -0.507 OA
ATOM     23  H   UNL     1     171.033 146.018 158.200  1.00  0.00     0.293 HD
ENDBRANCH   6  22
BRANCH   8  24
ATOM     24  O   UNL     1     166.774 142.434 158.216  1.00  0.00    -0.508 OA
ATOM     25  H   UNL     1     166.860 142.127 159.177  1.00  0.00     0.293 HD
ENDBRANCH   8  24
TORSDOF 5
ENDMDL
MODEL 2
REMARK VINA RESULT:    -6.517      1.972      2.425
REMARK INTER + INTRA:          -7.883
REMARK INTER:                  -7.597
REMARK INTRA:                  -0.286
REMARK UNBOUND:                -0.224
REMARK SMILES O=c1c(O)c(-c2ccc(O)cc2)oc2cc(O)cc(O)c12
REMARK SMILES IDX 5 1 3 2 2 3 1 4 21 5 19 6 18 7 16 8 15 9 14 10 13 11 6 12
REMARK SMILES IDX 7 13 8 14 9 15 12 16 11 17 10 18 4 20 20 22 17 24
REMARK H PARENT 10 19 4 21 20 23 17 25
REMARK Flexibility Score: inf
ROOT
ATOM      1  C   UNL     1     171.568 143.423 152.786  1.00  0.00     0.180 A 
ATOM      2  C   UNL     1     172.032 144.558 153.479  1.00  0.00     0.208 A 
ATOM      3  C   UNL     1     171.366 144.958 154.648  1.00  0.00     0.238 A 
ATOM      4  O   UNL     1     171.780 145.966 155.283  1.00  0.00    -0.285 OA
ATOM      5  C   UNL     1     170.241 144.233 155.092  1.00  0.00     0.111 A 
ATOM      6  C   UNL     1     169.512 144.573 156.256  1.00  0.00     0.134 A 
ATOM      7  C   UNL     1     168.396 143.807 156.627  1.00  0.00     0.093 A 
ATOM      8  C   UNL     1     167.997 142.713 155.857  1.00  0.00     0.123 A 
ATOM      9  C   UNL     1     168.713 142.372 154.706  1.00  0.00     0.094 A 
ATOM     10  C   UNL     1     169.828 143.122 154.321  1.00  0.00     0.146 A 
ATOM     11  O   UNL     1     170.495 142.773 153.226  1.00  0.00    -0.452 OA
ENDROOT
BRANCH   1  12
ATOM     12  C   UNL     1     172.228 142.927 151.557  1.00  0.00     0.021 A 
ATOM     13  C   UNL     1     171.670 143.228 150.303  1.00  0.00     0.016 A 
ATOM     14  C   UNL     1     172.264 142.752 149.131  1.00  0.00     0.047 A 
ATOM     15  C   UNL     1     173.414 141.955 149.197  1.00  0.00     0.115 A 
ATOM     16  C   UNL     1     173.372 142.110 151.617  1.00  0.00     0.016 A 
ATOM     17  C   UNL     1     173.962 141.634 150.442  1.00  0.00     0.047 A 
BRANCH  15  18
ATOM     18  O   UNL     1     174.014 141.475 148.036  1.00  0.00    -0.508 OA
ATOM     19  H   UNL     1     173.745 141.816 147.120  1.00  0.00     0.293 HD
ENDBRANCH  15  18
ENDBRANCH   1  12
BRANCH   2  20
ATOM     20  O   UNL     1     173.120 145.287 152.991  1.00  0.00    -0.502 OA
ATOM     21  H   UNL     1     173.649 144.994 152.178  1.00  0.00     0.293 HD
ENDBRANCH   2  20
BRANCH   6  22
ATOM     22  O   UNL     1     169.885 145.662 157.046  1.00  0.00    -0.507 OA
ATOM     23  H   UNL     1     170.658 145.608 157.698  1.00  0.00     0.293 HD
ENDBRANCH   6  22
BRANCH   8  24
ATOM     24  O   UNL     1     166.885 141.969 156.247  1.00  0.00    -0.508 OA
ATOM     25  H   UNL     1     166.877 141.439 157.111  1.00  0.00     0.293 HD
ENDBRANCH   8  24
TORSDOF 5
ENDMDL
MODEL 3
REMARK VINA RESULT:    -6.467      2.912      7.186
REMARK INTER + INTRA:          -7.825
REMARK INTER:                  -7.619
REMARK INTRA:                  -0.206
REMARK UNBOUND:                -0.224
REMARK SMILES O=c1c(O)c(-c2ccc(O)cc2)oc2cc(O)cc(O)c12
REMARK SMILES IDX 5 1 3 2 2 3 1 4 21 5 19 6 18 7 16 8 15 9 14 10 13 11 6 12
REMARK SMILES IDX 7 13 8 14 9 15 12 16 11 17 10 18 4 20 20 22 17 24
REMARK H PARENT 10 19 4 21 20 23 17 25
REMARK Flexibility Score: inf
ROOT
ATOM      1  C   UNL     1     171.195 144.837 157.415  1.00  0.00     0.180 A 
ATOM      2  C   UNL     1     169.996 144.195 157.780  1.00  0.00     0.208 A 
ATOM      3  C   UNL     1     168.954 144.120 156.843  1.00  0.00     0.238 A 
ATOM      4  O   UNL     1     167.880 143.537 157.155  1.00  0.00    -0.285 OA
ATOM      5  C   UNL     1     169.119 144.702 155.569  1.00  0.00     0.111 A 
ATOM      6  C   UNL     1     168.117 144.674 154.569  1.00  0.00     0.134 A 
ATOM      7  C   UNL     1     168.354 145.285 153.329  1.00  0.00     0.093 A 
ATOM      8  C   UNL     1     169.570 145.923 153.071  1.00  0.00     0.123 A 
ATOM      9  C   UNL     1     170.563 145.954 154.054  1.00  0.00     0.094 A 
ATOM     10  C   UNL     1     170.346 145.349 155.295  1.00  0.00     0.146 A 
ATOM     11  O   UNL     1     171.309 145.388 156.210  1.00  0.00    -0.452 OA
ENDROOT
BRANCH   1  12
ATOM     12  C   UNL     1     172.345 144.941 158.341  1.00  0.00     0.021 A 
ATOM     13  C   UNL     1     172.731 146.201 158.827  1.00  0.00     0.016 A 
ATOM     14  C   UNL     1     173.827 146.325 159.685  1.00  0.00     0.047 A 
ATOM     15  C   UNL     1     174.563 145.192 160.055  1.00  0.00     0.115 A 
ATOM     16  C   UNL     1     173.101 143.810 158.701  1.00  0.00     0.016 A 
ATOM     17  C   UNL     1     174.199 143.937 159.557  1.00  0.00     0.047 A 
BRANCH  15  18
ATOM     18  O   UNL     1     175.658 145.303 160.908  1.00  0.00    -0.508 OA
ATOM     19  H   UNL     1     176.277 144.519 161.080  1.00  0.00     0.293 HD
ENDBRANCH  15  18
ENDBRANCH   1  12
BRANCH   2  20
ATOM     20  O   UNL     1     169.839 143.669 159.066  1.00  0.00    -0.502 OA
ATOM     21  H   UNL     1     168.929 143.472 159.464  1.00  0.00     0.293 HD
ENDBRANCH   2  20
BRANCH   6  22
ATOM     22  O   UNL     1     166.892 144.046 154.797  1.00  0.00    -0.507 OA
ATOM     23  H   UNL     1     166.178 143.992 154.079  1.00  0.00     0.293 HD
ENDBRANCH   6  22
BRANCH   8  24
ATOM     24  O   UNL     1     169.780 146.523 151.831  1.00  0.00    -0.508 OA
ATOM     25  H   UNL     1     170.539 147.177 151.680  1.00  0.00     0.293 HD
ENDBRANCH   8  24
TORSDOF 5
ENDMDL
MODEL 4
REMARK VINA RESULT:    -6.454      2.180      7.121
REMARK INTER + INTRA:          -7.809
REMARK INTER:                  -7.610
REMARK INTRA:                  -0.199
REMARK UNBOUND:                -0.224
REMARK SMILES O=c1c(O)c(-c2ccc(O)cc2)oc2cc(O)cc(O)c12
REMARK SMILES IDX 5 1 3 2 2 3 1 4 21 5 19 6 18 7 16 8 15 9 14 10 13 11 6 12
REMARK SMILES IDX 7 13 8 14 9 15 12 16 11 17 10 18 4 20 20 22 17 24
REMARK H PARENT 10 19 4 21 20 23 17 25
REMARK Flexibility Score: inf
ROOT
ATOM      1  C   UNL     1     170.039 143.779 152.233  1.00  0.00     0.180 A 
ATOM      2  C   UNL     1     171.287 143.128 152.188  1.00  0.00     0.208 A 
ATOM      3  C   UNL     1     171.947 143.011 150.954  1.00  0.00     0.238 A 
ATOM      4  O   UNL     1     173.070 142.440 150.904  1.00  0.00    -0.285 OA
ATOM      5  C   UNL     1     171.344 143.528 149.789  1.00  0.00     0.111 A 
ATOM      6  C   UNL     1     171.941 143.447 148.508  1.00  0.00     0.134 A 
ATOM      7  C   UNL     1     171.271 143.977 147.394  1.00  0.00     0.093 A 
ATOM      8  C   UNL     1     170.021 144.582 147.537  1.00  0.00     0.123 A 
ATOM      9  C   UNL     1     169.426 144.664 148.799  1.00  0.00     0.094 A 
ATOM     10  C   UNL     1     170.078 144.144 149.922  1.00  0.00     0.146 A 
ATOM     11  O   UNL     1     169.494 144.240 151.111  1.00  0.00    -0.452 OA
ENDROOT
BRANCH   1  12
ATOM     12  C   UNL     1     169.291 143.958 153.497  1.00  0.00     0.021 A 
ATOM     13  C   UNL     1     169.240 145.227 154.098  1.00  0.00     0.016 A 
ATOM     14  C   UNL     1     168.559 145.414 155.303  1.00  0.00     0.047 A 
ATOM     15  C   UNL     1     167.931 144.332 155.933  1.00  0.00     0.115 A 
ATOM     16  C   UNL     1     168.676 142.871 154.146  1.00  0.00     0.016 A 
ATOM     17  C   UNL     1     167.996 143.061 155.352  1.00  0.00     0.047 A 
BRANCH  15  18
ATOM     18  O   UNL     1     167.249 144.506 157.134  1.00  0.00    -0.508 OA
ATOM     19  H   UNL     1     166.411 145.074 157.190  1.00  0.00     0.293 HD
ENDBRANCH  15  18
ENDBRANCH   1  12
BRANCH   2  20
ATOM     20  O   UNL     1     171.841 142.582 153.349  1.00  0.00    -0.502 OA
ATOM     21  H   UNL     1     172.718 142.909 153.737  1.00  0.00     0.293 HD
ENDBRANCH   2  20
BRANCH   6  22
ATOM     22  O   UNL     1     173.188 142.848 148.332  1.00  0.00    -0.507 OA
ATOM     23  H   UNL     1     173.469 142.451 147.443  1.00  0.00     0.293 HD
ENDBRANCH   6  22
BRANCH   8  24
ATOM     24  O   UNL     1     169.377 145.099 146.415  1.00  0.00    -0.508 OA
ATOM     25  H   UNL     1     169.707 144.904 145.477  1.00  0.00     0.293 HD
ENDBRANCH   8  24
TORSDOF 5
ENDMDL
MODEL 5
REMARK VINA RESULT:    -6.333      1.842      6.649
REMARK INTER + INTRA:          -7.667
REMARK INTER:                  -7.371
REMARK INTRA:                  -0.296
REMARK UNBOUND:                -0.224
REMARK SMILES O=c1c(O)c(-c2ccc(O)cc2)oc2cc(O)cc(O)c12
REMARK SMILES IDX 5 1 3 2 2 3 1 4 21 5 19 6 18 7 16 8 15 9 14 10 13 11 6 12
REMARK SMILES IDX 7 13 8 14 9 15 12 16 11 17 10 18 4 20 20 22 17 24
REMARK H PARENT 10 19 4 21 20 23 17 25
REMARK Flexibility Score: inf
ROOT
ATOM      1  C   UNL     1     169.463 143.279 154.156  1.00  0.00     0.180 A 
ATOM      2  C   UNL     1     169.448 144.659 153.871  1.00  0.00     0.208 A 
ATOM      3  C   UNL     1     169.705 145.083 152.558  1.00  0.00     0.238 A 
ATOM      4  O   UNL     1     169.683 146.315 152.290  1.00  0.00    -0.285 OA
ATOM      5  C   UNL     1     169.992 144.129 151.561  1.00  0.00     0.111 A 
ATOM      6  C   UNL     1     170.267 144.473 150.216  1.00  0.00     0.134 A 
ATOM      7  C   UNL     1     170.553 143.465 149.284  1.00  0.00     0.093 A 
ATOM      8  C   UNL     1     170.572 142.123 149.670  1.00  0.00     0.123 A 
ATOM      9  C   UNL     1     170.301 141.776 150.997  1.00  0.00     0.094 A 
ATOM     10  C   UNL     1     170.012 142.766 151.940  1.00  0.00     0.146 A 
ATOM     11  O   UNL     1     169.752 142.409 153.194  1.00  0.00    -0.452 OA
ENDROOT
BRANCH   1  12
ATOM     12  C   UNL     1     169.183 142.753 155.511  1.00  0.00     0.021 A 
ATOM     13  C   UNL     1     170.245 142.553 156.409  1.00  0.00     0.016 A 
ATOM     14  C   UNL     1     170.006 142.036 157.685  1.00  0.00     0.047 A 
ATOM     15  C   UNL     1     168.704 141.697 158.076  1.00  0.00     0.115 A 
ATOM     16  C   UNL     1     167.880 142.392 155.903  1.00  0.00     0.016 A 
ATOM     17  C   UNL     1     167.645 141.873 157.180  1.00  0.00     0.047 A 
BRANCH  15  18
ATOM     18  O   UNL     1     168.454 141.181 159.344  1.00  0.00    -0.508 OA
ATOM     19  H   UNL     1     167.714 141.551 159.930  1.00  0.00     0.293 HD
ENDBRANCH  15  18
ENDBRANCH   1  12
BRANCH   2  20
ATOM     20  O   UNL     1     169.209 145.587 154.888  1.00  0.00    -0.502 OA
ATOM     21  H   UNL     1     169.323 146.584 154.750  1.00  0.00     0.293 HD
ENDBRANCH   2  20
BRANCH   6  22
ATOM     22  O   UNL     1     170.258 145.805 149.799  1.00  0.00    -0.507 OA
ATOM     23  H   UNL     1     170.250 146.572 150.462  1.00  0.00     0.293 HD
ENDBRANCH   6  22
BRANCH   8  24
ATOM     24  O   UNL     1     170.860 141.140 148.725  1.00  0.00    -0.508 OA
ATOM     25  H   UNL     1     170.992 141.368 147.746  1.00  0.00     0.293 HD
ENDBRANCH   8  24
TORSDOF 5
ENDMDL
MODEL 6
REMARK VINA RESULT:    -6.329      2.671      4.487
REMARK INTER + INTRA:          -7.662
REMARK INTER:                  -7.451
REMARK INTRA:                  -0.211
REMARK UNBOUND:                -0.224
REMARK SMILES O=c1c(O)c(-c2ccc(O)cc2)oc2cc(O)cc(O)c12
REMARK SMILES IDX 5 1 3 2 2 3 1 4 21 5 19 6 18 7 16 8 15 9 14 10 13 11 6 12
REMARK SMILES IDX 7 13 8 14 9 15 12 16 11 17 10 18 4 20 20 22 17 24
REMARK H PARENT 10 19 4 21 20 23 17 25
REMARK Flexibility Score: inf
ROOT
ATOM      1  C   UNL     1     171.053 145.148 155.830  1.00  0.00     0.180 A 
ATOM      2  C   UNL     1     170.150 144.611 156.769  1.00  0.00     0.208 A 
ATOM      3  C   UNL     1     170.511 144.594 158.125  1.00  0.00     0.238 A 
ATOM      4  O   UNL     1     169.705 144.126 158.975  1.00  0.00    -0.285 OA
ATOM      5  C   UNL     1     171.770 145.092 158.517  1.00  0.00     0.111 A 
ATOM      6  C   UNL     1     172.212 145.107 159.862  1.00  0.00     0.134 A 
ATOM      7  C   UNL     1     173.485 145.611 160.171  1.00  0.00     0.093 A 
ATOM      8  C   UNL     1     174.321 146.098 159.164  1.00  0.00     0.123 A 
ATOM      9  C   UNL     1     173.890 146.086 157.834  1.00  0.00     0.094 A 
ATOM     10  C   UNL     1     172.625 145.589 157.506  1.00  0.00     0.146 A 
ATOM     11  O   UNL     1     172.238 145.595 156.235  1.00  0.00    -0.452 OA
ENDROOT
BRANCH   1  12
ATOM     12  C   UNL     1     170.737 145.218 154.386  1.00  0.00     0.021 A 
ATOM     13  C   UNL     1     171.462 144.427 153.480  1.00  0.00     0.016 A 
ATOM     14  C   UNL     1     171.196 144.495 152.109  1.00  0.00     0.047 A 
ATOM     15  C   UNL     1     170.212 145.366 151.625  1.00  0.00     0.115 A 
ATOM     16  C   UNL     1     169.764 146.106 153.890  1.00  0.00     0.016 A 
ATOM     17  C   UNL     1     169.501 146.172 152.519  1.00  0.00     0.047 A 
BRANCH  15  18
ATOM     18  O   UNL     1     169.938 145.441 150.262  1.00  0.00    -0.508 OA
ATOM     19  H   UNL     1     170.435 146.085 149.657  1.00  0.00     0.293 HD
ENDBRANCH  15  18
ENDBRANCH   1  12
BRANCH   2  20
ATOM     20  O   UNL     1     168.928 144.079 156.348  1.00  0.00    -0.502 OA
ATOM     21  H   UNL     1     168.869 143.293 155.711  1.00  0.00     0.293 HD
ENDBRANCH   2  20
BRANCH   6  22
ATOM     22  O   UNL     1     171.401 144.626 160.890  1.00  0.00    -0.507 OA
ATOM     23  H   UNL     1     170.498 145.039 161.095  1.00  0.00     0.293 HD
ENDBRANCH   6  22
BRANCH   8  24
ATOM     24  O   UNL     1     175.580 146.592 159.497  1.00  0.00    -0.508 OA
ATOM     25  H   UNL     1     176.197 146.092 160.126  1.00  0.00     0.293 HD
ENDBRANCH   8  24
TORSDOF 5
ENDMDL
MODEL 7
REMARK VINA RESULT:    -6.302      1.477      3.029
REMARK INTER + INTRA:          -7.631
REMARK INTER:                  -7.334
REMARK INTRA:                  -0.297
REMARK UNBOUND:                -0.224
REMARK SMILES O=c1c(O)c(-c2ccc(O)cc2)oc2cc(O)cc(O)c12
REMARK SMILES IDX 5 1 3 2 2 3 1 4 21 5 19 6 18 7 16 8 15 9 14 10 13 11 6 12
REMARK SMILES IDX 7 13 8 14 9 15 12 16 11 17 10 18 4 20 20 22 17 24
REMARK H PARENT 10 19 4 21 20 23 17 25
REMARK Flexibility Score: inf
ROOT
ATOM      1  C   UNL     1     170.265 143.926 154.018  1.00  0.00     0.180 A 
ATOM      2  C   UNL     1     169.433 143.053 154.746  1.00  0.00     0.208 A 
ATOM      3  C   UNL     1     169.362 143.189 156.141  1.00  0.00     0.238 A 
ATOM      4  O   UNL     1     168.612 142.421 156.802  1.00  0.00    -0.285 OA
ATOM      5  C   UNL     1     170.135 144.178 156.785  1.00  0.00     0.111 A 
ATOM      6  C   UNL     1     170.124 144.378 158.186  1.00  0.00     0.134 A 
ATOM      7  C   UNL     1     170.929 145.378 158.752  1.00  0.00     0.093 A 
ATOM      8  C   UNL     1     171.743 146.177 157.947  1.00  0.00     0.123 A 
ATOM      9  C   UNL     1     171.758 145.984 156.563  1.00  0.00     0.094 A 
ATOM     10  C   UNL     1     170.961 144.995 155.979  1.00  0.00     0.146 A 
ATOM     11  O   UNL     1     170.990 144.836 154.660  1.00  0.00    -0.452 OA
ENDROOT
BRANCH   1  12
ATOM     12  C   UNL     1     170.378 143.857 152.544  1.00  0.00     0.021 A 
ATOM     13  C   UNL     1     171.419 143.111 151.964  1.00  0.00     0.016 A 
ATOM     14  C   UNL     1     171.558 143.051 150.575  1.00  0.00     0.047 A 
ATOM     15  C   UNL     1     170.669 143.747 149.747  1.00  0.00     0.115 A 
ATOM     16  C   UNL     1     169.501 144.570 151.706  1.00  0.00     0.016 A 
ATOM     17  C   UNL     1     169.644 144.509 150.317  1.00  0.00     0.047 A 
BRANCH  15  18
ATOM     18  O   UNL     1     170.798 143.694 148.361  1.00  0.00    -0.508 OA
ATOM     19  H   UNL     1     171.705 143.612 147.917  1.00  0.00     0.293 HD
ENDBRANCH  15  18
ENDBRANCH   1  12
BRANCH   2  20
ATOM     20  O   UNL     1     168.715 142.049 154.089  1.00  0.00    -0.502 OA
ATOM     21  H   UNL     1     169.064 141.102 154.000  1.00  0.00     0.293 HD
ENDBRANCH   2  20
BRANCH   6  22
ATOM     22  O   UNL     1     169.323 143.595 159.018  1.00  0.00    -0.507 OA
ATOM     23  H   UNL     1     169.717 143.031 159.762  1.00  0.00     0.293 HD
ENDBRANCH   6  22
BRANCH   8  24
ATOM     24  O   UNL     1     172.534 147.162 158.535  1.00  0.00    -0.508 OA
ATOM     25  H   UNL     1     172.336 147.518 159.463  1.00  0.00     0.293 HD
ENDBRANCH   8  24
TORSDOF 5
ENDMDL
MODEL 8
REMARK VINA RESULT:    -6.218      2.201      7.026
REMARK INTER + INTRA:          -7.532
REMARK INTER:                  -7.242
REMARK INTRA:                  -0.291
REMARK UNBOUND:                -0.224
REMARK SMILES O=c1c(O)c(-c2ccc(O)cc2)oc2cc(O)cc(O)c12
REMARK SMILES IDX 5 1 3 2 2 3 1 4 21 5 19 6 18 7 16 8 15 9 14 10 13 11 6 12
REMARK SMILES IDX 7 13 8 14 9 15 12 16 11 17 10 18 4 20 20 22 17 24
REMARK H PARENT 10 19 4 21 20 23 17 25
REMARK Flexibility Score: inf
ROOT
ATOM      1  C   UNL     1     170.665 144.798 155.586  1.00  0.00     0.180 A 
ATOM      2  C   UNL     1     169.584 145.359 154.879  1.00  0.00     0.208 A 
ATOM      3  C   UNL     1     169.495 145.146 153.494  1.00  0.00     0.238 A 
ATOM      4  O   UNL     1     168.524 145.634 152.853  1.00  0.00    -0.285 OA
ATOM      5  C   UNL     1     170.493 144.397 152.838  1.00  0.00     0.111 A 
ATOM      6  C   UNL     1     170.480 144.141 151.446  1.00  0.00     0.134 A 
ATOM      7  C   UNL     1     171.517 143.394 150.866  1.00  0.00     0.093 A 
ATOM      8  C   UNL     1     172.563 142.902 151.649  1.00  0.00     0.123 A 
ATOM      9  C   UNL     1     172.582 143.152 153.024  1.00  0.00     0.094 A 
ATOM     10  C   UNL     1     171.557 143.892 153.621  1.00  0.00     0.146 A 
ATOM     11  O   UNL     1     171.596 144.110 154.931  1.00  0.00    -0.452 OA
ENDROOT
BRANCH   1  12
ATOM     12  C   UNL     1     170.818 144.962 157.049  1.00  0.00     0.021 A 
ATOM     13  C   UNL     1     170.225 144.029 157.915  1.00  0.00     0.016 A 
ATOM     14  C   UNL     1     170.338 144.177 159.300  1.00  0.00     0.047 A 
ATOM     15  C   UNL     1     171.031 145.268 159.838  1.00  0.00     0.115 A 
ATOM     16  C   UNL     1     171.495 146.067 157.596  1.00  0.00     0.016 A 
ATOM     17  C   UNL     1     171.605 146.213 158.982  1.00  0.00     0.047 A 
BRANCH  15  18
ATOM     18  O   UNL     1     171.150 145.426 161.216  1.00  0.00    -0.508 OA
ATOM     19  H   UNL     1     171.889 144.971 161.740  1.00  0.00     0.293 HD
ENDBRANCH  15  18
ENDBRANCH   1  12
BRANCH   2  20
ATOM     20  O   UNL     1     168.633 146.139 155.544  1.00  0.00    -0.502 OA
ATOM     21  H   UNL     1     168.059 145.771 156.293  1.00  0.00     0.293 HD
ENDBRANCH   2  20
BRANCH   6  22
ATOM     22  O   UNL     1     169.449 144.620 150.637  1.00  0.00    -0.507 OA
ATOM     23  H   UNL     1     168.859 145.392 150.926  1.00  0.00     0.293 HD
ENDBRANCH   6  22
BRANCH   8  24
ATOM     24  O   UNL     1     173.581 142.164 151.048  1.00  0.00    -0.508 OA
ATOM     25  H   UNL     1     173.487 141.169 150.881  1.00  0.00     0.293 HD
ENDBRANCH   8  24
TORSDOF 5
ENDMDL
MODEL 9
REMARK VINA RESULT:    -6.154      2.278      3.085
REMARK INTER + INTRA:          -7.457
REMARK INTER:                  -7.217
REMARK INTRA:                  -0.240
REMARK UNBOUND:                -0.224
REMARK SMILES O=c1c(O)c(-c2ccc(O)cc2)oc2cc(O)cc(O)c12
REMARK SMILES IDX 5 1 3 2 2 3 1 4 21 5 19 6 18 7 16 8 15 9 14 10 13 11 6 12
REMARK SMILES IDX 7 13 8 14 9 15 12 16 11 17 10 18 4 20 20 22 17 24
REMARK H PARENT 10 19 4 21 20 23 17 25
REMARK Flexibility Score: inf
ROOT
ATOM      1  C   UNL     1     170.285 143.996 151.182  1.00  0.00     0.180 A 
ATOM      2  C   UNL     1     171.212 143.022 151.600  1.00  0.00     0.208 A 
ATOM      3  C   UNL     1     171.128 142.523 152.909  1.00  0.00     0.238 A 
ATOM      4  O   UNL     1     171.946 141.642 153.290  1.00  0.00    -0.285 OA
ATOM      5  C   UNL     1     170.138 143.018 153.782  1.00  0.00     0.111 A 
ATOM      6  C   UNL     1     169.989 142.572 155.117  1.00  0.00     0.134 A 
ATOM      7  C   UNL     1     168.983 143.122 155.926  1.00  0.00     0.093 A 
ATOM      8  C   UNL     1     168.128 144.107 155.428  1.00  0.00     0.123 A 
ATOM      9  C   UNL     1     168.270 144.552 154.111  1.00  0.00     0.094 A 
ATOM     10  C   UNL     1     169.265 144.015 153.288  1.00  0.00     0.146 A 
ATOM     11  O   UNL     1     169.374 144.451 152.038  1.00  0.00    -0.452 OA
ENDROOT
BRANCH   1  12
ATOM     12  C   UNL     1     170.297 144.557 149.812  1.00  0.00     0.021 A 
ATOM     13  C   UNL     1     169.372 144.086 148.865  1.00  0.00     0.016 A 
ATOM     14  C   UNL     1     169.380 144.585 147.559  1.00  0.00     0.047 A 
ATOM     15  C   UNL     1     170.322 145.549 147.179  1.00  0.00     0.115 A 
ATOM     16  C   UNL     1     171.253 145.510 149.418  1.00  0.00     0.016 A 
ATOM     17  C   UNL     1     171.259 146.006 148.110  1.00  0.00     0.047 A 
BRANCH  15  18
ATOM     18  O   UNL     1     170.340 146.053 145.881  1.00  0.00    -0.508 OA
ATOM     19  H   UNL     1     170.838 145.581 145.136  1.00  0.00     0.293 HD
ENDBRANCH  15  18
ENDBRANCH   1  12
BRANCH   2  20
ATOM     20  O   UNL     1     172.215 142.583 150.731  1.00  0.00    -0.502 OA
ATOM     21  H   UNL     1     173.163 142.937 150.774  1.00  0.00     0.293 HD
ENDBRANCH   2  20
BRANCH   6  22
ATOM     22  O   UNL     1     170.829 141.591 155.645  1.00  0.00    -0.507 OA
ATOM     23  H   UNL     1     170.466 140.717 156.009  1.00  0.00     0.293 HD
ENDBRANCH   6  22
BRANCH   8  24
ATOM     24  O   UNL     1     167.138 144.637 156.253  1.00  0.00    -0.508 OA
ATOM     25  H   UNL     1     167.366 145.239 157.036  1.00  0.00     0.293 HD
ENDBRANCH   8  24
TORSDOF 5
ENDMDL
