MODEL 1
REMARK VINA RESULT:    -1.636      0.000      0.000
REMARK INTER + INTRA:          -1.636
REMARK INTER:                  -1.636
REMARK INTRA:                   0.000
REMARK UNBOUND:                 0.000
REMARK SMILES CC(=O)[O-]
REMARK SMILES IDX 1 1 2 2 3 3 4 4
REMARK H PARENT
REMARK Flexibility Score: inf
ROOT
ATOM      1  C   UNL     1      18.619 -44.155  -9.859  1.00  0.00     0.063 C 
ATOM      2  C   UNL     1      18.036 -44.310  -8.495  1.00  0.00     0.038 C 
ATOM      3  O   UNL     1      16.882 -43.875  -8.248  1.00  0.00    -0.550 OA
ATOM      4  O   UNL     1      18.745 -44.983  -7.508  1.00  0.00    -0.550 OA
ENDROOT
TORSDOF 0
ENDMDL
MODEL 2
REMARK VINA RESULT:    -1.620     26.374     26.758
REMARK INTER + INTRA:          -1.620
REMARK INTER:                  -1.620
REMARK INTRA:                   0.000
REMARK UNBOUND:                 0.000
REMARK SMILES CC(=O)[O-]
REMARK SMILES IDX 1 1 2 2 3 3 4 4
REMARK H PARENT
REMARK Flexibility Score: inf
ROOT
ATOM      1  C   UNL     1      -1.124 -51.707   9.157  1.00  0.00     0.063 C 
ATOM      2  C   UNL     1      -0.407 -50.545   9.753  1.00  0.00     0.038 C 
ATOM      3  O   UNL     1      -1.048 -49.525  10.116  1.00  0.00    -0.550 OA
ATOM      4  O   UNL     1       0.966 -50.605   9.960  1.00  0.00    -0.550 OA
ENDROOT
TORSDOF 0
ENDMDL
MODEL 3
REMARK VINA RESULT:    -1.611     26.538     26.778
REMARK INTER + INTRA:          -1.611
REMARK INTER:                  -1.611
REMARK INTRA:                   0.000
REMARK UNBOUND:                 0.000
REMARK SMILES CC(=O)[O-]
REMARK SMILES IDX 1 1 2 2 3 3 4 4
REMARK H PARENT
REMARK Flexibility Score: inf
ROOT
ATOM      1  C   UNL     1       0.977 -50.624  10.121  1.00  0.00     0.063 C 
ATOM      2  C   UNL     1      -0.467 -50.512   9.770  1.00  0.00     0.038 C 
ATOM      3  O   UNL     1      -1.125 -49.497  10.114  1.00  0.00    -0.550 OA
ATOM      4  O   UNL     1      -1.079 -51.505   9.014  1.00  0.00    -0.550 OA
ENDROOT
TORSDOF 0
ENDMDL
MODEL 4
REMARK VINA RESULT:    -1.582      1.390      2.063
REMARK INTER + INTRA:          -1.582
REMARK INTER:                  -1.582
REMARK INTRA:                   0.000
REMARK UNBOUND:                 0.000
REMARK SMILES CC(=O)[O-]
REMARK SMILES IDX 1 1 2 2 3 3 4 4
REMARK H PARENT
REMARK Flexibility Score: inf
ROOT
ATOM      1  C   UNL     1      18.972 -44.975  -7.576  1.00  0.00     0.063 C 
ATOM      2  C   UNL     1      18.147 -44.341  -8.643  1.00  0.00     0.038 C 
ATOM      3  O   UNL     1      18.583 -44.269  -9.821  1.00  0.00    -0.550 OA
ATOM      4  O   UNL     1      16.871 -43.875  -8.352  1.00  0.00    -0.550 OA
ENDROOT
TORSDOF 0
ENDMDL
MODEL 5
REMARK VINA RESULT:    -1.318     14.085     14.412
REMARK INTER + INTRA:          -1.318
REMARK INTER:                  -1.318
REMARK INTRA:                   0.000
REMARK UNBOUND:                 0.000
REMARK SMILES CC(=O)[O-]
REMARK SMILES IDX 1 1 2 2 3 3 4 4
REMARK H PARENT
REMARK Flexibility Score: inf
ROOT
ATOM      1  C   UNL     1      17.203 -56.108  -2.769  1.00  0.00     0.063 C 
ATOM      2  C   UNL     1      17.888 -57.036  -1.825  1.00  0.00     0.038 C 
ATOM      3  O   UNL     1      18.742 -57.856  -2.253  1.00  0.00    -0.550 OA
ATOM      4  O   UNL     1      17.627 -56.962  -0.463  1.00  0.00    -0.550 OA
ENDROOT
TORSDOF 0
ENDMDL
MODEL 6
REMARK VINA RESULT:    -1.186     13.942     14.558
REMARK INTER + INTRA:          -1.186
REMARK INTER:                  -1.186
REMARK INTRA:                   0.000
REMARK UNBOUND:                 0.000
REMARK SMILES CC(=O)[O-]
REMARK SMILES IDX 1 1 2 2 3 3 4 4
REMARK H PARENT
REMARK Flexibility Score: inf
ROOT
ATOM      1  C   UNL     1      17.555 -57.017  -0.387  1.00  0.00     0.063 C 
ATOM      2  C   UNL     1      17.877 -57.035  -1.841  1.00  0.00     0.038 C 
ATOM      3  O   UNL     1      18.756 -57.819  -2.285  1.00  0.00    -0.550 OA
ATOM      4  O   UNL     1      17.171 -56.224  -2.721  1.00  0.00    -0.550 OA
ENDROOT
TORSDOF 0
ENDMDL
MODEL 7
REMARK VINA RESULT:    -1.036     10.163     10.512
REMARK INTER + INTRA:          -1.036
REMARK INTER:                  -1.036
REMARK INTRA:                   0.000
REMARK UNBOUND:                 0.000
REMARK SMILES CC(=O)[O-]
REMARK SMILES IDX 1 1 2 2 3 3 4 4
REMARK H PARENT
REMARK Flexibility Score: inf
ROOT
ATOM      1  C   UNL     1      10.797 -48.005  -3.689  1.00  0.00     0.063 C 
ATOM      2  C   UNL     1      10.718 -48.655  -2.350  1.00  0.00     0.038 C 
ATOM      3  O   UNL     1       9.730 -49.377  -2.056  1.00  0.00    -0.550 OA
ATOM      4  O   UNL     1      11.760 -48.510  -1.443  1.00  0.00    -0.550 OA
ENDROOT
TORSDOF 0
ENDMDL
MODEL 8
REMARK VINA RESULT:    -0.994     10.130     10.616
REMARK INTER + INTRA:          -0.994
REMARK INTER:                  -0.994
REMARK INTRA:                   0.000
REMARK UNBOUND:                 0.000
REMARK SMILES CC(=O)[O-]
REMARK SMILES IDX 1 1 2 2 3 3 4 4
REMARK H PARENT
REMARK Flexibility Score: inf
ROOT
ATOM      1  C   UNL     1      11.883 -48.560  -1.601  1.00  0.00     0.063 C 
ATOM      2  C   UNL     1      10.686 -48.622  -2.487  1.00  0.00     0.038 C 
ATOM      3  O   UNL     1      10.645 -47.940  -3.544  1.00  0.00    -0.550 OA
ATOM      4  O   UNL     1       9.635 -49.476  -2.178  1.00  0.00    -0.550 OA
ENDROOT
TORSDOF 0
ENDMDL
MODEL 9
REMARK VINA RESULT:    -0.862     10.037     10.570
REMARK INTER + INTRA:          -0.862
REMARK INTER:                  -0.862
REMARK INTRA:                   0.000
REMARK UNBOUND:                 0.000
REMARK SMILES CC(=O)[O-]
REMARK SMILES IDX 1 1 2 2 3 3 4 4
REMARK H PARENT
REMARK Flexibility Score: inf
ROOT
ATOM      1  C   UNL     1       9.714 -49.208  -1.847  1.00  0.00     0.063 C 
ATOM      2  C   UNL     1      10.882 -48.529  -2.476  1.00  0.00     0.038 C 
ATOM      3  O   UNL     1      11.998 -48.525  -1.896  1.00  0.00    -0.550 OA
ATOM      4  O   UNL     1      10.755 -47.945  -3.730  1.00  0.00    -0.550 OA
ENDROOT
TORSDOF 0
ENDMDL
