MODEL 1
REMARK VINA RESULT:    -5.290      0.000      0.000
REMARK INTER + INTRA:          -5.807
REMARK INTER:                  -5.754
REMARK INTRA:                  -0.053
REMARK UNBOUND:                -0.053
REMARK SMILES CCc1cccc(O)c1
REMARK SMILES IDX 3 1 9 2 7 3 6 4 5 5 4 6 2 7 1 8 8 9
REMARK H PARENT 8 10
REMARK Flexibility Score: inf
ROOT
ATOM      1  C   UNL     1     -15.107  61.210  38.363  1.00  0.00    -0.045 A 
ATOM      2  C   UNL     1     -14.515  62.455  38.634  1.00  0.00     0.049 A 
ATOM      3  C   UNL     1     -13.200  62.523  39.118  1.00  0.00     0.115 A 
ATOM      4  C   UNL     1     -12.479  61.345  39.340  1.00  0.00     0.046 A 
ATOM      5  C   UNL     1     -13.067  60.104  39.084  1.00  0.00     0.004 A 
ATOM      6  C   UNL     1     -14.377  60.033  38.603  1.00  0.00     0.004 A 
ENDROOT
BRANCH   1   7
ATOM      7  C   UNL     1     -16.528  61.135  37.876  1.00  0.00     0.032 C 
ATOM      8  C   UNL     1     -17.501  61.120  39.049  1.00  0.00     0.009 C 
ENDBRANCH   1   7
BRANCH   3   9
ATOM      9  O   UNL     1     -12.605  63.755  39.384  1.00  0.00    -0.508 OA
ATOM     10  H   UNL     1     -11.685  63.818  39.802  1.00  0.00     0.293 HD
ENDBRANCH   3   9
TORSDOF 2
ENDMDL
MODEL 2
REMARK VINA RESULT:    -5.286      1.779      2.636
REMARK INTER + INTRA:          -5.802
REMARK INTER:                  -5.728
REMARK INTRA:                  -0.074
REMARK UNBOUND:                -0.053
REMARK SMILES CCc1cccc(O)c1
REMARK SMILES IDX 3 1 9 2 7 3 6 4 5 5 4 6 2 7 1 8 8 9
REMARK H PARENT 8 10
REMARK Flexibility Score: inf
ROOT
ATOM      1  C   UNL     1     -13.802  61.088  39.449  1.00  0.00    -0.045 A 
ATOM      2  C   UNL     1     -12.729  60.371  40.005  1.00  0.00     0.049 A 
ATOM      3  C   UNL     1     -11.460  60.960  40.104  1.00  0.00     0.115 A 
ATOM      4  C   UNL     1     -11.261  62.264  39.638  1.00  0.00     0.046 A 
ATOM      5  C   UNL     1     -12.320  62.977  39.073  1.00  0.00     0.004 A 
ATOM      6  C   UNL     1     -13.586  62.392  38.972  1.00  0.00     0.004 A 
ENDROOT
BRANCH   1   7
ATOM      7  C   UNL     1     -15.155  60.445  39.312  1.00  0.00     0.032 C 
ATOM      8  C   UNL     1     -15.965  61.119  38.211  1.00  0.00     0.009 C 
ENDBRANCH   1   7
BRANCH   3   9
ATOM      9  O   UNL     1     -10.393  60.257  40.659  1.00  0.00    -0.508 OA
ATOM     10  H   UNL     1     -10.531  59.377  41.140  1.00  0.00     0.293 HD
ENDBRANCH   3   9
TORSDOF 2
ENDMDL
MODEL 3
REMARK VINA RESULT:    -5.219      1.343      3.137
REMARK INTER + INTRA:          -5.729
REMARK INTER:                  -5.680
REMARK INTRA:                  -0.049
REMARK UNBOUND:                -0.053
REMARK SMILES CCc1cccc(O)c1
REMARK SMILES IDX 3 1 9 2 7 3 6 4 5 5 4 6 2 7 1 8 8 9
REMARK H PARENT 8 10
REMARK Flexibility Score: inf
ROOT
ATOM      1  C   UNL     1     -14.213  61.023  38.727  1.00  0.00    -0.045 A 
ATOM      2  C   UNL     1     -14.139  62.426  38.672  1.00  0.00     0.049 A 
ATOM      3  C   UNL     1     -15.246  63.176  38.251  1.00  0.00     0.115 A 
ATOM      4  C   UNL     1     -16.425  62.525  37.875  1.00  0.00     0.046 A 
ATOM      5  C   UNL     1     -16.500  61.131  37.915  1.00  0.00     0.004 A 
ATOM      6  C   UNL     1     -15.398  60.380  38.334  1.00  0.00     0.004 A 
ENDROOT
BRANCH   1   7
ATOM      7  C   UNL     1     -13.014  60.215  39.147  1.00  0.00     0.032 C 
ATOM      8  C   UNL     1     -13.011  60.000  40.656  1.00  0.00     0.009 C 
ENDBRANCH   1   7
BRANCH   3   9
ATOM      9  O   UNL     1     -15.182  64.567  38.199  1.00  0.00    -0.508 OA
ATOM     10  H   UNL     1     -15.704  65.145  38.845  1.00  0.00     0.293 HD
ENDBRANCH   3   9
TORSDOF 2
ENDMDL
MODEL 4
REMARK VINA RESULT:    -5.112      1.771      4.066
REMARK INTER + INTRA:          -5.613
REMARK INTER:                  -5.567
REMARK INTRA:                  -0.046
REMARK UNBOUND:                -0.053
REMARK SMILES CCc1cccc(O)c1
REMARK SMILES IDX 3 1 9 2 7 3 6 4 5 5 4 6 2 7 1 8 8 9
REMARK H PARENT 8 10
REMARK Flexibility Score: inf
ROOT
ATOM      1  C   UNL     1     -11.546  61.506  39.730  1.00  0.00    -0.045 A 
ATOM      2  C   UNL     1     -12.224  62.633  39.234  1.00  0.00     0.049 A 
ATOM      3  C   UNL     1     -13.617  62.606  39.070  1.00  0.00     0.115 A 
ATOM      4  C   UNL     1     -14.332  61.448  39.393  1.00  0.00     0.046 A 
ATOM      5  C   UNL     1     -13.662  60.320  39.874  1.00  0.00     0.004 A 
ATOM      6  C   UNL     1     -12.274  60.345  40.038  1.00  0.00     0.004 A 
ENDROOT
BRANCH   1   7
ATOM      7  C   UNL     1     -10.049  61.524  39.874  1.00  0.00     0.032 C 
ATOM      8  C   UNL     1      -9.616  62.578  40.888  1.00  0.00     0.009 C 
ENDBRANCH   1   7
BRANCH   3   9
ATOM      9  O   UNL     1     -14.296  63.721  38.584  1.00  0.00    -0.508 OA
ATOM     10  H   UNL     1     -13.802  64.508  38.183  1.00  0.00     0.293 HD
ENDBRANCH   3   9
TORSDOF 2
ENDMDL
MODEL 5
REMARK VINA RESULT:    -5.105      2.229      4.023
REMARK INTER + INTRA:          -5.606
REMARK INTER:                  -5.554
REMARK INTRA:                  -0.052
REMARK UNBOUND:                -0.053
REMARK SMILES CCc1cccc(O)c1
REMARK SMILES IDX 3 1 9 2 7 3 6 4 5 5 4 6 2 7 1 8 8 9
REMARK H PARENT 8 10
REMARK Flexibility Score: inf
ROOT
ATOM      1  C   UNL     1     -13.732  61.597  38.997  1.00  0.00    -0.045 A 
ATOM      2  C   UNL     1     -14.562  60.470  38.868  1.00  0.00     0.049 A 
ATOM      3  C   UNL     1     -15.853  60.600  38.336  1.00  0.00     0.115 A 
ATOM      4  C   UNL     1     -16.318  61.859  37.940  1.00  0.00     0.046 A 
ATOM      5  C   UNL     1     -15.503  62.984  38.078  1.00  0.00     0.004 A 
ATOM      6  C   UNL     1     -14.215  62.858  38.609  1.00  0.00     0.004 A 
ENDROOT
BRANCH   1   7
ATOM      7  C   UNL     1     -12.359  61.464  39.599  1.00  0.00     0.032 C 
ATOM      8  C   UNL     1     -12.150  60.063  40.163  1.00  0.00     0.009 C 
ENDBRANCH   1   7
BRANCH   3   9
ATOM      9  O   UNL     1     -16.680  59.487  38.200  1.00  0.00    -0.508 OA
ATOM     10  H   UNL     1     -16.363  58.559  38.453  1.00  0.00     0.293 HD
ENDBRANCH   3   9
TORSDOF 2
ENDMDL
MODEL 6
REMARK VINA RESULT:    -5.104     17.992     19.130
REMARK INTER + INTRA:          -5.605
REMARK INTER:                  -5.535
REMARK INTRA:                  -0.070
REMARK UNBOUND:                -0.053
REMARK SMILES CCc1cccc(O)c1
REMARK SMILES IDX 3 1 9 2 7 3 6 4 5 5 4 6 2 7 1 8 8 9
REMARK H PARENT 8 10
REMARK Flexibility Score: inf
ROOT
ATOM      1  C   UNL     1     -11.674  50.292  53.840  1.00  0.00    -0.045 A 
ATOM      2  C   UNL     1     -12.420  50.655  52.705  1.00  0.00     0.049 A 
ATOM      3  C   UNL     1     -13.477  49.845  52.265  1.00  0.00     0.115 A 
ATOM      4  C   UNL     1     -13.783  48.666  52.953  1.00  0.00     0.046 A 
ATOM      5  C   UNL     1     -13.037  48.294  54.073  1.00  0.00     0.004 A 
ATOM      6  C   UNL     1     -11.982  49.099  54.515  1.00  0.00     0.004 A 
ENDROOT
BRANCH   1   7
ATOM      7  C   UNL     1     -10.520  51.144  54.294  1.00  0.00     0.032 C 
ATOM      8  C   UNL     1      -9.309  50.279  54.626  1.00  0.00     0.009 C 
ENDBRANCH   1   7
BRANCH   3   9
ATOM      9  O   UNL     1     -14.224  50.201  51.144  1.00  0.00    -0.508 OA
ATOM     10  H   UNL     1     -14.789  51.040  51.129  1.00  0.00     0.293 HD
ENDBRANCH   3   9
TORSDOF 2
ENDMDL
MODEL 7
REMARK VINA RESULT:    -5.097     16.278     17.683
REMARK INTER + INTRA:          -5.597
REMARK INTER:                  -5.540
REMARK INTRA:                  -0.057
REMARK UNBOUND:                -0.053
REMARK SMILES CCc1cccc(O)c1
REMARK SMILES IDX 3 1 9 2 7 3 6 4 5 5 4 6 2 7 1 8 8 9
REMARK H PARENT 8 10
REMARK Flexibility Score: inf
ROOT
ATOM      1  C   UNL     1      -6.172  61.260  55.093  1.00  0.00    -0.045 A 
ATOM      2  C   UNL     1      -5.625  61.515  53.824  1.00  0.00     0.049 A 
ATOM      3  C   UNL     1      -6.257  62.409  52.948  1.00  0.00     0.115 A 
ATOM      4  C   UNL     1      -7.443  63.041  53.336  1.00  0.00     0.046 A 
ATOM      5  C   UNL     1      -7.999  62.781  54.591  1.00  0.00     0.004 A 
ATOM      6  C   UNL     1      -7.371  61.890  55.466  1.00  0.00     0.004 A 
ENDROOT
BRANCH   1   7
ATOM      7  C   UNL     1      -5.512  60.276  56.021  1.00  0.00     0.032 C 
ATOM      8  C   UNL     1      -6.227  58.930  55.978  1.00  0.00     0.009 C 
ENDBRANCH   1   7
BRANCH   3   9
ATOM      9  O   UNL     1      -5.717  62.671  51.691  1.00  0.00    -0.508 OA
ATOM     10  H   UNL     1      -4.729  62.856  51.567  1.00  0.00     0.293 HD
ENDBRANCH   3   9
TORSDOF 2
ENDMDL
MODEL 8
REMARK VINA RESULT:    -4.876     18.328     19.465
REMARK INTER + INTRA:          -5.356
REMARK INTER:                  -5.309
REMARK INTRA:                  -0.047
REMARK UNBOUND:                -0.053
REMARK SMILES CCc1cccc(O)c1
REMARK SMILES IDX 3 1 9 2 7 3 6 4 5 5 4 6 2 7 1 8 8 9
REMARK H PARENT 8 10
REMARK Flexibility Score: inf
ROOT
ATOM      1  C   UNL     1     -11.849  50.398  53.593  1.00  0.00    -0.045 A 
ATOM      2  C   UNL     1     -12.212  49.267  54.344  1.00  0.00     0.049 A 
ATOM      3  C   UNL     1     -13.314  48.489  53.963  1.00  0.00     0.115 A 
ATOM      4  C   UNL     1     -14.061  48.845  52.835  1.00  0.00     0.046 A 
ATOM      5  C   UNL     1     -13.712  49.975  52.092  1.00  0.00     0.004 A 
ATOM      6  C   UNL     1     -12.614  50.754  52.470  1.00  0.00     0.004 A 
ENDROOT
BRANCH   1   7
ATOM      7  C   UNL     1     -10.686  51.253  54.020  1.00  0.00     0.032 C 
ATOM      8  C   UNL     1      -9.497  50.386  54.419  1.00  0.00     0.009 C 
ENDBRANCH   1   7
BRANCH   3   9
ATOM      9  O   UNL     1     -13.677  47.363  54.700  1.00  0.00    -0.508 OA
ATOM     10  H   UNL     1     -13.019  46.898  55.314  1.00  0.00     0.293 HD
ENDBRANCH   3   9
TORSDOF 2
ENDMDL
MODEL 9
REMARK VINA RESULT:    -4.840     14.732     15.772
REMARK INTER + INTRA:          -5.317
REMARK INTER:                  -5.242
REMARK INTRA:                  -0.075
REMARK UNBOUND:                -0.053
REMARK SMILES CCc1cccc(O)c1
REMARK SMILES IDX 3 1 9 2 7 3 6 4 5 5 4 6 2 7 1 8 8 9
REMARK H PARENT 8 10
REMARK Flexibility Score: inf
ROOT
ATOM      1  C   UNL     1      -6.152  65.146  50.810  1.00  0.00    -0.045 A 
ATOM      2  C   UNL     1      -6.593  63.830  51.028  1.00  0.00     0.049 A 
ATOM      3  C   UNL     1      -7.145  63.464  52.264  1.00  0.00     0.115 A 
ATOM      4  C   UNL     1      -7.248  64.412  53.288  1.00  0.00     0.046 A 
ATOM      5  C   UNL     1      -6.799  65.719  53.081  1.00  0.00     0.004 A 
ATOM      6  C   UNL     1      -6.248  66.086  51.850  1.00  0.00     0.004 A 
ENDROOT
BRANCH   1   7
ATOM      7  C   UNL     1      -5.529  65.531  49.496  1.00  0.00     0.032 C 
ATOM      8  C   UNL     1      -4.686  66.792  49.645  1.00  0.00     0.009 C 
ENDBRANCH   1   7
BRANCH   3   9
ATOM      9  O   UNL     1      -7.589  62.162  52.486  1.00  0.00    -0.508 OA
ATOM     10  H   UNL     1      -7.659  61.778  53.420  1.00  0.00     0.293 HD
ENDBRANCH   3   9
TORSDOF 2
ENDMDL
