MODEL 1
REMARK VINA RESULT:    -6.535      0.000      0.000
REMARK INTER + INTRA:          -7.272
REMARK INTER:                  -7.108
REMARK INTRA:                  -0.165
REMARK UNBOUND:                -0.165
REMARK SMILES CC(=O)[C@@H]1CC[C@H]2[C@H]3CC=C4C[C@@H](O)CC[C@@]4(C)[C@@H]3CC[C@]12C
REMARK SMILES IDX 4 1 5 2 6 3 7 4 22 5 21 6 20 7 19 8 8 9 9 10 10 11 11 12
REMARK SMILES IDX 17 13 16 14 15 15 13 16 12 17 18 18 23 19 2 20 1 21 3 22
REMARK SMILES IDX 14 23
REMARK H PARENT 14 24
REMARK Flexibility Score: inf
ROOT
ATOM      1  C   UNL     1     127.936 144.356 121.839  1.00  0.00     0.062 C 
ATOM      2  C   UNL     1     127.294 145.315 120.799  1.00  0.00     0.012 C 
ATOM      3  C   UNL     1     128.424 145.843 119.898  1.00  0.00     0.005 C 
ATOM      4  C   UNL     1     129.625 144.985 120.264  1.00  0.00    -0.001 C 
ATOM      5  C   UNL     1     129.469 144.649 121.755  1.00  0.00    -0.020 C 
ATOM      6  C   UNL     1     130.447 143.477 122.140  1.00  0.00     0.008 C 
ATOM      7  C   UNL     1     131.689 143.353 121.206  1.00  0.00     0.005 C 
ATOM      8  C   UNL     1     132.155 144.733 120.674  1.00  0.00     0.003 C 
ATOM      9  C   UNL     1     131.052 145.392 119.799  1.00  0.00     0.000 C 
ATOM     10  C   UNL     1     131.345 146.889 119.691  1.00  0.00     0.031 C 
ATOM     11  C   UNL     1     132.772 147.117 119.240  1.00  0.00    -0.027 C 
ATOM     12  C   UNL     1     133.773 146.209 119.390  1.00  0.00    -0.065 C 
ATOM     13  C   UNL     1     133.545 144.786 119.946  1.00  0.00    -0.008 C 
ATOM     14  C   UNL     1     134.678 144.467 120.975  1.00  0.00     0.014 C 
ATOM     15  C   UNL     1     136.093 144.811 120.476  1.00  0.00     0.033 C 
ATOM     16  C   UNL     1     136.200 146.273 120.022  1.00  0.00     0.118 C 
ATOM     17  C   UNL     1     135.168 146.578 118.928  1.00  0.00     0.063 C 
ATOM     18  C   UNL     1     133.613 143.760 118.783  1.00  0.00     0.016 C 
ATOM     19  C   UNL     1     129.735 145.876 122.685  1.00  0.00     0.012 C 
ENDROOT
BRANCH   1  20
ATOM     20  C   UNL     1     127.541 142.911 121.556  1.00  0.00     0.133 C 
ATOM     21  C   UNL     1     127.244 142.448 120.158  1.00  0.00     0.088 C 
ATOM     22  O   UNL     1     127.465 142.102 122.469  1.00  0.00    -0.300 OA
ENDBRANCH   1  20
BRANCH  16  23
ATOM     23  O   UNL     1     136.010 147.125 121.124  1.00  0.00    -0.393 OA
ATOM     24  H   UNL     1     135.224 146.778 121.622  1.00  0.00     0.210 HD
ENDBRANCH  16  23
TORSDOF 2
ENDMDL
MODEL 2
REMARK VINA RESULT:    -6.340      3.152      6.732
REMARK INTER + INTRA:          -7.060
REMARK INTER:                  -6.877
REMARK INTRA:                  -0.183
REMARK UNBOUND:                -0.165
REMARK SMILES CC(=O)[C@@H]1CC[C@H]2[C@H]3CC=C4C[C@@H](O)CC[C@@]4(C)[C@@H]3CC[C@]12C
REMARK SMILES IDX 4 1 5 2 6 3 7 4 22 5 21 6 20 7 19 8 8 9 9 10 10 11 11 12
REMARK SMILES IDX 17 13 16 14 15 15 13 16 12 17 18 18 23 19 2 20 1 21 3 22
REMARK SMILES IDX 14 23
REMARK H PARENT 14 24
REMARK Flexibility Score: inf
ROOT
ATOM      1  C   UNL     1     129.286 145.899 120.035  1.00  0.00     0.062 C 
ATOM      2  C   UNL     1     127.977 146.181 120.822  1.00  0.00     0.012 C 
ATOM      3  C   UNL     1     127.443 144.830 121.331  1.00  0.00     0.005 C 
ATOM      4  C   UNL     1     128.578 143.855 121.059  1.00  0.00    -0.001 C 
ATOM      5  C   UNL     1     129.274 144.356 119.784  1.00  0.00    -0.020 C 
ATOM      6  C   UNL     1     130.667 143.642 119.624  1.00  0.00     0.008 C 
ATOM      7  C   UNL     1     130.761 142.263 120.345  1.00  0.00     0.005 C 
ATOM      8  C   UNL     1     129.401 141.519 120.352  1.00  0.00     0.003 C 
ATOM      9  C   UNL     1     128.333 142.321 121.148  1.00  0.00     0.000 C 
ATOM     10  C   UNL     1     126.946 141.817 120.749  1.00  0.00     0.031 C 
ATOM     11  C   UNL     1     126.875 140.310 120.880  1.00  0.00    -0.027 C 
ATOM     12  C   UNL     1     127.961 139.491 120.856  1.00  0.00    -0.065 C 
ATOM     13  C   UNL     1     129.412 140.015 120.802  1.00  0.00    -0.008 C 
ATOM     14  C   UNL     1     130.206 139.170 119.753  1.00  0.00     0.014 C 
ATOM     15  C   UNL     1     130.010 137.650 119.896  1.00  0.00     0.033 C 
ATOM     16  C   UNL     1     128.527 137.259 119.862  1.00  0.00     0.118 C 
ATOM     17  C   UNL     1     127.747 137.994 120.960  1.00  0.00     0.063 C 
ATOM     18  C   UNL     1     130.074 139.847 122.196  1.00  0.00     0.016 C 
ATOM     19  C   UNL     1     128.419 144.126 118.496  1.00  0.00     0.012 C 
ENDROOT
BRANCH   1  20
ATOM     20  C   UNL     1     130.498 146.416 120.802  1.00  0.00     0.133 C 
ATOM     21  C   UNL     1     131.695 146.965 120.081  1.00  0.00     0.088 C 
ATOM     22  O   UNL     1     130.509 146.397 122.025  1.00  0.00    -0.300 OA
ENDBRANCH   1  20
BRANCH  16  23
ATOM     23  O   UNL     1     127.989 137.555 118.598  1.00  0.00    -0.393 OA
ATOM     24  H   UNL     1     128.738 137.502 117.947  1.00  0.00     0.210 HD
ENDBRANCH  16  23
TORSDOF 2
ENDMDL
MODEL 3
REMARK VINA RESULT:    -5.834      1.793      3.186
REMARK INTER + INTRA:          -6.511
REMARK INTER:                  -6.401
REMARK INTRA:                  -0.110
REMARK UNBOUND:                -0.165
REMARK SMILES CC(=O)[C@@H]1CC[C@H]2[C@H]3CC=C4C[C@@H](O)CC[C@@]4(C)[C@@H]3CC[C@]12C
REMARK SMILES IDX 4 1 5 2 6 3 7 4 22 5 21 6 20 7 19 8 8 9 9 10 10 11 11 12
REMARK SMILES IDX 17 13 16 14 15 15 13 16 12 17 18 18 23 19 2 20 1 21 3 22
REMARK SMILES IDX 14 23
REMARK H PARENT 14 24
REMARK Flexibility Score: inf
ROOT
ATOM      1  C   UNL     1     127.802 144.649 120.488  1.00  0.00     0.062 C 
ATOM      2  C   UNL     1     127.701 143.691 121.706  1.00  0.00     0.012 C 
ATOM      3  C   UNL     1     129.122 143.506 122.267  1.00  0.00     0.005 C 
ATOM      4  C   UNL     1     129.951 144.552 121.537  1.00  0.00    -0.001 C 
ATOM      5  C   UNL     1     129.326 144.691 120.141  1.00  0.00    -0.020 C 
ATOM      6  C   UNL     1     129.869 145.993 119.443  1.00  0.00     0.008 C 
ATOM      7  C   UNL     1     131.255 146.468 119.976  1.00  0.00     0.005 C 
ATOM      8  C   UNL     1     132.149 145.278 120.409  1.00  0.00     0.003 C 
ATOM      9  C   UNL     1     131.505 144.500 121.590  1.00  0.00     0.000 C 
ATOM     10  C   UNL     1     132.149 143.115 121.672  1.00  0.00     0.031 C 
ATOM     11  C   UNL     1     133.658 143.237 121.705  1.00  0.00    -0.027 C 
ATOM     12  C   UNL     1     134.346 144.313 121.236  1.00  0.00    -0.065 C 
ATOM     13  C   UNL     1     133.658 145.591 120.710  1.00  0.00    -0.008 C 
ATOM     14  C   UNL     1     134.367 146.028 119.387  1.00  0.00     0.014 C 
ATOM     15  C   UNL     1     135.904 146.039 119.474  1.00  0.00     0.033 C 
ATOM     16  C   UNL     1     136.460 144.687 119.939  1.00  0.00     0.118 C 
ATOM     17  C   UNL     1     135.860 144.291 121.295  1.00  0.00     0.063 C 
ATOM     18  C   UNL     1     133.801 146.724 121.762  1.00  0.00     0.016 C 
ATOM     19  C   UNL     1     129.604 143.455 119.225  1.00  0.00     0.012 C 
ENDROOT
BRANCH   1  20
ATOM     20  C   UNL     1     127.179 146.002 120.812  1.00  0.00     0.133 C 
ATOM     21  C   UNL     1     126.922 146.417 122.232  1.00  0.00     0.088 C 
ATOM     22  O   UNL     1     126.883 146.776 119.913  1.00  0.00    -0.300 OA
ENDBRANCH   1  20
BRANCH  16  23
ATOM     23  O   UNL     1     136.180 143.704 118.974  1.00  0.00    -0.393 OA
ATOM     24  H   UNL     1     136.677 143.958 118.153  1.00  0.00     0.210 HD
ENDBRANCH  16  23
TORSDOF 2
ENDMDL
MODEL 4
REMARK VINA RESULT:    -5.797      1.733      2.218
REMARK INTER + INTRA:          -6.471
REMARK INTER:                  -6.294
REMARK INTRA:                  -0.177
REMARK UNBOUND:                -0.165
REMARK SMILES CC(=O)[C@@H]1CC[C@H]2[C@H]3CC=C4C[C@@H](O)CC[C@@]4(C)[C@@H]3CC[C@]12C
REMARK SMILES IDX 4 1 5 2 6 3 7 4 22 5 21 6 20 7 19 8 8 9 9 10 10 11 11 12
REMARK SMILES IDX 17 13 16 14 15 15 13 16 12 17 18 18 23 19 2 20 1 21 3 22
REMARK SMILES IDX 14 23
REMARK H PARENT 14 24
REMARK Flexibility Score: inf
ROOT
ATOM      1  C   UNL     1     127.754 141.447 121.469  1.00  0.00     0.062 C 
ATOM      2  C   UNL     1     126.875 142.259 120.478  1.00  0.00     0.012 C 
ATOM      3  C   UNL     1     127.791 143.275 119.774  1.00  0.00     0.005 C 
ATOM      4  C   UNL     1     129.196 142.851 120.174  1.00  0.00    -0.001 C 
ATOM      5  C   UNL     1     129.078 142.270 121.591  1.00  0.00    -0.020 C 
ATOM      6  C   UNL     1     130.388 141.475 121.949  1.00  0.00     0.008 C 
ATOM      7  C   UNL     1     131.647 141.932 121.152  1.00  0.00     0.005 C 
ATOM      8  C   UNL     1     131.612 143.449 120.834  1.00  0.00     0.003 C 
ATOM      9  C   UNL     1     130.404 143.797 119.919  1.00  0.00     0.000 C 
ATOM     10  C   UNL     1     130.138 145.300 120.013  1.00  0.00     0.031 C 
ATOM     11  C   UNL     1     131.411 146.078 119.752  1.00  0.00    -0.027 C 
ATOM     12  C   UNL     1     132.662 145.568 119.911  1.00  0.00    -0.065 C 
ATOM     13  C   UNL     1     132.931 144.092 120.276  1.00  0.00    -0.008 C 
ATOM     14  C   UNL     1     134.034 144.047 121.383  1.00  0.00     0.014 C 
ATOM     15  C   UNL     1     135.256 144.935 121.087  1.00  0.00     0.033 C 
ATOM     16  C   UNL     1     134.854 146.390 120.814  1.00  0.00     0.118 C 
ATOM     17  C   UNL     1     133.854 146.467 119.652  1.00  0.00     0.063 C 
ATOM     18  C   UNL     1     133.442 143.335 119.020  1.00  0.00     0.016 C 
ATOM     19  C   UNL     1     128.819 143.365 122.676  1.00  0.00     0.012 C 
ENDROOT
BRANCH   1  20
ATOM     20  C   UNL     1     127.930 140.013 120.984  1.00  0.00     0.133 C 
ATOM     21  C   UNL     1     128.077 138.878 121.956  1.00  0.00     0.088 C 
ATOM     22  O   UNL     1     127.947 139.764 119.787  1.00  0.00    -0.300 OA
ENDBRANCH   1  20
BRANCH  16  23
ATOM     23  O   UNL     1     134.296 146.952 121.976  1.00  0.00    -0.393 OA
ATOM     24  H   UNL     1     133.833 147.786 121.697  1.00  0.00     0.210 HD
ENDBRANCH  16  23
TORSDOF 2
ENDMDL
MODEL 5
REMARK VINA RESULT:    -5.791      1.326      6.751
REMARK INTER + INTRA:          -6.464
REMARK INTER:                  -6.359
REMARK INTRA:                  -0.105
REMARK UNBOUND:                -0.165
REMARK SMILES CC(=O)[C@@H]1CC[C@H]2[C@H]3CC=C4C[C@@H](O)CC[C@@]4(C)[C@@H]3CC[C@]12C
REMARK SMILES IDX 4 1 5 2 6 3 7 4 22 5 21 6 20 7 19 8 8 9 9 10 10 11 11 12
REMARK SMILES IDX 17 13 16 14 15 15 13 16 12 17 18 18 23 19 2 20 1 21 3 22
REMARK SMILES IDX 14 23
REMARK H PARENT 14 24
REMARK Flexibility Score: inf
ROOT
ATOM      1  C   UNL     1     135.857 145.015 120.637  1.00  0.00     0.062 C 
ATOM      2  C   UNL     1     136.067 144.093 119.405  1.00  0.00     0.012 C 
ATOM      3  C   UNL     1     134.676 143.753 118.840  1.00  0.00     0.005 C 
ATOM      4  C   UNL     1     133.733 144.685 119.586  1.00  0.00    -0.001 C 
ATOM      5  C   UNL     1     134.340 144.875 120.984  1.00  0.00    -0.020 C 
ATOM      6  C   UNL     1     133.650 146.094 121.701  1.00  0.00     0.008 C 
ATOM      7  C   UNL     1     132.218 146.414 121.175  1.00  0.00     0.005 C 
ATOM      8  C   UNL     1     131.467 145.135 120.724  1.00  0.00     0.003 C 
ATOM      9  C   UNL     1     132.196 144.454 119.531  1.00  0.00     0.000 C 
ATOM     10  C   UNL     1     131.715 143.006 119.428  1.00  0.00     0.031 C 
ATOM     11  C   UNL     1     130.203 142.953 119.397  1.00  0.00    -0.027 C 
ATOM     12  C   UNL     1     129.395 143.934 119.882  1.00  0.00    -0.065 C 
ATOM     13  C   UNL     1     129.932 145.276 120.427  1.00  0.00    -0.008 C 
ATOM     14  C   UNL     1     129.179 145.608 121.756  1.00  0.00     0.014 C 
ATOM     15  C   UNL     1     127.651 145.443 121.669  1.00  0.00     0.033 C 
ATOM     16  C   UNL     1     127.254 144.042 121.184  1.00  0.00     0.118 C 
ATOM     17  C   UNL     1     127.894 143.739 119.822  1.00  0.00     0.063 C 
ATOM     18  C   UNL     1     129.657 146.400 119.393  1.00  0.00     0.016 C 
ATOM     19  C   UNL     1     134.208 143.601 121.881  1.00  0.00     0.012 C 
ENDROOT
BRANCH   1  20
ATOM     20  C   UNL     1     136.319 146.435 120.334  1.00  0.00     0.133 C 
ATOM     21  C   UNL     1     137.329 147.125 121.205  1.00  0.00     0.088 C 
ATOM     22  O   UNL     1     135.876 147.035 119.365  1.00  0.00    -0.300 OA
ENDBRANCH   1  20
BRANCH  16  23
ATOM     23  O   UNL     1     127.648 143.084 122.134  1.00  0.00    -0.393 OA
ATOM     24  H   UNL     1     128.229 142.432 121.660  1.00  0.00     0.210 HD
ENDBRANCH  16  23
TORSDOF 2
ENDMDL
MODEL 6
REMARK VINA RESULT:    -5.747      1.856      6.491
REMARK INTER + INTRA:          -6.416
REMARK INTER:                  -6.224
REMARK INTRA:                  -0.191
REMARK UNBOUND:                -0.165
REMARK SMILES CC(=O)[C@@H]1CC[C@H]2[C@H]3CC=C4C[C@@H](O)CC[C@@]4(C)[C@@H]3CC[C@]12C
REMARK SMILES IDX 4 1 5 2 6 3 7 4 22 5 21 6 20 7 19 8 8 9 9 10 10 11 11 12
REMARK SMILES IDX 17 13 16 14 15 15 13 16 12 17 18 18 23 19 2 20 1 21 3 22
REMARK SMILES IDX 14 23
REMARK H PARENT 14 24
REMARK Flexibility Score: inf
ROOT
ATOM      1  C   UNL     1     136.319 144.239 119.779  1.00  0.00     0.062 C 
ATOM      2  C   UNL     1     136.565 145.735 120.120  1.00  0.00     0.012 C 
ATOM      3  C   UNL     1     135.196 146.373 120.414  1.00  0.00     0.005 C 
ATOM      4  C   UNL     1     134.243 145.190 120.496  1.00  0.00    -0.001 C 
ATOM      5  C   UNL     1     134.782 144.140 119.513  1.00  0.00    -0.020 C 
ATOM      6  C   UNL     1     134.092 142.752 119.787  1.00  0.00     0.008 C 
ATOM      7  C   UNL     1     132.699 142.860 120.478  1.00  0.00     0.005 C 
ATOM      8  C   UNL     1     131.935 144.139 120.046  1.00  0.00     0.003 C 
ATOM      9  C   UNL     1     132.704 145.418 120.480  1.00  0.00     0.000 C 
ATOM     10  C   UNL     1     132.188 146.600 119.658  1.00  0.00     0.031 C 
ATOM     11  C   UNL     1     130.679 146.677 119.736  1.00  0.00    -0.027 C 
ATOM     12  C   UNL     1     129.876 145.622 120.041  1.00  0.00    -0.065 C 
ATOM     13  C   UNL     1     130.422 144.238 120.453  1.00  0.00    -0.008 C 
ATOM     14  C   UNL     1     129.612 143.138 119.693  1.00  0.00     0.014 C 
ATOM     15  C   UNL     1     128.086 143.338 119.743  1.00  0.00     0.033 C 
ATOM     16  C   UNL     1     127.674 144.727 119.239  1.00  0.00     0.118 C 
ATOM     17  C   UNL     1     128.374 145.827 120.049  1.00  0.00     0.063 C 
ATOM     18  C   UNL     1     130.234 144.043 121.982  1.00  0.00     0.016 C 
ATOM     19  C   UNL     1     134.567 144.543 118.017  1.00  0.00     0.012 C 
ENDROOT
BRANCH   1  20
ATOM     20  C   UNL     1     136.837 143.340 120.895  1.00  0.00     0.133 C 
ATOM     21  C   UNL     1     137.561 142.061 120.588  1.00  0.00     0.088 C 
ATOM     22  O   UNL     1     136.675 143.653 122.066  1.00  0.00    -0.300 OA
ENDBRANCH   1  20
BRANCH  16  23
ATOM     23  O   UNL     1     127.990 144.848 117.875  1.00  0.00    -0.393 OA
ATOM     24  H   UNL     1     127.820 143.961 117.461  1.00  0.00     0.210 HD
ENDBRANCH  16  23
TORSDOF 2
ENDMDL
MODEL 7
REMARK VINA RESULT:    -5.643      2.147      6.709
REMARK INTER + INTRA:          -6.303
REMARK INTER:                  -6.198
REMARK INTRA:                  -0.105
REMARK UNBOUND:                -0.165
REMARK SMILES CC(=O)[C@@H]1CC[C@H]2[C@H]3CC=C4C[C@@H](O)CC[C@@]4(C)[C@@H]3CC[C@]12C
REMARK SMILES IDX 4 1 5 2 6 3 7 4 22 5 21 6 20 7 19 8 8 9 9 10 10 11 11 12
REMARK SMILES IDX 17 13 16 14 15 15 13 16 12 17 18 18 23 19 2 20 1 21 3 22
REMARK SMILES IDX 14 23
REMARK H PARENT 14 24
REMARK Flexibility Score: inf
ROOT
ATOM      1  C   UNL     1     133.856 145.595 119.953  1.00  0.00     0.062 C 
ATOM      2  C   UNL     1     133.115 146.720 119.179  1.00  0.00     0.012 C 
ATOM      3  C   UNL     1     131.862 147.092 119.991  1.00  0.00     0.005 C 
ATOM      4  C   UNL     1     132.052 146.374 121.319  1.00  0.00    -0.001 C 
ATOM      5  C   UNL     1     132.814 145.080 120.998  1.00  0.00    -0.020 C 
ATOM      6  C   UNL     1     133.378 144.452 122.326  1.00  0.00     0.008 C 
ATOM      7  C   UNL     1     132.592 144.864 123.607  1.00  0.00     0.005 C 
ATOM      8  C   UNL     1     131.083 145.074 123.320  1.00  0.00     0.003 C 
ATOM      9  C   UNL     1     130.866 146.242 122.316  1.00  0.00     0.000 C 
ATOM     10  C   UNL     1     129.466 146.115 121.715  1.00  0.00     0.031 C 
ATOM     11  C   UNL     1     128.431 145.985 122.812  1.00  0.00    -0.027 C 
ATOM     12  C   UNL     1     128.704 145.544 124.070  1.00  0.00    -0.065 C 
ATOM     13  C   UNL     1     130.133 145.227 124.561  1.00  0.00    -0.008 C 
ATOM     14  C   UNL     1     130.099 143.879 125.351  1.00  0.00     0.014 C 
ATOM     15  C   UNL     1     128.962 143.788 126.385  1.00  0.00     0.033 C 
ATOM     16  C   UNL     1     127.590 144.053 125.751  1.00  0.00     0.118 C 
ATOM     17  C   UNL     1     127.566 145.425 125.064  1.00  0.00     0.063 C 
ATOM     18  C   UNL     1     130.617 146.359 125.507  1.00  0.00     0.016 C 
ATOM     19  C   UNL     1     131.931 144.024 120.257  1.00  0.00     0.012 C 
ENDROOT
BRANCH   1  20
ATOM     20  C   UNL     1     135.158 146.118 120.547  1.00  0.00     0.133 C 
ATOM     21  C   UNL     1     136.470 145.448 120.251  1.00  0.00     0.088 C 
ATOM     22  O   UNL     1     135.155 147.101 121.273  1.00  0.00    -0.300 OA
ENDBRANCH   1  20
BRANCH  16  23
ATOM     23  O   UNL     1     127.293 143.037 124.826  1.00  0.00    -0.393 OA
ATOM     24  H   UNL     1     126.394 143.241 124.456  1.00  0.00     0.210 HD
ENDBRANCH  16  23
TORSDOF 2
ENDMDL
MODEL 8
REMARK VINA RESULT:    -5.499      3.714      6.433
REMARK INTER + INTRA:          -6.146
REMARK INTER:                  -5.951
REMARK INTRA:                  -0.195
REMARK UNBOUND:                -0.165
REMARK SMILES CC(=O)[C@@H]1CC[C@H]2[C@H]3CC=C4C[C@@H](O)CC[C@@]4(C)[C@@H]3CC[C@]12C
REMARK SMILES IDX 4 1 5 2 6 3 7 4 22 5 21 6 20 7 19 8 8 9 9 10 10 11 11 12
REMARK SMILES IDX 17 13 16 14 15 15 13 16 12 17 18 18 23 19 2 20 1 21 3 22
REMARK SMILES IDX 14 23
REMARK H PARENT 14 24
REMARK Flexibility Score: inf
ROOT
ATOM      1  C   UNL     1     130.606 144.981 127.769  1.00  0.00     0.062 C 
ATOM      2  C   UNL     1     131.532 146.222 127.651  1.00  0.00     0.012 C 
ATOM      3  C   UNL     1     131.367 146.788 126.229  1.00  0.00     0.005 C 
ATOM      4  C   UNL     1     130.174 146.033 125.663  1.00  0.00    -0.001 C 
ATOM      5  C   UNL     1     130.218 144.633 126.295  1.00  0.00    -0.020 C 
ATOM      6  C   UNL     1     128.842 143.905 126.067  1.00  0.00     0.008 C 
ATOM      7  C   UNL     1     128.044 144.427 124.833  1.00  0.00     0.005 C 
ATOM      8  C   UNL     1     128.982 144.888 123.688  1.00  0.00     0.003 C 
ATOM      9  C   UNL     1     129.861 146.088 124.141  1.00  0.00     0.000 C 
ATOM     10  C   UNL     1     131.055 146.203 123.192  1.00  0.00     0.031 C 
ATOM     11  C   UNL     1     130.584 146.234 121.753  1.00  0.00    -0.027 C 
ATOM     12  C   UNL     1     129.388 145.739 121.332  1.00  0.00    -0.065 C 
ATOM     13  C   UNL     1     128.318 145.182 122.296  1.00  0.00    -0.008 C 
ATOM     14  C   UNL     1     127.759 143.849 121.701  1.00  0.00     0.014 C 
ATOM     15  C   UNL     1     127.388 143.936 120.210  1.00  0.00     0.033 C 
ATOM     16  C   UNL     1     128.561 144.433 119.356  1.00  0.00     0.118 C 
ATOM     17  C   UNL     1     129.055 145.798 119.855  1.00  0.00     0.063 C 
ATOM     18  C   UNL     1     127.159 146.206 122.427  1.00  0.00     0.016 C 
ATOM     19  C   UNL     1     131.376 143.748 125.731  1.00  0.00     0.012 C 
ENDROOT
BRANCH   1  20
ATOM     20  C   UNL     1     129.429 145.272 128.693  1.00  0.00     0.133 C 
ATOM     21  C   UNL     1     128.880 144.215 129.607  1.00  0.00     0.088 C 
ATOM     22  O   UNL     1     128.914 146.381 128.706  1.00  0.00    -0.300 OA
ENDBRANCH   1  20
BRANCH  16  23
ATOM     23  O   UNL     1     129.605 143.493 119.394  1.00  0.00    -0.393 OA
ATOM     24  H   UNL     1     130.440 143.997 119.583  1.00  0.00     0.210 HD
ENDBRANCH  16  23
TORSDOF 2
ENDMDL
MODEL 9
REMARK VINA RESULT:    -5.495      3.079      5.250
REMARK INTER + INTRA:          -6.142
REMARK INTER:                  -5.975
REMARK INTRA:                  -0.167
REMARK UNBOUND:                -0.165
REMARK SMILES CC(=O)[C@@H]1CC[C@H]2[C@H]3CC=C4C[C@@H](O)CC[C@@]4(C)[C@@H]3CC[C@]12C
REMARK SMILES IDX 4 1 5 2 6 3 7 4 22 5 21 6 20 7 19 8 8 9 9 10 10 11 11 12
REMARK SMILES IDX 17 13 16 14 15 15 13 16 12 17 18 18 23 19 2 20 1 21 3 22
REMARK SMILES IDX 14 23
REMARK H PARENT 14 24
REMARK Flexibility Score: inf
ROOT
ATOM      1  C   UNL     1     129.492 144.458 119.486  1.00  0.00     0.062 C 
ATOM      2  C   UNL     1     130.151 143.055 119.376  1.00  0.00     0.012 C 
ATOM      3  C   UNL     1     130.751 142.718 120.753  1.00  0.00     0.005 C 
ATOM      4  C   UNL     1     130.200 143.796 121.674  1.00  0.00    -0.001 C 
ATOM      5  C   UNL     1     130.058 145.059 120.813  1.00  0.00    -0.020 C 
ATOM      6  C   UNL     1     129.163 146.115 121.563  1.00  0.00     0.008 C 
ATOM      7  C   UNL     1     129.146 145.947 123.112  1.00  0.00     0.005 C 
ATOM      8  C   UNL     1     130.498 145.416 123.653  1.00  0.00     0.003 C 
ATOM      9  C   UNL     1     130.801 143.997 123.094  1.00  0.00     0.000 C 
ATOM     10  C   UNL     1     132.295 143.716 123.260  1.00  0.00     0.031 C 
ATOM     11  C   UNL     1     132.724 143.970 124.689  1.00  0.00    -0.027 C 
ATOM     12  C   UNL     1     132.055 144.780 125.554  1.00  0.00    -0.065 C 
ATOM     13  C   UNL     1     130.710 145.455 125.208  1.00  0.00    -0.008 C 
ATOM     14  C   UNL     1     130.766 146.944 125.683  1.00  0.00     0.014 C 
ATOM     15  C   UNL     1     131.299 147.125 127.115  1.00  0.00     0.033 C 
ATOM     16  C   UNL     1     132.673 146.469 127.302  1.00  0.00     0.118 C 
ATOM     17  C   UNL     1     132.614 144.977 126.949  1.00  0.00     0.063 C 
ATOM     18  C   UNL     1     129.560 144.727 125.954  1.00  0.00     0.016 C 
ATOM     19  C   UNL     1     131.435 145.706 120.452  1.00  0.00     0.012 C 
ENDROOT
BRANCH   1  20
ATOM     20  C   UNL     1     127.973 144.346 119.426  1.00  0.00     0.133 C 
ATOM     21  C   UNL     1     127.250 143.228 120.120  1.00  0.00     0.088 C 
ATOM     22  O   UNL     1     127.317 145.174 118.812  1.00  0.00    -0.300 OA
ENDBRANCH   1  20
BRANCH  16  23
ATOM     23  O   UNL     1     133.622 147.125 126.499  1.00  0.00    -0.393 OA
ATOM     24  H   UNL     1     133.559 148.093 126.712  1.00  0.00     0.210 HD
ENDBRANCH  16  23
TORSDOF 2
ENDMDL
