MODEL 1
REMARK VINA RESULT:    -4.070      0.000      0.000
REMARK INTER + INTRA:          -4.331
REMARK INTER:                  -4.308
REMARK INTRA:                  -0.023
REMARK UNBOUND:                -0.023
REMARK SMILES O=C([O-])c1cccnc1
REMARK SMILES IDX 4 1 5 2 9 3 6 4 8 5 7 6 2 7 1 8 3 9
REMARK H PARENT
REMARK Flexibility Score: inf
ROOT
ATOM      1  C   UNL     1      32.316  13.209  15.884  1.00  0.00     0.016 A 
ATOM      2  C   UNL     1      33.526  13.279  15.173  1.00  0.00     0.013 A 
ATOM      3  C   UNL     1      32.070  14.168  16.882  1.00  0.00     0.120 A 
ATOM      4  C   UNL     1      34.451  14.284  15.462  1.00  0.00     0.021 A 
ATOM      5  N   UNL     1      32.989  15.137  17.143  1.00  0.00    -0.264 NA
ATOM      6  C   UNL     1      34.162  15.214  16.462  1.00  0.00     0.111 A 
ENDROOT
BRANCH   1   7
ATOM      7  C   UNL     1      31.328  12.149  15.587  1.00  0.00     0.073 C 
ATOM      8  O   UNL     1      31.398  11.490  14.517  1.00  0.00    -0.545 OA
ATOM      9  O   UNL     1      30.307  11.867  16.489  1.00  0.00    -0.545 OA
ENDBRANCH   1   7
TORSDOF 1
ENDMDL
MODEL 2
REMARK VINA RESULT:    -3.986      2.562      3.539
REMARK INTER + INTRA:          -4.242
REMARK INTER:                  -4.218
REMARK INTRA:                  -0.024
REMARK UNBOUND:                -0.023
REMARK SMILES O=C([O-])c1cccnc1
REMARK SMILES IDX 4 1 5 2 9 3 6 4 8 5 7 6 2 7 1 8 3 9
REMARK H PARENT
REMARK Flexibility Score: inf
ROOT
ATOM      1  C   UNL     1      32.566  13.356  15.852  1.00  0.00     0.016 A 
ATOM      2  C   UNL     1      32.322  12.407  14.846  1.00  0.00     0.013 A 
ATOM      3  C   UNL     1      31.625  13.489  16.888  1.00  0.00     0.120 A 
ATOM      4  C   UNL     1      31.168  11.622  14.888  1.00  0.00     0.021 A 
ATOM      5  N   UNL     1      30.509  12.711  16.905  1.00  0.00    -0.264 NA
ATOM      6  C   UNL     1      30.264  11.790  15.937  1.00  0.00     0.111 A 
ENDROOT
BRANCH   1   7
ATOM      7  C   UNL     1      33.784  14.194  15.818  1.00  0.00     0.073 C 
ATOM      8  O   UNL     1      34.693  13.970  14.975  1.00  0.00    -0.545 OA
ATOM      9  O   UNL     1      33.942  15.242  16.718  1.00  0.00    -0.545 OA
ENDBRANCH   1   7
TORSDOF 1
ENDMDL
MODEL 3
REMARK VINA RESULT:    -3.976      7.217      8.429
REMARK INTER + INTRA:          -4.232
REMARK INTER:                  -4.216
REMARK INTRA:                  -0.016
REMARK UNBOUND:                -0.023
REMARK SMILES O=C([O-])c1cccnc1
REMARK SMILES IDX 4 1 5 2 9 3 6 4 8 5 7 6 2 7 1 8 3 9
REMARK H PARENT
REMARK Flexibility Score: inf
ROOT
ATOM      1  C   UNL     1      37.593  17.645  11.844  1.00  0.00     0.016 A 
ATOM      2  C   UNL     1      36.692  18.481  12.524  1.00  0.00     0.013 A 
ATOM      3  C   UNL     1      37.192  16.330  11.549  1.00  0.00     0.120 A 
ATOM      4  C   UNL     1      35.433  18.004  12.890  1.00  0.00     0.021 A 
ATOM      5  N   UNL     1      35.958  15.891  11.917  1.00  0.00    -0.264 NA
ATOM      6  C   UNL     1      35.080  16.691  12.574  1.00  0.00     0.111 A 
ENDROOT
BRANCH   1   7
ATOM      7  C   UNL     1      38.931  18.139  11.451  1.00  0.00     0.073 C 
ATOM      8  O   UNL     1      39.878  18.152  12.281  1.00  0.00    -0.545 OA
ATOM      9  O   UNL     1      39.160  18.597  10.158  1.00  0.00    -0.545 OA
ENDBRANCH   1   7
TORSDOF 1
ENDMDL
MODEL 4
REMARK VINA RESULT:    -3.963      8.595      9.673
REMARK INTER + INTRA:          -4.218
REMARK INTER:                  -4.200
REMARK INTRA:                  -0.018
REMARK UNBOUND:                -0.023
REMARK SMILES O=C([O-])c1cccnc1
REMARK SMILES IDX 4 1 5 2 9 3 6 4 8 5 7 6 2 7 1 8 3 9
REMARK H PARENT
REMARK Flexibility Score: inf
ROOT
ATOM      1  C   UNL     1      38.894  18.139  11.428  1.00  0.00     0.016 A 
ATOM      2  C   UNL     1      40.197  18.136  11.953  1.00  0.00     0.013 A 
ATOM      3  C   UNL     1      38.733  18.332  10.044  1.00  0.00     0.120 A 
ATOM      4  C   UNL     1      41.294  18.321  11.110  1.00  0.00     0.021 A 
ATOM      5  N   UNL     1      39.819  18.508   9.245  1.00  0.00    -0.264 NA
ATOM      6  C   UNL     1      41.083  18.507   9.743  1.00  0.00     0.111 A 
ENDROOT
BRANCH   1   7
ATOM      7  C   UNL     1      37.724  17.946  12.311  1.00  0.00     0.073 C 
ATOM      8  O   UNL     1      36.872  17.053  12.059  1.00  0.00    -0.545 OA
ATOM      9  O   UNL     1      37.549  18.749  13.433  1.00  0.00    -0.545 OA
ENDBRANCH   1   7
TORSDOF 1
ENDMDL
MODEL 5
REMARK VINA RESULT:    -3.947      8.320      9.298
REMARK INTER + INTRA:          -4.201
REMARK INTER:                  -4.180
REMARK INTRA:                  -0.021
REMARK UNBOUND:                -0.023
REMARK SMILES O=C([O-])c1cccnc1
REMARK SMILES IDX 4 1 5 2 9 3 6 4 8 5 7 6 2 7 1 8 3 9
REMARK H PARENT
REMARK Flexibility Score: inf
ROOT
ATOM      1  C   UNL     1      38.098  18.097  10.695  1.00  0.00     0.016 A 
ATOM      2  C   UNL     1      38.471  18.245  12.041  1.00  0.00     0.013 A 
ATOM      3  C   UNL     1      36.742  18.250  10.356  1.00  0.00     0.120 A 
ATOM      4  C   UNL     1      37.507  18.538  13.007  1.00  0.00     0.021 A 
ATOM      5  N   UNL     1      35.823  18.536  11.318  1.00  0.00    -0.264 NA
ATOM      6  C   UNL     1      36.173  18.682  12.622  1.00  0.00     0.111 A 
ENDROOT
BRANCH   1   7
ATOM      7  C   UNL     1      39.110  17.785   9.662  1.00  0.00     0.073 C 
ATOM      8  O   UNL     1      38.826  17.032   8.693  1.00  0.00    -0.545 OA
ATOM      9  O   UNL     1      40.390  18.322   9.747  1.00  0.00    -0.545 OA
ENDBRANCH   1   7
TORSDOF 1
ENDMDL
MODEL 6
REMARK VINA RESULT:    -3.914      7.085      7.901
REMARK INTER + INTRA:          -4.166
REMARK INTER:                  -4.149
REMARK INTRA:                  -0.017
REMARK UNBOUND:                -0.023
REMARK SMILES O=C([O-])c1cccnc1
REMARK SMILES IDX 4 1 5 2 9 3 6 4 8 5 7 6 2 7 1 8 3 9
REMARK H PARENT
REMARK Flexibility Score: inf
ROOT
ATOM      1  C   UNL     1      36.052  18.523  11.921  1.00  0.00     0.016 A 
ATOM      2  C   UNL     1      37.018  18.553  12.940  1.00  0.00     0.013 A 
ATOM      3  C   UNL     1      36.477  18.278  10.603  1.00  0.00     0.120 A 
ATOM      4  C   UNL     1      38.364  18.341  12.636  1.00  0.00     0.021 A 
ATOM      5  N   UNL     1      37.795  18.074  10.335  1.00  0.00    -0.264 NA
ATOM      6  C   UNL     1      38.737  18.101  11.313  1.00  0.00     0.111 A 
ENDROOT
BRANCH   1   7
ATOM      7  C   UNL     1      34.623  18.747  12.231  1.00  0.00     0.073 C 
ATOM      8  O   UNL     1      34.058  19.824  11.905  1.00  0.00    -0.545 OA
ATOM      9  O   UNL     1      33.883  17.768  12.886  1.00  0.00    -0.545 OA
ENDBRANCH   1   7
TORSDOF 1
ENDMDL
MODEL 7
REMARK VINA RESULT:    -3.911      8.748      9.819
REMARK INTER + INTRA:          -4.164
REMARK INTER:                  -4.141
REMARK INTRA:                  -0.023
REMARK UNBOUND:                -0.023
REMARK SMILES O=C([O-])c1cccnc1
REMARK SMILES IDX 4 1 5 2 9 3 6 4 8 5 7 6 2 7 1 8 3 9
REMARK H PARENT
REMARK Flexibility Score: inf
ROOT
ATOM      1  C   UNL     1      38.062  18.430  10.628  1.00  0.00     0.016 A 
ATOM      2  C   UNL     1      38.903  18.732   9.544  1.00  0.00     0.013 A 
ATOM      3  C   UNL     1      36.683  18.301  10.388  1.00  0.00     0.120 A 
ATOM      4  C   UNL     1      38.368  18.899   8.266  1.00  0.00     0.021 A 
ATOM      5  N   UNL     1      36.187  18.468   9.132  1.00  0.00    -0.264 NA
ATOM      6  C   UNL     1      36.991  18.761   8.077  1.00  0.00     0.111 A 
ENDROOT
BRANCH   1   7
ATOM      7  C   UNL     1      38.618  18.252  11.987  1.00  0.00     0.073 C 
ATOM      8  O   UNL     1      37.869  18.311  12.998  1.00  0.00    -0.545 OA
ATOM      9  O   UNL     1      39.977  18.017  12.166  1.00  0.00    -0.545 OA
ENDBRANCH   1   7
TORSDOF 1
ENDMDL
MODEL 8
REMARK VINA RESULT:    -3.906      8.431      9.241
REMARK INTER + INTRA:          -4.158
REMARK INTER:                  -4.139
REMARK INTRA:                  -0.019
REMARK UNBOUND:                -0.023
REMARK SMILES O=C([O-])c1cccnc1
REMARK SMILES IDX 4 1 5 2 9 3 6 4 8 5 7 6 2 7 1 8 3 9
REMARK H PARENT
REMARK Flexibility Score: inf
ROOT
ATOM      1  C   UNL     1      37.673  18.188  10.336  1.00  0.00     0.016 A 
ATOM      2  C   UNL     1      36.377  18.406  10.834  1.00  0.00     0.013 A 
ATOM      3  C   UNL     1      38.746  18.184  11.245  1.00  0.00     0.120 A 
ATOM      4  C   UNL     1      36.176  18.610  12.200  1.00  0.00     0.021 A 
ATOM      5  N   UNL     1      38.521  18.385  12.572  1.00  0.00    -0.264 NA
ATOM      6  C   UNL     1      37.273  18.596  13.063  1.00  0.00     0.111 A 
ENDROOT
BRANCH   1   7
ATOM      7  C   UNL     1      37.899  17.970   8.891  1.00  0.00     0.073 C 
ATOM      8  O   UNL     1      38.549  16.970   8.488  1.00  0.00    -0.545 OA
ATOM      9  O   UNL     1      37.395  18.869   7.957  1.00  0.00    -0.545 OA
ENDBRANCH   1   7
TORSDOF 1
ENDMDL
MODEL 9
REMARK VINA RESULT:    -3.898      7.734      8.495
REMARK INTER + INTRA:          -4.150
REMARK INTER:                  -4.133
REMARK INTRA:                  -0.016
REMARK UNBOUND:                -0.023
REMARK SMILES O=C([O-])c1cccnc1
REMARK SMILES IDX 4 1 5 2 9 3 6 4 8 5 7 6 2 7 1 8 3 9
REMARK H PARENT
REMARK Flexibility Score: inf
ROOT
ATOM      1  C   UNL     1      36.480  18.364  11.397  1.00  0.00     0.016 A 
ATOM      2  C   UNL     1      35.604  18.984  12.303  1.00  0.00     0.013 A 
ATOM      3  C   UNL     1      36.316  18.625  10.025  1.00  0.00     0.120 A 
ATOM      4  C   UNL     1      34.602  19.837  11.838  1.00  0.00     0.021 A 
ATOM      5  N   UNL     1      35.332  19.461   9.599  1.00  0.00    -0.264 NA
ATOM      6  C   UNL     1      34.480  20.066  10.467  1.00  0.00     0.111 A 
ENDROOT
BRANCH   1   7
ATOM      7  C   UNL     1      37.545  17.458  11.878  1.00  0.00     0.073 C 
ATOM      8  O   UNL     1      37.412  16.208  11.788  1.00  0.00    -0.545 OA
ATOM      9  O   UNL     1      38.709  17.974  12.436  1.00  0.00    -0.545 OA
ENDBRANCH   1   7
TORSDOF 1
ENDMDL
