MODEL 1
REMARK VINA RESULT:    -4.390      0.000      0.000
REMARK INTER + INTRA:          -5.634
REMARK INTER:                  -5.416
REMARK INTRA:                  -0.217
REMARK UNBOUND:                -0.217
REMARK SMILES C=CC[C@@H](C)C(=O)CC
REMARK SMILES IDX 4 1 5 2 6 3 7 4 8 5 9 6 3 7 2 8 1 9
REMARK H PARENT
REMARK Flexibility Score: inf
ROOT
ATOM      1  C   UNL     1      18.984   3.113  18.479  1.00  0.00     0.057 C 
ATOM      2  C   UNL     1      17.537   3.216  17.974  1.00  0.00     0.016 C 
ENDROOT
BRANCH   1   3
ATOM      3  C   UNL     1      19.730   4.408  18.224  1.00  0.00     0.135 C 
ATOM      4  O   UNL     1      20.950   4.416  18.305  1.00  0.00    -0.299 OA
BRANCH   3   5
ATOM      5  C   UNL     1      19.016   5.683  17.849  1.00  0.00     0.072 C 
ATOM      6  C   UNL     1      18.938   6.634  19.039  1.00  0.00     0.012 C 
ENDBRANCH   3   5
ENDBRANCH   1   3
BRANCH   1   7
ATOM      7  C   UNL     1      19.050   2.731  19.973  1.00  0.00     0.038 C 
BRANCH   7   8
ATOM      8  C   UNL     1      19.424   1.286  20.177  1.00  0.00    -0.034 C 
ATOM      9  C   UNL     1      19.431   0.725  21.390  1.00  0.00     0.004 C 
ENDBRANCH   7   8
ENDBRANCH   1   7
TORSDOF 4
ENDMDL
MODEL 2
REMARK VINA RESULT:    -4.389      1.289      4.175
REMARK INTER + INTRA:          -5.632
REMARK INTER:                  -5.466
REMARK INTRA:                  -0.166
REMARK UNBOUND:                -0.217
REMARK SMILES C=CC[C@@H](C)C(=O)CC
REMARK SMILES IDX 4 1 5 2 6 3 7 4 8 5 9 6 3 7 2 8 1 9
REMARK H PARENT
REMARK Flexibility Score: inf
ROOT
ATOM      1  C   UNL     1      18.566   3.624  18.816  1.00  0.00     0.057 C 
ATOM      2  C   UNL     1      17.583   3.370  17.664  1.00  0.00     0.016 C 
ENDROOT
BRANCH   1   3
ATOM      3  C   UNL     1      19.096   2.314  19.364  1.00  0.00     0.135 C 
ATOM      4  O   UNL     1      19.243   1.369  18.602  1.00  0.00    -0.299 OA
BRANCH   3   5
ATOM      5  C   UNL     1      19.472   2.146  20.815  1.00  0.00     0.072 C 
ATOM      6  C   UNL     1      19.483   0.672  21.208  1.00  0.00     0.012 C 
ENDBRANCH   3   5
ENDBRANCH   1   3
BRANCH   1   7
ATOM      7  C   UNL     1      19.728   4.548  18.392  1.00  0.00     0.038 C 
BRANCH   7   8
ATOM      8  C   UNL     1      19.252   5.923  18.003  1.00  0.00    -0.034 C 
ATOM      9  C   UNL     1      18.772   6.783  18.906  1.00  0.00     0.004 C 
ENDBRANCH   7   8
ENDBRANCH   1   7
TORSDOF 4
ENDMDL
MODEL 3
REMARK VINA RESULT:    -4.238      2.012      3.611
REMARK INTER + INTRA:          -5.446
REMARK INTER:                  -5.297
REMARK INTRA:                  -0.149
REMARK UNBOUND:                -0.217
REMARK SMILES C=CC[C@@H](C)C(=O)CC
REMARK SMILES IDX 4 1 5 2 6 3 7 4 8 5 9 6 3 7 2 8 1 9
REMARK H PARENT
REMARK Flexibility Score: inf
ROOT
ATOM      1  C   UNL     1      19.145   1.058  21.302  1.00  0.00     0.057 C 
ATOM      2  C   UNL     1      19.745   1.867  22.461  1.00  0.00     0.016 C 
ENDROOT
BRANCH   1   3
ATOM      3  C   UNL     1      19.350   1.781  19.986  1.00  0.00     0.135 C 
ATOM      4  O   UNL     1      19.332   1.138  18.946  1.00  0.00    -0.299 OA
BRANCH   3   5
ATOM      5  C   UNL     1      19.550   3.275  19.915  1.00  0.00     0.072 C 
ATOM      6  C   UNL     1      19.805   3.723  18.479  1.00  0.00     0.012 C 
ENDBRANCH   3   5
ENDBRANCH   1   3
BRANCH   1   7
ATOM      7  C   UNL     1      19.722  -0.371  21.234  1.00  0.00     0.038 C 
BRANCH   7   8
ATOM      8  C   UNL     1      19.767  -1.034  22.587  1.00  0.00    -0.034 C 
ATOM      9  C   UNL     1      20.141  -2.308  22.734  1.00  0.00     0.004 C 
ENDBRANCH   7   8
ENDBRANCH   1   7
TORSDOF 4
ENDMDL
MODEL 4
REMARK VINA RESULT:    -4.224      2.739      5.867
REMARK INTER + INTRA:          -5.429
REMARK INTER:                  -5.278
REMARK INTRA:                  -0.151
REMARK UNBOUND:                -0.217
REMARK SMILES C=CC[C@@H](C)C(=O)CC
REMARK SMILES IDX 4 1 5 2 6 3 7 4 8 5 9 6 3 7 2 8 1 9
REMARK H PARENT
REMARK Flexibility Score: inf
ROOT
ATOM      1  C   UNL     1      19.669   0.860  21.320  1.00  0.00     0.057 C 
ATOM      2  C   UNL     1      18.726   1.602  22.279  1.00  0.00     0.016 C 
ENDROOT
BRANCH   1   3
ATOM      3  C   UNL     1      19.591  -0.636  21.548  1.00  0.00     0.135 C 
ATOM      4  O   UNL     1      19.340  -1.369  20.602  1.00  0.00    -0.299 OA
BRANCH   3   5
ATOM      5  C   UNL     1      19.840  -1.253  22.902  1.00  0.00     0.072 C 
ATOM      6  C   UNL     1      20.282  -2.707  22.765  1.00  0.00     0.012 C 
ENDBRANCH   3   5
ENDBRANCH   1   3
BRANCH   1   7
ATOM      7  C   UNL     1      19.377   1.202  19.843  1.00  0.00     0.038 C 
BRANCH   7   8
ATOM      8  C   UNL     1      19.279   2.687  19.609  1.00  0.00    -0.034 C 
ATOM      9  C   UNL     1      18.286   3.222  18.892  1.00  0.00     0.004 C 
ENDBRANCH   7   8
ENDBRANCH   1   7
TORSDOF 4
ENDMDL
MODEL 5
REMARK VINA RESULT:    -4.034      1.458      4.319
REMARK INTER + INTRA:          -5.195
REMARK INTER:                  -5.024
REMARK INTRA:                  -0.171
REMARK UNBOUND:                -0.217
REMARK SMILES C=CC[C@@H](C)C(=O)CC
REMARK SMILES IDX 4 1 5 2 6 3 7 4 8 5 9 6 3 7 2 8 1 9
REMARK H PARENT
REMARK Flexibility Score: inf
ROOT
ATOM      1  C   UNL     1      19.033   3.101  19.318  1.00  0.00     0.057 C 
ATOM      2  C   UNL     1      18.567   2.112  18.239  1.00  0.00     0.016 C 
ENDROOT
BRANCH   1   3
ATOM      3  C   UNL     1      19.525   2.358  20.544  1.00  0.00     0.135 C 
ATOM      4  O   UNL     1      19.935   2.999  21.502  1.00  0.00    -0.299 OA
BRANCH   3   5
ATOM      5  C   UNL     1      19.501   0.852  20.632  1.00  0.00     0.072 C 
ATOM      6  C   UNL     1      19.580   0.389  22.083  1.00  0.00     0.012 C 
ENDBRANCH   3   5
ENDBRANCH   1   3
BRANCH   1   7
ATOM      7  C   UNL     1      20.120   4.061  18.791  1.00  0.00     0.038 C 
BRANCH   7   8
ATOM      8  C   UNL     1      19.533   5.295  18.156  1.00  0.00    -0.034 C 
ATOM      9  C   UNL     1      19.049   6.301  18.889  1.00  0.00     0.004 C 
ENDBRANCH   7   8
ENDBRANCH   1   7
TORSDOF 4
ENDMDL
MODEL 6
REMARK VINA RESULT:    -3.937      1.567      1.967
REMARK INTER + INTRA:          -5.075
REMARK INTER:                  -4.830
REMARK INTRA:                  -0.246
REMARK UNBOUND:                -0.217
REMARK SMILES C=CC[C@@H](C)C(=O)CC
REMARK SMILES IDX 4 1 5 2 6 3 7 4 8 5 9 6 3 7 2 8 1 9
REMARK H PARENT
REMARK Flexibility Score: inf
ROOT
ATOM      1  C   UNL     1      19.516   3.979  18.855  1.00  0.00     0.057 C 
ATOM      2  C   UNL     1      20.902   4.328  18.295  1.00  0.00     0.016 C 
ENDROOT
BRANCH   1   3
ATOM      3  C   UNL     1      18.432   4.709  18.087  1.00  0.00     0.135 C 
ATOM      4  O   UNL     1      17.411   4.108  17.784  1.00  0.00    -0.299 OA
BRANCH   3   5
ATOM      5  C   UNL     1      18.562   6.163  17.705  1.00  0.00     0.072 C 
ATOM      6  C   UNL     1      18.342   7.066  18.914  1.00  0.00     0.012 C 
ENDBRANCH   3   5
ENDBRANCH   1   3
BRANCH   1   7
ATOM      7  C   UNL     1      19.256   2.458  18.852  1.00  0.00     0.038 C 
BRANCH   7   8
ATOM      8  C   UNL     1      19.319   1.865  20.235  1.00  0.00    -0.034 C 
ATOM      9  C   UNL     1      19.630   2.603  21.304  1.00  0.00     0.004 C 
ENDBRANCH   7   8
ENDBRANCH   1   7
TORSDOF 4
ENDMDL
MODEL 7
REMARK VINA RESULT:    -3.908      1.979      3.336
REMARK INTER + INTRA:          -5.040
REMARK INTER:                  -4.757
REMARK INTRA:                  -0.282
REMARK UNBOUND:                -0.217
REMARK SMILES C=CC[C@@H](C)C(=O)CC
REMARK SMILES IDX 4 1 5 2 6 3 7 4 8 5 9 6 3 7 2 8 1 9
REMARK H PARENT
REMARK Flexibility Score: inf
ROOT
ATOM      1  C   UNL     1      19.646   1.150  20.920  1.00  0.00     0.057 C 
ATOM      2  C   UNL     1      19.489  -0.366  20.729  1.00  0.00     0.016 C 
ENDROOT
BRANCH   1   3
ATOM      3  C   UNL     1      19.323   1.885  19.634  1.00  0.00     0.135 C 
ATOM      4  O   UNL     1      19.125   1.239  18.615  1.00  0.00    -0.299 OA
BRANCH   3   5
ATOM      5  C   UNL     1      19.212   3.388  19.577  1.00  0.00     0.072 C 
ATOM      6  C   UNL     1      19.989   3.947  18.389  1.00  0.00     0.012 C 
ENDBRANCH   3   5
ENDBRANCH   1   3
BRANCH   1   7
ATOM      7  C   UNL     1      18.780   1.679  22.083  1.00  0.00     0.038 C 
BRANCH   7   8
ATOM      8  C   UNL     1      19.610   2.119  23.260  1.00  0.00    -0.034 C 
ATOM      9  C   UNL     1      20.270   3.281  23.260  1.00  0.00     0.004 C 
ENDBRANCH   7   8
ENDBRANCH   1   7
TORSDOF 4
ENDMDL
MODEL 8
REMARK VINA RESULT:    -3.858      2.087      3.585
REMARK INTER + INTRA:          -4.977
REMARK INTER:                  -4.785
REMARK INTRA:                  -0.192
REMARK UNBOUND:                -0.217
REMARK SMILES C=CC[C@@H](C)C(=O)CC
REMARK SMILES IDX 4 1 5 2 6 3 7 4 8 5 9 6 3 7 2 8 1 9
REMARK H PARENT
REMARK Flexibility Score: inf
ROOT
ATOM      1  C   UNL     1      19.580   1.160  21.289  1.00  0.00     0.057 C 
ATOM      2  C   UNL     1      19.470  -0.272  20.743  1.00  0.00     0.016 C 
ENDROOT
BRANCH   1   3
ATOM      3  C   UNL     1      19.403   2.170  20.173  1.00  0.00     0.135 C 
ATOM      4  O   UNL     1      19.543   3.360  20.422  1.00  0.00    -0.299 OA
BRANCH   3   5
ATOM      5  C   UNL     1      19.086   1.754  18.759  1.00  0.00     0.072 C 
ATOM      6  C   UNL     1      18.320   2.852  18.027  1.00  0.00     0.012 C 
ENDBRANCH   3   5
ENDBRANCH   1   3
BRANCH   1   7
ATOM      7  C   UNL     1      18.572   1.423  22.428  1.00  0.00     0.038 C 
BRANCH   7   8
ATOM      8  C   UNL     1      18.012   0.147  23.001  1.00  0.00    -0.034 C 
ATOM      9  C   UNL     1      16.935   0.144  23.792  1.00  0.00     0.004 C 
ENDBRANCH   7   8
ENDBRANCH   1   7
TORSDOF 4
ENDMDL
MODEL 9
REMARK VINA RESULT:    -3.802      2.977      4.727
REMARK INTER + INTRA:          -4.908
REMARK INTER:                  -4.666
REMARK INTRA:                  -0.241
REMARK UNBOUND:                -0.217
REMARK SMILES C=CC[C@@H](C)C(=O)CC
REMARK SMILES IDX 4 1 5 2 6 3 7 4 8 5 9 6 3 7 2 8 1 9
REMARK H PARENT
REMARK Flexibility Score: inf
ROOT
ATOM      1  C   UNL     1      19.220   1.681  21.632  1.00  0.00     0.057 C 
ATOM      2  C   UNL     1      19.556   0.232  21.250  1.00  0.00     0.016 C 
ENDROOT
BRANCH   1   3
ATOM      3  C   UNL     1      19.803   2.023  22.988  1.00  0.00     0.135 C 
ATOM      4  O   UNL     1      20.062   1.118  23.769  1.00  0.00    -0.299 OA
BRANCH   3   5
ATOM      5  C   UNL     1      20.099   3.444  23.398  1.00  0.00     0.072 C 
ATOM      6  C   UNL     1      21.508   3.566  23.968  1.00  0.00     0.012 C 
ENDBRANCH   3   5
ENDBRANCH   1   3
BRANCH   1   7
ATOM      7  C   UNL     1      19.697   2.687  20.563  1.00  0.00     0.038 C 
BRANCH   7   8
ATOM      8  C   UNL     1      18.619   3.014  19.564  1.00  0.00    -0.034 C 
ATOM      9  C   UNL     1      18.653   2.547  18.313  1.00  0.00     0.004 C 
ENDBRANCH   7   8
ENDBRANCH   1   7
TORSDOF 4
ENDMDL
