MODEL 1
REMARK VINA RESULT:    11.843      0.000      0.000
REMARK INTER + INTRA:          16.723
REMARK INTER:                  16.343
REMARK INTRA:                   0.379
REMARK UNBOUND:                 0.379
REMARK SMILES CC[C@@H](CC[C@@H](C)[C@@H]1CC[C@H]2[C@H]3CC=C4C[C@@H](O)CC[C@@]4(C)[C@@H]3CC[C@]21C)C(C)C
REMARK SMILES IDX 5 1 4 2 3 3 2 4 1 5 28 6 29 7 30 8 6 9 7 10 8 11 9 12 26 13
REMARK SMILES IDX 10 14 11 15 25 16 27 17 12 18 24 19 23 20 13 21 21 22 14 23
REMARK SMILES IDX 15 24 20 25 22 26 16 27 19 28 17 29 18 30
REMARK H PARENT 18 31
REMARK Flexibility Score: inf
ROOT
ATOM      1  C   UNL     1     -24.842 -22.973 -10.751  1.00  0.00     0.004 C 
ENDROOT
BRANCH   1   2
ATOM      2  C   UNL     1     -26.100 -22.416 -11.464  1.00  0.00     0.004 C 
BRANCH   2   3
ATOM      3  C   UNL     1     -26.869 -23.475 -12.305  1.00  0.00    -0.009 C 
BRANCH   3   4
ATOM      4  C   UNL     1     -26.849 -23.209 -13.845  1.00  0.00     0.000 C 
ATOM      5  C   UNL     1     -25.482 -23.330 -14.531  1.00  0.00     0.004 C 
ENDBRANCH   3   4
BRANCH   3   6
ATOM      6  C   UNL     1     -28.295 -23.738 -11.719  1.00  0.00    -0.014 C 
ATOM      7  C   UNL     1     -28.333 -24.817 -10.627  1.00  0.00     0.007 C 
ATOM      8  C   UNL     1     -28.965 -22.449 -11.215  1.00  0.00     0.007 C 
ENDBRANCH   3   6
ENDBRANCH   2   3
ENDBRANCH   1   2
BRANCH   1   9
ATOM      9  C   UNL     1     -23.514 -22.715 -11.519  1.00  0.00    -0.011 C 
ATOM     10  C   UNL     1     -22.920 -24.038 -12.050  1.00  0.00     0.008 C 
BRANCH   9  11
ATOM     11  C   UNL     1     -23.718 -21.620 -12.634  1.00  0.00    -0.002 C 
ATOM     12  C   UNL     1     -22.478 -21.464 -13.527  1.00  0.00     0.005 C 
ATOM     13  C   UNL     1     -24.091 -20.164 -12.166  1.00  0.00    -0.026 C 
ATOM     14  C   UNL     1     -21.769 -20.190 -13.094  1.00  0.00     0.005 C 
ATOM     15  C   UNL     1     -22.760 -19.356 -12.258  1.00  0.00    -0.001 C 
ATOM     16  C   UNL     1     -25.203 -19.551 -13.098  1.00  0.00     0.007 C 
ATOM     17  C   UNL     1     -24.661 -20.094 -10.723  1.00  0.00     0.012 C 
ATOM     18  C   UNL     1     -22.983 -17.909 -12.781  1.00  0.00     0.000 C 
ATOM     19  C   UNL     1     -24.675 -18.969 -14.416  1.00  0.00     0.005 C 
ATOM     20  C   UNL     1     -23.587 -17.873 -14.209  1.00  0.00     0.003 C 
ATOM     21  C   UNL     1     -21.711 -17.053 -12.733  1.00  0.00     0.031 C 
ATOM     22  C   UNL     1     -24.019 -16.407 -14.597  1.00  0.00    -0.008 C 
ATOM     23  C   UNL     1     -21.933 -15.689 -13.333  1.00  0.00    -0.027 C 
ATOM     24  C   UNL     1     -22.896 -15.413 -14.246  1.00  0.00    -0.065 C 
ATOM     25  C   UNL     1     -24.275 -16.348 -16.139  1.00  0.00     0.014 C 
ATOM     26  C   UNL     1     -25.304 -15.976 -13.838  1.00  0.00     0.016 C 
ATOM     27  C   UNL     1     -22.956 -14.017 -14.834  1.00  0.00     0.063 C 
ATOM     28  C   UNL     1     -24.384 -14.921 -16.703  1.00  0.00     0.033 C 
ATOM     29  C   UNL     1     -23.156 -14.073 -16.353  1.00  0.00     0.118 C 
BRANCH  29  30
ATOM     30  O   UNL     1     -22.018 -14.611 -16.977  1.00  0.00    -0.393 OA
ATOM     31  H   UNL     1     -22.232 -15.554 -17.202  1.00  0.00     0.210 HD
ENDBRANCH  29  30
ENDBRANCH   9  11
ENDBRANCH   1   9
TORSDOF 7
ENDMDL
MODEL 2
REMARK VINA RESULT:    13.010      0.618      1.907
REMARK INTER + INTRA:          18.334
REMARK INTER:                  18.792
REMARK INTRA:                  -0.458
REMARK UNBOUND:                 0.379
REMARK SMILES CC[C@@H](CC[C@@H](C)[C@@H]1CC[C@H]2[C@H]3CC=C4C[C@@H](O)CC[C@@]4(C)[C@@H]3CC[C@]21C)C(C)C
REMARK SMILES IDX 5 1 4 2 3 3 2 4 1 5 28 6 29 7 30 8 6 9 7 10 8 11 9 12 26 13
REMARK SMILES IDX 10 14 11 15 25 16 27 17 12 18 24 19 23 20 13 21 21 22 14 23
REMARK SMILES IDX 15 24 20 25 22 26 16 27 19 28 17 29 18 30
REMARK H PARENT 18 31
REMARK Flexibility Score: inf
ROOT
ATOM      1  C   UNL     1     -24.416 -23.167 -10.980  1.00  0.00     0.004 C 
ENDROOT
BRANCH   1   2
ATOM      2  C   UNL     1     -25.367 -23.922 -11.943  1.00  0.00     0.004 C 
BRANCH   2   3
ATOM      3  C   UNL     1     -26.198 -22.988 -12.868  1.00  0.00    -0.009 C 
BRANCH   3   4
ATOM      4  C   UNL     1     -27.727 -22.956 -12.542  1.00  0.00     0.000 C 
ATOM      5  C   UNL     1     -28.151 -23.645 -11.239  1.00  0.00     0.004 C 
ENDBRANCH   3   4
BRANCH   3   6
ATOM      6  C   UNL     1     -25.871 -23.247 -14.376  1.00  0.00    -0.014 C 
ATOM      7  C   UNL     1     -25.401 -21.999 -15.137  1.00  0.00     0.007 C 
ATOM      8  C   UNL     1     -24.863 -24.394 -14.565  1.00  0.00     0.007 C 
ENDBRANCH   3   6
ENDBRANCH   2   3
ENDBRANCH   1   2
BRANCH   1   9
ATOM      9  C   UNL     1     -23.066 -22.744 -11.626  1.00  0.00    -0.011 C 
ATOM     10  C   UNL     1     -22.301 -23.977 -12.157  1.00  0.00     0.008 C 
BRANCH   9  11
ATOM     11  C   UNL     1     -23.293 -21.626 -12.713  1.00  0.00    -0.002 C 
ATOM     12  C   UNL     1     -22.017 -21.326 -13.513  1.00  0.00     0.005 C 
ATOM     13  C   UNL     1     -23.824 -20.227 -12.220  1.00  0.00    -0.026 C 
ATOM     14  C   UNL     1     -21.453 -20.015 -12.988  1.00  0.00     0.005 C 
ATOM     15  C   UNL     1     -22.566 -19.304 -12.192  1.00  0.00    -0.001 C 
ATOM     16  C   UNL     1     -24.923 -19.674 -13.203  1.00  0.00     0.007 C 
ATOM     17  C   UNL     1     -24.490 -20.267 -10.817  1.00  0.00     0.012 C 
ATOM     18  C   UNL     1     -22.882 -17.862 -12.677  1.00  0.00     0.000 C 
ATOM     19  C   UNL     1     -24.365 -18.995 -14.460  1.00  0.00     0.005 C 
ATOM     20  C   UNL     1     -23.394 -17.818 -14.140  1.00  0.00     0.003 C 
ATOM     21  C   UNL     1     -21.696 -16.902 -12.512  1.00  0.00     0.031 C 
ATOM     22  C   UNL     1     -23.928 -16.380 -14.504  1.00  0.00    -0.008 C 
ATOM     23  C   UNL     1     -21.999 -15.539 -13.075  1.00  0.00    -0.027 C 
ATOM     24  C   UNL     1     -22.921 -15.309 -14.041  1.00  0.00    -0.065 C 
ATOM     25  C   UNL     1     -24.088 -16.279 -16.056  1.00  0.00     0.014 C 
ATOM     26  C   UNL     1     -25.292 -16.093 -13.819  1.00  0.00     0.016 C 
ATOM     27  C   UNL     1     -23.067 -13.900 -14.581  1.00  0.00     0.063 C 
ATOM     28  C   UNL     1     -24.286 -14.844 -16.575  1.00  0.00     0.033 C 
ATOM     29  C   UNL     1     -23.163 -13.910 -16.112  1.00  0.00     0.118 C 
BRANCH  29  30
ATOM     30  O   UNL     1     -21.944 -14.321 -16.676  1.00  0.00    -0.393 OA
ATOM     31  H   UNL     1     -21.501 -13.506 -17.029  1.00  0.00     0.210 HD
ENDBRANCH  29  30
ENDBRANCH   9  11
ENDBRANCH   1   9
TORSDOF 7
ENDMDL
MODEL 3
REMARK VINA RESULT:    13.708      2.917      8.362
REMARK INTER + INTRA:          19.296
REMARK INTER:                  20.195
REMARK INTRA:                  -0.899
REMARK UNBOUND:                 0.379
REMARK SMILES CC[C@@H](CC[C@@H](C)[C@@H]1CC[C@H]2[C@H]3CC=C4C[C@@H](O)CC[C@@]4(C)[C@@H]3CC[C@]21C)C(C)C
REMARK SMILES IDX 5 1 4 2 3 3 2 4 1 5 28 6 29 7 30 8 6 9 7 10 8 11 9 12 26 13
REMARK SMILES IDX 10 14 11 15 25 16 27 17 12 18 24 19 23 20 13 21 21 22 14 23
REMARK SMILES IDX 15 24 20 25 22 26 16 27 19 28 17 29 18 30
REMARK H PARENT 18 31
REMARK Flexibility Score: inf
ROOT
ATOM      1  C   UNL     1     -21.489 -17.471 -12.640  1.00  0.00     0.004 C 
ENDROOT
BRANCH   1   2
ATOM      2  C   UNL     1     -21.166 -16.500 -13.805  1.00  0.00     0.004 C 
BRANCH   2   3
ATOM      3  C   UNL     1     -22.101 -15.258 -13.867  1.00  0.00    -0.009 C 
BRANCH   3   4
ATOM      4  C   UNL     1     -22.694 -14.972 -15.284  1.00  0.00     0.000 C 
ATOM      5  C   UNL     1     -24.220 -15.067 -15.407  1.00  0.00     0.004 C 
ENDBRANCH   3   4
BRANCH   3   6
ATOM      6  C   UNL     1     -21.437 -14.015 -13.187  1.00  0.00    -0.014 C 
ATOM      7  C   UNL     1     -21.755 -13.876 -11.692  1.00  0.00     0.007 C 
ATOM      8  C   UNL     1     -19.917 -13.969 -13.414  1.00  0.00     0.007 C 
ENDBRANCH   3   6
ENDBRANCH   2   3
ENDBRANCH   1   2
BRANCH   1   9
ATOM      9  C   UNL     1     -21.470 -18.973 -13.045  1.00  0.00    -0.011 C 
ATOM     10  C   UNL     1     -20.036 -19.543 -12.973  1.00  0.00     0.008 C 
BRANCH   9  11
ATOM     11  C   UNL     1     -22.519 -19.791 -12.201  1.00  0.00    -0.002 C 
ATOM     12  C   UNL     1     -22.134 -21.273 -12.077  1.00  0.00     0.005 C 
ATOM     13  C   UNL     1     -24.016 -19.780 -12.691  1.00  0.00    -0.026 C 
ATOM     14  C   UNL     1     -23.026 -22.051 -13.032  1.00  0.00     0.005 C 
ATOM     15  C   UNL     1     -24.214 -21.147 -13.416  1.00  0.00    -0.001 C 
ATOM     16  C   UNL     1     -24.997 -19.629 -11.468  1.00  0.00     0.007 C 
ATOM     17  C   UNL     1     -24.354 -18.609 -13.654  1.00  0.00     0.012 C 
ATOM     18  C   UNL     1     -25.611 -21.768 -13.134  1.00  0.00     0.000 C 
ATOM     19  C   UNL     1     -25.276 -20.935 -10.714  1.00  0.00     0.005 C 
ATOM     20  C   UNL     1     -25.846 -22.061 -11.629  1.00  0.00     0.003 C 
ATOM     21  C   UNL     1     -25.882 -23.033 -13.958  1.00  0.00     0.031 C 
ATOM     22  C   UNL     1     -27.348 -22.456 -11.363  1.00  0.00    -0.008 C 
ATOM     23  C   UNL     1     -27.200 -23.664 -13.596  1.00  0.00    -0.027 C 
ATOM     24  C   UNL     1     -27.814 -23.497 -12.399  1.00  0.00    -0.065 C 
ATOM     25  C   UNL     1     -27.460 -23.086  -9.936  1.00  0.00     0.014 C 
ATOM     26  C   UNL     1     -28.285 -21.220 -11.462  1.00  0.00     0.016 C 
ATOM     27  C   UNL     1     -29.097 -24.258 -12.131  1.00  0.00     0.063 C 
ATOM     28  C   UNL     1     -28.792 -23.809  -9.670  1.00  0.00     0.033 C 
ATOM     29  C   UNL     1     -29.081 -24.879 -10.729  1.00  0.00     0.118 C 
BRANCH  29  30
ATOM     30  O   UNL     1     -28.110 -25.892 -10.653  1.00  0.00    -0.393 OA
ATOM     31  H   UNL     1     -27.383 -25.642 -11.281  1.00  0.00     0.210 HD
ENDBRANCH  29  30
ENDBRANCH   9  11
ENDBRANCH   1   9
TORSDOF 7
ENDMDL
MODEL 4
REMARK VINA RESULT:    14.402      2.432      7.860
REMARK INTER + INTRA:          20.254
REMARK INTER:                  19.212
REMARK INTRA:                   1.042
REMARK UNBOUND:                 0.379
REMARK SMILES CC[C@@H](CC[C@@H](C)[C@@H]1CC[C@H]2[C@H]3CC=C4C[C@@H](O)CC[C@@]4(C)[C@@H]3CC[C@]21C)C(C)C
REMARK SMILES IDX 5 1 4 2 3 3 2 4 1 5 28 6 29 7 30 8 6 9 7 10 8 11 9 12 26 13
REMARK SMILES IDX 10 14 11 15 25 16 27 17 12 18 24 19 23 20 13 21 21 22 14 23
REMARK SMILES IDX 15 24 20 25 22 26 16 27 19 28 17 29 18 30
REMARK H PARENT 18 31
REMARK Flexibility Score: inf
ROOT
ATOM      1  C   UNL     1     -21.292 -15.409 -15.056  1.00  0.00     0.004 C 
ENDROOT
BRANCH   1   2
ATOM      2  C   UNL     1     -21.960 -14.022 -14.880  1.00  0.00     0.004 C 
BRANCH   2   3
ATOM      3  C   UNL     1     -23.453 -13.982 -15.316  1.00  0.00    -0.009 C 
BRANCH   3   4
ATOM      4  C   UNL     1     -24.466 -13.875 -14.130  1.00  0.00     0.000 C 
ATOM      5  C   UNL     1     -25.948 -14.013 -14.498  1.00  0.00     0.004 C 
ENDBRANCH   3   4
BRANCH   3   6
ATOM      6  C   UNL     1     -23.777 -15.124 -16.335  1.00  0.00    -0.014 C 
ATOM      7  C   UNL     1     -25.141 -15.792 -16.113  1.00  0.00     0.007 C 
ATOM      8  C   UNL     1     -23.646 -14.658 -17.795  1.00  0.00     0.007 C 
ENDBRANCH   3   6
ENDBRANCH   2   3
ENDBRANCH   1   2
BRANCH   1   9
ATOM      9  C   UNL     1     -21.338 -16.300 -13.782  1.00  0.00    -0.011 C 
ATOM     10  C   UNL     1     -21.649 -15.451 -12.529  1.00  0.00     0.008 C 
BRANCH   9  11
ATOM     11  C   UNL     1     -22.323 -17.513 -13.984  1.00  0.00    -0.002 C 
ATOM     12  C   UNL     1     -23.795 -17.079 -13.930  1.00  0.00     0.005 C 
ATOM     13  C   UNL     1     -22.201 -18.726 -12.987  1.00  0.00    -0.026 C 
ATOM     14  C   UNL     1     -24.339 -17.496 -12.573  1.00  0.00     0.005 C 
ATOM     15  C   UNL     1     -23.370 -18.535 -11.972  1.00  0.00    -0.001 C 
ATOM     16  C   UNL     1     -22.326 -20.092 -13.759  1.00  0.00     0.007 C 
ATOM     17  C   UNL     1     -20.843 -18.786 -12.234  1.00  0.00     0.012 C 
ATOM     18  C   UNL     1     -24.036 -19.883 -11.578  1.00  0.00     0.000 C 
ATOM     19  C   UNL     1     -23.767 -20.518 -14.066  1.00  0.00     0.005 C 
ATOM     20  C   UNL     1     -24.659 -20.622 -12.792  1.00  0.00     0.003 C 
ATOM     21  C   UNL     1     -25.084 -19.731 -10.468  1.00  0.00     0.031 C 
ATOM     22  C   UNL     1     -25.102 -22.081 -12.391  1.00  0.00    -0.008 C 
ATOM     23  C   UNL     1     -25.779 -21.034 -10.174  1.00  0.00    -0.027 C 
ATOM     24  C   UNL     1     -25.883 -22.052 -11.063  1.00  0.00    -0.065 C 
ATOM     25  C   UNL     1     -26.035 -22.650 -13.509  1.00  0.00     0.014 C 
ATOM     26  C   UNL     1     -23.874 -23.016 -12.211  1.00  0.00     0.016 C 
ATOM     27  C   UNL     1     -26.684 -23.278 -10.670  1.00  0.00     0.063 C 
ATOM     28  C   UNL     1     -26.798 -23.924 -13.103  1.00  0.00     0.033 C 
ATOM     29  C   UNL     1     -27.602 -23.720 -11.815  1.00  0.00     0.118 C 
BRANCH  29  30
ATOM     30  O   UNL     1     -28.609 -22.764 -12.033  1.00  0.00    -0.393 OA
ATOM     31  H   UNL     1     -29.407 -23.065 -11.525  1.00  0.00     0.210 HD
ENDBRANCH  29  30
ENDBRANCH   9  11
ENDBRANCH   1   9
TORSDOF 7
ENDMDL
MODEL 5
REMARK VINA RESULT:    14.667      2.622      7.758
REMARK INTER + INTRA:          20.619
REMARK INTER:                  20.554
REMARK INTRA:                   0.065
REMARK UNBOUND:                 0.379
REMARK SMILES CC[C@@H](CC[C@@H](C)[C@@H]1CC[C@H]2[C@H]3CC=C4C[C@@H](O)CC[C@@]4(C)[C@@H]3CC[C@]21C)C(C)C
REMARK SMILES IDX 5 1 4 2 3 3 2 4 1 5 28 6 29 7 30 8 6 9 7 10 8 11 9 12 26 13
REMARK SMILES IDX 10 14 11 15 25 16 27 17 12 18 24 19 23 20 13 21 21 22 14 23
REMARK SMILES IDX 15 24 20 25 22 26 16 27 19 28 17 29 18 30
REMARK H PARENT 18 31
REMARK Flexibility Score: inf
ROOT
ATOM      1  C   UNL     1     -22.460 -14.163 -14.918  1.00  0.00     0.004 C 
ENDROOT
BRANCH   1   2
ATOM      2  C   UNL     1     -23.898 -13.875 -14.416  1.00  0.00     0.004 C 
BRANCH   2   3
ATOM      3  C   UNL     1     -25.013 -14.404 -15.362  1.00  0.00    -0.009 C 
BRANCH   3   4
ATOM      4  C   UNL     1     -26.229 -15.051 -14.622  1.00  0.00     0.000 C 
ATOM      5  C   UNL     1     -27.198 -14.076 -13.942  1.00  0.00     0.004 C 
ENDBRANCH   3   4
BRANCH   3   6
ATOM      6  C   UNL     1     -24.414 -15.289 -16.505  1.00  0.00    -0.014 C 
ATOM      7  C   UNL     1     -25.451 -16.158 -17.231  1.00  0.00     0.007 C 
ATOM      8  C   UNL     1     -23.610 -14.461 -17.521  1.00  0.00     0.007 C 
ENDBRANCH   3   6
ENDBRANCH   2   3
ENDBRANCH   1   2
BRANCH   1   9
ATOM      9  C   UNL     1     -21.575 -14.932 -13.896  1.00  0.00    -0.011 C 
ATOM     10  C   UNL     1     -20.926 -13.957 -12.888  1.00  0.00     0.008 C 
BRANCH   9  11
ATOM     11  C   UNL     1     -22.392 -16.095 -13.214  1.00  0.00    -0.002 C 
ATOM     12  C   UNL     1     -21.711 -16.610 -11.938  1.00  0.00     0.005 C 
ATOM     13  C   UNL     1     -22.697 -17.374 -14.079  1.00  0.00    -0.026 C 
ATOM     14  C   UNL     1     -21.051 -17.936 -12.282  1.00  0.00     0.005 C 
ATOM     15  C   UNL     1     -21.661 -18.440 -13.606  1.00  0.00    -0.001 C 
ATOM     16  C   UNL     1     -24.176 -17.863 -13.842  1.00  0.00     0.007 C 
ATOM     17  C   UNL     1     -22.567 -17.144 -15.610  1.00  0.00     0.012 C 
ATOM     18  C   UNL     1     -22.274 -19.866 -13.528  1.00  0.00     0.000 C 
ATOM     19  C   UNL     1     -24.370 -18.701 -12.572  1.00  0.00     0.005 C 
ATOM     20  C   UNL     1     -23.452 -19.960 -12.523  1.00  0.00     0.003 C 
ATOM     21  C   UNL     1     -21.234 -20.949 -13.213  1.00  0.00     0.031 C 
ATOM     22  C   UNL     1     -24.193 -21.345 -12.656  1.00  0.00    -0.008 C 
ATOM     23  C   UNL     1     -21.870 -22.304 -13.051  1.00  0.00    -0.027 C 
ATOM     24  C   UNL     1     -23.166 -22.493 -12.700  1.00  0.00    -0.065 C 
ATOM     25  C   UNL     1     -25.115 -21.546 -11.410  1.00  0.00     0.014 C 
ATOM     26  C   UNL     1     -25.047 -21.408 -13.952  1.00  0.00     0.016 C 
ATOM     27  C   UNL     1     -23.658 -23.911 -12.487  1.00  0.00     0.063 C 
ATOM     28  C   UNL     1     -25.644 -22.982 -11.244  1.00  0.00     0.033 C 
ATOM     29  C   UNL     1     -24.507 -24.008 -11.213  1.00  0.00     0.118 C 
BRANCH  29  30
ATOM     30  O   UNL     1     -23.709 -23.795 -10.076  1.00  0.00    -0.393 OA
ATOM     31  H   UNL     1     -22.961 -23.206 -10.356  1.00  0.00     0.210 HD
ENDBRANCH  29  30
ENDBRANCH   9  11
ENDBRANCH   1   9
TORSDOF 7
ENDMDL
MODEL 6
REMARK VINA RESULT:    14.763      1.462      2.372
REMARK INTER + INTRA:          20.753
REMARK INTER:                  19.352
REMARK INTRA:                   1.400
REMARK UNBOUND:                 0.379
REMARK SMILES CC[C@@H](CC[C@@H](C)[C@@H]1CC[C@H]2[C@H]3CC=C4C[C@@H](O)CC[C@@]4(C)[C@@H]3CC[C@]21C)C(C)C
REMARK SMILES IDX 5 1 4 2 3 3 2 4 1 5 28 6 29 7 30 8 6 9 7 10 8 11 9 12 26 13
REMARK SMILES IDX 10 14 11 15 25 16 27 17 12 18 24 19 23 20 13 21 21 22 14 23
REMARK SMILES IDX 15 24 20 25 22 26 16 27 19 28 17 29 18 30
REMARK H PARENT 18 31
REMARK Flexibility Score: inf
ROOT
ATOM      1  C   UNL     1     -23.166 -24.096 -12.387  1.00  0.00     0.004 C 
ENDROOT
BRANCH   1   2
ATOM      2  C   UNL     1     -23.090 -24.190 -13.933  1.00  0.00     0.004 C 
BRANCH   2   3
ATOM      3  C   UNL     1     -24.373 -24.769 -14.593  1.00  0.00    -0.009 C 
BRANCH   3   4
ATOM      4  C   UNL     1     -24.107 -25.938 -15.597  1.00  0.00     0.000 C 
ATOM      5  C   UNL     1     -22.855 -26.783 -15.329  1.00  0.00     0.004 C 
ENDBRANCH   3   4
BRANCH   3   6
ATOM      6  C   UNL     1     -25.281 -23.630 -15.163  1.00  0.00    -0.014 C 
ATOM      7  C   UNL     1     -26.351 -23.133 -14.180  1.00  0.00     0.007 C 
ATOM      8  C   UNL     1     -24.461 -22.444 -15.699  1.00  0.00     0.007 C 
ENDBRANCH   3   6
ENDBRANCH   2   3
ENDBRANCH   1   2
BRANCH   1   9
ATOM      9  C   UNL     1     -23.986 -22.881 -11.867  1.00  0.00    -0.011 C 
ATOM     10  C   UNL     1     -23.539 -22.487 -10.442  1.00  0.00     0.008 C 
BRANCH   9  11
ATOM     11  C   UNL     1     -23.933 -21.690 -12.898  1.00  0.00    -0.002 C 
ATOM     12  C   UNL     1     -22.529 -21.499 -13.491  1.00  0.00     0.005 C 
ATOM     13  C   UNL     1     -24.378 -20.267 -12.390  1.00  0.00    -0.026 C 
ATOM     14  C   UNL     1     -21.912 -20.289 -12.806  1.00  0.00     0.005 C 
ATOM     15  C   UNL     1     -23.047 -19.497 -12.126  1.00  0.00    -0.001 C 
ATOM     16  C   UNL     1     -25.257 -19.542 -13.477  1.00  0.00     0.007 C 
ATOM     17  C   UNL     1     -25.241 -20.302 -11.099  1.00  0.00     0.012 C 
ATOM     18  C   UNL     1     -23.134 -18.005 -12.553  1.00  0.00     0.000 C 
ATOM     19  C   UNL     1     -24.453 -18.868 -14.596  1.00  0.00     0.005 C 
ATOM     20  C   UNL     1     -23.420 -17.828 -14.067  1.00  0.00     0.003 C 
ATOM     21  C   UNL     1     -21.890 -17.197 -12.161  1.00  0.00     0.031 C 
ATOM     22  C   UNL     1     -23.740 -16.322 -14.404  1.00  0.00    -0.008 C 
ATOM     23  C   UNL     1     -21.961 -15.781 -12.668  1.00  0.00    -0.027 C 
ATOM     24  C   UNL     1     -22.703 -15.398 -13.736  1.00  0.00    -0.065 C 
ATOM     25  C   UNL     1     -23.661 -16.123 -15.953  1.00  0.00     0.014 C 
ATOM     26  C   UNL     1     -25.150 -15.915 -13.898  1.00  0.00     0.016 C 
ATOM     27  C   UNL     1     -22.619 -13.956 -14.195  1.00  0.00     0.063 C 
ATOM     28  C   UNL     1     -23.628 -14.651 -16.397  1.00  0.00     0.033 C 
ATOM     29  C   UNL     1     -22.492 -13.876 -15.721  1.00  0.00     0.118 C 
BRANCH  29  30
ATOM     30  O   UNL     1     -21.254 -14.395 -16.137  1.00  0.00    -0.393 OA
ATOM     31  H   UNL     1     -21.330 -15.385 -16.102  1.00  0.00     0.210 HD
ENDBRANCH  29  30
ENDBRANCH   9  11
ENDBRANCH   1   9
TORSDOF 7
ENDMDL
