MODEL 1
REMARK VINA RESULT:    -3.180      0.000      0.000
REMARK INTER + INTRA:          -4.558
REMARK INTER:                  -4.853
REMARK INTRA:                   0.294
REMARK UNBOUND:                 0.294
REMARK SMILES CC1=CCC[C@@H](C)C(=O)C[C@H](C(C)C)C(=O)C1
REMARK SMILES IDX 8 1 9 2 6 3 7 4 5 5 4 6 3 7 2 8 1 9 10 11 11 12 15 13 16 14
REMARK SMILES IDX 17 15 12 17 13 18 14 19
REMARK H PARENT
REMARK Flexibility Score: 70.00
ROOT
ATOM      1  C   UNL     1      27.731  25.635  26.793  1.00  0.00     0.136 C 
ATOM      2  O   UNL     1      27.339  24.843  25.948  1.00  0.00    -0.299 OA
ENDROOT
BRANCH   1   3
ATOM      3  C   UNL     1      27.526  25.331  28.266  1.00  0.00     0.053 C 
ATOM      4  C   UNL     1      28.251  24.028  28.621  1.00  0.00     0.016 C 
BRANCH   3   5
ATOM      5  C   UNL     1      26.034  25.232  28.644  1.00  0.00     0.015 C 
BRANCH   5   6
ATOM      6  C   UNL     1      25.197  26.477  28.301  1.00  0.00     0.028 C 
BRANCH   6   7
ATOM      7  C   UNL     1      25.222  27.552  29.364  1.00  0.00    -0.028 C 
ATOM      8  C   UNL     1      26.254  28.366  29.712  1.00  0.00    -0.070 CG0
ATOM      9  C   UNL     1      25.954  29.436  30.737  1.00  0.00     0.039 C 
ATOM     10  G   UNL     1      27.697  28.229  29.241  1.00  0.00     0.000 G0
ENDBRANCH   6   7
ENDBRANCH   5   6
ENDBRANCH   3   5
ENDBRANCH   1   3
BRANCH   1  11
ATOM     11  C   UNL     1      28.462  26.877  26.352  1.00  0.00     0.087 C 
BRANCH  11  12
ATOM     12  C   UNL     1      27.662  28.184  26.606  1.00  0.00     0.066 C 
BRANCH  12  13
ATOM     13  C   UNL     1      28.047  28.851  27.923  1.00  0.00     0.140 C 
ATOM     14  O   UNL     1      28.781  29.830  27.896  1.00  0.00    -0.299 OA
BRANCH  13  15
ATOM     15  C   UNL     1      27.706  28.228  29.253  1.00  0.00     0.106 CG0
ATOM     16  G   UNL     1      26.249  28.350  29.686  1.00  0.00     0.000 G0
ENDBRANCH  13  15
ENDBRANCH  12  13
BRANCH  12  17
ATOM     17  C   UNL     1      27.813  29.196  25.425  1.00  0.00    -0.006 C 
ATOM     18  C   UNL     1      26.527  29.277  24.580  1.00  0.00     0.008 C 
ATOM     19  C   UNL     1      28.990  28.841  24.498  1.00  0.00     0.008 C 
ENDBRANCH  12  17
ENDBRANCH  11  12
ENDBRANCH   1  11
TORSDOF 1
ENDMDL
MODEL 2
REMARK VINA RESULT:    -2.837     10.065     12.356
REMARK INTER + INTRA:          -4.035
REMARK INTER:                  -5.347
REMARK INTRA:                   1.311
REMARK UNBOUND:                 0.294
REMARK SMILES CC1=CCC[C@@H](C)C(=O)C[C@H](C(C)C)C(=O)C1
REMARK SMILES IDX 8 1 9 2 6 3 7 4 5 5 4 6 3 7 2 8 1 9 10 11 11 12 15 13 16 14
REMARK SMILES IDX 17 15 12 17 13 18 14 19
REMARK H PARENT
REMARK Flexibility Score: 70.00
ROOT
ATOM      1  C   UNL     1      28.991  36.075  20.530  1.00  0.00     0.136 C 
ATOM      2  O   UNL     1      28.888  35.861  19.330  1.00  0.00    -0.299 OA
ENDROOT
BRANCH   1   3
ATOM      3  C   UNL     1      29.123  34.911  21.496  1.00  0.00     0.053 C 
ATOM      4  C   UNL     1      28.959  33.594  20.730  1.00  0.00     0.016 C 
BRANCH   3   5
ATOM      5  C   UNL     1      28.103  34.988  22.651  1.00  0.00     0.015 C 
BRANCH   5   6
ATOM      6  C   UNL     1      27.315  36.308  22.729  1.00  0.00     0.028 C 
BRANCH   6   7
ATOM      7  C   UNL     1      25.960  36.260  22.059  1.00  0.00    -0.028 C 
ATOM      8  C   UNL     1      25.445  37.123  21.143  1.00  0.00    -0.070 CG0
ATOM      9  C   UNL     1      24.102  36.759  20.552  1.00  0.00     0.039 C 
ATOM     10  G   UNL     1      26.049  38.464  20.741  1.00  0.00     0.000 G0
ENDBRANCH   6   7
ENDBRANCH   5   6
ENDBRANCH   3   5
ENDBRANCH   1   3
BRANCH   1  11
ATOM     11  C   UNL     1      29.041  37.499  21.019  1.00  0.00     0.087 C 
BRANCH  11  12
ATOM     12  C   UNL     1      28.585  38.532  19.951  1.00  0.00     0.066 C 
BRANCH  12  13
ATOM     13  C   UNL     1      27.094  38.430  19.649  1.00  0.00     0.140 C 
ATOM     14  O   UNL     1      26.723  38.481  18.484  1.00  0.00    -0.299 OA
BRANCH  13  15
ATOM     15  C   UNL     1      26.062  38.459  20.748  1.00  0.00     0.106 CG0
ATOM     16  G   UNL     1      25.457  37.110  21.123  1.00  0.00     0.000 G0
ENDBRANCH  13  15
ENDBRANCH  12  13
BRANCH  12  17
ATOM     17  C   UNL     1      28.955  39.993  20.363  1.00  0.00    -0.006 C 
ATOM     18  C   UNL     1      28.984  40.160  21.894  1.00  0.00     0.008 C 
ATOM     19  C   UNL     1      27.983  41.031  19.772  1.00  0.00     0.008 C 
ENDBRANCH  12  17
ENDBRANCH  11  12
ENDBRANCH   1  11
TORSDOF 1
ENDMDL
MODEL 3
REMARK VINA RESULT:    -2.707      1.741      3.772
REMARK INTER + INTRA:          -3.836
REMARK INTER:                  -4.316
REMARK INTRA:                   0.480
REMARK UNBOUND:                 0.294
REMARK SMILES CC1=CCC[C@@H](C)C(=O)C[C@H](C(C)C)C(=O)C1
REMARK SMILES IDX 8 1 9 2 6 3 7 4 5 5 4 6 3 7 2 8 1 9 10 11 11 12 15 13 16 14
REMARK SMILES IDX 17 15 12 17 13 18 14 19
REMARK H PARENT
REMARK Flexibility Score: 70.00
ROOT
ATOM      1  C   UNL     1      27.837  28.708  29.281  1.00  0.00     0.136 C 
ATOM      2  O   UNL     1      28.347  29.730  29.720  1.00  0.00    -0.299 OA
ENDROOT
BRANCH   1   3
ATOM      3  C   UNL     1      26.349  28.471  29.459  1.00  0.00     0.053 C 
ATOM      4  C   UNL     1      25.778  29.522  30.418  1.00  0.00     0.016 C 
BRANCH   3   5
ATOM      5  C   UNL     1      26.038  27.051  29.977  1.00  0.00     0.015 C 
BRANCH   5   6
ATOM      6  C   UNL     1      25.349  26.129  28.956  1.00  0.00     0.028 C 
BRANCH   6   7
ATOM      7  C   UNL     1      26.242  25.041  28.402  1.00  0.00    -0.028 C 
ATOM      8  C   UNL     1      27.059  25.096  27.316  1.00  0.00    -0.070 CG0
ATOM      9  C   UNL     1      27.932  23.887  27.066  1.00  0.00     0.039 C 
ATOM     10  G   UNL     1      27.095  26.215  26.281  1.00  0.00     0.000 G0
ENDBRANCH   6   7
ENDBRANCH   5   6
ENDBRANCH   3   5
ENDBRANCH   1   3
BRANCH   1  11
ATOM     11  C   UNL     1      28.693  27.730  28.518  1.00  0.00     0.087 C 
BRANCH  11  12
ATOM     12  C   UNL     1      28.831  28.080  27.011  1.00  0.00     0.066 C 
BRANCH  12  13
ATOM     13  C   UNL     1      28.422  26.922  26.108  1.00  0.00     0.140 C 
ATOM     14  O   UNL     1      29.116  26.657  25.135  1.00  0.00    -0.299 OA
BRANCH  13  15
ATOM     15  C   UNL     1      27.096  26.222  26.273  1.00  0.00     0.106 CG0
ATOM     16  G   UNL     1      27.062  25.105  27.309  1.00  0.00     0.000 G0
ENDBRANCH  13  15
ENDBRANCH  12  13
BRANCH  12  17
ATOM     17  C   UNL     1      28.025  29.366  26.639  1.00  0.00    -0.006 C 
ATOM     18  C   UNL     1      27.087  29.120  25.442  1.00  0.00     0.008 C 
ATOM     19  C   UNL     1      28.942  30.558  26.310  1.00  0.00     0.008 C 
ENDBRANCH  12  17
ENDBRANCH  11  12
ENDBRANCH   1  11
TORSDOF 1
ENDMDL
MODEL 4
REMARK VINA RESULT:    -2.685      1.793      4.173
REMARK INTER + INTRA:          -3.804
REMARK INTER:                  -4.035
REMARK INTRA:                   0.232
REMARK UNBOUND:                 0.294
REMARK SMILES CC1=CCC[C@@H](C)C(=O)C[C@H](C(C)C)C(=O)C1
REMARK SMILES IDX 8 1 9 2 6 3 7 4 5 5 4 6 3 7 2 8 1 9 10 11 11 12 15 13 16 14
REMARK SMILES IDX 17 15 12 17 13 18 14 19
REMARK H PARENT
REMARK Flexibility Score: 70.00
ROOT
ATOM      1  C   UNL     1      27.841  28.607  27.122  1.00  0.00     0.136 C 
ATOM      2  O   UNL     1      28.543  29.163  27.956  1.00  0.00    -0.299 OA
ENDROOT
BRANCH   1   3
ATOM      3  C   UNL     1      28.485  27.850  25.976  1.00  0.00     0.053 C 
ATOM      4  C   UNL     1      28.252  28.612  24.667  1.00  0.00     0.016 C 
BRANCH   3   5
ATOM      5  C   UNL     1      27.955  26.406  25.854  1.00  0.00     0.015 C 
BRANCH   5   6
ATOM      6  C   UNL     1      28.738  25.360  26.669  1.00  0.00     0.028 C 
BRANCH   6   7
ATOM      7  C   UNL     1      27.879  24.525  27.592  1.00  0.00    -0.028 C 
ATOM      8  C   UNL     1      27.328  24.886  28.782  1.00  0.00    -0.070 CG0
ATOM      9  C   UNL     1      26.411  23.877  29.435  1.00  0.00     0.039 C 
ATOM     10  G   UNL     1      27.632  26.163  29.557  1.00  0.00     0.000 G0
ENDBRANCH   6   7
ENDBRANCH   5   6
ENDBRANCH   3   5
ENDBRANCH   1   3
BRANCH   1  11
ATOM     11  C   UNL     1      26.342  28.641  27.285  1.00  0.00     0.087 C 
BRANCH  11  12
ATOM     12  C   UNL     1      25.793  27.476  28.155  1.00  0.00     0.066 C 
BRANCH  12  13
ATOM     13  C   UNL     1      26.605  27.276  29.430  1.00  0.00     0.140 C 
ATOM     14  O   UNL     1      26.530  28.118  30.316  1.00  0.00    -0.299 OA
BRANCH  13  15
ATOM     15  C   UNL     1      27.631  26.178  29.550  1.00  0.00     0.106 CG0
ATOM     16  G   UNL     1      27.308  24.887  28.805  1.00  0.00     0.000 G0
ENDBRANCH  13  15
ENDBRANCH  12  13
BRANCH  12  17
ATOM     17  C   UNL     1      24.283  27.675  28.501  1.00  0.00    -0.006 C 
ATOM     18  C   UNL     1      23.494  26.357  28.373  1.00  0.00     0.008 C 
ATOM     19  C   UNL     1      23.613  28.739  27.613  1.00  0.00     0.008 C 
ENDBRANCH  12  17
ENDBRANCH  11  12
ENDBRANCH   1  11
TORSDOF 1
ENDMDL
MODEL 5
REMARK VINA RESULT:    -2.517      2.073      4.885
REMARK INTER + INTRA:          -3.546
REMARK INTER:                  -4.345
REMARK INTRA:                   0.799
REMARK UNBOUND:                 0.294
REMARK SMILES CC1=CCC[C@@H](C)C(=O)C[C@H](C(C)C)C(=O)C1
REMARK SMILES IDX 8 1 9 2 6 3 7 4 5 5 4 6 3 7 2 8 1 9 10 11 11 12 15 13 16 14
REMARK SMILES IDX 17 15 12 17 13 18 14 19
REMARK H PARENT
REMARK Flexibility Score: 70.00
ROOT
ATOM      1  C   UNL     1      28.955  29.496  28.269  1.00  0.00     0.136 C 
ATOM      2  O   UNL     1      28.940  30.620  28.752  1.00  0.00    -0.299 OA
ENDROOT
BRANCH   1   3
ATOM      3  C   UNL     1      29.120  29.319  26.771  1.00  0.00     0.053 C 
ATOM      4  C   UNL     1      29.112  30.694  26.094  1.00  0.00     0.016 C 
BRANCH   3   5
ATOM      5  C   UNL     1      28.026  28.418  26.162  1.00  0.00     0.015 C 
BRANCH   5   6
ATOM      6  C   UNL     1      28.554  27.201  25.380  1.00  0.00     0.028 C 
BRANCH   6   7
ATOM      7  C   UNL     1      27.688  25.967  25.497  1.00  0.00    -0.028 C 
ATOM      8  C   UNL     1      27.667  25.047  26.497  1.00  0.00    -0.070 CG0
ATOM      9  C   UNL     1      26.607  23.973  26.405  1.00  0.00     0.039 C 
ATOM     10  G   UNL     1      28.674  24.943  27.637  1.00  0.00     0.000 G0
ENDBRANCH   6   7
ENDBRANCH   5   6
ENDBRANCH   3   5
ENDBRANCH   1   3
BRANCH   1  11
ATOM     11  C   UNL     1      28.866  28.302  29.186  1.00  0.00     0.087 C 
BRANCH  11  12
ATOM     12  C   UNL     1      27.873  27.217  28.687  1.00  0.00     0.066 C 
BRANCH  12  13
ATOM     13  C   UNL     1      28.438  25.808  28.826  1.00  0.00     0.140 C 
ATOM     14  O   UNL     1      28.848  25.441  29.920  1.00  0.00    -0.299 OA
BRANCH  13  15
ATOM     15  C   UNL     1      28.678  24.931  27.623  1.00  0.00     0.106 CG0
ATOM     16  G   UNL     1      27.652  25.050  26.502  1.00  0.00     0.000 G0
ENDBRANCH  13  15
ENDBRANCH  12  13
BRANCH  12  17
ATOM     17  C   UNL     1      26.492  27.319  29.412  1.00  0.00    -0.006 C 
ATOM     18  C   UNL     1      25.321  27.221  28.416  1.00  0.00     0.008 C 
ATOM     19  C   UNL     1      26.348  28.624  30.216  1.00  0.00     0.008 C 
ENDBRANCH  12  17
ENDBRANCH  11  12
ENDBRANCH   1  11
TORSDOF 1
ENDMDL
MODEL 6
REMARK VINA RESULT:    -2.214      2.271      4.068
REMARK INTER + INTRA:          -3.084
REMARK INTER:                  -2.857
REMARK INTRA:                  -0.227
REMARK UNBOUND:                 0.294
REMARK SMILES CC1=CCC[C@@H](C)C(=O)C[C@H](C(C)C)C(=O)C1
REMARK SMILES IDX 8 1 9 2 6 3 7 4 5 5 4 6 3 7 2 8 1 9 10 11 11 12 15 13 16 14
REMARK SMILES IDX 17 15 12 17 13 18 14 19
REMARK H PARENT
REMARK Flexibility Score: 70.00
ROOT
ATOM      1  C   UNL     1      26.879  27.510  30.183  1.00  0.00     0.136 C 
ATOM      2  O   UNL     1      26.536  26.795  31.115  1.00  0.00    -0.299 OA
ENDROOT
BRANCH   1   3
ATOM      3  C   UNL     1      25.980  28.646  29.733  1.00  0.00     0.053 C 
ATOM      4  C   UNL     1      26.265  29.888  30.585  1.00  0.00     0.016 C 
BRANCH   3   5
ATOM      5  C   UNL     1      24.484  28.278  29.810  1.00  0.00     0.015 C 
BRANCH   5   6
ATOM      6  C   UNL     1      23.842  27.901  28.463  1.00  0.00     0.028 C 
BRANCH   6   7
ATOM      7  C   UNL     1      23.543  26.426  28.311  1.00  0.00    -0.028 C 
ATOM      8  C   UNL     1      24.386  25.435  27.917  1.00  0.00    -0.070 CG0
ATOM      9  C   UNL     1      23.842  24.025  27.970  1.00  0.00     0.039 C 
ATOM     10  G   UNL     1      25.781  25.627  27.333  1.00  0.00     0.000 G0
ENDBRANCH   6   7
ENDBRANCH   5   6
ENDBRANCH   3   5
ENDBRANCH   1   3
BRANCH   1  11
ATOM     11  C   UNL     1      28.222  27.279  29.538  1.00  0.00     0.087 C 
BRANCH  11  12
ATOM     12  C   UNL     1      28.137  26.451  28.225  1.00  0.00     0.066 C 
BRANCH  12  13
ATOM     13  C   UNL     1      26.974  25.465  28.238  1.00  0.00     0.140 C 
ATOM     14  O   UNL     1      27.071  24.446  28.909  1.00  0.00    -0.299 OA
BRANCH  13  15
ATOM     15  C   UNL     1      25.797  25.620  27.308  1.00  0.00     0.106 CG0
ATOM     16  G   UNL     1      24.423  25.431  27.943  1.00  0.00     0.000 G0
ENDBRANCH  13  15
ENDBRANCH  12  13
BRANCH  12  17
ATOM     17  C   UNL     1      28.051  27.370  26.965  1.00  0.00    -0.006 C 
ATOM     18  C   UNL     1      28.722  26.718  25.741  1.00  0.00     0.008 C 
ATOM     19  C   UNL     1      28.692  28.751  27.202  1.00  0.00     0.008 C 
ENDBRANCH  12  17
ENDBRANCH  11  12
ENDBRANCH   1  11
TORSDOF 1
ENDMDL
MODEL 7
REMARK VINA RESULT:    -2.155      2.068      4.240
REMARK INTER + INTRA:          -2.994
REMARK INTER:                  -3.503
REMARK INTRA:                   0.508
REMARK UNBOUND:                 0.294
REMARK SMILES CC1=CCC[C@@H](C)C(=O)C[C@H](C(C)C)C(=O)C1
REMARK SMILES IDX 8 1 9 2 6 3 7 4 5 5 4 6 3 7 2 8 1 9 10 11 11 12 15 13 16 14
REMARK SMILES IDX 17 15 12 17 13 18 14 19
REMARK H PARENT
REMARK Flexibility Score: 70.00
ROOT
ATOM      1  C   UNL     1      26.139  27.992  29.750  1.00  0.00     0.136 C 
ATOM      2  O   UNL     1      26.083  29.099  30.268  1.00  0.00    -0.299 OA
ENDROOT
BRANCH   1   3
ATOM      3  C   UNL     1      24.984  27.497  28.901  1.00  0.00     0.053 C 
ATOM      4  C   UNL     1      25.097  25.978  28.724  1.00  0.00     0.016 C 
BRANCH   3   5
ATOM      5  C   UNL     1      24.926  28.191  27.524  1.00  0.00     0.015 C 
BRANCH   5   6
ATOM      6  C   UNL     1      25.966  27.692  26.505  1.00  0.00     0.028 C 
BRANCH   6   7
ATOM      7  C   UNL     1      26.725  28.796  25.803  1.00  0.00    -0.028 C 
ATOM      8  C   UNL     1      28.070  28.983  25.741  1.00  0.00    -0.070 CG0
ATOM      9  C   UNL     1      28.555  30.114  24.863  1.00  0.00     0.039 C 
ATOM     10  G   UNL     1      29.116  28.226  26.552  1.00  0.00     0.000 G0
ENDBRANCH   6   7
ENDBRANCH   5   6
ENDBRANCH   3   5
ENDBRANCH   1   3
BRANCH   1  11
ATOM     11  C   UNL     1      27.387  27.164  29.923  1.00  0.00     0.087 C 
BRANCH  11  12
ATOM     12  C   UNL     1      28.102  26.845  28.580  1.00  0.00     0.066 C 
BRANCH  12  13
ATOM     13  C   UNL     1      28.859  28.048  28.028  1.00  0.00     0.140 C 
ATOM     14  O   UNL     1      29.119  28.978  28.780  1.00  0.00    -0.299 OA
BRANCH  13  15
ATOM     15  C   UNL     1      29.125  28.205  26.552  1.00  0.00     0.106 CG0
ATOM     16  G   UNL     1      28.067  28.971  25.767  1.00  0.00     0.000 G0
ENDBRANCH  13  15
ENDBRANCH  12  13
BRANCH  12  17
ATOM     17  C   UNL     1      29.061  25.619  28.713  1.00  0.00    -0.006 C 
ATOM     18  C   UNL     1      29.058  24.756  27.436  1.00  0.00     0.008 C 
ATOM     19  C   UNL     1      28.705  24.724  29.914  1.00  0.00     0.008 C 
ENDBRANCH  12  17
ENDBRANCH  11  12
ENDBRANCH   1  11
TORSDOF 1
ENDMDL
MODEL 8
REMARK VINA RESULT:    -2.097      2.152      4.166
REMARK INTER + INTRA:          -2.906
REMARK INTER:                  -3.709
REMARK INTRA:                   0.804
REMARK UNBOUND:                 0.294
REMARK SMILES CC1=CCC[C@@H](C)C(=O)C[C@H](C(C)C)C(=O)C1
REMARK SMILES IDX 8 1 9 2 6 3 7 4 5 5 4 6 3 7 2 8 1 9 10 11 11 12 15 13 16 14
REMARK SMILES IDX 17 15 12 17 13 18 14 19
REMARK H PARENT
REMARK Flexibility Score: 70.00
ROOT
ATOM      1  C   UNL     1      27.184  26.335  29.953  1.00  0.00     0.136 C 
ATOM      2  O   UNL     1      26.755  26.424  31.096  1.00  0.00    -0.299 OA
ENDROOT
BRANCH   1   3
ATOM      3  C   UNL     1      27.164  24.995  29.242  1.00  0.00     0.053 C 
ATOM      4  C   UNL     1      26.465  23.959  30.129  1.00  0.00     0.016 C 
BRANCH   3   5
ATOM      5  C   UNL     1      28.580  24.508  28.866  1.00  0.00     0.015 C 
BRANCH   5   6
ATOM      6  C   UNL     1      28.741  24.062  27.402  1.00  0.00     0.028 C 
BRANCH   6   7
ATOM      7  C   UNL     1      29.113  25.178  26.452  1.00  0.00    -0.028 C 
ATOM      8  C   UNL     1      28.387  26.282  26.128  1.00  0.00    -0.070 CG0
ATOM      9  C   UNL     1      29.064  27.296  25.234  1.00  0.00     0.039 C 
ATOM     10  G   UNL     1      26.930  26.533  26.498  1.00  0.00     0.000 G0
ENDBRANCH   6   7
ENDBRANCH   5   6
ENDBRANCH   3   5
ENDBRANCH   1   3
BRANCH   1  11
ATOM     11  C   UNL     1      27.673  27.578  29.255  1.00  0.00     0.087 C 
BRANCH  11  12
ATOM     12  C   UNL     1      26.561  28.307  28.450  1.00  0.00     0.066 C 
BRANCH  12  13
ATOM     13  C   UNL     1      26.597  27.956  26.967  1.00  0.00     0.140 C 
ATOM     14  O   UNL     1      26.201  28.782  26.155  1.00  0.00    -0.299 OA
BRANCH  13  15
ATOM     15  C   UNL     1      26.925  26.563  26.493  1.00  0.00     0.106 CG0
ATOM     16  G   UNL     1      28.388  26.309  26.147  1.00  0.00     0.000 G0
ENDBRANCH  13  15
ENDBRANCH  12  13
BRANCH  12  17
ATOM     17  C   UNL     1      25.141  28.024  29.038  1.00  0.00    -0.006 C 
ATOM     18  C   UNL     1      24.132  27.660  27.932  1.00  0.00     0.008 C 
ATOM     19  C   UNL     1      24.588  29.220  29.835  1.00  0.00     0.008 C 
ENDBRANCH  12  17
ENDBRANCH  11  12
ENDBRANCH   1  11
TORSDOF 1
ENDMDL
MODEL 9
REMARK VINA RESULT:    -1.841     11.588     14.059
REMARK INTER + INTRA:          -2.515
REMARK INTER:                  -3.735
REMARK INTRA:                   1.220
REMARK UNBOUND:                 0.294
REMARK SMILES CC1=CCC[C@@H](C)C(=O)C[C@H](C(C)C)C(=O)C1
REMARK SMILES IDX 8 1 9 2 6 3 7 4 5 5 4 6 3 7 2 8 1 9 10 11 11 12 15 13 16 14
REMARK SMILES IDX 17 15 12 17 13 18 14 19
REMARK H PARENT
REMARK Flexibility Score: 70.00
ROOT
ATOM      1  C   UNL     1      28.274  37.985  21.755  1.00  0.00     0.136 C 
ATOM      2  O   UNL     1      29.124  37.794  20.895  1.00  0.00    -0.299 OA
ENDROOT
BRANCH   1   3
ATOM      3  C   UNL     1      27.560  36.805  22.387  1.00  0.00     0.053 C 
ATOM      4  C   UNL     1      28.561  35.667  22.612  1.00  0.00     0.016 C 
BRANCH   3   5
ATOM      5  C   UNL     1      26.374  36.311  21.533  1.00  0.00     0.015 C 
BRANCH   5   6
ATOM      6  C   UNL     1      25.619  37.417  20.775  1.00  0.00     0.028 C 
BRANCH   6   7
ATOM      7  C   UNL     1      26.182  37.726  19.406  1.00  0.00    -0.028 C 
ATOM      8  C   UNL     1      26.742  38.886  18.970  1.00  0.00    -0.070 CG0
ATOM      9  C   UNL     1      27.332  38.869  17.578  1.00  0.00     0.039 C 
ATOM     10  G   UNL     1      26.735  40.216  19.714  1.00  0.00     0.000 G0
ENDBRANCH   6   7
ENDBRANCH   5   6
ENDBRANCH   3   5
ENDBRANCH   1   3
BRANCH   1  11
ATOM     11  C   UNL     1      27.996  39.395  22.210  1.00  0.00     0.087 C 
BRANCH  11  12
ATOM     12  C   UNL     1      28.771  40.468  21.394  1.00  0.00     0.066 C 
BRANCH  12  13
ATOM     13  C   UNL     1      28.074  40.810  20.082  1.00  0.00     0.140 C 
ATOM     14  O   UNL     1      28.544  41.693  19.377  1.00  0.00    -0.299 OA
BRANCH  13  15
ATOM     15  C   UNL     1      26.730  40.227  19.726  1.00  0.00     0.106 CG0
ATOM     16  G   UNL     1      26.763  38.912  18.956  1.00  0.00     0.000 G0
ENDBRANCH  13  15
ENDBRANCH  12  13
BRANCH  12  17
ATOM     17  C   UNL     1      29.017  41.765  22.230  1.00  0.00    -0.006 C 
ATOM     18  C   UNL     1      28.975  41.480  23.744  1.00  0.00     0.008 C 
ATOM     19  C   UNL     1      27.995  42.871  21.908  1.00  0.00     0.008 C 
ENDBRANCH  12  17
ENDBRANCH  11  12
ENDBRANCH   1  11
TORSDOF 1
ENDMDL
