MODEL 1
REMARK VINA RESULT:    -4.246      0.000      0.000
REMARK INTER + INTRA:          -6.761
REMARK INTER:                  -5.983
REMARK INTRA:                  -0.778
REMARK UNBOUND:                -0.778
REMARK SMILES C=CCCCCCCC(=O)[O-]
REMARK SMILES IDX 6 1 7 2 8 3 9 4 10 5 11 6 5 7 4 8 3 9 2 10 1 11
REMARK H PARENT
REMARK Flexibility Score: inf
ROOT
ATOM      1  C   UNL     1      -3.240  29.618  29.375  1.00  0.00     0.000 C 
ENDROOT
BRANCH   1   2
ATOM      2  C   UNL     1      -4.386  28.961  28.583  1.00  0.00     0.006 C 
BRANCH   2   3
ATOM      3  C   UNL     1      -3.954  28.336  27.247  1.00  0.00     0.053 C 
BRANCH   3   4
ATOM      4  C   UNL     1      -3.155  27.085  27.444  1.00  0.00     0.041 C 
ATOM      5  O   UNL     1      -3.737  25.990  27.665  1.00  0.00    -0.550 OA
ATOM      6  O   UNL     1      -1.767  27.134  27.418  1.00  0.00    -0.550 OA
ENDBRANCH   3   4
ENDBRANCH   2   3
ENDBRANCH   1   2
BRANCH   1   7
ATOM      7  C   UNL     1      -3.046  28.999  30.768  1.00  0.00     0.000 C 
BRANCH   7   8
ATOM      8  C   UNL     1      -3.917  27.749  30.940  1.00  0.00     0.004 C 
BRANCH   8   9
ATOM      9  C   UNL     1      -3.052  26.497  31.125  1.00  0.00     0.027 C 
BRANCH   9  10
ATOM     10  C   UNL     1      -1.587  26.842  31.121  1.00  0.00    -0.035 C 
ATOM     11  C   UNL     1      -0.657  25.955  30.753  1.00  0.00     0.004 C 
ENDBRANCH   9  10
ENDBRANCH   8   9
ENDBRANCH   7   8
ENDBRANCH   1   7
TORSDOF 7
ENDMDL
MODEL 2
REMARK VINA RESULT:    -3.917      1.169      1.430
REMARK INTER + INTRA:          -6.298
REMARK INTER:                  -5.633
REMARK INTRA:                  -0.665
REMARK UNBOUND:                -0.778
REMARK SMILES C=CCCCCCCC(=O)[O-]
REMARK SMILES IDX 6 1 7 2 8 3 9 4 10 5 11 6 5 7 4 8 3 9 2 10 1 11
REMARK H PARENT
REMARK Flexibility Score: inf
ROOT
ATOM      1  C   UNL     1      -3.423  29.228  28.729  1.00  0.00     0.000 C 
ENDROOT
BRANCH   1   2
ATOM      2  C   UNL     1      -4.362  28.401  27.831  1.00  0.00     0.006 C 
BRANCH   2   3
ATOM      3  C   UNL     1      -3.790  27.042  27.399  1.00  0.00     0.053 C 
BRANCH   3   4
ATOM      4  C   UNL     1      -2.347  27.137  27.008  1.00  0.00     0.041 C 
ATOM      5  O   UNL     1      -2.029  27.539  25.857  1.00  0.00    -0.550 OA
ATOM      6  O   UNL     1      -1.356  26.750  27.901  1.00  0.00    -0.550 OA
ENDBRANCH   3   4
ENDBRANCH   2   3
ENDBRANCH   1   2
BRANCH   1   7
ATOM      7  C   UNL     1      -4.114  29.743  30.000  1.00  0.00     0.000 C 
BRANCH   7   8
ATOM      8  C   UNL     1      -4.052  28.699  31.121  1.00  0.00     0.004 C 
BRANCH   8   9
ATOM      9  C   UNL     1      -2.722  27.938  31.092  1.00  0.00     0.027 C 
BRANCH   9  10
ATOM     10  C   UNL     1      -2.945  26.450  31.125  1.00  0.00    -0.035 C 
ATOM     11  C   UNL     1      -1.925  25.586  31.125  1.00  0.00     0.004 C 
ENDBRANCH   9  10
ENDBRANCH   8   9
ENDBRANCH   7   8
ENDBRANCH   1   7
TORSDOF 7
ENDMDL
MODEL 3
REMARK VINA RESULT:    -3.689      2.071      4.153
REMARK INTER + INTRA:          -5.976
REMARK INTER:                  -5.292
REMARK INTRA:                  -0.685
REMARK UNBOUND:                -0.778
REMARK SMILES C=CCCCCCCC(=O)[O-]
REMARK SMILES IDX 6 1 7 2 8 3 9 4 10 5 11 6 5 7 4 8 3 9 2 10 1 11
REMARK H PARENT
REMARK Flexibility Score: inf
ROOT
ATOM      1  C   UNL     1      -2.219  26.466  29.652  1.00  0.00     0.000 C 
ENDROOT
BRANCH   1   2
ATOM      2  C   UNL     1      -2.082  27.524  30.762  1.00  0.00     0.006 C 
BRANCH   2   3
ATOM      3  C   UNL     1      -3.374  28.300  31.059  1.00  0.00     0.053 C 
BRANCH   3   4
ATOM      4  C   UNL     1      -3.573  29.446  30.115  1.00  0.00     0.041 C 
ATOM      5  O   UNL     1      -4.735  29.778  29.758  1.00  0.00    -0.550 OA
ATOM      6  O   UNL     1      -2.475  30.125  29.602  1.00  0.00    -0.550 OA
ENDBRANCH   3   4
ENDBRANCH   2   3
ENDBRANCH   1   2
BRANCH   1   7
ATOM      7  C   UNL     1      -3.681  26.114  29.341  1.00  0.00     0.000 C 
BRANCH   7   8
ATOM      8  C   UNL     1      -3.958  26.193  27.835  1.00  0.00     0.004 C 
BRANCH   8   9
ATOM      9  C   UNL     1      -2.769  26.811  27.088  1.00  0.00     0.027 C 
BRANCH   9  10
ATOM     10  C   UNL     1      -3.179  28.054  26.347  1.00  0.00    -0.035 C 
ATOM     11  C   UNL     1      -4.377  28.619  26.527  1.00  0.00     0.004 C 
ENDBRANCH   9  10
ENDBRANCH   8   9
ENDBRANCH   7   8
ENDBRANCH   1   7
TORSDOF 7
ENDMDL
MODEL 4
REMARK VINA RESULT:    -3.558      1.516      2.930
REMARK INTER + INTRA:          -5.792
REMARK INTER:                  -4.982
REMARK INTRA:                  -0.809
REMARK UNBOUND:                -0.778
REMARK SMILES C=CCCCCCCC(=O)[O-]
REMARK SMILES IDX 6 1 7 2 8 3 9 4 10 5 11 6 5 7 4 8 3 9 2 10 1 11
REMARK H PARENT
REMARK Flexibility Score: inf
ROOT
ATOM      1  C   UNL     1      -2.650  26.280  29.022  1.00  0.00     0.000 C 
ENDROOT
BRANCH   1   2
ATOM      2  C   UNL     1      -3.941  26.439  28.197  1.00  0.00     0.006 C 
BRANCH   2   3
ATOM      3  C   UNL     1      -3.952  27.663  27.268  1.00  0.00     0.053 C 
BRANCH   3   4
ATOM      4  C   UNL     1      -2.626  27.878  26.605  1.00  0.00     0.041 C 
ATOM      5  O   UNL     1      -1.855  28.788  27.012  1.00  0.00    -0.550 OA
ATOM      6  O   UNL     1      -2.256  27.099  25.516  1.00  0.00    -0.550 OA
ENDBRANCH   3   4
ENDBRANCH   2   3
ENDBRANCH   1   2
BRANCH   1   7
ATOM      7  C   UNL     1      -2.902  26.316  30.536  1.00  0.00     0.000 C 
BRANCH   7   8
ATOM      8  C   UNL     1      -3.405  27.695  30.978  1.00  0.00     0.004 C 
BRANCH   8   9
ATOM      9  C   UNL     1      -2.376  28.785  30.655  1.00  0.00     0.027 C 
BRANCH   9  10
ATOM     10  C   UNL     1      -3.040  30.009  30.084  1.00  0.00    -0.035 C 
ATOM     11  C   UNL     1      -4.370  30.125  30.025  1.00  0.00     0.004 C 
ENDBRANCH   9  10
ENDBRANCH   8   9
ENDBRANCH   7   8
ENDBRANCH   1   7
TORSDOF 7
ENDMDL
MODEL 5
REMARK VINA RESULT:    -3.324      1.980      4.014
REMARK INTER + INTRA:          -5.463
REMARK INTER:                  -5.335
REMARK INTRA:                  -0.128
REMARK UNBOUND:                -0.778
REMARK SMILES C=CCCCCCCC(=O)[O-]
REMARK SMILES IDX 6 1 7 2 8 3 9 4 10 5 11 6 5 7 4 8 3 9 2 10 1 11
REMARK H PARENT
REMARK Flexibility Score: inf
ROOT
ATOM      1  C   UNL     1      -3.197  26.222  27.923  1.00  0.00     0.000 C 
ENDROOT
BRANCH   1   2
ATOM      2  C   UNL     1      -3.480  26.411  29.425  1.00  0.00     0.006 C 
BRANCH   2   3
ATOM      3  C   UNL     1      -2.492  25.685  30.351  1.00  0.00     0.053 C 
BRANCH   3   4
ATOM      4  C   UNL     1      -1.300  26.531  30.676  1.00  0.00     0.041 C 
ATOM      5  O   UNL     1      -0.169  25.998  30.835  1.00  0.00    -0.550 OA
ATOM      6  O   UNL     1      -1.443  27.903  30.840  1.00  0.00    -0.550 OA
ENDBRANCH   3   4
ENDBRANCH   2   3
ENDBRANCH   1   2
BRANCH   1   7
ATOM      7  C   UNL     1      -3.436  27.500  27.106  1.00  0.00     0.000 C 
BRANCH   7   8
ATOM      8  C   UNL     1      -3.132  28.751  27.939  1.00  0.00     0.004 C 
BRANCH   8   9
ATOM      9  C   UNL     1      -4.370  29.207  28.719  1.00  0.00     0.027 C 
BRANCH   9  10
ATOM     10  C   UNL     1      -3.993  30.123  29.852  1.00  0.00    -0.035 C 
ATOM     11  C   UNL     1      -4.254  29.812  31.125  1.00  0.00     0.004 C 
ENDBRANCH   9  10
ENDBRANCH   8   9
ENDBRANCH   7   8
ENDBRANCH   1   7
TORSDOF 7
ENDMDL
MODEL 6
REMARK VINA RESULT:    -2.976      2.229      4.080
REMARK INTER + INTRA:          -4.973
REMARK INTER:                  -4.469
REMARK INTRA:                  -0.504
REMARK UNBOUND:                -0.778
REMARK SMILES C=CCCCCCCC(=O)[O-]
REMARK SMILES IDX 6 1 7 2 8 3 9 4 10 5 11 6 5 7 4 8 3 9 2 10 1 11
REMARK H PARENT
REMARK Flexibility Score: inf
ROOT
ATOM      1  C   UNL     1      -4.269  26.747  28.353  1.00  0.00     0.000 C 
ENDROOT
BRANCH   1   2
ATOM      2  C   UNL     1      -3.941  27.078  29.821  1.00  0.00     0.006 C 
BRANCH   2   3
ATOM      3  C   UNL     1      -2.470  27.443  30.074  1.00  0.00     0.053 C 
BRANCH   3   4
ATOM      4  C   UNL     1      -1.666  26.262  30.523  1.00  0.00     0.041 C 
ATOM      5  O   UNL     1      -0.421  26.233  30.329  1.00  0.00    -0.550 OA
ATOM      6  O   UNL     1      -2.295  25.179  31.124  1.00  0.00    -0.550 OA
ENDBRANCH   3   4
ENDBRANCH   2   3
ENDBRANCH   1   2
BRANCH   1   7
ATOM      7  C   UNL     1      -4.533  27.999  27.504  1.00  0.00     0.000 C 
BRANCH   7   8
ATOM      8  C   UNL     1      -3.598  28.048  26.290  1.00  0.00     0.004 C 
BRANCH   8   9
ATOM      9  C   UNL     1      -2.215  28.581  26.682  1.00  0.00     0.027 C 
BRANCH   9  10
ATOM     10  C   UNL     1      -1.176  27.494  26.626  1.00  0.00    -0.035 C 
ATOM     11  C   UNL     1      -0.079  27.607  25.871  1.00  0.00     0.004 C 
ENDBRANCH   9  10
ENDBRANCH   8   9
ENDBRANCH   7   8
ENDBRANCH   1   7
TORSDOF 7
ENDMDL
MODEL 7
REMARK VINA RESULT:    -2.757      2.059      3.770
REMARK INTER + INTRA:          -4.663
REMARK INTER:                  -4.190
REMARK INTRA:                  -0.474
REMARK UNBOUND:                -0.778
REMARK SMILES C=CCCCCCCC(=O)[O-]
REMARK SMILES IDX 6 1 7 2 8 3 9 4 10 5 11 6 5 7 4 8 3 9 2 10 1 11
REMARK H PARENT
REMARK Flexibility Score: inf
ROOT
ATOM      1  C   UNL     1      -4.781  28.676  28.258  1.00  0.00     0.000 C 
ENDROOT
BRANCH   1   2
ATOM      2  C   UNL     1      -3.486  29.163  28.935  1.00  0.00     0.006 C 
BRANCH   2   3
ATOM      3  C   UNL     1      -3.480  29.021  30.465  1.00  0.00     0.053 C 
BRANCH   3   4
ATOM      4  C   UNL     1      -3.464  27.587  30.897  1.00  0.00     0.041 C 
ATOM      5  O   UNL     1      -4.546  26.971  31.087  1.00  0.00    -0.550 OA
ATOM      6  O   UNL     1      -2.255  26.940  31.124  1.00  0.00    -0.550 OA
ENDBRANCH   3   4
ENDBRANCH   2   3
ENDBRANCH   1   2
BRANCH   1   7
ATOM      7  C   UNL     1      -4.519  27.893  26.963  1.00  0.00     0.000 C 
BRANCH   7   8
ATOM      8  C   UNL     1      -3.277  28.427  26.240  1.00  0.00     0.004 C 
BRANCH   8   9
ATOM      9  C   UNL     1      -2.376  27.278  25.772  1.00  0.00     0.027 C 
BRANCH   9  10
ATOM     10  C   UNL     1      -1.138  27.176  26.621  1.00  0.00    -0.035 C 
ATOM     11  C   UNL     1      -1.190  26.774  27.894  1.00  0.00     0.004 C 
ENDBRANCH   9  10
ENDBRANCH   8   9
ENDBRANCH   7   8
ENDBRANCH   1   7
TORSDOF 7
ENDMDL
MODEL 8
REMARK VINA RESULT:    -2.712      1.850      2.451
REMARK INTER + INTRA:          -4.601
REMARK INTER:                  -4.480
REMARK INTRA:                  -0.121
REMARK UNBOUND:                -0.778
REMARK SMILES C=CCCCCCCC(=O)[O-]
REMARK SMILES IDX 6 1 7 2 8 3 9 4 10 5 11 6 5 7 4 8 3 9 2 10 1 11
REMARK H PARENT
REMARK Flexibility Score: inf
ROOT
ATOM      1  C   UNL     1      -3.480  26.322  27.986  1.00  0.00     0.000 C 
ENDROOT
BRANCH   1   2
ATOM      2  C   UNL     1      -2.239  27.119  27.542  1.00  0.00     0.006 C 
BRANCH   2   3
ATOM      3  C   UNL     1      -2.515  28.161  26.448  1.00  0.00     0.053 C 
BRANCH   3   4
ATOM      4  C   UNL     1      -3.955  28.573  26.412  1.00  0.00     0.041 C 
ATOM      5  O   UNL     1      -4.503  29.048  27.443  1.00  0.00    -0.550 OA
ATOM      6  O   UNL     1      -4.702  28.399  25.254  1.00  0.00    -0.550 OA
ENDBRANCH   3   4
ENDBRANCH   2   3
ENDBRANCH   1   2
BRANCH   1   7
ATOM      7  C   UNL     1      -3.728  26.399  29.500  1.00  0.00     0.000 C 
BRANCH   7   8
ATOM      8  C   UNL     1      -3.242  27.737  30.070  1.00  0.00     0.004 C 
BRANCH   8   9
ATOM      9  C   UNL     1      -2.151  27.523  31.125  1.00  0.00     0.027 C 
BRANCH   9  10
ATOM     10  C   UNL     1      -1.660  26.101  31.119  1.00  0.00    -0.035 C 
ATOM     11  C   UNL     1      -0.379  25.799  30.882  1.00  0.00     0.004 C 
ENDBRANCH   9  10
ENDBRANCH   8   9
ENDBRANCH   7   8
ENDBRANCH   1   7
TORSDOF 7
ENDMDL
MODEL 9
REMARK VINA RESULT:    -2.201      1.629      3.442
REMARK INTER + INTRA:          -3.880
REMARK INTER:                  -3.003
REMARK INTRA:                  -0.878
REMARK UNBOUND:                -0.778
REMARK SMILES C=CCCCCCCC(=O)[O-]
REMARK SMILES IDX 6 1 7 2 8 3 9 4 10 5 11 6 5 7 4 8 3 9 2 10 1 11
REMARK H PARENT
REMARK Flexibility Score: inf
ROOT
ATOM      1  C   UNL     1      -3.049  29.639  29.605  1.00  0.00     0.000 C 
ENDROOT
BRANCH   1   2
ATOM      2  C   UNL     1      -2.309  28.732  30.606  1.00  0.00     0.006 C 
BRANCH   2   3
ATOM      3  C   UNL     1      -3.028  27.408  30.910  1.00  0.00     0.053 C 
BRANCH   3   4
ATOM      4  C   UNL     1      -2.152  26.220  30.650  1.00  0.00     0.041 C 
ATOM      5  O   UNL     1      -2.457  25.094  31.125  1.00  0.00    -0.550 OA
ATOM      6  O   UNL     1      -0.983  26.364  29.914  1.00  0.00    -0.550 OA
ENDBRANCH   3   4
ENDBRANCH   2   3
ENDBRANCH   1   2
BRANCH   1   7
ATOM      7  C   UNL     1      -4.375  29.035  29.120  1.00  0.00     0.000 C 
BRANCH   7   8
ATOM      8  C   UNL     1      -4.316  28.712  27.622  1.00  0.00     0.004 C 
BRANCH   8   9
ATOM      9  C   UNL     1      -4.248  27.198  27.388  1.00  0.00     0.027 C 
BRANCH   9  10
ATOM     10  C   UNL     1      -2.868  26.773  26.967  1.00  0.00    -0.035 C 
ATOM     11  C   UNL     1      -1.924  27.664  26.646  1.00  0.00     0.004 C 
ENDBRANCH   9  10
ENDBRANCH   8   9
ENDBRANCH   7   8
ENDBRANCH   1   7
TORSDOF 7
ENDMDL
