MODEL 1
REMARK VINA RESULT:    -3.398      0.000      0.000
REMARK INTER + INTRA:          -3.398
REMARK INTER:                  -3.398
REMARK INTRA:                   0.000
REMARK UNBOUND:                 0.000
REMARK SMILES CC(=O)[O-]
REMARK SMILES IDX 1 1 2 2 3 3 4 4
REMARK H PARENT
REMARK Flexibility Score: inf
ROOT
ATOM      1  C   UNL     1      29.272  -2.260  19.662  1.00  0.00     0.063 C 
ATOM      2  C   UNL     1      30.033  -3.332  18.958  1.00  0.00     0.038 C 
ATOM      3  O   UNL     1      29.424  -4.179  18.253  1.00  0.00    -0.550 OA
ATOM      4  O   UNL     1      31.419  -3.369  19.035  1.00  0.00    -0.550 OA
ENDROOT
TORSDOF 0
ENDMDL
MODEL 2
REMARK VINA RESULT:    -3.334      1.457      1.457
REMARK INTER + INTRA:          -3.334
REMARK INTER:                  -3.334
REMARK INTRA:                   0.000
REMARK UNBOUND:                 0.000
REMARK SMILES CC(=O)[O-]
REMARK SMILES IDX 1 1 2 2 3 3 4 4
REMARK H PARENT
REMARK Flexibility Score: inf
ROOT
ATOM      1  C   UNL     1      27.654  -3.446  19.365  1.00  0.00     0.063 C 
ATOM      2  C   UNL     1      29.131  -3.582  19.216  1.00  0.00     0.038 C 
ATOM      3  O   UNL     1      29.611  -4.225  18.245  1.00  0.00    -0.550 OA
ATOM      4  O   UNL     1      29.983  -2.957  20.116  1.00  0.00    -0.550 OA
ENDROOT
TORSDOF 0
ENDMDL
MODEL 3
REMARK VINA RESULT:    -3.320      1.411      1.894
REMARK INTER + INTRA:          -3.320
REMARK INTER:                  -3.320
REMARK INTRA:                   0.000
REMARK UNBOUND:                 0.000
REMARK SMILES CC(=O)[O-]
REMARK SMILES IDX 1 1 2 2 3 3 4 4
REMARK H PARENT
REMARK Flexibility Score: inf
ROOT
ATOM      1  C   UNL     1      27.702  -3.291  19.548  1.00  0.00     0.063 C 
ATOM      2  C   UNL     1      29.168  -3.465  19.338  1.00  0.00     0.038 C 
ATOM      3  O   UNL     1      29.987  -2.960  20.150  1.00  0.00    -0.550 OA
ATOM      4  O   UNL     1      29.635  -4.230  18.278  1.00  0.00    -0.550 OA
ENDROOT
TORSDOF 0
ENDMDL
MODEL 4
REMARK VINA RESULT:    -3.252      1.409      1.915
REMARK INTER + INTRA:          -3.252
REMARK INTER:                  -3.252
REMARK INTRA:                   0.000
REMARK UNBOUND:                 0.000
REMARK SMILES CC(=O)[O-]
REMARK SMILES IDX 1 1 2 2 3 3 4 4
REMARK H PARENT
REMARK Flexibility Score: inf
ROOT
ATOM      1  C   UNL     1      28.920  -4.127  18.707  1.00  0.00     0.063 C 
ATOM      2  C   UNL     1      29.975  -3.265  19.313  1.00  0.00     0.038 C 
ATOM      3  O   UNL     1      31.180  -3.412  18.979  1.00  0.00    -0.550 OA
ATOM      4  O   UNL     1      29.626  -2.261  20.208  1.00  0.00    -0.550 OA
ENDROOT
TORSDOF 0
ENDMDL
MODEL 5
REMARK VINA RESULT:    -3.020      2.076      2.170
REMARK INTER + INTRA:          -3.020
REMARK INTER:                  -3.020
REMARK INTRA:                   0.000
REMARK UNBOUND:                 0.000
REMARK SMILES CC(=O)[O-]
REMARK SMILES IDX 1 1 2 2 3 3 4 4
REMARK H PARENT
REMARK Flexibility Score: inf
ROOT
ATOM      1  C   UNL     1      28.031  -3.667  19.066  1.00  0.00     0.063 C 
ATOM      2  C   UNL     1      29.013  -2.840  19.823  1.00  0.00     0.038 C 
ATOM      3  O   UNL     1      28.629  -1.816  20.448  1.00  0.00    -0.550 OA
ATOM      4  O   UNL     1      30.346  -3.224  19.887  1.00  0.00    -0.550 OA
ENDROOT
TORSDOF 0
ENDMDL
MODEL 6
REMARK VINA RESULT:    -2.951     14.587     14.879
REMARK INTER + INTRA:          -2.951
REMARK INTER:                  -2.951
REMARK INTRA:                   0.000
REMARK UNBOUND:                 0.000
REMARK SMILES CC(=O)[O-]
REMARK SMILES IDX 1 1 2 2 3 3 4 4
REMARK H PARENT
REMARK Flexibility Score: inf
ROOT
ATOM      1  C   UNL     1      19.528  -7.477  10.376  1.00  0.00     0.063 C 
ATOM      2  C   UNL     1      18.800  -8.622  10.994  1.00  0.00     0.038 C 
ATOM      3  O   UNL     1      18.039  -8.430  11.978  1.00  0.00    -0.550 OA
ATOM      4  O   UNL     1      18.918  -9.896  10.454  1.00  0.00    -0.550 OA
ENDROOT
TORSDOF 0
ENDMDL
MODEL 7
REMARK VINA RESULT:    -2.906      2.132      2.569
REMARK INTER + INTRA:          -2.906
REMARK INTER:                  -2.906
REMARK INTRA:                   0.000
REMARK UNBOUND:                 0.000
REMARK SMILES CC(=O)[O-]
REMARK SMILES IDX 1 1 2 2 3 3 4 4
REMARK H PARENT
REMARK Flexibility Score: inf
ROOT
ATOM      1  C   UNL     1      26.747  -3.983  19.526  1.00  0.00     0.063 C 
ATOM      2  C   UNL     1      28.214  -3.849  19.294  1.00  0.00     0.038 C 
ATOM      3  O   UNL     1      28.907  -3.114  20.045  1.00  0.00    -0.550 OA
ATOM      4  O   UNL     1      28.829  -4.575  18.283  1.00  0.00    -0.550 OA
ENDROOT
TORSDOF 0
ENDMDL
MODEL 8
REMARK VINA RESULT:    -2.784     14.311     14.922
REMARK INTER + INTRA:          -2.784
REMARK INTER:                  -2.784
REMARK INTRA:                   0.000
REMARK UNBOUND:                 0.000
REMARK SMILES CC(=O)[O-]
REMARK SMILES IDX 1 1 2 2 3 3 4 4
REMARK H PARENT
REMARK Flexibility Score: inf
ROOT
ATOM      1  C   UNL     1      18.299  -8.587  11.477  1.00  0.00     0.063 C 
ATOM      2  C   UNL     1      18.968  -7.891  10.340  1.00  0.00     0.038 C 
ATOM      3  O   UNL     1      19.883  -7.056  10.561  1.00  0.00    -0.550 OA
ATOM      4  O   UNL     1      18.621  -8.202   9.031  1.00  0.00    -0.550 OA
ENDROOT
TORSDOF 0
ENDMDL
MODEL 9
REMARK VINA RESULT:    -2.773      2.443      3.156
REMARK INTER + INTRA:          -2.773
REMARK INTER:                  -2.773
REMARK INTRA:                   0.000
REMARK UNBOUND:                 0.000
REMARK SMILES CC(=O)[O-]
REMARK SMILES IDX 1 1 2 2 3 3 4 4
REMARK H PARENT
REMARK Flexibility Score: inf
ROOT
ATOM      1  C   UNL     1      26.971  -3.860  19.360  1.00  0.00     0.063 C 
ATOM      2  C   UNL     1      27.823  -4.869  18.668  1.00  0.00     0.038 C 
ATOM      3  O   UNL     1      28.937  -4.532  18.187  1.00  0.00    -0.550 OA
ATOM      4  O   UNL     1      27.417  -6.195  18.598  1.00  0.00    -0.550 OA
ENDROOT
TORSDOF 0
ENDMDL
