MODEL 1
REMARK VINA RESULT:    -5.112      0.000      0.000
REMARK INTER + INTRA:          -5.585
REMARK INTER:                  -5.411
REMARK INTRA:                  -0.175
REMARK UNBOUND:                -0.175
REMARK SMILES CC(C)[C@H]1CC[C@H](C)CC1=O
REMARK SMILES IDX 8 1 7 2 6 3 5 4 4 5 10 6 11 7 9 8 2 9 1 10 3 11
REMARK H PARENT
REMARK Flexibility Score: inf
ROOT
ATOM      1  C   UNL     1      58.619   3.626  -3.351  1.00  0.00     0.008 C 
ATOM      2  C   UNL     1      58.442   2.120  -3.131  1.00  0.00    -0.007 C 
ATOM      3  C   UNL     1      59.728   1.361  -3.516  1.00  0.00     0.004 C 
ATOM      4  C   UNL     1      59.539  -0.152  -3.341  1.00  0.00     0.012 C 
ATOM      5  C   UNL     1      59.176  -0.513  -1.881  1.00  0.00     0.058 C 
ATOM      6  C   UNL     1      58.015   0.348  -1.414  1.00  0.00     0.136 C 
ATOM      7  O   UNL     1      57.108  -0.121  -0.739  1.00  0.00    -0.299 OA
ATOM      8  C   UNL     1      58.054   1.830  -1.670  1.00  0.00     0.079 C 
ENDROOT
BRANCH   5   9
ATOM      9  C   UNL     1      58.937  -2.041  -1.661  1.00  0.00    -0.007 C 
ATOM     10  C   UNL     1      58.265  -2.737  -2.858  1.00  0.00     0.008 C 
ATOM     11  C   UNL     1      60.234  -2.774  -1.285  1.00  0.00     0.008 C 
ENDBRANCH   5   9
TORSDOF 1
ENDMDL
MODEL 2
REMARK VINA RESULT:    -4.763      1.896      4.138
REMARK INTER + INTRA:          -5.216
REMARK INTER:                  -5.043
REMARK INTRA:                  -0.173
REMARK UNBOUND:                -0.175
REMARK SMILES CC(C)[C@H]1CC[C@H](C)CC1=O
REMARK SMILES IDX 8 1 7 2 6 3 5 4 4 5 10 6 11 7 9 8 2 9 1 10 3 11
REMARK H PARENT
REMARK Flexibility Score: inf
ROOT
ATOM      1  C   UNL     1      56.461  -1.860   1.177  1.00  0.00     0.008 C 
ATOM      2  C   UNL     1      56.900  -1.065  -0.058  1.00  0.00    -0.007 C 
ATOM      3  C   UNL     1      57.889   0.049   0.338  1.00  0.00     0.004 C 
ATOM      4  C   UNL     1      58.296   0.877  -0.889  1.00  0.00     0.012 C 
ATOM      5  C   UNL     1      58.961  -0.006  -1.972  1.00  0.00     0.058 C 
ATOM      6  C   UNL     1      58.084  -1.212  -2.260  1.00  0.00     0.136 C 
ATOM      7  O   UNL     1      57.918  -1.618  -3.402  1.00  0.00    -0.299 OA
ATOM      8  C   UNL     1      57.526  -2.002  -1.107  1.00  0.00     0.079 C 
ENDROOT
BRANCH   5   9
ATOM      9  C   UNL     1      59.359   0.787  -3.258  1.00  0.00    -0.007 C 
ATOM     10  C   UNL     1      58.783   2.213  -3.307  1.00  0.00     0.008 C 
ATOM     11  C   UNL     1      60.882   0.827  -3.456  1.00  0.00     0.008 C 
ENDBRANCH   5   9
TORSDOF 1
ENDMDL
MODEL 3
REMARK VINA RESULT:    -4.760      1.614      2.466
REMARK INTER + INTRA:          -5.213
REMARK INTER:                  -5.036
REMARK INTRA:                  -0.177
REMARK UNBOUND:                -0.175
REMARK SMILES CC(C)[C@H]1CC[C@H](C)CC1=O
REMARK SMILES IDX 8 1 7 2 6 3 5 4 4 5 10 6 11 7 9 8 2 9 1 10 3 11
REMARK H PARENT
REMARK Flexibility Score: inf
ROOT
ATOM      1  C   UNL     1      58.616   3.631  -3.514  1.00  0.00     0.008 C 
ATOM      2  C   UNL     1      58.984   2.402  -2.676  1.00  0.00    -0.007 C 
ATOM      3  C   UNL     1      57.834   2.035  -1.718  1.00  0.00     0.004 C 
ATOM      4  C   UNL     1      58.217   0.833  -0.844  1.00  0.00     0.012 C 
ATOM      5  C   UNL     1      58.552  -0.409  -1.705  1.00  0.00     0.058 C 
ATOM      6  C   UNL     1      59.561  -0.033  -2.776  1.00  0.00     0.136 C 
ATOM      7  O   UNL     1      60.487  -0.778  -3.065  1.00  0.00    -0.299 OA
ATOM      8  C   UNL     1      59.334   1.213  -3.589  1.00  0.00     0.079 C 
ENDROOT
BRANCH   5   9
ATOM      9  C   UNL     1      58.985  -1.649  -0.860  1.00  0.00    -0.007 C 
ATOM     10  C   UNL     1      59.646  -1.282   0.480  1.00  0.00     0.008 C 
ATOM     11  C   UNL     1      57.814  -2.616  -0.622  1.00  0.00     0.008 C 
ENDBRANCH   5   9
TORSDOF 1
ENDMDL
MODEL 4
REMARK VINA RESULT:    -4.530      1.254      4.230
REMARK INTER + INTRA:          -4.969
REMARK INTER:                  -4.802
REMARK INTRA:                  -0.167
REMARK UNBOUND:                -0.175
REMARK SMILES CC(C)[C@H]1CC[C@H](C)CC1=O
REMARK SMILES IDX 8 1 7 2 6 3 5 4 4 5 10 6 11 7 9 8 2 9 1 10 3 11
REMARK H PARENT
REMARK Flexibility Score: inf
ROOT
ATOM      1  C   UNL     1      57.465  -3.940  -1.002  1.00  0.00     0.008 C 
ATOM      2  C   UNL     1      58.176  -2.622  -1.325  1.00  0.00    -0.007 C 
ATOM      3  C   UNL     1      58.182  -2.367  -2.845  1.00  0.00     0.004 C 
ATOM      4  C   UNL     1      58.934  -1.070  -3.177  1.00  0.00     0.012 C 
ATOM      5  C   UNL     1      58.289   0.151  -2.479  1.00  0.00     0.058 C 
ATOM      6  C   UNL     1      58.111  -0.140  -0.999  1.00  0.00     0.136 C 
ATOM      7  O   UNL     1      58.341   0.713  -0.152  1.00  0.00    -0.299 OA
ATOM      8  C   UNL     1      57.507  -1.452  -0.579  1.00  0.00     0.079 C 
ENDROOT
BRANCH   5   9
ATOM      9  C   UNL     1      59.043   1.491  -2.756  1.00  0.00    -0.007 C 
ATOM     10  C   UNL     1      60.271   1.330  -3.670  1.00  0.00     0.008 C 
ATOM     11  C   UNL     1      58.104   2.569  -3.320  1.00  0.00     0.008 C 
ENDBRANCH   5   9
TORSDOF 1
ENDMDL
MODEL 5
REMARK VINA RESULT:    -4.528      2.307      3.311
REMARK INTER + INTRA:          -4.967
REMARK INTER:                  -4.836
REMARK INTRA:                  -0.131
REMARK UNBOUND:                -0.175
REMARK SMILES CC(C)[C@H]1CC[C@H](C)CC1=O
REMARK SMILES IDX 8 1 7 2 6 3 5 4 4 5 10 6 11 7 9 8 2 9 1 10 3 11
REMARK H PARENT
REMARK Flexibility Score: inf
ROOT
ATOM      1  C   UNL     1      59.460   1.181  -3.577  1.00  0.00     0.008 C 
ATOM      2  C   UNL     1      59.126   0.307  -2.363  1.00  0.00    -0.007 C 
ATOM      3  C   UNL     1      58.464   1.149  -1.254  1.00  0.00     0.004 C 
ATOM      4  C   UNL     1      58.170   0.287  -0.018  1.00  0.00     0.012 C 
ATOM      5  C   UNL     1      57.231  -0.893  -0.362  1.00  0.00     0.058 C 
ATOM      6  C   UNL     1      57.771  -1.643  -1.568  1.00  0.00     0.136 C 
ATOM      7  O   UNL     1      57.745  -2.865  -1.619  1.00  0.00    -0.299 OA
ATOM      8  C   UNL     1      58.214  -0.863  -2.776  1.00  0.00     0.079 C 
ENDROOT
BRANCH   5   9
ATOM      9  C   UNL     1      56.932  -1.823   0.857  1.00  0.00    -0.007 C 
ATOM     10  C   UNL     1      58.185  -2.197   1.668  1.00  0.00     0.008 C 
ATOM     11  C   UNL     1      55.864  -1.223   1.785  1.00  0.00     0.008 C 
ENDBRANCH   5   9
TORSDOF 1
ENDMDL
MODEL 6
REMARK VINA RESULT:    -4.512     11.062     12.406
REMARK INTER + INTRA:          -4.951
REMARK INTER:                  -4.776
REMARK INTRA:                  -0.174
REMARK UNBOUND:                -0.175
REMARK SMILES CC(C)[C@H]1CC[C@H](C)CC1=O
REMARK SMILES IDX 8 1 7 2 6 3 5 4 4 5 10 6 11 7 9 8 2 9 1 10 3 11
REMARK H PARENT
REMARK Flexibility Score: inf
ROOT
ATOM      1  C   UNL     1      52.896  -8.798  -4.745  1.00  0.00     0.008 C 
ATOM      2  C   UNL     1      51.518  -8.683  -4.086  1.00  0.00    -0.007 C 
ATOM      3  C   UNL     1      51.584  -9.122  -2.610  1.00  0.00     0.004 C 
ATOM      4  C   UNL     1      50.196  -9.052  -1.958  1.00  0.00     0.012 C 
ATOM      5  C   UNL     1      49.615  -7.619  -2.016  1.00  0.00     0.058 C 
ATOM      6  C   UNL     1      49.696  -7.091  -3.438  1.00  0.00     0.136 C 
ATOM      7  O   UNL     1      48.779  -6.448  -3.930  1.00  0.00    -0.299 OA
ATOM      8  C   UNL     1      50.983  -7.244  -4.203  1.00  0.00     0.079 C 
ENDROOT
BRANCH   5   9
ATOM      9  C   UNL     1      48.185  -7.506  -1.398  1.00  0.00    -0.007 C 
ATOM     10  C   UNL     1      47.488  -8.863  -1.203  1.00  0.00     0.008 C 
ATOM     11  C   UNL     1      48.195  -6.724  -0.075  1.00  0.00     0.008 C 
ENDBRANCH   5   9
TORSDOF 1
ENDMDL
MODEL 7
REMARK VINA RESULT:    -4.225     11.165     12.267
REMARK INTER + INTRA:          -4.646
REMARK INTER:                  -4.484
REMARK INTRA:                  -0.162
REMARK UNBOUND:                -0.175
REMARK SMILES CC(C)[C@H]1CC[C@H](C)CC1=O
REMARK SMILES IDX 8 1 7 2 6 3 5 4 4 5 10 6 11 7 9 8 2 9 1 10 3 11
REMARK H PARENT
REMARK Flexibility Score: inf
ROOT
ATOM      1  C   UNL     1      47.340  -7.191  -0.478  1.00  0.00     0.008 C 
ATOM      2  C   UNL     1      48.657  -7.303  -1.253  1.00  0.00    -0.007 C 
ATOM      3  C   UNL     1      49.160  -8.760  -1.260  1.00  0.00     0.004 C 
ATOM      4  C   UNL     1      50.503  -8.869  -1.995  1.00  0.00     0.012 C 
ATOM      5  C   UNL     1      50.386  -8.385  -3.461  1.00  0.00     0.058 C 
ATOM      6  C   UNL     1      49.731  -7.015  -3.497  1.00  0.00     0.136 C 
ATOM      7  O   UNL     1      50.131  -6.140  -4.252  1.00  0.00    -0.299 OA
ATOM      8  C   UNL     1      48.483  -6.780  -2.691  1.00  0.00     0.079 C 
ENDROOT
BRANCH   5   9
ATOM      9  C   UNL     1      51.739  -8.441  -4.241  1.00  0.00    -0.007 C 
ATOM     10  C   UNL     1      52.880  -9.104  -3.449  1.00  0.00     0.008 C 
ATOM     11  C   UNL     1      51.581  -9.122  -5.609  1.00  0.00     0.008 C 
ENDBRANCH   5   9
TORSDOF 1
ENDMDL
MODEL 8
REMARK VINA RESULT:    -4.209      9.843     12.115
REMARK INTER + INTRA:          -4.629
REMARK INTER:                  -4.463
REMARK INTRA:                  -0.167
REMARK UNBOUND:                -0.175
REMARK SMILES CC(C)[C@H]1CC[C@H](C)CC1=O
REMARK SMILES IDX 8 1 7 2 6 3 5 4 4 5 10 6 11 7 9 8 2 9 1 10 3 11
REMARK H PARENT
REMARK Flexibility Score: inf
ROOT
ATOM      1  C   UNL     1      47.231  -8.431  -0.829  1.00  0.00     0.008 C 
ATOM      2  C   UNL     1      48.448  -7.784  -1.498  1.00  0.00    -0.007 C 
ATOM      3  C   UNL     1      49.597  -8.803  -1.635  1.00  0.00     0.004 C 
ATOM      4  C   UNL     1      50.835  -8.146  -2.263  1.00  0.00     0.012 C 
ATOM      5  C   UNL     1      50.520  -7.571  -3.665  1.00  0.00     0.058 C 
ATOM      6  C   UNL     1      49.282  -6.694  -3.593  1.00  0.00     0.136 C 
ATOM      7  O   UNL     1      49.217  -5.636  -4.202  1.00  0.00    -0.299 OA
ATOM      8  C   UNL     1      48.064  -7.207  -2.872  1.00  0.00     0.079 C 
ENDROOT
BRANCH   5   9
ATOM      9  C   UNL     1      51.741  -6.858  -4.329  1.00  0.00    -0.007 C 
ATOM     10  C   UNL     1      53.019  -6.900  -3.474  1.00  0.00     0.008 C 
ATOM     11  C   UNL     1      52.029  -7.408  -5.735  1.00  0.00     0.008 C 
ENDBRANCH   5   9
TORSDOF 1
ENDMDL
MODEL 9
REMARK VINA RESULT:    -4.182      1.917      2.440
REMARK INTER + INTRA:          -4.601
REMARK INTER:                  -4.424
REMARK INTRA:                  -0.177
REMARK UNBOUND:                -0.175
REMARK SMILES CC(C)[C@H]1CC[C@H](C)CC1=O
REMARK SMILES IDX 8 1 7 2 6 3 5 4 4 5 10 6 11 7 9 8 2 9 1 10 3 11
REMARK H PARENT
REMARK Flexibility Score: inf
ROOT
ATOM      1  C   UNL     1      58.639   1.621  -3.284  1.00  0.00     0.008 C 
ATOM      2  C   UNL     1      58.657   0.457  -2.289  1.00  0.00    -0.007 C 
ATOM      3  C   UNL     1      60.094  -0.065  -2.091  1.00  0.00     0.004 C 
ATOM      4  C   UNL     1      60.112  -1.262  -1.130  1.00  0.00     0.012 C 
ATOM      5  C   UNL     1      59.534  -0.884   0.254  1.00  0.00     0.058 C 
ATOM      6  C   UNL     1      58.185  -0.207   0.079  1.00  0.00     0.136 C 
ATOM      7  O   UNL     1      57.249  -0.454   0.827  1.00  0.00    -0.299 OA
ATOM      8  C   UNL     1      58.044   0.887  -0.944  1.00  0.00     0.079 C 
ENDROOT
BRANCH   5   9
ATOM      9  C   UNL     1      59.495  -2.081   1.257  1.00  0.00    -0.007 C 
ATOM     10  C   UNL     1      59.468  -3.459   0.571  1.00  0.00     0.008 C 
ATOM     11  C   UNL     1      60.651  -2.018   2.267  1.00  0.00     0.008 C 
ENDBRANCH   5   9
TORSDOF 1
ENDMDL
