MODEL 1
REMARK VINA RESULT:    53.690      0.000      0.000
REMARK INTER + INTRA:          82.081
REMARK INTER:                  74.092
REMARK INTRA:                   7.989
REMARK UNBOUND:                 7.989
REMARK SMILES CC[C@H](CC[C@H](C)[C@@H]1CC[C@H]2[C@@H]3CC=C4C[C@@H](O)CC[C@]4(C)[C@@H]3CC[C@]21C)C(C)C
REMARK SMILES IDX 5 1 4 2 3 3 2 4 1 5 28 6 29 7 30 8 6 9 7 10 8 11 9 12 26 13
REMARK SMILES IDX 10 14 11 15 25 16 27 17 12 18 24 19 23 20 13 21 21 22 14 23
REMARK SMILES IDX 15 24 20 25 22 26 16 27 19 28 17 29 18 30
REMARK H PARENT 18 31
REMARK Flexibility Score: inf
ROOT
ATOM      1  C   UNL     1     -40.005  23.750   5.406  1.00  0.00     0.004 C 
ENDROOT
BRANCH   1   2
ATOM      2  C   UNL     1     -41.549  23.713   5.497  1.00  0.00     0.004 C 
BRANCH   2   3
ATOM      3  C   UNL     1     -42.080  24.333   6.820  1.00  0.00    -0.009 C 
BRANCH   3   4
ATOM      4  C   UNL     1     -41.656  23.540   8.095  1.00  0.00     0.000 C 
ATOM      5  C   UNL     1     -42.091  22.070   8.156  1.00  0.00     0.004 C 
ENDBRANCH   3   4
BRANCH   3   6
ATOM      6  C   UNL     1     -41.826  25.874   6.945  1.00  0.00    -0.014 C 
ATOM      7  C   UNL     1     -40.495  26.248   7.621  1.00  0.00     0.007 C 
ATOM      8  C   UNL     1     -41.948  26.590   5.585  1.00  0.00     0.007 C 
ENDBRANCH   3   6
ENDBRANCH   2   3
ENDBRANCH   1   2
BRANCH   1   9
ATOM      9  C   UNL     1     -39.252  22.977   6.532  1.00  0.00    -0.011 C 
ATOM     10  C   UNL     1     -40.228  22.308   7.522  1.00  0.00     0.008 C 
BRANCH   9  11
ATOM     11  C   UNL     1     -38.135  23.785   7.290  1.00  0.00    -0.002 C 
ATOM     12  C   UNL     1     -38.610  24.869   8.254  1.00  0.00     0.005 C 
ATOM     13  C   UNL     1     -36.955  24.429   6.454  1.00  0.00    -0.026 C 
ATOM     14  C   UNL     1     -37.347  25.637   8.579  1.00  0.00     0.005 C 
ATOM     15  C   UNL     1     -36.639  25.758   7.231  1.00  0.00    -0.001 C 
ATOM     16  C   UNL     1     -35.759  23.424   6.407  1.00  0.00     0.007 C 
ATOM     17  C   UNL     1     -37.348  24.791   4.995  1.00  0.00     0.012 C 
ATOM     18  C   UNL     1     -35.151  26.215   7.363  1.00  0.00     0.000 C 
ATOM     19  C   UNL     1     -34.381  24.072   6.278  1.00  0.00     0.005 C 
ATOM     20  C   UNL     1     -34.139  25.046   7.456  1.00  0.00     0.003 C 
ATOM     21  C   UNL     1     -34.773  27.182   6.224  1.00  0.00     0.031 C 
ATOM     22  C   UNL     1     -32.651  25.576   7.635  1.00  0.00    -0.008 C 
ATOM     23  C   UNL     1     -33.326  27.569   6.235  1.00  0.00    -0.027 C 
ATOM     24  C   UNL     1     -32.350  26.801   6.763  1.00  0.00    -0.065 C 
ATOM     25  C   UNL     1     -31.597  24.474   7.296  1.00  0.00     0.014 C 
ATOM     26  C   UNL     1     -32.473  25.989   9.125  1.00  0.00     0.016 C 
ATOM     27  C   UNL     1     -30.913  27.293   6.681  1.00  0.00     0.063 C 
ATOM     28  C   UNL     1     -30.142  24.969   7.340  1.00  0.00     0.033 C 
ATOM     29  C   UNL     1     -29.937  26.150   6.377  1.00  0.00     0.118 C 
BRANCH  29  30
ATOM     30  O   UNL     1     -28.625  26.632   6.486  1.00  0.00    -0.393 OA
ATOM     31  H   UNL     1     -28.566  27.118   7.350  1.00  0.00     0.210 HD
ENDBRANCH  29  30
ENDBRANCH   9  11
ENDBRANCH   1   9
TORSDOF 7
ENDMDL
