MODEL 1
REMARK VINA RESULT:    -4.476      0.000      0.000
REMARK INTER + INTRA:          -8.145
REMARK INTER:                  -7.093
REMARK INTRA:                  -1.052
REMARK UNBOUND:                -1.052
REMARK SMILES CCCCCCCCCCCC(=O)[O-]
REMARK SMILES IDX 7 1 8 2 9 3 10 4 11 5 12 6 13 7 14 8 6 9 5 10 4 11 3 12 2 13
REMARK SMILES IDX 1 14
REMARK H PARENT
REMARK Flexibility Score: inf
ROOT
ATOM      1  C   UNL     1     -30.133 -24.385  14.380  1.00  0.00     0.000 C 
ENDROOT
BRANCH   1   2
ATOM      2  C   UNL     1     -30.216 -23.325  15.489  1.00  0.00     0.000 C 
BRANCH   2   3
ATOM      3  C   UNL     1     -30.545 -23.969  16.841  1.00  0.00     0.000 C 
BRANCH   3   4
ATOM      4  C   UNL     1     -30.132 -23.054  18.003  1.00  0.00     0.006 C 
BRANCH   4   5
ATOM      5  C   UNL     1     -29.091 -22.010  17.579  1.00  0.00     0.053 C 
BRANCH   5   6
ATOM      6  C   UNL     1     -29.524 -20.620  17.930  1.00  0.00     0.041 C 
ATOM      7  O   UNL     1     -30.241 -19.958  17.134  1.00  0.00    -0.550 OA
ATOM      8  O   UNL     1     -29.110 -20.043  19.124  1.00  0.00    -0.550 OA
ENDBRANCH   5   6
ENDBRANCH   4   5
ENDBRANCH   3   4
ENDBRANCH   2   3
ENDBRANCH   1   2
BRANCH   1   9
ATOM      9  C   UNL     1     -28.714 -24.539  13.811  1.00  0.00     0.000 C 
BRANCH   9  10
ATOM     10  C   UNL     1     -27.989 -25.782  14.358  1.00  0.00    -0.000 C 
BRANCH  10  11
ATOM     11  C   UNL     1     -27.295 -25.514  15.704  1.00  0.00    -0.000 C 
BRANCH  11  12
ATOM     12  C   UNL     1     -26.457 -24.228  15.696  1.00  0.00    -0.000 C 
BRANCH  12  13
ATOM     13  C   UNL     1     -24.959 -24.550  15.673  1.00  0.00    -0.003 C 
ATOM     14  C   UNL     1     -24.630 -25.712  16.605  1.00  0.00     0.004 C 
ENDBRANCH  12  13
ENDBRANCH  11  12
ENDBRANCH  10  11
ENDBRANCH   9  10
ENDBRANCH   1   9
TORSDOF 10
ENDMDL
MODEL 2
REMARK VINA RESULT:    -4.429     13.215     15.553
REMARK INTER + INTRA:          -8.070
REMARK INTER:                  -7.353
REMARK INTRA:                  -0.717
REMARK UNBOUND:                -1.052
REMARK SMILES CCCCCCCCCCCC(=O)[O-]
REMARK SMILES IDX 7 1 8 2 9 3 10 4 11 5 12 6 13 7 14 8 6 9 5 10 4 11 3 12 2 13
REMARK SMILES IDX 1 14
REMARK H PARENT
REMARK Flexibility Score: inf
ROOT
ATOM      1  C   UNL     1     -24.111 -30.140   6.012  1.00  0.00     0.000 C 
ENDROOT
BRANCH   1   2
ATOM      2  C   UNL     1     -23.035 -30.985   5.314  1.00  0.00     0.000 C 
BRANCH   2   3
ATOM      3  C   UNL     1     -22.590 -30.331   4.001  1.00  0.00     0.000 C 
BRANCH   3   4
ATOM      4  C   UNL     1     -22.526 -31.362   2.865  1.00  0.00     0.006 C 
BRANCH   4   5
ATOM      5  C   UNL     1     -22.399 -32.798   3.390  1.00  0.00     0.053 C 
BRANCH   5   6
ATOM      6  C   UNL     1     -22.139 -33.773   2.282  1.00  0.00     0.041 C 
ATOM      7  O   UNL     1     -21.124 -33.644   1.548  1.00  0.00    -0.550 OA
ATOM      8  O   UNL     1     -23.036 -34.806   2.041  1.00  0.00    -0.550 OA
ENDBRANCH   5   6
ENDBRANCH   4   5
ENDBRANCH   3   4
ENDBRANCH   2   3
ENDBRANCH   1   2
BRANCH   1   9
ATOM      9  C   UNL     1     -24.818 -29.169   5.054  1.00  0.00     0.000 C 
BRANCH   9  10
ATOM     10  C   UNL     1     -26.136 -28.622   5.632  1.00  0.00    -0.000 C 
BRANCH  10  11
ATOM     11  C   UNL     1     -26.839 -29.632   6.553  1.00  0.00    -0.000 C 
BRANCH  11  12
ATOM     12  C   UNL     1     -27.420 -28.981   7.817  1.00  0.00    -0.000 C 
BRANCH  12  13
ATOM     13  C   UNL     1     -26.304 -28.560   8.779  1.00  0.00    -0.003 C 
ATOM     14  C   UNL     1     -26.405 -27.079   9.128  1.00  0.00     0.004 C 
ENDBRANCH  12  13
ENDBRANCH  11  12
ENDBRANCH  10  11
ENDBRANCH   9  10
ENDBRANCH   1   9
TORSDOF 10
ENDMDL
MODEL 3
REMARK VINA RESULT:    -4.398      9.645     11.749
REMARK INTER + INTRA:          -8.022
REMARK INTER:                  -7.578
REMARK INTRA:                  -0.444
REMARK UNBOUND:                -1.052
REMARK SMILES CCCCCCCCCCCC(=O)[O-]
REMARK SMILES IDX 7 1 8 2 9 3 10 4 11 5 12 6 13 7 14 8 6 9 5 10 4 11 3 12 2 13
REMARK SMILES IDX 1 14
REMARK H PARENT
REMARK Flexibility Score: inf
ROOT
ATOM      1  C   UNL     1     -20.908 -23.699  13.427  1.00  0.00     0.000 C 
ENDROOT
BRANCH   1   2
ATOM      2  C   UNL     1     -20.275 -24.762  14.339  1.00  0.00     0.000 C 
BRANCH   2   3
ATOM      3  C   UNL     1     -18.749 -24.769  14.197  1.00  0.00     0.000 C 
BRANCH   3   4
ATOM      4  C   UNL     1     -18.107 -25.749  15.190  1.00  0.00     0.006 C 
BRANCH   4   5
ATOM      5  C   UNL     1     -16.656 -26.083  14.821  1.00  0.00     0.053 C 
BRANCH   5   6
ATOM      6  C   UNL     1     -15.797 -26.240  16.038  1.00  0.00     0.041 C 
ATOM      7  O   UNL     1     -15.336 -25.225  16.626  1.00  0.00    -0.550 OA
ATOM      8  O   UNL     1     -15.478 -27.509  16.505  1.00  0.00    -0.550 OA
ENDBRANCH   5   6
ENDBRANCH   4   5
ENDBRANCH   3   4
ENDBRANCH   2   3
ENDBRANCH   1   2
BRANCH   1   9
ATOM      9  C   UNL     1     -19.893 -22.650  12.945  1.00  0.00     0.000 C 
BRANCH   9  10
ATOM     10  C   UNL     1     -19.846 -22.535  11.411  1.00  0.00    -0.000 C 
BRANCH  10  11
ATOM     11  C   UNL     1     -19.283 -21.184  10.938  1.00  0.00    -0.000 C 
BRANCH  11  12
ATOM     12  C   UNL     1     -20.012 -20.637   9.702  1.00  0.00    -0.000 C 
BRANCH  12  13
ATOM     13  C   UNL     1     -20.666 -21.770   8.904  1.00  0.00    -0.003 C 
ATOM     14  C   UNL     1     -21.826 -21.252   8.060  1.00  0.00     0.004 C 
ENDBRANCH  12  13
ENDBRANCH  11  12
ENDBRANCH  10  11
ENDBRANCH   9  10
ENDBRANCH   1   9
TORSDOF 10
ENDMDL
MODEL 4
REMARK VINA RESULT:    -4.383     10.245     11.835
REMARK INTER + INTRA:          -7.998
REMARK INTER:                  -7.242
REMARK INTRA:                  -0.756
REMARK UNBOUND:                -1.052
REMARK SMILES CCCCCCCCCCCC(=O)[O-]
REMARK SMILES IDX 7 1 8 2 9 3 10 4 11 5 12 6 13 7 14 8 6 9 5 10 4 11 3 12 2 13
REMARK SMILES IDX 1 14
REMARK H PARENT
REMARK Flexibility Score: inf
ROOT
ATOM      1  C   UNL     1     -20.120 -22.792  12.910  1.00  0.00     0.000 C 
ENDROOT
BRANCH   1   2
ATOM      2  C   UNL     1     -20.159 -24.245  13.407  1.00  0.00     0.000 C 
BRANCH   2   3
ATOM      3  C   UNL     1     -19.399 -24.393  14.730  1.00  0.00     0.000 C 
BRANCH   3   4
ATOM      4  C   UNL     1     -18.150 -25.268  14.554  1.00  0.00     0.006 C 
BRANCH   4   5
ATOM      5  C   UNL     1     -18.096 -25.932  13.172  1.00  0.00     0.053 C 
BRANCH   5   6
ATOM      6  C   UNL     1     -16.753 -25.764  12.529  1.00  0.00     0.041 C 
ATOM      7  O   UNL     1     -15.744 -25.487  13.229  1.00  0.00    -0.550 OA
ATOM      8  O   UNL     1     -16.623 -25.882  11.150  1.00  0.00    -0.550 OA
ENDBRANCH   5   6
ENDBRANCH   4   5
ENDBRANCH   3   4
ENDBRANCH   2   3
ENDBRANCH   1   2
BRANCH   1   9
ATOM      9  C   UNL     1     -19.082 -22.573  11.797  1.00  0.00     0.000 C 
BRANCH   9  10
ATOM     10  C   UNL     1     -19.002 -21.104  11.345  1.00  0.00    -0.000 C 
BRANCH  10  11
ATOM     11  C   UNL     1     -19.671 -20.869   9.981  1.00  0.00    -0.000 C 
BRANCH  11  12
ATOM     12  C   UNL     1     -19.964 -22.175   9.230  1.00  0.00    -0.000 C 
BRANCH  12  13
ATOM     13  C   UNL     1     -21.465 -22.326   8.958  1.00  0.00    -0.003 C 
ATOM     14  C   UNL     1     -21.961 -21.257   7.989  1.00  0.00     0.004 C 
ENDBRANCH  12  13
ENDBRANCH  11  12
ENDBRANCH  10  11
ENDBRANCH   9  10
ENDBRANCH   1   9
TORSDOF 10
ENDMDL
MODEL 5
REMARK VINA RESULT:    -4.361     14.856     16.846
REMARK INTER + INTRA:          -7.963
REMARK INTER:                  -7.135
REMARK INTRA:                  -0.828
REMARK UNBOUND:                -1.052
REMARK SMILES CCCCCCCCCCCC(=O)[O-]
REMARK SMILES IDX 7 1 8 2 9 3 10 4 11 5 12 6 13 7 14 8 6 9 5 10 4 11 3 12 2 13
REMARK SMILES IDX 1 14
REMARK H PARENT
REMARK Flexibility Score: inf
ROOT
ATOM      1  C   UNL     1     -22.462 -26.042   1.509  1.00  0.00     0.000 C 
ENDROOT
BRANCH   1   2
ATOM      2  C   UNL     1     -21.465 -25.145   0.760  1.00  0.00     0.000 C 
BRANCH   2   3
ATOM      3  C   UNL     1     -20.079 -25.797   0.700  1.00  0.00     0.000 C 
BRANCH   3   4
ATOM      4  C   UNL     1     -20.129 -27.246   1.206  1.00  0.00     0.006 C 
BRANCH   4   5
ATOM      5  C   UNL     1     -19.120 -27.502   2.334  1.00  0.00     0.053 C 
BRANCH   5   6
ATOM      6  C   UNL     1     -17.707 -27.378   1.853  1.00  0.00     0.041 C 
ATOM      7  O   UNL     1     -17.312 -28.049   0.863  1.00  0.00    -0.550 OA
ATOM      8  O   UNL     1     -16.817 -26.544   2.518  1.00  0.00    -0.550 OA
ENDBRANCH   5   6
ENDBRANCH   4   5
ENDBRANCH   3   4
ENDBRANCH   2   3
ENDBRANCH   1   2
BRANCH   1   9
ATOM      9  C   UNL     1     -22.657 -25.619   2.974  1.00  0.00     0.000 C 
BRANCH   9  10
ATOM     10  C   UNL     1     -23.390 -26.687   3.805  1.00  0.00    -0.000 C 
BRANCH  10  11
ATOM     11  C   UNL     1     -23.008 -28.118   3.394  1.00  0.00    -0.000 C 
BRANCH  11  12
ATOM     12  C   UNL     1     -24.137 -29.130   3.642  1.00  0.00    -0.000 C 
BRANCH  12  13
ATOM     13  C   UNL     1     -25.046 -28.666   4.786  1.00  0.00    -0.003 C 
ATOM     14  C   UNL     1     -24.937 -29.597   5.990  1.00  0.00     0.004 C 
ENDBRANCH  12  13
ENDBRANCH  11  12
ENDBRANCH  10  11
ENDBRANCH   9  10
ENDBRANCH   1   9
TORSDOF 10
ENDMDL
MODEL 6
REMARK VINA RESULT:    -4.351     11.578     13.794
REMARK INTER + INTRA:          -7.947
REMARK INTER:                  -7.218
REMARK INTRA:                  -0.729
REMARK UNBOUND:                -1.052
REMARK SMILES CCCCCCCCCCCC(=O)[O-]
REMARK SMILES IDX 7 1 8 2 9 3 10 4 11 5 12 6 13 7 14 8 6 9 5 10 4 11 3 12 2 13
REMARK SMILES IDX 1 14
REMARK H PARENT
REMARK Flexibility Score: inf
ROOT
ATOM      1  C   UNL     1     -25.363 -29.092   6.488  1.00  0.00     0.000 C 
ENDROOT
BRANCH   1   2
ATOM      2  C   UNL     1     -25.177 -28.103   5.326  1.00  0.00     0.000 C 
BRANCH   2   3
ATOM      3  C   UNL     1     -24.611 -28.810   4.090  1.00  0.00     0.000 C 
BRANCH   3   4
ATOM      4  C   UNL     1     -23.495 -29.791   4.478  1.00  0.00     0.006 C 
BRANCH   4   5
ATOM      5  C   UNL     1     -22.707 -30.287   3.258  1.00  0.00     0.053 C 
BRANCH   5   6
ATOM      6  C   UNL     1     -22.541 -31.776   3.273  1.00  0.00     0.041 C 
ATOM      7  O   UNL     1     -22.530 -32.402   4.366  1.00  0.00    -0.550 OA
ATOM      8  O   UNL     1     -22.365 -32.468   2.082  1.00  0.00    -0.550 OA
ENDBRANCH   5   6
ENDBRANCH   4   5
ENDBRANCH   3   4
ENDBRANCH   2   3
ENDBRANCH   1   2
BRANCH   1   9
ATOM      9  C   UNL     1     -26.817 -29.567   6.637  1.00  0.00     0.000 C 
BRANCH   9  10
ATOM     10  C   UNL     1     -27.563 -28.838   7.769  1.00  0.00    -0.000 C 
BRANCH  10  11
ATOM     11  C   UNL     1     -26.608 -28.221   8.804  1.00  0.00    -0.000 C 
BRANCH  11  12
ATOM     12  C   UNL     1     -27.231 -27.038   9.558  1.00  0.00    -0.000 C 
BRANCH  12  13
ATOM     13  C   UNL     1     -26.352 -25.788   9.440  1.00  0.00    -0.003 C 
ATOM     14  C   UNL     1     -25.096 -26.072   8.620  1.00  0.00     0.004 C 
ENDBRANCH  12  13
ENDBRANCH  11  12
ENDBRANCH  10  11
ENDBRANCH   9  10
ENDBRANCH   1   9
TORSDOF 10
ENDMDL
MODEL 7
REMARK VINA RESULT:    -4.342      1.535      3.617
REMARK INTER + INTRA:          -7.933
REMARK INTER:                  -6.466
REMARK INTRA:                  -1.466
REMARK UNBOUND:                -1.052
REMARK SMILES CCCCCCCCCCCC(=O)[O-]
REMARK SMILES IDX 7 1 8 2 9 3 10 4 11 5 12 6 13 7 14 8 6 9 5 10 4 11 3 12 2 13
REMARK SMILES IDX 1 14
REMARK H PARENT
REMARK Flexibility Score: inf
ROOT
ATOM      1  C   UNL     1     -27.758 -24.951  16.453  1.00  0.00     0.000 C 
ENDROOT
BRANCH   1   2
ATOM      2  C   UNL     1     -28.742 -25.216  17.603  1.00  0.00     0.000 C 
BRANCH   2   3
ATOM      3  C   UNL     1     -29.589 -23.973  17.898  1.00  0.00     0.000 C 
BRANCH   3   4
ATOM      4  C   UNL     1     -28.995 -22.728  17.224  1.00  0.00     0.006 C 
BRANCH   4   5
ATOM      5  C   UNL     1     -30.057 -21.656  16.945  1.00  0.00     0.053 C 
BRANCH   5   6
ATOM      6  C   UNL     1     -29.803 -20.406  17.731  1.00  0.00     0.041 C 
ATOM      7  O   UNL     1     -30.143 -19.285  17.268  1.00  0.00    -0.550 OA
ATOM      8  O   UNL     1     -29.160 -20.477  18.960  1.00  0.00    -0.550 OA
ENDBRANCH   5   6
ENDBRANCH   4   5
ENDBRANCH   3   4
ENDBRANCH   2   3
ENDBRANCH   1   2
BRANCH   1   9
ATOM      9  C   UNL     1     -28.124 -25.713  15.169  1.00  0.00     0.000 C 
BRANCH   9  10
ATOM     10  C   UNL     1     -28.203 -24.794  13.938  1.00  0.00    -0.000 C 
BRANCH  10  11
ATOM     11  C   UNL     1     -29.589 -24.150  13.771  1.00  0.00    -0.000 C 
BRANCH  11  12
ATOM     12  C   UNL     1     -30.731 -25.068  14.232  1.00  0.00    -0.000 C 
BRANCH  12  13
ATOM     13  C   UNL     1     -31.817 -24.268  14.960  1.00  0.00    -0.003 C 
ATOM     14  C   UNL     1     -32.996 -25.158  15.340  1.00  0.00     0.004 C 
ENDBRANCH  12  13
ENDBRANCH  11  12
ENDBRANCH  10  11
ENDBRANCH   9  10
ENDBRANCH   1   9
TORSDOF 10
ENDMDL
MODEL 8
REMARK VINA RESULT:    -4.322     11.124     12.893
REMARK INTER + INTRA:          -7.901
REMARK INTER:                  -7.339
REMARK INTRA:                  -0.562
REMARK UNBOUND:                -1.052
REMARK SMILES CCCCCCCCCCCC(=O)[O-]
REMARK SMILES IDX 7 1 8 2 9 3 10 4 11 5 12 6 13 7 14 8 6 9 5 10 4 11 3 12 2 13
REMARK SMILES IDX 1 14
REMARK H PARENT
REMARK Flexibility Score: inf
ROOT
ATOM      1  C   UNL     1     -24.408 -28.939   5.596  1.00  0.00     0.000 C 
ENDROOT
BRANCH   1   2
ATOM      2  C   UNL     1     -25.427 -29.767   6.394  1.00  0.00     0.000 C 
BRANCH   2   3
ATOM      3  C   UNL     1     -26.819 -29.127   6.338  1.00  0.00     0.000 C 
BRANCH   3   4
ATOM      4  C   UNL     1     -27.442 -29.038   7.738  1.00  0.00     0.006 C 
BRANCH   4   5
ATOM      5  C   UNL     1     -26.416 -28.638   8.807  1.00  0.00     0.053 C 
BRANCH   5   6
ATOM      6  C   UNL     1     -26.399 -27.157   9.032  1.00  0.00     0.041 C 
ATOM      7  O   UNL     1     -27.409 -26.577   9.512  1.00  0.00    -0.550 OA
ATOM      8  O   UNL     1     -25.279 -26.413   8.683  1.00  0.00    -0.550 OA
ENDBRANCH   5   6
ENDBRANCH   4   5
ENDBRANCH   3   4
ENDBRANCH   2   3
ENDBRANCH   1   2
BRANCH   1   9
ATOM      9  C   UNL     1     -24.598 -29.068   4.076  1.00  0.00     0.000 C 
BRANCH   9  10
ATOM     10  C   UNL     1     -23.410 -29.765   3.389  1.00  0.00    -0.000 C 
BRANCH  10  11
ATOM     11  C   UNL     1     -22.671 -30.732   4.327  1.00  0.00    -0.000 C 
BRANCH  11  12
ATOM     12  C   UNL     1     -21.767 -31.718   3.573  1.00  0.00    -0.000 C 
BRANCH  12  13
ATOM     13  C   UNL     1     -22.526 -32.387   2.422  1.00  0.00    -0.003 C 
ATOM     14  C   UNL     1     -22.011 -33.800   2.168  1.00  0.00     0.004 C 
ENDBRANCH  12  13
ENDBRANCH  11  12
ENDBRANCH  10  11
ENDBRANCH   9  10
ENDBRANCH   1   9
TORSDOF 10
ENDMDL
MODEL 9
REMARK VINA RESULT:    -4.302     11.421     13.342
REMARK INTER + INTRA:          -7.869
REMARK INTER:                  -6.400
REMARK INTRA:                  -1.469
REMARK UNBOUND:                -1.052
REMARK SMILES CCCCCCCCCCCC(=O)[O-]
REMARK SMILES IDX 7 1 8 2 9 3 10 4 11 5 12 6 13 7 14 8 6 9 5 10 4 11 3 12 2 13
REMARK SMILES IDX 1 14
REMARK H PARENT
REMARK Flexibility Score: inf
ROOT
ATOM      1  C   UNL     1     -23.114 -28.292   3.616  1.00  0.00     0.000 C 
ENDROOT
BRANCH   1   2
ATOM      2  C   UNL     1     -24.512 -28.736   4.072  1.00  0.00     0.000 C 
BRANCH   2   3
ATOM      3  C   UNL     1     -25.084 -27.765   5.111  1.00  0.00     0.000 C 
BRANCH   3   4
ATOM      4  C   UNL     1     -25.122 -28.408   6.505  1.00  0.00     0.006 C 
BRANCH   4   5
ATOM      5  C   UNL     1     -26.086 -29.600   6.569  1.00  0.00     0.053 C 
BRANCH   5   6
ATOM      6  C   UNL     1     -27.484 -29.166   6.891  1.00  0.00     0.041 C 
ATOM      7  O   UNL     1     -27.772 -28.761   8.049  1.00  0.00    -0.550 OA
ATOM      8  O   UNL     1     -28.476 -29.239   5.921  1.00  0.00    -0.550 OA
ENDBRANCH   5   6
ENDBRANCH   4   5
ENDBRANCH   3   4
ENDBRANCH   2   3
ENDBRANCH   1   2
BRANCH   1   9
ATOM      9  C   UNL     1     -22.215 -29.474   3.217  1.00  0.00     0.000 C 
BRANCH   9  10
ATOM     10  C   UNL     1     -22.860 -30.837   3.528  1.00  0.00    -0.000 C 
BRANCH  10  11
ATOM     11  C   UNL     1     -22.211 -31.535   4.734  1.00  0.00    -0.000 C 
BRANCH  11  12
ATOM     12  C   UNL     1     -23.228 -31.915   5.820  1.00  0.00    -0.000 C 
BRANCH  12  13
ATOM     13  C   UNL     1     -22.824 -31.330   7.178  1.00  0.00    -0.003 C 
ATOM     14  C   UNL     1     -21.878 -30.145   7.010  1.00  0.00     0.004 C 
ENDBRANCH  12  13
ENDBRANCH  11  12
ENDBRANCH  10  11
ENDBRANCH   9  10
ENDBRANCH   1   9
TORSDOF 10
ENDMDL
