MODEL 1
REMARK VINA RESULT:    -5.587      0.000      0.000
REMARK INTER + INTRA:          -6.110
REMARK INTER:                  -6.077
REMARK INTRA:                  -0.033
REMARK UNBOUND:                -0.033
REMARK SMILES O=C([O-])c1ccc(O)cc1
REMARK SMILES IDX 4 1 5 2 10 3 6 4 9 5 7 6 2 7 1 8 3 9 8 10
REMARK H PARENT 8 11
REMARK Flexibility Score: inf
ROOT
ATOM      1  C   UNL     1       0.618  44.741  -1.821  1.00  0.00    -0.003 A 
ATOM      2  C   UNL     1       1.998  44.553  -2.014  1.00  0.00     0.014 A 
ATOM      3  C   UNL     1       0.113  44.787  -0.508  1.00  0.00     0.014 A 
ATOM      4  C   UNL     1       2.855  44.416  -0.916  1.00  0.00     0.047 A 
ATOM      5  C   UNL     1       0.972  44.650   0.587  1.00  0.00     0.047 A 
ATOM      6  C   UNL     1       2.346  44.464   0.384  1.00  0.00     0.115 A 
ENDROOT
BRANCH   1   7
ATOM      7  C   UNL     1      -0.287  44.885  -2.982  1.00  0.00     0.071 C 
ATOM      8  O   UNL     1      -1.314  45.612  -2.910  1.00  0.00    -0.545 OA
ATOM      9  O   UNL     1      -0.016  44.220  -4.172  1.00  0.00    -0.545 OA
ENDBRANCH   1   7
BRANCH   6  10
ATOM     10  O   UNL     1       3.211  44.325   1.467  1.00  0.00    -0.508 OA
ATOM     11  H   UNL     1       4.216  44.371   1.352  1.00  0.00     0.293 HD
ENDBRANCH   6  10
TORSDOF 2
ENDMDL
MODEL 2
REMARK VINA RESULT:    -5.540      2.309      4.279
REMARK INTER + INTRA:          -6.058
REMARK INTER:                  -6.031
REMARK INTRA:                  -0.027
REMARK UNBOUND:                -0.033
REMARK SMILES O=C([O-])c1ccc(O)cc1
REMARK SMILES IDX 4 1 5 2 10 3 6 4 9 5 7 6 2 7 1 8 3 9 8 10
REMARK H PARENT 8 11
REMARK Flexibility Score: inf
ROOT
ATOM      1  C   UNL     1       2.420  44.172  -2.807  1.00  0.00    -0.003 A 
ATOM      2  C   UNL     1       1.792  44.179  -4.066  1.00  0.00     0.014 A 
ATOM      3  C   UNL     1       1.667  44.509  -1.667  1.00  0.00     0.014 A 
ATOM      4  C   UNL     1       0.439  44.516  -4.179  1.00  0.00     0.047 A 
ATOM      5  C   UNL     1       0.315  44.845  -1.785  1.00  0.00     0.047 A 
ATOM      6  C   UNL     1      -0.302  44.850  -3.043  1.00  0.00     0.115 A 
ENDROOT
BRANCH   1   7
ATOM      7  C   UNL     1       3.851  43.816  -2.688  1.00  0.00     0.071 C 
ATOM      8  O   UNL     1       4.197  42.663  -2.316  1.00  0.00    -0.545 OA
ATOM      9  O   UNL     1       4.836  44.751  -2.988  1.00  0.00    -0.545 OA
ENDBRANCH   1   7
BRANCH   6  10
ATOM     10  O   UNL     1      -1.648  45.183  -3.172  1.00  0.00    -0.508 OA
ATOM     11  H   UNL     1      -1.995  45.685  -3.981  1.00  0.00     0.293 HD
ENDBRANCH   6  10
TORSDOF 2
ENDMDL
MODEL 3
REMARK VINA RESULT:    -5.528      7.998      9.026
REMARK INTER + INTRA:          -6.046
REMARK INTER:                  -6.019
REMARK INTRA:                  -0.027
REMARK UNBOUND:                -0.033
REMARK SMILES O=C([O-])c1ccc(O)cc1
REMARK SMILES IDX 4 1 5 2 10 3 6 4 9 5 7 6 2 7 1 8 3 9 8 10
REMARK H PARENT 8 11
REMARK Flexibility Score: inf
ROOT
ATOM      1  C   UNL     1       7.855  45.357  -5.308  1.00  0.00    -0.003 A 
ATOM      2  C   UNL     1       8.163  45.423  -6.678  1.00  0.00     0.014 A 
ATOM      3  C   UNL     1       8.844  45.703  -4.368  1.00  0.00     0.014 A 
ATOM      4  C   UNL     1       9.435  45.827  -7.099  1.00  0.00     0.047 A 
ATOM      5  C   UNL     1      10.114  46.107  -4.793  1.00  0.00     0.047 A 
ATOM      6  C   UNL     1      10.412  46.169  -6.161  1.00  0.00     0.115 A 
ENDROOT
BRANCH   1   7
ATOM      7  C   UNL     1       6.510  44.929  -4.863  1.00  0.00     0.071 C 
ATOM      8  O   UNL     1       6.306  43.743  -4.487  1.00  0.00    -0.545 OA
ATOM      9  O   UNL     1       5.452  45.830  -4.853  1.00  0.00    -0.545 OA
ENDBRANCH   1   7
BRANCH   6  10
ATOM     10  O   UNL     1      11.673  46.569  -6.595  1.00  0.00    -0.508 OA
ATOM     11  H   UNL     1      12.047  47.483  -6.367  1.00  0.00     0.293 HD
ENDBRANCH   6  10
TORSDOF 2
ENDMDL
MODEL 4
REMARK VINA RESULT:    -5.519      1.569      2.461
REMARK INTER + INTRA:          -6.036
REMARK INTER:                  -6.009
REMARK INTRA:                  -0.028
REMARK UNBOUND:                -0.033
REMARK SMILES O=C([O-])c1ccc(O)cc1
REMARK SMILES IDX 4 1 5 2 10 3 6 4 9 5 7 6 2 7 1 8 3 9 8 10
REMARK H PARENT 8 11
REMARK Flexibility Score: inf
ROOT
ATOM      1  C   UNL     1       0.471  44.837  -2.548  1.00  0.00    -0.003 A 
ATOM      2  C   UNL     1       0.876  44.739  -1.204  1.00  0.00     0.014 A 
ATOM      3  C   UNL     1       1.390  44.509  -3.562  1.00  0.00     0.014 A 
ATOM      4  C   UNL     1       2.171  44.319  -0.883  1.00  0.00     0.047 A 
ATOM      5  C   UNL     1       2.684  44.090  -3.237  1.00  0.00     0.047 A 
ATOM      6  C   UNL     1       3.077  43.994  -1.896  1.00  0.00     0.115 A 
ENDROOT
BRANCH   1   7
ATOM      7  C   UNL     1      -0.898  45.282  -2.886  1.00  0.00     0.071 C 
ATOM      8  O   UNL     1      -1.745  44.465  -3.337  1.00  0.00    -0.545 OA
ATOM      9  O   UNL     1      -1.271  46.609  -2.708  1.00  0.00    -0.545 OA
ENDBRANCH   1   7
BRANCH   6  10
ATOM     10  O   UNL     1       4.364  43.579  -1.561  1.00  0.00    -0.508 OA
ATOM     11  H   UNL     1       4.970  43.134  -2.240  1.00  0.00     0.293 HD
ENDBRANCH   6  10
TORSDOF 2
ENDMDL
MODEL 5
REMARK VINA RESULT:    -5.508      1.560      2.035
REMARK INTER + INTRA:          -6.025
REMARK INTER:                  -5.997
REMARK INTRA:                  -0.028
REMARK UNBOUND:                -0.033
REMARK SMILES O=C([O-])c1ccc(O)cc1
REMARK SMILES IDX 4 1 5 2 10 3 6 4 9 5 7 6 2 7 1 8 3 9 8 10
REMARK H PARENT 8 11
REMARK Flexibility Score: inf
ROOT
ATOM      1  C   UNL     1       0.451  44.831  -2.503  1.00  0.00    -0.003 A 
ATOM      2  C   UNL     1       1.360  44.466  -3.512  1.00  0.00     0.014 A 
ATOM      3  C   UNL     1       0.860  44.758  -1.158  1.00  0.00     0.014 A 
ATOM      4  C   UNL     1       2.651  44.038  -3.182  1.00  0.00     0.047 A 
ATOM      5  C   UNL     1       2.150  44.330  -0.832  1.00  0.00     0.047 A 
ATOM      6  C   UNL     1       3.049  43.969  -1.844  1.00  0.00     0.115 A 
ENDROOT
BRANCH   1   7
ATOM      7  C   UNL     1      -0.913  45.283  -2.853  1.00  0.00     0.071 C 
ATOM      8  O   UNL     1      -1.752  44.476  -3.335  1.00  0.00    -0.545 OA
ATOM      9  O   UNL     1      -1.290  46.606  -2.652  1.00  0.00    -0.545 OA
ENDBRANCH   1   7
BRANCH   6  10
ATOM     10  O   UNL     1       4.337  43.540  -1.531  1.00  0.00    -0.508 OA
ATOM     11  H   UNL     1       4.769  43.766  -0.643  1.00  0.00     0.293 HD
ENDBRANCH   6  10
TORSDOF 2
ENDMDL
MODEL 6
REMARK VINA RESULT:    -5.505      8.023      9.060
REMARK INTER + INTRA:          -6.021
REMARK INTER:                  -5.993
REMARK INTRA:                  -0.027
REMARK UNBOUND:                -0.033
REMARK SMILES O=C([O-])c1ccc(O)cc1
REMARK SMILES IDX 4 1 5 2 10 3 6 4 9 5 7 6 2 7 1 8 3 9 8 10
REMARK H PARENT 8 11
REMARK Flexibility Score: inf
ROOT
ATOM      1  C   UNL     1       7.859  45.415  -5.330  1.00  0.00    -0.003 A 
ATOM      2  C   UNL     1       8.879  45.656  -4.393  1.00  0.00     0.014 A 
ATOM      3  C   UNL     1       8.149  45.542  -6.702  1.00  0.00     0.014 A 
ATOM      4  C   UNL     1      10.162  46.015  -4.819  1.00  0.00     0.047 A 
ATOM      5  C   UNL     1       9.433  45.900  -7.124  1.00  0.00     0.047 A 
ATOM      6  C   UNL     1      10.443  46.138  -6.182  1.00  0.00     0.115 A 
ENDROOT
BRANCH   1   7
ATOM      7  C   UNL     1       6.502  45.036  -4.879  1.00  0.00     0.071 C 
ATOM      8  O   UNL     1       5.560  45.873  -4.905  1.00  0.00    -0.545 OA
ATOM      9  O   UNL     1       6.247  43.749  -4.420  1.00  0.00    -0.545 OA
ENDBRANCH   1   7
BRANCH   6  10
ATOM     10  O   UNL     1      11.725  46.497  -6.592  1.00  0.00    -0.508 OA
ATOM     11  H   UNL     1      12.084  46.233  -7.501  1.00  0.00     0.293 HD
ENDBRANCH   6  10
TORSDOF 2
ENDMDL
MODEL 7
REMARK VINA RESULT:    -5.433      7.406      9.072
REMARK INTER + INTRA:          -5.943
REMARK INTER:                  -5.914
REMARK INTRA:                  -0.028
REMARK UNBOUND:                -0.033
REMARK SMILES O=C([O-])c1ccc(O)cc1
REMARK SMILES IDX 4 1 5 2 10 3 6 4 9 5 7 6 2 7 1 8 3 9 8 10
REMARK H PARENT 8 11
REMARK Flexibility Score: inf
ROOT
ATOM      1  C   UNL     1      -1.282  46.418   6.584  1.00  0.00    -0.003 A 
ATOM      2  C   UNL     1      -1.218  46.019   5.237  1.00  0.00     0.014 A 
ATOM      3  C   UNL     1      -2.416  46.072   7.344  1.00  0.00     0.014 A 
ATOM      4  C   UNL     1      -2.265  45.289   4.663  1.00  0.00     0.047 A 
ATOM      5  C   UNL     1      -3.460  45.343   6.767  1.00  0.00     0.047 A 
ATOM      6  C   UNL     1      -3.386  44.950   5.424  1.00  0.00     0.115 A 
ENDROOT
BRANCH   1   7
ATOM      7  C   UNL     1      -0.175  47.190   7.189  1.00  0.00     0.071 C 
ATOM      8  O   UNL     1      -0.366  48.363   7.609  1.00  0.00    -0.545 OA
ATOM      9  O   UNL     1       1.092  46.631   7.304  1.00  0.00    -0.545 OA
ENDBRANCH   1   7
BRANCH   6  10
ATOM     10  O   UNL     1      -4.421  44.223   4.840  1.00  0.00    -0.508 OA
ATOM     11  H   UNL     1      -5.386  44.521   4.914  1.00  0.00     0.293 HD
ENDBRANCH   6  10
TORSDOF 2
ENDMDL
MODEL 8
REMARK VINA RESULT:    -5.415      4.960      6.400
REMARK INTER + INTRA:          -5.923
REMARK INTER:                  -5.896
REMARK INTRA:                  -0.027
REMARK UNBOUND:                -0.033
REMARK SMILES O=C([O-])c1ccc(O)cc1
REMARK SMILES IDX 4 1 5 2 10 3 6 4 9 5 7 6 2 7 1 8 3 9 8 10
REMARK H PARENT 8 11
REMARK Flexibility Score: inf
ROOT
ATOM      1  C   UNL     1      -2.363  44.547   3.710  1.00  0.00    -0.003 A 
ATOM      2  C   UNL     1      -2.302  43.513   2.759  1.00  0.00     0.014 A 
ATOM      3  C   UNL     1      -1.518  45.663   3.560  1.00  0.00     0.014 A 
ATOM      4  C   UNL     1      -1.415  43.594   1.680  1.00  0.00     0.047 A 
ATOM      5  C   UNL     1      -0.633  45.741   2.480  1.00  0.00     0.047 A 
ATOM      6  C   UNL     1      -0.580  44.705   1.538  1.00  0.00     0.115 A 
ENDROOT
BRANCH   1   7
ATOM      7  C   UNL     1      -3.300  44.459   4.851  1.00  0.00     0.071 C 
ATOM      8  O   UNL     1      -2.924  43.983   5.956  1.00  0.00    -0.545 OA
ATOM      9  O   UNL     1      -4.611  44.903   4.721  1.00  0.00    -0.545 OA
ENDBRANCH   1   7
BRANCH   6  10
ATOM     10  O   UNL     1       0.298  44.773   0.458  1.00  0.00    -0.508 OA
ATOM     11  H   UNL     1       0.916  44.004   0.229  1.00  0.00     0.293 HD
ENDBRANCH   6  10
TORSDOF 2
ENDMDL
MODEL 9
REMARK VINA RESULT:    -5.401      1.560      4.023
REMARK INTER + INTRA:          -5.908
REMARK INTER:                  -5.873
REMARK INTRA:                  -0.035
REMARK UNBOUND:                -0.033
REMARK SMILES O=C([O-])c1ccc(O)cc1
REMARK SMILES IDX 4 1 5 2 10 3 6 4 9 5 7 6 2 7 1 8 3 9 8 10
REMARK H PARENT 8 11
REMARK Flexibility Score: inf
ROOT
ATOM      1  C   UNL     1       1.754  44.509  -0.734  1.00  0.00    -0.003 A 
ATOM      2  C   UNL     1       2.946  44.241  -1.429  1.00  0.00     0.014 A 
ATOM      3  C   UNL     1       0.574  44.740  -1.467  1.00  0.00     0.014 A 
ATOM      4  C   UNL     1       2.957  44.203  -2.828  1.00  0.00     0.047 A 
ATOM      5  C   UNL     1       0.589  44.701  -2.864  1.00  0.00     0.047 A 
ATOM      6  C   UNL     1       1.782  44.433  -3.548  1.00  0.00     0.115 A 
ENDROOT
BRANCH   1   7
ATOM      7  C   UNL     1       1.743  44.550   0.745  1.00  0.00     0.071 C 
ATOM      8  O   UNL     1       0.658  44.483   1.381  1.00  0.00    -0.545 OA
ATOM      9  O   UNL     1       2.934  44.661   1.454  1.00  0.00    -0.545 OA
ENDBRANCH   1   7
BRANCH   6  10
ATOM     10  O   UNL     1       1.809  44.392  -4.940  1.00  0.00    -0.508 OA
ATOM     11  H   UNL     1       1.053  43.978  -5.473  1.00  0.00     0.293 HD
ENDBRANCH   6  10
TORSDOF 2
ENDMDL
