MODEL 1
REMARK VINA RESULT:    -2.030      0.000      0.000
REMARK INTER + INTRA:          -3.550
REMARK INTER:                  -2.860
REMARK INTRA:                  -0.690
REMARK UNBOUND:                -0.690
REMARK SMILES CCCCCCCCC=O
REMARK SMILES IDX 5 1 4 2 3 3 2 4 1 5 6 6 7 7 8 8 9 9 10 10
REMARK H PARENT
REMARK Flexibility Score: inf
ROOT
ATOM      1  C   UNL     1     132.084 145.972 139.051  1.00  0.00     0.000 C 
ENDROOT
BRANCH   1   2
ATOM      2  C   UNL     1     132.812 147.236 139.554  1.00  0.00    -0.000 C 
BRANCH   2   3
ATOM      3  C   UNL     1     131.975 148.084 140.527  1.00  0.00    -0.000 C 
BRANCH   3   4
ATOM      4  C   UNL     1     131.115 147.234 141.473  1.00  0.00    -0.003 C 
ATOM      5  C   UNL     1     129.676 147.741 141.512  1.00  0.00     0.004 C 
ENDBRANCH   3   4
ENDBRANCH   2   3
ENDBRANCH   1   2
BRANCH   1   6
ATOM      6  C   UNL     1     131.113 146.278 137.902  1.00  0.00     0.000 C 
BRANCH   6   7
ATOM      7  C   UNL     1     129.674 145.897 138.280  1.00  0.00     0.008 C 
BRANCH   7   8
ATOM      8  C   UNL     1     129.624 144.671 139.204  1.00  0.00     0.072 C 
BRANCH   8   9
ATOM      9  C   UNL     1     128.424 143.806 138.941  1.00  0.00     0.224 C 
ATOM     10  O   UNL     1     128.575 142.637 138.630  1.00  0.00    -0.303 OA
ENDBRANCH   8   9
ENDBRANCH   7   8
ENDBRANCH   6   7
ENDBRANCH   1   6
TORSDOF 7
ENDMDL
MODEL 2
REMARK VINA RESULT:    -2.008      2.602      5.076
REMARK INTER + INTRA:          -3.520
REMARK INTER:                  -2.863
REMARK INTRA:                  -0.657
REMARK UNBOUND:                -0.690
REMARK SMILES CCCCCCCCC=O
REMARK SMILES IDX 5 1 4 2 3 3 2 4 1 5 6 6 7 7 8 8 9 9 10 10
REMARK H PARENT
REMARK Flexibility Score: inf
ROOT
ATOM      1  C   UNL     1     129.454 144.739 139.316  1.00  0.00     0.000 C 
ENDROOT
BRANCH   1   2
ATOM      2  C   UNL     1     128.377 143.728 138.871  1.00  0.00    -0.000 C 
BRANCH   2   3
ATOM      3  C   UNL     1     128.946 142.353 138.483  1.00  0.00    -0.000 C 
BRANCH   3   4
ATOM      4  C   UNL     1     130.441 142.212 138.801  1.00  0.00    -0.003 C 
ATOM      5  C   UNL     1     131.249 141.944 137.535  1.00  0.00     0.004 C 
ENDBRANCH   3   4
ENDBRANCH   2   3
ENDBRANCH   1   2
BRANCH   1   6
ATOM      6  C   UNL     1     129.609 145.900 138.322  1.00  0.00     0.000 C 
BRANCH   6   7
ATOM      7  C   UNL     1     131.080 146.094 137.926  1.00  0.00     0.008 C 
BRANCH   7   8
ATOM      8  C   UNL     1     132.037 145.791 139.088  1.00  0.00     0.072 C 
BRANCH   8   9
ATOM      9  C   UNL     1     132.840 146.993 139.495  1.00  0.00     0.224 C 
ATOM     10  O   UNL     1     132.273 147.990 139.910  1.00  0.00    -0.303 OA
ENDBRANCH   8   9
ENDBRANCH   7   8
ENDBRANCH   6   7
ENDBRANCH   1   6
TORSDOF 7
ENDMDL
MODEL 3
REMARK VINA RESULT:    -1.992      2.409      3.862
REMARK INTER + INTRA:          -3.497
REMARK INTER:                  -2.694
REMARK INTRA:                  -0.803
REMARK UNBOUND:                -0.690
REMARK SMILES CCCCCCCCC=O
REMARK SMILES IDX 5 1 4 2 3 3 2 4 1 5 6 6 7 7 8 8 9 9 10 10
REMARK H PARENT
REMARK Flexibility Score: inf
ROOT
ATOM      1  C   UNL     1     133.324 146.317 140.107  1.00  0.00     0.000 C 
ENDROOT
BRANCH   1   2
ATOM      2  C   UNL     1     133.169 144.783 140.062  1.00  0.00    -0.000 C 
BRANCH   2   3
ATOM      3  C   UNL     1     133.895 144.125 138.875  1.00  0.00    -0.000 C 
BRANCH   3   4
ATOM      4  C   UNL     1     132.931 143.510 137.851  1.00  0.00    -0.003 C 
ATOM      5  C   UNL     1     131.697 142.930 138.537  1.00  0.00     0.004 C 
ENDBRANCH   3   4
ENDBRANCH   2   3
ENDBRANCH   1   2
BRANCH   1   6
ATOM      6  C   UNL     1     132.169 147.039 139.396  1.00  0.00     0.000 C 
BRANCH   6   7
ATOM      7  C   UNL     1     130.813 146.445 139.803  1.00  0.00     0.008 C 
BRANCH   7   8
ATOM      8  C   UNL     1     129.923 146.148 138.589  1.00  0.00     0.072 C 
BRANCH   8   9
ATOM      9  C   UNL     1     130.610 146.451 137.288  1.00  0.00     0.224 C 
ATOM     10  O   UNL     1     130.016 147.059 136.414  1.00  0.00    -0.303 OA
ENDBRANCH   8   9
ENDBRANCH   7   8
ENDBRANCH   6   7
ENDBRANCH   1   6
TORSDOF 7
ENDMDL
MODEL 4
REMARK VINA RESULT:    -1.945      1.797      3.026
REMARK INTER + INTRA:          -3.431
REMARK INTER:                  -2.572
REMARK INTRA:                  -0.859
REMARK UNBOUND:                -0.690
REMARK SMILES CCCCCCCCC=O
REMARK SMILES IDX 5 1 4 2 3 3 2 4 1 5 6 6 7 7 8 8 9 9 10 10
REMARK H PARENT
REMARK Flexibility Score: inf
ROOT
ATOM      1  C   UNL     1     133.002 146.207 139.591  1.00  0.00     0.000 C 
ENDROOT
BRANCH   1   2
ATOM      2  C   UNL     1     131.698 147.009 139.400  1.00  0.00    -0.000 C 
BRANCH   2   3
ATOM      3  C   UNL     1     130.425 146.152 139.513  1.00  0.00    -0.000 C 
BRANCH   3   4
ATOM      4  C   UNL     1     129.576 146.170 138.235  1.00  0.00    -0.003 C 
ATOM      5  C   UNL     1     130.411 146.579 137.026  1.00  0.00     0.004 C 
ENDBRANCH   3   4
ENDBRANCH   2   3
ENDBRANCH   1   2
BRANCH   1   6
ATOM      6  C   UNL     1     132.753 144.692 139.635  1.00  0.00     0.000 C 
BRANCH   6   7
ATOM      7  C   UNL     1     133.232 144.018 138.341  1.00  0.00     0.008 C 
BRANCH   7   8
ATOM      8  C   UNL     1     132.100 143.268 137.625  1.00  0.00     0.072 C 
BRANCH   8   9
ATOM      9  C   UNL     1     131.143 142.624 138.586  1.00  0.00     0.224 C 
ATOM     10  O   UNL     1     129.955 142.570 138.316  1.00  0.00    -0.303 OA
ENDBRANCH   8   9
ENDBRANCH   7   8
ENDBRANCH   6   7
ENDBRANCH   1   6
TORSDOF 7
ENDMDL
MODEL 5
REMARK VINA RESULT:    -1.931      1.886      3.185
REMARK INTER + INTRA:          -3.412
REMARK INTER:                  -2.564
REMARK INTRA:                  -0.847
REMARK UNBOUND:                -0.690
REMARK SMILES CCCCCCCCC=O
REMARK SMILES IDX 5 1 4 2 3 3 2 4 1 5 6 6 7 7 8 8 9 9 10 10
REMARK H PARENT
REMARK Flexibility Score: inf
ROOT
ATOM      1  C   UNL     1     131.917 146.443 138.875  1.00  0.00     0.000 C 
ENDROOT
BRANCH   1   2
ATOM      2  C   UNL     1     130.766 146.151 137.890  1.00  0.00    -0.000 C 
BRANCH   2   3
ATOM      3  C   UNL     1     129.379 146.116 138.556  1.00  0.00    -0.000 C 
BRANCH   3   4
ATOM      4  C   UNL     1     128.861 144.689 138.783  1.00  0.00    -0.003 C 
ATOM      5  C   UNL     1     129.105 144.238 140.220  1.00  0.00     0.004 C 
ENDBRANCH   3   4
ENDBRANCH   2   3
ENDBRANCH   1   2
BRANCH   1   6
ATOM      6  C   UNL     1     132.678 145.170 139.273  1.00  0.00     0.000 C 
BRANCH   6   7
ATOM      7  C   UNL     1     132.629 144.124 138.150  1.00  0.00     0.008 C 
BRANCH   7   8
ATOM      8  C   UNL     1     132.187 142.745 138.661  1.00  0.00     0.072 C 
BRANCH   8   9
ATOM      9  C   UNL     1     131.281 142.040 137.692  1.00  0.00     0.224 C 
ATOM     10  O   UNL     1     130.289 141.459 138.100  1.00  0.00    -0.303 OA
ENDBRANCH   8   9
ENDBRANCH   7   8
ENDBRANCH   6   7
ENDBRANCH   1   6
TORSDOF 7
ENDMDL
MODEL 6
REMARK VINA RESULT:    -1.917      2.009      3.812
REMARK INTER + INTRA:          -3.391
REMARK INTER:                  -2.649
REMARK INTRA:                  -0.742
REMARK UNBOUND:                -0.690
REMARK SMILES CCCCCCCCC=O
REMARK SMILES IDX 5 1 4 2 3 3 2 4 1 5 6 6 7 7 8 8 9 9 10 10
REMARK H PARENT
REMARK Flexibility Score: inf
ROOT
ATOM      1  C   UNL     1     133.245 145.794 140.226  1.00  0.00     0.000 C 
ENDROOT
BRANCH   1   2
ATOM      2  C   UNL     1     132.964 144.851 139.038  1.00  0.00    -0.000 C 
BRANCH   2   3
ATOM      3  C   UNL     1     131.474 144.757 138.665  1.00  0.00    -0.000 C 
BRANCH   3   4
ATOM      4  C   UNL     1     131.058 145.783 137.602  1.00  0.00    -0.003 C 
ATOM      5  C   UNL     1     129.671 146.346 137.895  1.00  0.00     0.004 C 
ENDBRANCH   3   4
ENDBRANCH   2   3
ENDBRANCH   1   2
BRANCH   1   6
ATOM      6  C   UNL     1     133.467 147.246 139.776  1.00  0.00     0.000 C 
BRANCH   6   7
ATOM      7  C   UNL     1     132.245 148.117 140.102  1.00  0.00     0.008 C 
BRANCH   7   8
ATOM      8  C   UNL     1     131.642 147.777 141.472  1.00  0.00     0.072 C 
BRANCH   8   9
ATOM      9  C   UNL     1     130.168 147.499 141.395  1.00  0.00     0.224 C 
ATOM     10  O   UNL     1     129.761 146.351 141.462  1.00  0.00    -0.303 OA
ENDBRANCH   8   9
ENDBRANCH   7   8
ENDBRANCH   6   7
ENDBRANCH   1   6
TORSDOF 7
ENDMDL
MODEL 7
REMARK VINA RESULT:    -1.911      1.779      3.338
REMARK INTER + INTRA:          -3.383
REMARK INTER:                  -2.573
REMARK INTRA:                  -0.810
REMARK UNBOUND:                -0.690
REMARK SMILES CCCCCCCCC=O
REMARK SMILES IDX 5 1 4 2 3 3 2 4 1 5 6 6 7 7 8 8 9 9 10 10
REMARK H PARENT
REMARK Flexibility Score: inf
ROOT
ATOM      1  C   UNL     1     129.457 146.257 139.699  1.00  0.00     0.000 C 
ENDROOT
BRANCH   1   2
ATOM      2  C   UNL     1     130.906 146.558 139.261  1.00  0.00    -0.000 C 
BRANCH   2   3
ATOM      3  C   UNL     1     131.368 145.731 138.049  1.00  0.00    -0.000 C 
BRANCH   3   4
ATOM      4  C   UNL     1     132.317 144.587 138.432  1.00  0.00    -0.003 C 
ATOM      5  C   UNL     1     132.287 143.475 137.388  1.00  0.00     0.004 C 
ENDBRANCH   3   4
ENDBRANCH   2   3
ENDBRANCH   1   2
BRANCH   1   6
ATOM      6  C   UNL     1     128.681 145.466 138.635  1.00  0.00     0.000 C 
BRANCH   6   7
ATOM      7  C   UNL     1     128.072 144.190 139.234  1.00  0.00     0.008 C 
BRANCH   7   8
ATOM      8  C   UNL     1     128.704 142.918 138.650  1.00  0.00     0.072 C 
BRANCH   8   9
ATOM      9  C   UNL     1     129.629 142.242 139.620  1.00  0.00     0.224 C 
ATOM     10  O   UNL     1     129.973 142.821 140.637  1.00  0.00    -0.303 OA
ENDBRANCH   8   9
ENDBRANCH   7   8
ENDBRANCH   6   7
ENDBRANCH   1   6
TORSDOF 7
ENDMDL
MODEL 8
REMARK VINA RESULT:    -1.889      2.030      3.526
REMARK INTER + INTRA:          -3.352
REMARK INTER:                  -2.693
REMARK INTRA:                  -0.659
REMARK UNBOUND:                -0.690
REMARK SMILES CCCCCCCCC=O
REMARK SMILES IDX 5 1 4 2 3 3 2 4 1 5 6 6 7 7 8 8 9 9 10 10
REMARK H PARENT
REMARK Flexibility Score: inf
ROOT
ATOM      1  C   UNL     1     129.439 144.803 139.407  1.00  0.00     0.000 C 
ENDROOT
BRANCH   1   2
ATOM      2  C   UNL     1     129.740 145.921 138.387  1.00  0.00    -0.000 C 
BRANCH   2   3
ATOM      3  C   UNL     1     131.209 145.959 137.931  1.00  0.00    -0.000 C 
BRANCH   3   4
ATOM      4  C   UNL     1     132.196 146.082 139.099  1.00  0.00    -0.003 C 
ATOM      5  C   UNL     1     133.138 144.883 139.151  1.00  0.00     0.004 C 
ENDBRANCH   3   4
ENDBRANCH   2   3
ENDBRANCH   1   2
BRANCH   1   6
ATOM      6  C   UNL     1     128.272 143.908 138.961  1.00  0.00     0.000 C 
BRANCH   6   7
ATOM      7  C   UNL     1     128.768 142.507 138.577  1.00  0.00     0.008 C 
BRANCH   7   8
ATOM      8  C   UNL     1     130.226 142.273 138.998  1.00  0.00     0.072 C 
BRANCH   8   9
ATOM      9  C   UNL     1     131.056 141.695 137.887  1.00  0.00     0.224 C 
ATOM     10  O   UNL     1     131.637 142.437 137.113  1.00  0.00    -0.303 OA
ENDBRANCH   8   9
ENDBRANCH   7   8
ENDBRANCH   6   7
ENDBRANCH   1   6
TORSDOF 7
ENDMDL
