MODEL 1
REMARK VINA RESULT:    70.081      0.000      0.000
REMARK INTER + INTRA:          99.449
REMARK INTER:                  98.759
REMARK INTRA:                   0.690
REMARK UNBOUND:                 0.690
REMARK SMILES COc1c(O[C@H]2O[C@@H](C(=O)[O-])[C@@H](O)[C@@H](O)[C@H]2O)cc(O)c2c(=O)cc(-c3ccccc3)oc12
REMARK SMILES IDX 5 1 6 2 8 3 12 4 7 5 14 6 16 7 9 8 10 9 11 10 13 11 15 13
REMARK SMILES IDX 17 15 4 17 3 18 18 19 33 20 19 21 21 22 32 23 22 24 25 25
REMARK SMILES IDX 24 26 23 27 2 28 1 29 20 30 26 32 27 33 31 34 28 35 30 36
REMARK SMILES IDX 29 37
REMARK H PARENT 13 12 15 14 17 16 20 31
REMARK Flexibility Score: inf
ROOT
ATOM      1  O   UNL     1      24.482   1.722  49.400  1.00  0.00    -0.458 OA
ENDROOT
BRANCH   1   2
ATOM      2  C   UNL     1      25.266   0.538  49.579  1.00  0.00     0.339 C 
ATOM      3  C   UNL     1      25.123  -0.203  47.319  1.00  0.00     0.199 C 
ATOM      4  C   UNL     1      26.609   0.172  47.052  1.00  0.00     0.180 C 
ATOM      5  O   UNL     1      24.865  -0.496  48.687  1.00  0.00    -0.328 OA
ATOM      6  C   UNL     1      27.125   1.251  48.020  1.00  0.00     0.181 C 
ATOM      7  C   UNL     1      26.767   0.856  49.456  1.00  0.00     0.214 C 
BRANCH   3   8
ATOM      8  C   UNL     1      24.086   0.736  46.745  1.00  0.00     0.073 C 
ATOM      9  O   UNL     1      24.457   1.689  46.009  1.00  0.00    -0.547 OA
ATOM     10  O   UNL     1      22.733   0.592  47.030  1.00  0.00    -0.547 OA
ENDBRANCH   3   8
BRANCH   4  11
ATOM     11  O   UNL     1      26.811   0.573  45.722  1.00  0.00    -0.387 OA
ATOM     12  H   UNL     1      27.033  -0.247  45.205  1.00  0.00     0.211 HD
ENDBRANCH   4  11
BRANCH   6  13
ATOM     13  O   UNL     1      26.584   2.513  47.720  1.00  0.00    -0.387 OA
ATOM     14  H   UNL     1      25.817   2.652  48.334  1.00  0.00     0.211 HD
ENDBRANCH   6  13
BRANCH   7  15
ATOM     15  O   UNL     1      27.123   1.893  50.334  1.00  0.00    -0.384 OA
ATOM     16  H   UNL     1      26.686   1.695  51.203  1.00  0.00     0.211 HD
ENDBRANCH   7  15
ENDBRANCH   1   2
BRANCH   1  17
ATOM     17  C   UNL     1      23.736   2.366  50.401  1.00  0.00     0.172 A 
ATOM     18  C   UNL     1      22.618   1.696  50.917  1.00  0.00     0.205 A 
ATOM     19  C   UNL     1      24.081   3.637  50.886  1.00  0.00     0.097 A 
ATOM     20  C   UNL     1      21.851   2.301  51.944  1.00  0.00     0.188 A 
ATOM     21  C   UNL     1      23.319   4.256  51.881  1.00  0.00     0.134 A 
ATOM     22  C   UNL     1      22.194   3.594  52.419  1.00  0.00     0.111 A 
ATOM     23  O   UNL     1      20.807   1.663  52.469  1.00  0.00    -0.452 OA
ATOM     24  C   UNL     1      21.382   4.168  53.420  1.00  0.00     0.197 A 
ATOM     25  C   UNL     1      20.025   2.175  53.415  1.00  0.00     0.138 A 
ATOM     26  C   UNL     1      20.293   3.455  53.917  1.00  0.00     0.100 A 
ATOM     27  O   UNL     1      21.616   5.319  53.880  1.00  0.00    -0.289 OA
BRANCH  18  28
ATOM     28  O   UNL     1      22.323   0.439  50.359  1.00  0.00    -0.490 OA
ATOM     29  C   UNL     1      21.788   0.190  49.064  1.00  0.00     0.278 C 
ENDBRANCH  18  28
BRANCH  21  30
ATOM     30  O   UNL     1      23.689   5.526  52.330  1.00  0.00    -0.507 OA
ATOM     31  H   UNL     1      23.298   6.370  51.927  1.00  0.00     0.293 HD
ENDBRANCH  21  30
BRANCH  25  32
ATOM     32  C   UNL     1      18.891   1.368  53.926  1.00  0.00     0.017 A 
ATOM     33  C   UNL     1      18.592   0.132  53.328  1.00  0.00     0.012 A 
ATOM     34  C   UNL     1      18.088   1.824  54.991  1.00  0.00     0.012 A 
ATOM     35  C   UNL     1      17.525  -0.642  53.796  1.00  0.00     0.001 A 
ATOM     36  C   UNL     1      17.021   1.048  55.453  1.00  0.00     0.001 A 
ATOM     37  C   UNL     1      16.741  -0.185  54.857  1.00  0.00     0.000 A 
ENDBRANCH  25  32
ENDBRANCH   1  17
TORSDOF 9
ENDMDL
