MODEL 1
REMARK VINA RESULT:    -4.028      0.000      0.000
REMARK INTER + INTRA:          -6.606
REMARK INTER:                  -5.912
REMARK INTRA:                  -0.694
REMARK UNBOUND:                -0.694
REMARK SMILES O=C([O-])CCCCCCCC(=O)[O-]
REMARK SMILES IDX 7 1 6 2 5 3 4 4 2 5 1 6 3 7 8 8 9 9 10 10 11 11 12 12 13 13
REMARK H PARENT
REMARK Flexibility Score: inf
ROOT
ATOM      1  C   UNL     1     164.404 177.740 181.274  1.00  0.00     0.000 C 
ENDROOT
BRANCH   1   2
ATOM      2  C   UNL     1     163.526 178.886 181.801  1.00  0.00     0.000 C 
BRANCH   2   3
ATOM      3  C   UNL     1     163.137 179.887 180.698  1.00  0.00     0.006 C 
BRANCH   3   4
ATOM      4  C   UNL     1     161.728 179.621 180.147  1.00  0.00     0.053 C 
BRANCH   4   5
ATOM      5  C   UNL     1     161.751 179.317 178.681  1.00  0.00     0.041 C 
ATOM      6  O   UNL     1     161.053 178.377 178.219  1.00  0.00    -0.550 OA
ATOM      7  O   UNL     1     162.519 180.092 177.821  1.00  0.00    -0.550 OA
ENDBRANCH   4   5
ENDBRANCH   3   4
ENDBRANCH   2   3
ENDBRANCH   1   2
BRANCH   1   8
ATOM      8  C   UNL     1     163.761 176.357 181.481  1.00  0.00     0.000 C 
BRANCH   8   9
ATOM      9  C   UNL     1     162.721 176.023 180.399  1.00  0.00     0.006 C 
BRANCH   9  10
ATOM     10  C   UNL     1     161.291 175.971 180.952  1.00  0.00     0.053 C 
BRANCH  10  11
ATOM     11  C   UNL     1     160.651 174.660 180.622  1.00  0.00     0.041 C 
ATOM     12  O   UNL     1     160.848 173.656 181.354  1.00  0.00    -0.550 OA
ATOM     13  O   UNL     1     159.875 174.535 179.476  1.00  0.00    -0.550 OA
ENDBRANCH  10  11
ENDBRANCH   9  10
ENDBRANCH   8   9
ENDBRANCH   1   8
TORSDOF 8
ENDMDL
MODEL 2
REMARK VINA RESULT:    -3.885      1.152      4.747
REMARK INTER + INTRA:          -6.395
REMARK INTER:                  -5.900
REMARK INTRA:                  -0.495
REMARK UNBOUND:                -0.694
REMARK SMILES O=C([O-])CCCCCCCC(=O)[O-]
REMARK SMILES IDX 7 1 6 2 5 3 4 4 2 5 1 6 3 7 8 8 9 9 10 10 11 11 12 12 13 13
REMARK H PARENT
REMARK Flexibility Score: inf
ROOT
ATOM      1  C   UNL     1     162.187 178.324 181.550  1.00  0.00     0.000 C 
ENDROOT
BRANCH   1   2
ATOM      2  C   UNL     1     162.379 176.861 181.119  1.00  0.00     0.000 C 
BRANCH   2   3
ATOM      3  C   UNL     1     161.043 176.118 180.940  1.00  0.00     0.006 C 
BRANCH   3   4
ATOM      4  C   UNL     1     161.241 174.605 180.773  1.00  0.00     0.053 C 
BRANCH   4   5
ATOM      5  C   UNL     1     160.680 174.108 179.477  1.00  0.00     0.041 C 
ATOM      6  O   UNL     1     160.239 172.932 179.386  1.00  0.00    -0.550 OA
ATOM      7  O   UNL     1     160.615 174.954 178.377  1.00  0.00    -0.550 OA
ENDBRANCH   4   5
ENDBRANCH   3   4
ENDBRANCH   2   3
ENDBRANCH   1   2
BRANCH   1   8
ATOM      8  C   UNL     1     163.451 179.176 181.337  1.00  0.00     0.000 C 
BRANCH   8   9
ATOM      9  C   UNL     1     163.533 179.765 179.920  1.00  0.00     0.006 C 
BRANCH   9  10
ATOM     10  C   UNL     1     162.155 180.125 179.351  1.00  0.00     0.053 C 
BRANCH  10  11
ATOM     11  C   UNL     1     161.888 179.350 178.099  1.00  0.00     0.041 C 
ATOM     12  O   UNL     1     161.088 178.378 178.113  1.00  0.00    -0.550 OA
ATOM     13  O   UNL     1     162.562 179.670 176.927  1.00  0.00    -0.550 OA
ENDBRANCH  10  11
ENDBRANCH   9  10
ENDBRANCH   8   9
ENDBRANCH   1   8
TORSDOF 8
ENDMDL
MODEL 3
REMARK VINA RESULT:    -3.871     11.214     13.296
REMARK INTER + INTRA:          -6.374
REMARK INTER:                  -5.900
REMARK INTRA:                  -0.475
REMARK UNBOUND:                -0.694
REMARK SMILES O=C([O-])CCCCCCCC(=O)[O-]
REMARK SMILES IDX 7 1 6 2 5 3 4 4 2 5 1 6 3 7 8 8 9 9 10 10 11 11 12 12 13 13
REMARK H PARENT
REMARK Flexibility Score: inf
ROOT
ATOM      1  C   UNL     1     175.585 177.509 181.412  1.00  0.00     0.000 C 
ENDROOT
BRANCH   1   2
ATOM      2  C   UNL     1     174.069 177.671 181.210  1.00  0.00     0.000 C 
BRANCH   2   3
ATOM      3  C   UNL     1     173.689 179.072 180.698  1.00  0.00     0.006 C 
BRANCH   3   4
ATOM      4  C   UNL     1     172.220 179.414 180.985  1.00  0.00     0.053 C 
BRANCH   4   5
ATOM      5  C   UNL     1     171.406 179.477 179.730  1.00  0.00     0.041 C 
ATOM      6  O   UNL     1     170.158 179.323 179.776  1.00  0.00    -0.550 OA
ATOM      7  O   UNL     1     172.023 179.735 178.512  1.00  0.00    -0.550 OA
ENDBRANCH   4   5
ENDBRANCH   3   4
ENDBRANCH   2   3
ENDBRANCH   1   2
BRANCH   1   8
ATOM      8  C   UNL     1     176.264 178.813 181.869  1.00  0.00     0.000 C 
BRANCH   8   9
ATOM      9  C   UNL     1     177.363 179.277 180.901  1.00  0.00     0.006 C 
BRANCH   9  10
ATOM     10  C   UNL     1     177.283 178.574 179.539  1.00  0.00     0.053 C 
BRANCH  10  11
ATOM     11  C   UNL     1     176.928 179.554 178.466  1.00  0.00     0.041 C 
ATOM     12  O   UNL     1     177.834 180.125 177.804  1.00  0.00    -0.550 OA
ATOM     13  O   UNL     1     175.597 179.874 178.229  1.00  0.00    -0.550 OA
ENDBRANCH  10  11
ENDBRANCH   9  10
ENDBRANCH   8   9
ENDBRANCH   1   8
TORSDOF 8
ENDMDL
MODEL 4
REMARK VINA RESULT:    -3.844      1.429      2.077
REMARK INTER + INTRA:          -6.335
REMARK INTER:                  -5.800
REMARK INTRA:                  -0.536
REMARK UNBOUND:                -0.694
REMARK SMILES O=C([O-])CCCCCCCC(=O)[O-]
REMARK SMILES IDX 7 1 6 2 5 3 4 4 2 5 1 6 3 7 8 8 9 9 10 10 11 11 12 12 13 13
REMARK H PARENT
REMARK Flexibility Score: inf
ROOT
ATOM      1  C   UNL     1     163.030 176.060 181.156  1.00  0.00     0.000 C 
ENDROOT
BRANCH   1   2
ATOM      2  C   UNL     1     164.111 177.107 180.840  1.00  0.00     0.000 C 
BRANCH   2   3
ATOM      3  C   UNL     1     163.992 178.362 181.723  1.00  0.00     0.006 C 
BRANCH   3   4
ATOM      4  C   UNL     1     164.212 179.654 180.924  1.00  0.00     0.053 C 
BRANCH   4   5
ATOM      5  C   UNL     1     163.202 179.812 179.830  1.00  0.00     0.041 C 
ATOM      6  O   UNL     1     161.994 180.028 180.110  1.00  0.00    -0.550 OA
ATOM      7  O   UNL     1     163.599 179.750 178.500  1.00  0.00    -0.550 OA
ENDBRANCH   4   5
ENDBRANCH   3   4
ENDBRANCH   2   3
ENDBRANCH   1   2
BRANCH   1   8
ATOM      8  C   UNL     1     161.605 176.638 181.073  1.00  0.00     0.000 C 
BRANCH   8   9
ATOM      9  C   UNL     1     160.522 175.552 181.163  1.00  0.00     0.006 C 
BRANCH   9  10
ATOM     10  C   UNL     1     161.050 174.161 180.786  1.00  0.00     0.053 C 
BRANCH  10  11
ATOM     11  C   UNL     1     160.478 173.723 179.475  1.00  0.00     0.041 C 
ATOM     12  O   UNL     1     160.177 172.515 179.287  1.00  0.00    -0.550 OA
ATOM     13  O   UNL     1     160.322 174.640 178.443  1.00  0.00    -0.550 OA
ENDBRANCH  10  11
ENDBRANCH   9  10
ENDBRANCH   8   9
ENDBRANCH   1   8
TORSDOF 8
ENDMDL
MODEL 5
REMARK VINA RESULT:    -3.763      1.350      5.668
REMARK INTER + INTRA:          -6.216
REMARK INTER:                  -5.707
REMARK INTRA:                  -0.509
REMARK UNBOUND:                -0.694
REMARK SMILES O=C([O-])CCCCCCCC(=O)[O-]
REMARK SMILES IDX 7 1 6 2 5 3 4 4 2 5 1 6 3 7 8 8 9 9 10 10 11 11 12 12 13 13
REMARK H PARENT
REMARK Flexibility Score: inf
ROOT
ATOM      1  C   UNL     1     162.698 176.354 180.986  1.00  0.00     0.000 C 
ENDROOT
BRANCH   1   2
ATOM      2  C   UNL     1     161.161 176.348 181.018  1.00  0.00     0.000 C 
BRANCH   2   3
ATOM      3  C   UNL     1     160.572 174.947 180.771  1.00  0.00     0.006 C 
BRANCH   3   4
ATOM      4  C   UNL     1     161.540 173.831 181.190  1.00  0.00     0.053 C 
BRANCH   4   5
ATOM      5  C   UNL     1     160.834 172.721 181.906  1.00  0.00     0.041 C 
ATOM      6  O   UNL     1     160.722 172.747 183.159  1.00  0.00    -0.550 OA
ATOM      7  O   UNL     1     160.275 171.673 181.186  1.00  0.00    -0.550 OA
ENDBRANCH   4   5
ENDBRANCH   3   4
ENDBRANCH   2   3
ENDBRANCH   1   2
BRANCH   1   8
ATOM      8  C   UNL     1     163.290 177.754 181.234  1.00  0.00     0.000 C 
BRANCH   8   9
ATOM      9  C   UNL     1     162.206 178.832 181.388  1.00  0.00     0.006 C 
BRANCH   9  10
ATOM     10  C   UNL     1     162.418 180.020 180.439  1.00  0.00     0.053 C 
BRANCH  10  11
ATOM     11  C   UNL     1     162.304 179.577 179.015  1.00  0.00     0.041 C 
ATOM     12  O   UNL     1     161.267 178.987 178.615  1.00  0.00    -0.550 OA
ATOM     13  O   UNL     1     163.367 179.771 178.140  1.00  0.00    -0.550 OA
ENDBRANCH  10  11
ENDBRANCH   9  10
ENDBRANCH   8   9
ENDBRANCH   1   8
TORSDOF 8
ENDMDL
MODEL 6
REMARK VINA RESULT:    -3.757     13.481     14.761
REMARK INTER + INTRA:          -6.208
REMARK INTER:                  -5.545
REMARK INTRA:                  -0.662
REMARK UNBOUND:                -0.694
REMARK SMILES O=C([O-])CCCCCCCC(=O)[O-]
REMARK SMILES IDX 7 1 6 2 5 3 4 4 2 5 1 6 3 7 8 8 9 9 10 10 11 11 12 12 13 13
REMARK H PARENT
REMARK Flexibility Score: inf
ROOT
ATOM      1  C   UNL     1     176.151 179.461 181.176  1.00  0.00     0.000 C 
ENDROOT
BRANCH   1   2
ATOM      2  C   UNL     1     174.721 179.201 180.673  1.00  0.00     0.000 C 
BRANCH   2   3
ATOM      3  C   UNL     1     174.609 179.291 179.141  1.00  0.00     0.006 C 
BRANCH   3   4
ATOM      4  C   UNL     1     175.830 179.977 178.511  1.00  0.00     0.053 C 
BRANCH   4   5
ATOM      5  C   UNL     1     176.589 179.051 177.612  1.00  0.00     0.041 C 
ATOM      6  O   UNL     1     177.621 179.453 177.015  1.00  0.00    -0.550 OA
ATOM      7  O   UNL     1     176.172 177.735 177.457  1.00  0.00    -0.550 OA
ENDBRANCH   4   5
ENDBRANCH   3   4
ENDBRANCH   2   3
ENDBRANCH   1   2
BRANCH   1   8
ATOM      8  C   UNL     1     176.741 178.257 181.932  1.00  0.00     0.000 C 
BRANCH   8   9
ATOM      9  C   UNL     1     176.571 176.937 181.164  1.00  0.00     0.006 C 
BRANCH   9  10
ATOM     10  C   UNL     1     177.825 176.555 180.366  1.00  0.00     0.053 C 
BRANCH  10  11
ATOM     11  C   UNL     1     177.764 175.118 179.956  1.00  0.00     0.041 C 
ATOM     12  O   UNL     1     178.187 174.219 180.728  1.00  0.00    -0.550 OA
ATOM     13  O   UNL     1     177.285 174.774 178.697  1.00  0.00    -0.550 OA
ENDBRANCH  10  11
ENDBRANCH   9  10
ENDBRANCH   8   9
ENDBRANCH   1   8
TORSDOF 8
ENDMDL
MODEL 7
REMARK VINA RESULT:    -3.751     11.253     13.141
REMARK INTER + INTRA:          -6.199
REMARK INTER:                  -5.819
REMARK INTRA:                  -0.379
REMARK UNBOUND:                -0.694
REMARK SMILES O=C([O-])CCCCCCCC(=O)[O-]
REMARK SMILES IDX 7 1 6 2 5 3 4 4 2 5 1 6 3 7 8 8 9 9 10 10 11 11 12 12 13 13
REMARK H PARENT
REMARK Flexibility Score: inf
ROOT
ATOM      1  C   UNL     1     175.346 179.513 180.661  1.00  0.00     0.000 C 
ENDROOT
BRANCH   1   2
ATOM      2  C   UNL     1     176.538 179.055 181.517  1.00  0.00     0.000 C 
BRANCH   2   3
ATOM      3  C   UNL     1     176.663 177.522 181.583  1.00  0.00     0.006 C 
BRANCH   3   4
ATOM      4  C   UNL     1     177.823 176.999 180.724  1.00  0.00     0.053 C 
BRANCH   4   5
ATOM      5  C   UNL     1     177.406 176.766 179.305  1.00  0.00     0.041 C 
ATOM      6  O   UNL     1     176.949 175.647 178.955  1.00  0.00    -0.550 OA
ATOM      7  O   UNL     1     177.494 177.795 178.376  1.00  0.00    -0.550 OA
ENDBRANCH   4   5
ENDBRANCH   3   4
ENDBRANCH   2   3
ENDBRANCH   1   2
BRANCH   1   8
ATOM      8  C   UNL     1     174.055 178.737 180.980  1.00  0.00     0.000 C 
BRANCH   8   9
ATOM      9  C   UNL     1     172.836 179.660 181.134  1.00  0.00     0.006 C 
BRANCH   9  10
ATOM     10  C   UNL     1     171.513 178.945 180.831  1.00  0.00     0.053 C 
BRANCH  10  11
ATOM     11  C   UNL     1     170.983 179.372 179.499  1.00  0.00     0.041 C 
ATOM     12  O   UNL     1     171.770 179.762 178.598  1.00  0.00    -0.550 OA
ATOM     13  O   UNL     1     169.612 179.386 179.269  1.00  0.00    -0.550 OA
ENDBRANCH  10  11
ENDBRANCH   9  10
ENDBRANCH   8   9
ENDBRANCH   1   8
TORSDOF 8
ENDMDL
MODEL 8
REMARK VINA RESULT:    -3.721      1.408      2.238
REMARK INTER + INTRA:          -6.155
REMARK INTER:                  -5.654
REMARK INTRA:                  -0.501
REMARK UNBOUND:                -0.694
REMARK SMILES O=C([O-])CCCCCCCC(=O)[O-]
REMARK SMILES IDX 7 1 6 2 5 3 4 4 2 5 1 6 3 7 8 8 9 9 10 10 11 11 12 12 13 13
REMARK H PARENT
REMARK Flexibility Score: inf
ROOT
ATOM      1  C   UNL     1     162.742 176.375 181.011  1.00  0.00     0.000 C 
ENDROOT
BRANCH   1   2
ATOM      2  C   UNL     1     163.321 177.773 181.282  1.00  0.00     0.000 C 
BRANCH   2   3
ATOM      3  C   UNL     1     162.229 178.855 181.378  1.00  0.00     0.006 C 
BRANCH   3   4
ATOM      4  C   UNL     1     162.496 180.031 180.428  1.00  0.00     0.053 C 
BRANCH   4   5
ATOM      5  C   UNL     1     162.378 179.625 178.991  1.00  0.00     0.041 C 
ATOM      6  O   UNL     1     163.349 179.786 178.206  1.00  0.00    -0.550 OA
ATOM      7  O   UNL     1     161.207 179.040 178.527  1.00  0.00    -0.550 OA
ENDBRANCH   4   5
ENDBRANCH   3   4
ENDBRANCH   2   3
ENDBRANCH   1   2
BRANCH   1   8
ATOM      8  C   UNL     1     161.211 176.389 180.851  1.00  0.00     0.000 C 
BRANCH   8   9
ATOM      9  C   UNL     1     160.559 175.074 181.307  1.00  0.00     0.006 C 
BRANCH   9  10
ATOM     10  C   UNL     1     161.419 173.846 180.982  1.00  0.00     0.053 C 
BRANCH  10  11
ATOM     11  C   UNL     1     160.971 172.667 181.786  1.00  0.00     0.041 C 
ATOM     12  O   UNL     1     160.879 171.532 181.251  1.00  0.00    -0.550 OA
ATOM     13  O   UNL     1     160.606 172.832 183.117  1.00  0.00    -0.550 OA
ENDBRANCH  10  11
ENDBRANCH   9  10
ENDBRANCH   8   9
ENDBRANCH   1   8
TORSDOF 8
ENDMDL
MODEL 9
REMARK VINA RESULT:    -3.697     11.943     13.913
REMARK INTER + INTRA:          -6.119
REMARK INTER:                  -5.558
REMARK INTRA:                  -0.561
REMARK UNBOUND:                -0.694
REMARK SMILES O=C([O-])CCCCCCCC(=O)[O-]
REMARK SMILES IDX 7 1 6 2 5 3 4 4 2 5 1 6 3 7 8 8 9 9 10 10 11 11 12 12 13 13
REMARK H PARENT
REMARK Flexibility Score: inf
ROOT
ATOM      1  C   UNL     1     177.066 179.690 180.998  1.00  0.00     0.000 C 
ENDROOT
BRANCH   1   2
ATOM      2  C   UNL     1     176.198 178.726 181.825  1.00  0.00     0.000 C 
BRANCH   2   3
ATOM      3  C   UNL     1     174.847 178.424 181.151  1.00  0.00     0.006 C 
BRANCH   3   4
ATOM      4  C   UNL     1     173.895 179.627 181.199  1.00  0.00     0.053 C 
BRANCH   4   5
ATOM      5  C   UNL     1     172.501 179.252 180.803  1.00  0.00     0.041 C 
ATOM      6  O   UNL     1     171.814 180.030 180.090  1.00  0.00    -0.550 OA
ATOM      7  O   UNL     1     171.971 178.029 181.194  1.00  0.00    -0.550 OA
ENDBRANCH   4   5
ENDBRANCH   3   4
ENDBRANCH   2   3
ENDBRANCH   1   2
BRANCH   1   8
ATOM      8  C   UNL     1     177.482 179.095 179.641  1.00  0.00     0.000 C 
BRANCH   8   9
ATOM      9  C   UNL     1     177.037 179.965 178.455  1.00  0.00     0.006 C 
BRANCH   9  10
ATOM     10  C   UNL     1     175.885 179.335 177.662  1.00  0.00     0.053 C 
BRANCH  10  11
ATOM     11  C   UNL     1     176.410 178.617 176.459  1.00  0.00     0.041 C 
ATOM     12  O   UNL     1     175.692 177.775 175.860  1.00  0.00    -0.550 OA
ATOM     13  O   UNL     1     177.712 178.842 176.029  1.00  0.00    -0.550 OA
ENDBRANCH  10  11
ENDBRANCH   9  10
ENDBRANCH   8   9
ENDBRANCH   1   8
TORSDOF 8
ENDMDL
