MODEL 1
REMARK VINA RESULT:    -4.154      0.000      0.000
REMARK INTER + INTRA:          -6.157
REMARK INTER:                  -6.339
REMARK INTRA:                   0.182
REMARK UNBOUND:                 0.182
REMARK SMILES CC1=CCC[C@@H](C)C(=O)C[C@H](C(C)C)C(=O)C1
REMARK SMILES IDX 8 1 9 2 6 3 7 4 5 5 4 6 3 7 2 8 1 9 10 11 11 12 15 13 16 14
REMARK SMILES IDX 17 15 12 17 13 18 14 19
REMARK H PARENT
REMARK Flexibility Score: 70.00
ROOT
ATOM      1  C   UNL     1     -15.929  13.271 -31.873  1.00  0.00     0.136 C 
ATOM      2  O   UNL     1     -16.423  13.974 -32.743  1.00  0.00    -0.299 OA
ENDROOT
BRANCH   1   3
ATOM      3  C   UNL     1     -16.703  13.061 -30.587  1.00  0.00     0.053 C 
ATOM      4  C   UNL     1     -16.656  14.336 -29.736  1.00  0.00     0.016 C 
BRANCH   3   5
ATOM      5  C   UNL     1     -16.215  11.840 -29.769  1.00  0.00     0.015 C 
BRANCH   5   6
ATOM      6  C   UNL     1     -15.653  12.113 -28.347  1.00  0.00     0.028 C 
BRANCH   6   7
ATOM      7  C   UNL     1     -14.604  11.137 -27.857  1.00  0.00    -0.028 C 
ATOM      8  C   UNL     1     -13.266  11.237 -28.055  1.00  0.00    -0.070 CG0
ATOM      9  C   UNL     1     -12.390  10.138 -27.511  1.00  0.00     0.039 C 
ATOM     10  G   UNL     1     -12.607  12.361 -28.836  1.00  0.00     0.000 G0
ENDBRANCH   6   7
ENDBRANCH   5   6
ENDBRANCH   3   5
ENDBRANCH   1   3
BRANCH   1  11
ATOM     11  C   UNL     1     -14.541  12.708 -32.097  1.00  0.00     0.087 C 
BRANCH  11  12
ATOM     12  C   UNL     1     -13.468  13.306 -31.148  1.00  0.00     0.066 C 
BRANCH  12  13
ATOM     13  C   UNL     1     -12.809  12.215 -30.323  1.00  0.00     0.140 C 
ATOM     14  O   UNL     1     -12.465  11.172 -30.862  1.00  0.00    -0.299 OA
BRANCH  13  15
ATOM     15  C   UNL     1     -12.595  12.381 -28.842  1.00  0.00     0.106 CG0
ATOM     16  G   UNL     1     -13.258  11.253 -28.072  1.00  0.00     0.000 G0
ENDBRANCH  13  15
ENDBRANCH  12  13
BRANCH  12  17
ATOM     17  C   UNL     1     -12.396  14.136 -31.921  1.00  0.00    -0.006 C 
ATOM     18  C   UNL     1     -12.063  13.517 -33.289  1.00  0.00     0.008 C 
ATOM     19  C   UNL     1     -12.858  15.589 -32.129  1.00  0.00     0.008 C 
ENDBRANCH  12  17
ENDBRANCH  11  12
ENDBRANCH   1  11
TORSDOF 1
ENDMDL
MODEL 2
REMARK VINA RESULT:    -4.137      1.713      3.988
REMARK INTER + INTRA:          -6.131
REMARK INTER:                  -5.959
REMARK INTRA:                  -0.171
REMARK UNBOUND:                 0.182
REMARK SMILES CC1=CCC[C@@H](C)C(=O)C[C@H](C(C)C)C(=O)C1
REMARK SMILES IDX 8 1 9 2 6 3 7 4 5 5 4 6 3 7 2 8 1 9 10 11 11 12 15 13 16 14
REMARK SMILES IDX 17 15 12 17 13 18 14 19
REMARK H PARENT
REMARK Flexibility Score: 70.00
ROOT
ATOM      1  C   UNL     1     -15.398  14.443 -30.776  1.00  0.00     0.136 C 
ATOM      2  O   UNL     1     -15.858  14.380 -31.907  1.00  0.00    -0.299 OA
ENDROOT
BRANCH   1   3
ATOM      3  C   UNL     1     -13.969  14.920 -30.603  1.00  0.00     0.053 C 
ATOM      4  C   UNL     1     -13.870  16.409 -30.958  1.00  0.00     0.016 C 
BRANCH   3   5
ATOM      5  C   UNL     1     -12.943  14.094 -31.419  1.00  0.00     0.015 C 
BRANCH   5   6
ATOM      6  C   UNL     1     -12.813  12.584 -31.082  1.00  0.00     0.028 C 
BRANCH   6   7
ATOM      7  C   UNL     1     -12.332  12.263 -29.683  1.00  0.00    -0.028 C 
ATOM      8  C   UNL     1     -12.997  11.522 -28.760  1.00  0.00    -0.070 CG0
ATOM      9  C   UNL     1     -12.357  11.345 -27.407  1.00  0.00     0.039 C 
ATOM     10  G   UNL     1     -14.366  10.909 -28.994  1.00  0.00     0.000 G0
ENDBRANCH   6   7
ENDBRANCH   5   6
ENDBRANCH   3   5
ENDBRANCH   1   3
BRANCH   1  11
ATOM     11  C   UNL     1     -16.253  13.975 -29.617  1.00  0.00     0.087 C 
BRANCH  11  12
ATOM     12  C   UNL     1     -16.438  12.435 -29.566  1.00  0.00     0.066 C 
BRANCH  12  13
ATOM     13  C   UNL     1     -15.491  11.812 -28.555  1.00  0.00     0.140 C 
ATOM     14  O   UNL     1     -15.612  12.079 -27.367  1.00  0.00    -0.299 OA
BRANCH  13  15
ATOM     15  C   UNL     1     -14.383  10.890 -28.991  1.00  0.00     0.106 CG0
ATOM     16  G   UNL     1     -13.027  11.533 -28.763  1.00  0.00     0.000 G0
ENDBRANCH  13  15
ENDBRANCH  12  13
BRANCH  12  17
ATOM     17  C   UNL     1     -17.913  12.029 -29.260  1.00  0.00    -0.006 C 
ATOM     18  C   UNL     1     -18.910  12.715 -30.210  1.00  0.00     0.008 C 
ATOM     19  C   UNL     1     -18.102  10.504 -29.354  1.00  0.00     0.008 C 
ENDBRANCH  12  17
ENDBRANCH  11  12
ENDBRANCH   1  11
TORSDOF 1
ENDMDL
MODEL 3
REMARK VINA RESULT:    -4.115      2.344      4.363
REMARK INTER + INTRA:          -6.097
REMARK INTER:                  -6.140
REMARK INTRA:                   0.043
REMARK UNBOUND:                 0.182
REMARK SMILES CC1=CCC[C@@H](C)C(=O)C[C@H](C(C)C)C(=O)C1
REMARK SMILES IDX 8 1 9 2 6 3 7 4 5 5 4 6 3 7 2 8 1 9 10 11 11 12 15 13 16 14
REMARK SMILES IDX 17 15 12 17 13 18 14 19
REMARK H PARENT
REMARK Flexibility Score: 70.00
ROOT
ATOM      1  C   UNL     1     -13.468  14.041 -29.821  1.00  0.00     0.136 C 
ATOM      2  O   UNL     1     -12.715  14.734 -29.153  1.00  0.00    -0.299 OA
ENDROOT
BRANCH   1   3
ATOM      3  C   UNL     1     -14.383  14.722 -30.819  1.00  0.00     0.053 C 
ATOM      4  C   UNL     1     -13.990  16.197 -30.964  1.00  0.00     0.016 C 
BRANCH   3   5
ATOM      5  C   UNL     1     -15.886  14.589 -30.464  1.00  0.00     0.015 C 
BRANCH   5   6
ATOM      6  C   UNL     1     -16.719  13.551 -31.264  1.00  0.00     0.028 C 
BRANCH   6   7
ATOM      7  C   UNL     1     -17.669  12.703 -30.447  1.00  0.00    -0.028 C 
ATOM      8  C   UNL     1     -17.338  11.605 -29.722  1.00  0.00    -0.070 CG0
ATOM      9  C   UNL     1     -18.443  10.878 -29.001  1.00  0.00     0.039 C 
ATOM     10  G   UNL     1     -15.932  11.038 -29.639  1.00  0.00     0.000 G0
ENDBRANCH   6   7
ENDBRANCH   5   6
ENDBRANCH   3   5
ENDBRANCH   1   3
BRANCH   1  11
ATOM     11  C   UNL     1     -13.498  12.548 -29.566  1.00  0.00     0.087 C 
BRANCH  11  12
ATOM     12  C   UNL     1     -14.038  12.170 -28.161  1.00  0.00     0.066 C 
BRANCH  12  13
ATOM     13  C   UNL     1     -15.306  11.342 -28.275  1.00  0.00     0.140 C 
ATOM     14  O   UNL     1     -15.833  10.898 -27.265  1.00  0.00    -0.299 OA
BRANCH  13  15
ATOM     15  C   UNL     1     -15.914  11.032 -29.618  1.00  0.00     0.106 CG0
ATOM     16  G   UNL     1     -17.318  11.602 -29.716  1.00  0.00     0.000 G0
ENDBRANCH  13  15
ENDBRANCH  12  13
BRANCH  12  17
ATOM     17  C   UNL     1     -12.970  11.424 -27.300  1.00  0.00    -0.006 C 
ATOM     18  C   UNL     1     -12.133  10.445 -28.141  1.00  0.00     0.008 C 
ATOM     19  C   UNL     1     -12.025  12.418 -26.601  1.00  0.00     0.008 C 
ENDBRANCH  12  17
ENDBRANCH  11  12
ENDBRANCH   1  11
TORSDOF 1
ENDMDL
MODEL 4
REMARK VINA RESULT:    -4.083      1.836      4.626
REMARK INTER + INTRA:          -6.048
REMARK INTER:                  -6.044
REMARK INTRA:                  -0.004
REMARK UNBOUND:                 0.182
REMARK SMILES CC1=CCC[C@@H](C)C(=O)C[C@H](C(C)C)C(=O)C1
REMARK SMILES IDX 8 1 9 2 6 3 7 4 5 5 4 6 3 7 2 8 1 9 10 11 11 12 15 13 16 14
REMARK SMILES IDX 17 15 12 17 13 18 14 19
REMARK H PARENT
REMARK Flexibility Score: 70.00
ROOT
ATOM      1  C   UNL     1     -12.812  11.304 -29.504  1.00  0.00     0.136 C 
ATOM      2  O   UNL     1     -12.014  10.753 -30.250  1.00  0.00    -0.299 OA
ENDROOT
BRANCH   1   3
ATOM      3  C   UNL     1     -12.320  11.796 -28.157  1.00  0.00     0.053 C 
ATOM      4  C   UNL     1     -13.516  12.131 -27.257  1.00  0.00     0.016 C 
BRANCH   3   5
ATOM      5  C   UNL     1     -11.357  13.005 -28.258  1.00  0.00     0.015 C 
BRANCH   5   6
ATOM      6  C   UNL     1     -11.727  14.129 -29.264  1.00  0.00     0.028 C 
BRANCH   6   7
ATOM      7  C   UNL     1     -11.155  13.977 -30.657  1.00  0.00    -0.028 C 
ATOM      8  C   UNL     1     -11.837  14.126 -31.820  1.00  0.00    -0.070 CG0
ATOM      9  C   UNL     1     -11.089  13.900 -33.109  1.00  0.00     0.039 C 
ATOM     10  G   UNL     1     -13.317  14.456 -31.898  1.00  0.00     0.000 G0
ENDBRANCH   6   7
ENDBRANCH   5   6
ENDBRANCH   3   5
ENDBRANCH   1   3
BRANCH   1  11
ATOM     11  C   UNL     1     -14.260  11.402 -29.935  1.00  0.00     0.087 C 
BRANCH  11  12
ATOM     12  C   UNL     1     -14.698  12.841 -30.315  1.00  0.00     0.066 C 
BRANCH  12  13
ATOM     13  C   UNL     1     -14.176  13.218 -31.691  1.00  0.00     0.140 C 
ATOM     14  O   UNL     1     -14.415  12.494 -32.648  1.00  0.00    -0.299 OA
BRANCH  13  15
ATOM     15  C   UNL     1     -13.344  14.456 -31.896  1.00  0.00     0.106 CG0
ATOM     16  G   UNL     1     -11.863  14.126 -31.822  1.00  0.00     0.000 G0
ENDBRANCH  13  15
ENDBRANCH  12  13
BRANCH  12  17
ATOM     17  C   UNL     1     -16.246  13.023 -30.246  1.00  0.00    -0.006 C 
ATOM     18  C   UNL     1     -16.917  11.944 -29.378  1.00  0.00     0.008 C 
ATOM     19  C   UNL     1     -16.620  14.412 -29.695  1.00  0.00     0.008 C 
ENDBRANCH  12  17
ENDBRANCH  11  12
ENDBRANCH   1  11
TORSDOF 1
ENDMDL
MODEL 5
REMARK VINA RESULT:    -4.011      1.802      2.625
REMARK INTER + INTRA:          -5.940
REMARK INTER:                  -5.753
REMARK INTRA:                  -0.187
REMARK UNBOUND:                 0.182
REMARK SMILES CC1=CCC[C@@H](C)C(=O)C[C@H](C(C)C)C(=O)C1
REMARK SMILES IDX 8 1 9 2 6 3 7 4 5 5 4 6 3 7 2 8 1 9 10 11 11 12 15 13 16 14
REMARK SMILES IDX 17 15 12 17 13 18 14 19
REMARK H PARENT
REMARK Flexibility Score: 70.00
ROOT
ATOM      1  C   UNL     1     -14.784  13.892 -31.029  1.00  0.00     0.136 C 
ATOM      2  O   UNL     1     -14.643  15.105 -31.086  1.00  0.00    -0.299 OA
ENDROOT
BRANCH   1   3
ATOM      3  C   UNL     1     -16.190  13.328 -31.011  1.00  0.00     0.053 C 
ATOM      4  C   UNL     1     -17.033  13.992 -32.107  1.00  0.00     0.016 C 
BRANCH   3   5
ATOM      5  C   UNL     1     -16.887  13.459 -29.633  1.00  0.00     0.015 C 
BRANCH   5   6
ATOM      6  C   UNL     1     -17.405  12.155 -28.969  1.00  0.00     0.028 C 
BRANCH   6   7
ATOM      7  C   UNL     1     -16.588  11.642 -27.802  1.00  0.00    -0.028 C 
ATOM      8  C   UNL     1     -15.477  10.867 -27.885  1.00  0.00    -0.070 CG0
ATOM      9  C   UNL     1     -14.824  10.435 -26.598  1.00  0.00     0.039 C 
ATOM     10  G   UNL     1     -14.888  10.368 -29.192  1.00  0.00     0.000 G0
ENDBRANCH   6   7
ENDBRANCH   5   6
ENDBRANCH   3   5
ENDBRANCH   1   3
BRANCH   1  11
ATOM     11  C   UNL     1     -13.550  13.023 -30.909  1.00  0.00     0.087 C 
BRANCH  11  12
ATOM     12  C   UNL     1     -13.313  12.477 -29.475  1.00  0.00     0.066 C 
BRANCH  12  13
ATOM     13  C   UNL     1     -13.505  10.971 -29.433  1.00  0.00     0.140 C 
ATOM     14  O   UNL     1     -12.548  10.233 -29.622  1.00  0.00    -0.299 OA
BRANCH  13  15
ATOM     15  C   UNL     1     -14.863  10.366 -29.191  1.00  0.00     0.106 CG0
ATOM     16  G   UNL     1     -15.452  10.873 -27.887  1.00  0.00     0.000 G0
ENDBRANCH  13  15
ENDBRANCH  12  13
BRANCH  12  17
ATOM     17  C   UNL     1     -11.908  12.868 -28.920  1.00  0.00    -0.006 C 
ATOM     18  C   UNL     1     -11.444  14.240 -29.437  1.00  0.00     0.008 C 
ATOM     19  C   UNL     1     -11.903  12.886 -27.380  1.00  0.00     0.008 C 
ENDBRANCH  12  17
ENDBRANCH  11  12
ENDBRANCH   1  11
TORSDOF 1
ENDMDL
MODEL 6
REMARK VINA RESULT:    -3.165      1.973      4.825
REMARK INTER + INTRA:          -4.647
REMARK INTER:                  -5.842
REMARK INTRA:                   1.194
REMARK UNBOUND:                 0.182
REMARK SMILES CC1=CCC[C@@H](C)C(=O)C[C@H](C(C)C)C(=O)C1
REMARK SMILES IDX 8 1 9 2 6 3 7 4 5 5 4 6 3 7 2 8 1 9 10 11 11 12 15 13 16 14
REMARK SMILES IDX 17 15 12 17 13 18 14 19
REMARK H PARENT
REMARK Flexibility Score: 70.00
ROOT
ATOM      1  C   UNL     1     -11.746  11.878 -30.774  1.00  0.00     0.136 C 
ATOM      2  O   UNL     1     -11.394  10.921 -31.448  1.00  0.00    -0.299 OA
ENDROOT
BRANCH   1   3
ATOM      3  C   UNL     1     -11.523  13.272 -31.327  1.00  0.00     0.053 C 
ATOM      4  C   UNL     1     -11.137  14.228 -30.191  1.00  0.00     0.016 C 
BRANCH   3   5
ATOM      5  C   UNL     1     -12.739  13.823 -32.113  1.00  0.00     0.015 C 
BRANCH   5   6
ATOM      6  C   UNL     1     -13.471  15.058 -31.522  1.00  0.00     0.028 C 
BRANCH   6   7
ATOM      7  C   UNL     1     -14.913  14.835 -31.118  1.00  0.00    -0.028 C 
ATOM      8  C   UNL     1     -15.576  13.652 -31.145  1.00  0.00    -0.070 CG0
ATOM      9  C   UNL     1     -17.025  13.648 -30.730  1.00  0.00     0.039 C 
ATOM     10  G   UNL     1     -14.960  12.347 -31.618  1.00  0.00     0.000 G0
ENDBRANCH   6   7
ENDBRANCH   5   6
ENDBRANCH   3   5
ENDBRANCH   1   3
BRANCH   1  11
ATOM     11  C   UNL     1     -12.318  11.624 -29.395  1.00  0.00     0.087 C 
BRANCH  11  12
ATOM     12  C   UNL     1     -13.821  11.989 -29.271  1.00  0.00     0.066 C 
BRANCH  12  13
ATOM     13  C   UNL     1     -14.609  11.437 -30.447  1.00  0.00     0.140 C 
ATOM     14  O   UNL     1     -14.943  10.261 -30.453  1.00  0.00    -0.299 OA
BRANCH  13  15
ATOM     15  C   UNL     1     -14.963  12.308 -31.623  1.00  0.00     0.106 CG0
ATOM     16  G   UNL     1     -15.570  13.619 -31.158  1.00  0.00     0.000 G0
ENDBRANCH  13  15
ENDBRANCH  12  13
BRANCH  12  17
ATOM     17  C   UNL     1     -14.436  11.503 -27.921  1.00  0.00    -0.006 C 
ATOM     18  C   UNL     1     -13.576  11.914 -26.714  1.00  0.00     0.008 C 
ATOM     19  C   UNL     1     -15.862  12.050 -27.729  1.00  0.00     0.008 C 
ENDBRANCH  12  17
ENDBRANCH  11  12
ENDBRANCH   1  11
TORSDOF 1
ENDMDL
MODEL 7
REMARK VINA RESULT:    -2.968      1.936      4.858
REMARK INTER + INTRA:          -4.347
REMARK INTER:                  -4.895
REMARK INTRA:                   0.548
REMARK UNBOUND:                 0.182
REMARK SMILES CC1=CCC[C@@H](C)C(=O)C[C@H](C(C)C)C(=O)C1
REMARK SMILES IDX 8 1 9 2 6 3 7 4 5 5 4 6 3 7 2 8 1 9 10 11 11 12 15 13 16 14
REMARK SMILES IDX 17 15 12 17 13 18 14 19
REMARK H PARENT
REMARK Flexibility Score: 70.00
ROOT
ATOM      1  C   UNL     1     -11.071  11.945 -31.336  1.00  0.00     0.136 C 
ATOM      2  O   UNL     1      -9.935  11.512 -31.210  1.00  0.00    -0.299 OA
ENDROOT
BRANCH   1   3
ATOM      3  C   UNL     1     -11.292  13.145 -32.236  1.00  0.00     0.053 C 
ATOM      4  C   UNL     1     -10.151  14.153 -32.049  1.00  0.00     0.016 C 
BRANCH   3   5
ATOM      5  C   UNL     1     -12.665  13.829 -32.021  1.00  0.00     0.015 C 
BRANCH   5   6
ATOM      6  C   UNL     1     -13.898  13.186 -32.713  1.00  0.00     0.028 C 
BRANCH   6   7
ATOM      7  C   UNL     1     -15.236  13.469 -32.064  1.00  0.00    -0.028 C 
ATOM      8  C   UNL     1     -15.714  12.887 -30.936  1.00  0.00    -0.070 CG0
ATOM      9  C   UNL     1     -17.091  13.285 -30.468  1.00  0.00     0.039 C 
ATOM     10  G   UNL     1     -14.969  11.823 -30.150  1.00  0.00     0.000 G0
ENDBRANCH   6   7
ENDBRANCH   5   6
ENDBRANCH   3   5
ENDBRANCH   1   3
BRANCH   1  11
ATOM     11  C   UNL     1     -12.184  11.307 -30.532  1.00  0.00     0.087 C 
BRANCH  11  12
ATOM     12  C   UNL     1     -12.524  12.074 -29.226  1.00  0.00     0.066 C 
BRANCH  12  13
ATOM     13  C   UNL     1     -14.010  12.377 -29.150  1.00  0.00     0.140 C 
ATOM     14  O   UNL     1     -14.436  13.100 -28.260  1.00  0.00    -0.299 OA
BRANCH  13  15
ATOM     15  C   UNL     1     -14.978  11.780 -30.137  1.00  0.00     0.106 CG0
ATOM     16  G   UNL     1     -15.702  12.870 -30.907  1.00  0.00     0.000 G0
ENDBRANCH  13  15
ENDBRANCH  12  13
BRANCH  12  17
ATOM     17  C   UNL     1     -12.054  11.305 -27.952  1.00  0.00    -0.006 C 
ATOM     18  C   UNL     1     -10.933  10.299 -28.265  1.00  0.00     0.008 C 
ATOM     19  C   UNL     1     -11.564  12.277 -26.863  1.00  0.00     0.008 C 
ENDBRANCH  12  17
ENDBRANCH  11  12
ENDBRANCH   1  11
TORSDOF 1
ENDMDL
MODEL 8
REMARK VINA RESULT:    -2.714     11.519     13.024
REMARK INTER + INTRA:          -3.960
REMARK INTER:                  -3.793
REMARK INTRA:                  -0.167
REMARK UNBOUND:                 0.182
REMARK SMILES CC1=CCC[C@@H](C)C(=O)C[C@H](C(C)C)C(=O)C1
REMARK SMILES IDX 8 1 9 2 6 3 7 4 5 5 4 6 3 7 2 8 1 9 10 11 11 12 15 13 16 14
REMARK SMILES IDX 17 15 12 17 13 18 14 19
REMARK H PARENT
REMARK Flexibility Score: 70.00
ROOT
ATOM      1  C   UNL     1     -25.428  20.037 -34.594  1.00  0.00     0.136 C 
ATOM      2  O   UNL     1     -24.990  20.755 -35.481  1.00  0.00    -0.299 OA
ENDROOT
BRANCH   1   3
ATOM      3  C   UNL     1     -26.866  20.227 -34.154  1.00  0.00     0.053 C 
ATOM      4  C   UNL     1     -26.956  21.390 -33.157  1.00  0.00     0.016 C 
BRANCH   3   5
ATOM      5  C   UNL     1     -27.501  18.946 -33.557  1.00  0.00     0.015 C 
BRANCH   5   6
ATOM      6  C   UNL     1     -27.435  18.770 -32.015  1.00  0.00     0.028 C 
BRANCH   6   7
ATOM      7  C   UNL     1     -27.049  17.389 -31.529  1.00  0.00    -0.028 C 
ATOM      8  C   UNL     1     -25.920  17.070 -30.848  1.00  0.00    -0.070 CG0
ATOM      9  C   UNL     1     -25.705  15.624 -30.480  1.00  0.00     0.039 C 
ATOM     10  G   UNL     1     -24.839  18.072 -30.482  1.00  0.00     0.000 G0
ENDBRANCH   6   7
ENDBRANCH   5   6
ENDBRANCH   3   5
ENDBRANCH   1   3
BRANCH   1  11
ATOM     11  C   UNL     1     -24.492  19.046 -33.934  1.00  0.00     0.087 C 
BRANCH  11  12
ATOM     12  C   UNL     1     -24.017  19.486 -32.524  1.00  0.00     0.066 C 
BRANCH  12  13
ATOM     13  C   UNL     1     -23.873  18.286 -31.605  1.00  0.00     0.140 C 
ATOM     14  O   UNL     1     -22.976  17.477 -31.802  1.00  0.00    -0.299 OA
BRANCH  13  15
ATOM     15  C   UNL     1     -24.833  18.056 -30.467  1.00  0.00     0.106 CG0
ATOM     16  G   UNL     1     -25.910  17.063 -30.865  1.00  0.00     0.000 G0
ENDBRANCH  13  15
ENDBRANCH  12  13
BRANCH  12  17
ATOM     17  C   UNL     1     -22.687  20.301 -32.578  1.00  0.00    -0.006 C 
ATOM     18  C   UNL     1     -21.942  20.102 -33.909  1.00  0.00     0.008 C 
ATOM     19  C   UNL     1     -22.945  21.804 -32.369  1.00  0.00     0.008 C 
ENDBRANCH  12  17
ENDBRANCH  11  12
ENDBRANCH   1  11
TORSDOF 1
ENDMDL
MODEL 9
REMARK VINA RESULT:    -2.510     10.518     12.805
REMARK INTER + INTRA:          -3.648
REMARK INTER:                  -4.746
REMARK INTRA:                   1.098
REMARK UNBOUND:                 0.182
REMARK SMILES CC1=CCC[C@@H](C)C(=O)C[C@H](C(C)C)C(=O)C1
REMARK SMILES IDX 8 1 9 2 6 3 7 4 5 5 4 6 3 7 2 8 1 9 10 11 11 12 15 13 16 14
REMARK SMILES IDX 17 15 12 17 13 18 14 19
REMARK H PARENT
REMARK Flexibility Score: 70.00
ROOT
ATOM      1  C   UNL     1     -24.119  10.449 -29.182  1.00  0.00     0.136 C 
ATOM      2  O   UNL     1     -22.968  10.113 -29.420  1.00  0.00    -0.299 OA
ENDROOT
BRANCH   1   3
ATOM      3  C   UNL     1     -24.519  10.684 -27.739  1.00  0.00     0.053 C 
ATOM      4  C   UNL     1     -23.440  10.128 -26.802  1.00  0.00     0.016 C 
BRANCH   3   5
ATOM      5  C   UNL     1     -25.907  10.095 -27.382  1.00  0.00     0.015 C 
BRANCH   5   6
ATOM      6  C   UNL     1     -27.135  11.039 -27.500  1.00  0.00     0.028 C 
BRANCH   6   7
ATOM      7  C   UNL     1     -28.200  10.611 -28.487  1.00  0.00    -0.028 C 
ATOM      8  C   UNL     1     -28.502  11.231 -29.654  1.00  0.00    -0.070 CG0
ATOM      9  C   UNL     1     -29.624  10.662 -30.484  1.00  0.00     0.039 C 
ATOM     10  G   UNL     1     -27.814  12.492 -30.146  1.00  0.00     0.000 G0
ENDBRANCH   6   7
ENDBRANCH   5   6
ENDBRANCH   3   5
ENDBRANCH   1   3
BRANCH   1  11
ATOM     11  C   UNL     1     -25.101  10.544 -30.331  1.00  0.00     0.087 C 
BRANCH  11  12
ATOM     12  C   UNL     1     -25.327  11.995 -30.835  1.00  0.00     0.066 C 
BRANCH  12  13
ATOM     13  C   UNL     1     -26.785  12.217 -31.201  1.00  0.00     0.140 C 
ATOM     14  O   UNL     1     -27.126  12.184 -32.375  1.00  0.00    -0.299 OA
BRANCH  13  15
ATOM     15  C   UNL     1     -27.817  12.507 -30.143  1.00  0.00     0.106 CG0
ATOM     16  G   UNL     1     -28.483  11.224 -29.677  1.00  0.00     0.000 G0
ENDBRANCH  13  15
ENDBRANCH  12  13
BRANCH  12  17
ATOM     17  C   UNL     1     -24.852  13.059 -29.797  1.00  0.00    -0.006 C 
ATOM     18  C   UNL     1     -23.466  13.628 -30.146  1.00  0.00     0.008 C 
ATOM     19  C   UNL     1     -25.857  14.222 -29.692  1.00  0.00     0.008 C 
ENDBRANCH  12  17
ENDBRANCH  11  12
ENDBRANCH   1  11
TORSDOF 1
ENDMDL
