MODEL 1
REMARK VINA RESULT:    -4.920      0.000      0.000
REMARK INTER + INTRA:          -9.811
REMARK INTER:                  -8.660
REMARK INTRA:                  -1.151
REMARK UNBOUND:                -1.151
REMARK SMILES CCCCCCCCCCCCCCC(=O)[O-]
REMARK SMILES IDX 9 1 10 2 11 3 12 4 13 5 14 6 15 7 16 8 17 9 8 10 7 11 6 12
REMARK SMILES IDX 5 13 4 14 3 15 2 16 1 17
REMARK H PARENT
REMARK Flexibility Score: inf
ROOT
ATOM      1  C   UNL     1      62.717 -25.620  -3.215  1.00  0.00     0.000 C 
ENDROOT
BRANCH   1   2
ATOM      2  C   UNL     1      61.262 -25.797  -2.766  1.00  0.00     0.000 C 
BRANCH   2   3
ATOM      3  C   UNL     1      60.326 -25.931  -3.973  1.00  0.00     0.000 C 
BRANCH   3   4
ATOM      4  C   UNL     1      60.958 -25.319  -5.230  1.00  0.00     0.000 C 
BRANCH   4   5
ATOM      5  C   UNL     1      59.966 -24.401  -5.952  1.00  0.00     0.006 C 
BRANCH   5   6
ATOM      6  C   UNL     1      59.232 -23.496  -4.958  1.00  0.00     0.053 C 
BRANCH   6   7
ATOM      7  C   UNL     1      57.752 -23.577  -5.170  1.00  0.00     0.041 C 
ATOM      8  O   UNL     1      57.147 -22.652  -5.772  1.00  0.00    -0.550 OA
ATOM      9  O   UNL     1      57.035 -24.650  -4.658  1.00  0.00    -0.550 OA
ENDBRANCH   6   7
ENDBRANCH   5   6
ENDBRANCH   4   5
ENDBRANCH   3   4
ENDBRANCH   2   3
ENDBRANCH   1   2
BRANCH   1  10
ATOM     10  C   UNL     1      63.506 -26.928  -3.053  1.00  0.00     0.000 C 
BRANCH  10  11
ATOM     11  C   UNL     1      63.607 -27.391  -1.587  1.00  0.00    -0.000 C 
BRANCH  11  12
ATOM     12  C   UNL     1      63.327 -28.888  -1.359  1.00  0.00    -0.000 C 
BRANCH  12  13
ATOM     13  C   UNL     1      62.176 -29.136  -0.369  1.00  0.00    -0.000 C 
BRANCH  13  14
ATOM     14  C   UNL     1      60.794 -28.983  -1.024  1.00  0.00    -0.000 C 
BRANCH  14  15
ATOM     15  C   UNL     1      59.652 -28.980   0.007  1.00  0.00    -0.000 C 
BRANCH  15  16
ATOM     16  C   UNL     1      60.143 -29.290   1.430  1.00  0.00    -0.003 C 
ATOM     17  C   UNL     1      59.106 -28.948   2.499  1.00  0.00     0.004 C 
ENDBRANCH  15  16
ENDBRANCH  14  15
ENDBRANCH  13  14
ENDBRANCH  12  13
ENDBRANCH  11  12
ENDBRANCH  10  11
ENDBRANCH   1  10
TORSDOF 13
ENDMDL
MODEL 2
REMARK VINA RESULT:    -4.852      1.345      3.046
REMARK INTER + INTRA:          -9.690
REMARK INTER:                  -8.182
REMARK INTRA:                  -1.507
REMARK UNBOUND:                -1.151
REMARK SMILES CCCCCCCCCCCCCCC(=O)[O-]
REMARK SMILES IDX 9 1 10 2 11 3 12 4 13 5 14 6 15 7 16 8 17 9 8 10 7 11 6 12
REMARK SMILES IDX 5 13 4 14 3 15 2 16 1 17
REMARK H PARENT
REMARK Flexibility Score: inf
ROOT
ATOM      1  C   UNL     1      62.863 -28.872  -1.535  1.00  0.00     0.000 C 
ENDROOT
BRANCH   1   2
ATOM      2  C   UNL     1      63.636 -27.548  -1.543  1.00  0.00     0.000 C 
BRANCH   2   3
ATOM      3  C   UNL     1      63.489 -26.833  -2.891  1.00  0.00     0.000 C 
BRANCH   3   4
ATOM      4  C   UNL     1      62.505 -25.661  -2.787  1.00  0.00     0.000 C 
BRANCH   4   5
ATOM      5  C   UNL     1      61.280 -25.889  -3.680  1.00  0.00     0.006 C 
BRANCH   5   6
ATOM      6  C   UNL     1      60.238 -24.786  -3.476  1.00  0.00     0.053 C 
BRANCH   6   7
ATOM      7  C   UNL     1      59.644 -24.377  -4.787  1.00  0.00     0.041 C 
ATOM      8  O   UNL     1      59.140 -23.231  -4.925  1.00  0.00    -0.550 OA
ATOM      9  O   UNL     1      59.602 -25.278  -5.843  1.00  0.00    -0.550 OA
ENDBRANCH   6   7
ENDBRANCH   5   6
ENDBRANCH   4   5
ENDBRANCH   3   4
ENDBRANCH   2   3
ENDBRANCH   1   2
BRANCH   1  10
ATOM     10  C   UNL     1      61.745 -28.850  -0.482  1.00  0.00     0.000 C 
BRANCH  10  11
ATOM     11  C   UNL     1      60.363 -29.198  -1.067  1.00  0.00    -0.000 C 
BRANCH  11  12
ATOM     12  C   UNL     1      59.440 -27.990  -1.312  1.00  0.00    -0.000 C 
BRANCH  12  13
ATOM     13  C   UNL     1      58.105 -28.095  -0.555  1.00  0.00    -0.000 C 
BRANCH  13  14
ATOM     14  C   UNL     1      58.071 -29.285   0.416  1.00  0.00    -0.000 C 
BRANCH  14  15
ATOM     15  C   UNL     1      57.865 -28.847   1.876  1.00  0.00    -0.000 C 
BRANCH  15  16
ATOM     16  C   UNL     1      59.194 -28.606   2.610  1.00  0.00    -0.003 C 
ATOM     17  C   UNL     1      60.076 -29.853   2.659  1.00  0.00     0.004 C 
ENDBRANCH  15  16
ENDBRANCH  14  15
ENDBRANCH  13  14
ENDBRANCH  12  13
ENDBRANCH  11  12
ENDBRANCH  10  11
ENDBRANCH   1  10
TORSDOF 13
ENDMDL
MODEL 3
REMARK VINA RESULT:    -4.815      3.335      6.764
REMARK INTER + INTRA:          -9.625
REMARK INTER:                  -8.376
REMARK INTRA:                  -1.249
REMARK UNBOUND:                -1.151
REMARK SMILES CCCCCCCCCCCCCCC(=O)[O-]
REMARK SMILES IDX 9 1 10 2 11 3 12 4 13 5 14 6 15 7 16 8 17 9 8 10 7 11 6 12
REMARK SMILES IDX 5 13 4 14 3 15 2 16 1 17
REMARK H PARENT
REMARK Flexibility Score: inf
ROOT
ATOM      1  C   UNL     1      62.930 -29.010  -1.230  1.00  0.00     0.000 C 
ENDROOT
BRANCH   1   2
ATOM      2  C   UNL     1      61.586 -28.919  -0.496  1.00  0.00     0.000 C 
BRANCH   2   3
ATOM      3  C   UNL     1      60.425 -28.793  -1.489  1.00  0.00     0.000 C 
BRANCH   3   4
ATOM      4  C   UNL     1      59.089 -28.622  -0.755  1.00  0.00     0.000 C 
BRANCH   4   5
ATOM      5  C   UNL     1      58.683 -29.916  -0.043  1.00  0.00     0.006 C 
BRANCH   5   6
ATOM      6  C   UNL     1      58.029 -29.618   1.310  1.00  0.00     0.053 C 
BRANCH   6   7
ATOM      7  C   UNL     1      59.067 -29.255   2.325  1.00  0.00     0.041 C 
ATOM      8  O   UNL     1      59.004 -28.151   2.929  1.00  0.00    -0.550 OA
ATOM      9  O   UNL     1      60.132 -30.113   2.568  1.00  0.00    -0.550 OA
ENDBRANCH   6   7
ENDBRANCH   5   6
ENDBRANCH   4   5
ENDBRANCH   3   4
ENDBRANCH   2   3
ENDBRANCH   1   2
BRANCH   1  10
ATOM     10  C   UNL     1      63.534 -27.615  -1.447  1.00  0.00     0.000 C 
BRANCH  10  11
ATOM     11  C   UNL     1      63.356 -27.102  -2.889  1.00  0.00    -0.000 C 
BRANCH  11  12
ATOM     12  C   UNL     1      62.745 -25.693  -3.004  1.00  0.00    -0.000 C 
BRANCH  12  13
ATOM     13  C   UNL     1      61.233 -25.672  -2.723  1.00  0.00    -0.000 C 
BRANCH  13  14
ATOM     14  C   UNL     1      60.398 -25.988  -3.974  1.00  0.00    -0.000 C 
BRANCH  14  15
ATOM     15  C   UNL     1      60.905 -25.247  -5.223  1.00  0.00    -0.000 C 
BRANCH  15  16
ATOM     16  C   UNL     1      59.761 -24.656  -6.062  1.00  0.00    -0.003 C 
ATOM     17  C   UNL     1      58.843 -23.745  -5.249  1.00  0.00     0.004 C 
ENDBRANCH  15  16
ENDBRANCH  14  15
ENDBRANCH  13  14
ENDBRANCH  12  13
ENDBRANCH  11  12
ENDBRANCH  10  11
ENDBRANCH   1  10
TORSDOF 13
ENDMDL
MODEL 4
REMARK VINA RESULT:    -4.806      2.656      6.497
REMARK INTER + INTRA:          -9.609
REMARK INTER:                  -8.079
REMARK INTRA:                  -1.530
REMARK UNBOUND:                -1.151
REMARK SMILES CCCCCCCCCCCCCCC(=O)[O-]
REMARK SMILES IDX 9 1 10 2 11 3 12 4 13 5 14 6 15 7 16 8 17 9 8 10 7 11 6 12
REMARK SMILES IDX 5 13 4 14 3 15 2 16 1 17
REMARK H PARENT
REMARK Flexibility Score: inf
ROOT
ATOM      1  C   UNL     1      62.799 -25.723  -2.979  1.00  0.00     0.000 C 
ENDROOT
BRANCH   1   2
ATOM      2  C   UNL     1      63.620 -26.786  -2.239  1.00  0.00     0.000 C 
BRANCH   2   3
ATOM      3  C   UNL     1      62.828 -28.091  -2.095  1.00  0.00     0.000 C 
BRANCH   3   4
ATOM      4  C   UNL     1      63.033 -28.709  -0.706  1.00  0.00     0.000 C 
BRANCH   4   5
ATOM      5  C   UNL     1      61.705 -29.206  -0.124  1.00  0.00     0.006 C 
BRANCH   5   6
ATOM      6  C   UNL     1      60.530 -28.816  -1.025  1.00  0.00     0.053 C 
BRANCH   6   7
ATOM      7  C   UNL     1      59.229 -29.128  -0.353  1.00  0.00     0.041 C 
ATOM      8  O   UNL     1      58.304 -28.273  -0.337  1.00  0.00    -0.550 OA
ATOM      9  O   UNL     1      59.055 -30.343   0.297  1.00  0.00    -0.550 OA
ENDBRANCH   6   7
ENDBRANCH   5   6
ENDBRANCH   4   5
ENDBRANCH   3   4
ENDBRANCH   2   3
ENDBRANCH   1   2
BRANCH   1  10
ATOM     10  C   UNL     1      61.406 -26.259  -3.344  1.00  0.00     0.000 C 
BRANCH  10  11
ATOM     11  C   UNL     1      60.264 -25.405  -2.762  1.00  0.00    -0.000 C 
BRANCH  11  12
ATOM     12  C   UNL     1      58.852 -25.984  -2.969  1.00  0.00    -0.000 C 
BRANCH  12  13
ATOM     13  C   UNL     1      57.868 -24.961  -3.561  1.00  0.00    -0.000 C 
BRANCH  13  14
ATOM     14  C   UNL     1      58.204 -24.595  -5.015  1.00  0.00    -0.000 C 
BRANCH  14  15
ATOM     15  C   UNL     1      58.526 -25.831  -5.873  1.00  0.00    -0.000 C 
BRANCH  15  16
ATOM     16  C   UNL     1      59.504 -25.516  -7.016  1.00  0.00    -0.003 C 
ATOM     17  C   UNL     1      60.720 -24.717  -6.548  1.00  0.00     0.004 C 
ENDBRANCH  15  16
ENDBRANCH  14  15
ENDBRANCH  13  14
ENDBRANCH  12  13
ENDBRANCH  11  12
ENDBRANCH  10  11
ENDBRANCH   1  10
TORSDOF 13
ENDMDL
MODEL 5
REMARK VINA RESULT:    -4.776      2.588      3.484
REMARK INTER + INTRA:          -9.556
REMARK INTER:                  -8.021
REMARK INTRA:                  -1.535
REMARK UNBOUND:                -1.151
REMARK SMILES CCCCCCCCCCCCCCC(=O)[O-]
REMARK SMILES IDX 9 1 10 2 11 3 12 4 13 5 14 6 15 7 16 8 17 9 8 10 7 11 6 12
REMARK SMILES IDX 5 13 4 14 3 15 2 16 1 17
REMARK H PARENT
REMARK Flexibility Score: inf
ROOT
ATOM      1  C   UNL     1      61.861 -25.863  -2.709  1.00  0.00     0.000 C 
ENDROOT
BRANCH   1   2
ATOM      2  C   UNL     1      61.149 -25.708  -4.058  1.00  0.00     0.000 C 
BRANCH   2   3
ATOM      3  C   UNL     1      59.674 -26.112  -3.951  1.00  0.00     0.000 C 
BRANCH   3   4
ATOM      4  C   UNL     1      59.158 -25.938  -2.517  1.00  0.00     0.000 C 
BRANCH   4   5
ATOM      5  C   UNL     1      57.754 -26.532  -2.361  1.00  0.00     0.006 C 
BRANCH   5   6
ATOM      6  C   UNL     1      57.426 -26.789  -0.888  1.00  0.00     0.053 C 
BRANCH   6   7
ATOM      7  C   UNL     1      56.605 -28.032  -0.742  1.00  0.00     0.041 C 
ATOM      8  O   UNL     1      56.009 -28.274   0.340  1.00  0.00    -0.550 OA
ATOM      9  O   UNL     1      56.540 -28.948  -1.784  1.00  0.00    -0.550 OA
ENDBRANCH   6   7
ENDBRANCH   5   6
ENDBRANCH   4   5
ENDBRANCH   3   4
ENDBRANCH   2   3
ENDBRANCH   1   2
BRANCH   1  10
ATOM     10  C   UNL     1      63.249 -26.496  -2.889  1.00  0.00     0.000 C 
BRANCH  10  11
ATOM     11  C   UNL     1      63.687 -27.338  -1.676  1.00  0.00    -0.000 C 
BRANCH  11  12
ATOM     12  C   UNL     1      63.114 -28.767  -1.638  1.00  0.00    -0.000 C 
BRANCH  12  13
ATOM     13  C   UNL     1      62.124 -28.983  -0.481  1.00  0.00    -0.000 C 
BRANCH  13  14
ATOM     14  C   UNL     1      60.659 -28.868  -0.930  1.00  0.00    -0.000 C 
BRANCH  14  15
ATOM     15  C   UNL     1      59.701 -29.654  -0.018  1.00  0.00    -0.000 C 
BRANCH  15  16
ATOM     16  C   UNL     1      60.038 -29.487   1.472  1.00  0.00    -0.003 C 
ATOM     17  C   UNL     1      58.944 -28.752   2.246  1.00  0.00     0.004 C 
ENDBRANCH  15  16
ENDBRANCH  14  15
ENDBRANCH  13  14
ENDBRANCH  12  13
ENDBRANCH  11  12
ENDBRANCH  10  11
ENDBRANCH   1  10
TORSDOF 13
ENDMDL
MODEL 6
REMARK VINA RESULT:    -4.771      2.204      3.172
REMARK INTER + INTRA:          -9.548
REMARK INTER:                  -8.121
REMARK INTRA:                  -1.427
REMARK UNBOUND:                -1.151
REMARK SMILES CCCCCCCCCCCCCCC(=O)[O-]
REMARK SMILES IDX 9 1 10 2 11 3 12 4 13 5 14 6 15 7 16 8 17 9 8 10 7 11 6 12
REMARK SMILES IDX 5 13 4 14 3 15 2 16 1 17
REMARK H PARENT
REMARK Flexibility Score: inf
ROOT
ATOM      1  C   UNL     1      63.670 -26.951  -1.982  1.00  0.00     0.000 C 
ENDROOT
BRANCH   1   2
ATOM      2  C   UNL     1      62.951 -25.882  -2.814  1.00  0.00     0.000 C 
BRANCH   2   3
ATOM      3  C   UNL     1      61.521 -26.318  -3.152  1.00  0.00     0.000 C 
BRANCH   3   4
ATOM      4  C   UNL     1      60.592 -25.104  -3.285  1.00  0.00     0.000 C 
BRANCH   4   5
ATOM      5  C   UNL     1      59.958 -25.048  -4.679  1.00  0.00     0.006 C 
BRANCH   5   6
ATOM      6  C   UNL     1      61.019 -25.199  -5.773  1.00  0.00     0.053 C 
BRANCH   6   7
ATOM      7  C   UNL     1      60.375 -25.280  -7.121  1.00  0.00     0.041 C 
ATOM      8  O   UNL     1      61.021 -25.725  -8.106  1.00  0.00    -0.550 OA
ATOM      9  O   UNL     1      59.078 -24.817  -7.301  1.00  0.00    -0.550 OA
ENDBRANCH   6   7
ENDBRANCH   5   6
ENDBRANCH   4   5
ENDBRANCH   3   4
ENDBRANCH   2   3
ENDBRANCH   1   2
BRANCH   1  10
ATOM     10  C   UNL     1      62.882 -28.270  -1.982  1.00  0.00     0.000 C 
BRANCH  10  11
ATOM     11  C   UNL     1      62.726 -28.876  -0.575  1.00  0.00    -0.000 C 
BRANCH  11  12
ATOM     12  C   UNL     1      61.271 -29.059  -0.106  1.00  0.00    -0.000 C 
BRANCH  12  13
ATOM     13  C   UNL     1      60.251 -28.897  -1.245  1.00  0.00    -0.000 C 
BRANCH  13  14
ATOM     14  C   UNL     1      58.891 -28.380  -0.749  1.00  0.00    -0.000 C 
BRANCH  14  15
ATOM     15  C   UNL     1      58.123 -27.610  -1.836  1.00  0.00    -0.000 C 
BRANCH  15  16
ATOM     16  C   UNL     1      57.609 -26.248  -1.342  1.00  0.00    -0.003 C 
ATOM     17  C   UNL     1      56.981 -25.414  -2.458  1.00  0.00     0.004 C 
ENDBRANCH  15  16
ENDBRANCH  14  15
ENDBRANCH  13  14
ENDBRANCH  12  13
ENDBRANCH  11  12
ENDBRANCH  10  11
ENDBRANCH   1  10
TORSDOF 13
ENDMDL
MODEL 7
REMARK VINA RESULT:    -4.761      3.496      6.296
REMARK INTER + INTRA:          -9.530
REMARK INTER:                  -8.005
REMARK INTRA:                  -1.525
REMARK UNBOUND:                -1.151
REMARK SMILES CCCCCCCCCCCCCCC(=O)[O-]
REMARK SMILES IDX 9 1 10 2 11 3 12 4 13 5 14 6 15 7 16 8 17 9 8 10 7 11 6 12
REMARK SMILES IDX 5 13 4 14 3 15 2 16 1 17
REMARK H PARENT
REMARK Flexibility Score: inf
ROOT
ATOM      1  C   UNL     1      62.648 -27.758  -2.332  1.00  0.00     0.000 C 
ENDROOT
BRANCH   1   2
ATOM      2  C   UNL     1      63.308 -28.479  -1.151  1.00  0.00     0.000 C 
BRANCH   2   3
ATOM      3  C   UNL     1      62.256 -29.134  -0.248  1.00  0.00     0.000 C 
BRANCH   3   4
ATOM      4  C   UNL     1      60.855 -29.017  -0.860  1.00  0.00     0.000 C 
BRANCH   4   5
ATOM      5  C   UNL     1      59.771 -29.168   0.212  1.00  0.00     0.006 C 
BRANCH   5   6
ATOM      6  C   UNL     1      60.393 -29.366   1.598  1.00  0.00     0.053 C 
BRANCH   6   7
ATOM      7  C   UNL     1      59.358 -29.198   2.666  1.00  0.00     0.041 C 
ATOM      8  O   UNL     1      58.205 -28.786   2.372  1.00  0.00    -0.550 OA
ATOM      9  O   UNL     1      59.682 -29.450   3.993  1.00  0.00    -0.550 OA
ENDBRANCH   6   7
ENDBRANCH   5   6
ENDBRANCH   4   5
ENDBRANCH   3   4
ENDBRANCH   2   3
ENDBRANCH   1   2
BRANCH   1  10
ATOM     10  C   UNL     1      63.328 -26.407  -2.602  1.00  0.00     0.000 C 
BRANCH  10  11
ATOM     11  C   UNL     1      62.497 -25.489  -3.518  1.00  0.00    -0.000 C 
BRANCH  11  12
ATOM     12  C   UNL     1      60.981 -25.499  -3.243  1.00  0.00    -0.000 C 
BRANCH  12  13
ATOM     13  C   UNL     1      60.141 -25.541  -4.530  1.00  0.00    -0.000 C 
BRANCH  13  14
ATOM     14  C   UNL     1      58.764 -26.188  -4.314  1.00  0.00    -0.000 C 
BRANCH  14  15
ATOM     15  C   UNL     1      58.842 -27.460  -3.451  1.00  0.00    -0.000 C 
BRANCH  15  16
ATOM     16  C   UNL     1      57.681 -27.563  -2.449  1.00  0.00    -0.003 C 
ATOM     17  C   UNL     1      57.735 -26.482  -1.370  1.00  0.00     0.004 C 
ENDBRANCH  15  16
ENDBRANCH  14  15
ENDBRANCH  13  14
ENDBRANCH  12  13
ENDBRANCH  11  12
ENDBRANCH  10  11
ENDBRANCH   1  10
TORSDOF 13
ENDMDL
MODEL 8
REMARK VINA RESULT:    -4.711      2.108      3.704
REMARK INTER + INTRA:          -9.441
REMARK INTER:                  -7.972
REMARK INTRA:                  -1.469
REMARK UNBOUND:                -1.151
REMARK SMILES CCCCCCCCCCCCCCC(=O)[O-]
REMARK SMILES IDX 9 1 10 2 11 3 12 4 13 5 14 6 15 7 16 8 17 9 8 10 7 11 6 12
REMARK SMILES IDX 5 13 4 14 3 15 2 16 1 17
REMARK H PARENT
REMARK Flexibility Score: inf
ROOT
ATOM      1  C   UNL     1      62.975 -28.844  -0.684  1.00  0.00     0.000 C 
ENDROOT
BRANCH   1   2
ATOM      2  C   UNL     1      63.237 -27.885  -1.851  1.00  0.00     0.000 C 
BRANCH   2   3
ATOM      3  C   UNL     1      61.927 -27.283  -2.373  1.00  0.00     0.000 C 
BRANCH   3   4
ATOM      4  C   UNL     1      62.147 -25.860  -2.902  1.00  0.00     0.000 C 
BRANCH   4   5
ATOM      5  C   UNL     1      60.812 -25.179  -3.218  1.00  0.00     0.006 C 
BRANCH   5   6
ATOM      6  C   UNL     1      60.122 -25.848  -4.410  1.00  0.00     0.053 C 
BRANCH   6   7
ATOM      7  C   UNL     1      60.232 -24.989  -5.631  1.00  0.00     0.041 C 
ATOM      8  O   UNL     1      60.670 -25.472  -6.708  1.00  0.00    -0.550 OA
ATOM      9  O   UNL     1      59.900 -23.642  -5.565  1.00  0.00    -0.550 OA
ENDBRANCH   6   7
ENDBRANCH   5   6
ENDBRANCH   4   5
ENDBRANCH   3   4
ENDBRANCH   2   3
ENDBRANCH   1   2
BRANCH   1  10
ATOM     10  C   UNL     1      61.484 -29.200  -0.588  1.00  0.00     0.000 C 
BRANCH  10  11
ATOM     11  C   UNL     1      60.950 -29.164   0.856  1.00  0.00    -0.000 C 
BRANCH  11  12
ATOM     12  C   UNL     1      59.415 -29.213   0.981  1.00  0.00    -0.000 C 
BRANCH  12  13
ATOM     13  C   UNL     1      58.738 -29.871  -0.233  1.00  0.00    -0.000 C 
BRANCH  13  14
ATOM     14  C   UNL     1      57.649 -28.982  -0.853  1.00  0.00    -0.000 C 
BRANCH  14  15
ATOM     15  C   UNL     1      58.216 -27.988  -1.881  1.00  0.00    -0.000 C 
BRANCH  15  16
ATOM     16  C   UNL     1      57.241 -26.842  -2.192  1.00  0.00    -0.003 C 
ATOM     17  C   UNL     1      57.579 -25.558  -1.435  1.00  0.00     0.004 C 
ENDBRANCH  15  16
ENDBRANCH  14  15
ENDBRANCH  13  14
ENDBRANCH  12  13
ENDBRANCH  11  12
ENDBRANCH  10  11
ENDBRANCH   1  10
TORSDOF 13
ENDMDL
MODEL 9
REMARK VINA RESULT:    -4.708      1.871      5.694
REMARK INTER + INTRA:          -9.437
REMARK INTER:                  -8.112
REMARK INTRA:                  -1.325
REMARK UNBOUND:                -1.151
REMARK SMILES CCCCCCCCCCCCCCC(=O)[O-]
REMARK SMILES IDX 9 1 10 2 11 3 12 4 13 5 14 6 15 7 16 8 17 9 8 10 7 11 6 12
REMARK SMILES IDX 5 13 4 14 3 15 2 16 1 17
REMARK H PARENT
REMARK Flexibility Score: inf
ROOT
ATOM      1  C   UNL     1      62.840 -28.340  -2.000  1.00  0.00     0.000 C 
ENDROOT
BRANCH   1   2
ATOM      2  C   UNL     1      62.771 -28.926  -0.585  1.00  0.00     0.000 C 
BRANCH   2   3
ATOM      3  C   UNL     1      61.320 -29.015  -0.097  1.00  0.00     0.000 C 
BRANCH   3   4
ATOM      4  C   UNL     1      60.337 -28.919  -1.270  1.00  0.00     0.000 C 
BRANCH   4   5
ATOM      5  C   UNL     1      59.019 -28.273  -0.832  1.00  0.00     0.006 C 
BRANCH   5   6
ATOM      6  C   UNL     1      58.037 -28.178  -2.004  1.00  0.00     0.053 C 
BRANCH   6   7
ATOM      7  C   UNL     1      57.671 -26.751  -2.268  1.00  0.00     0.041 C 
ATOM      8  O   UNL     1      57.203 -26.414  -3.387  1.00  0.00    -0.550 OA
ATOM      9  O   UNL     1      57.894 -25.785  -1.296  1.00  0.00    -0.550 OA
ENDBRANCH   6   7
ENDBRANCH   5   6
ENDBRANCH   4   5
ENDBRANCH   3   4
ENDBRANCH   2   3
ENDBRANCH   1   2
BRANCH   1  10
ATOM     10  C   UNL     1      63.622 -27.018  -2.011  1.00  0.00     0.000 C 
BRANCH  10  11
ATOM     11  C   UNL     1      62.879 -25.886  -2.745  1.00  0.00    -0.000 C 
BRANCH  11  12
ATOM     12  C   UNL     1      61.399 -26.179  -3.057  1.00  0.00    -0.000 C 
BRANCH  12  13
ATOM     13  C   UNL     1      60.627 -24.930  -3.516  1.00  0.00    -0.000 C 
BRANCH  13  14
ATOM     14  C   UNL     1      60.049 -25.083  -4.932  1.00  0.00    -0.000 C 
BRANCH  14  15
ATOM     15  C   UNL     1      61.138 -25.045  -6.018  1.00  0.00    -0.000 C 
BRANCH  15  16
ATOM     16  C   UNL     1      60.572 -25.284  -7.427  1.00  0.00    -0.003 C 
ATOM     17  C   UNL     1      59.077 -24.982  -7.521  1.00  0.00     0.004 C 
ENDBRANCH  15  16
ENDBRANCH  14  15
ENDBRANCH  13  14
ENDBRANCH  12  13
ENDBRANCH  11  12
ENDBRANCH  10  11
ENDBRANCH   1  10
TORSDOF 13
ENDMDL
