MODEL 1
REMARK VINA RESULT:    -4.584      0.000      0.000
REMARK INTER + INTRA:         -10.012
REMARK INTER:                  -8.068
REMARK INTRA:                  -1.944
REMARK UNBOUND:                -1.944
REMARK SMILES CCCCCCCCCCCCCCC(=O)[O-]
REMARK SMILES IDX 9 1 10 2 11 3 12 4 13 5 14 6 15 7 16 8 17 9 8 10 7 11 6 12
REMARK SMILES IDX 5 13 4 14 3 15 2 16 1 17
REMARK H PARENT
REMARK Flexibility Score: inf
ROOT
ATOM      1  C   UNL     1      14.611 -33.197  21.288  1.00  0.00     0.000 C 
ENDROOT
BRANCH   1   2
ATOM      2  C   UNL     1      15.183 -33.843  22.561  1.00  0.00     0.000 C 
BRANCH   2   3
ATOM      3  C   UNL     1      14.954 -32.983  23.816  1.00  0.00     0.000 C 
BRANCH   3   4
ATOM      4  C   UNL     1      13.733 -32.057  23.683  1.00  0.00     0.000 C 
BRANCH   4   5
ATOM      5  C   UNL     1      14.105 -30.567  23.772  1.00  0.00     0.006 C 
BRANCH   5   6
ATOM      6  C   UNL     1      13.541 -29.759  22.596  1.00  0.00     0.053 C 
BRANCH   6   7
ATOM      7  C   UNL     1      12.055 -29.597  22.694  1.00  0.00     0.041 C 
ATOM      8  O   UNL     1      11.296 -30.227  21.911  1.00  0.00    -0.550 OA
ATOM      9  O   UNL     1      11.511 -28.729  23.631  1.00  0.00    -0.550 OA
ENDBRANCH   6   7
ENDBRANCH   5   6
ENDBRANCH   4   5
ENDBRANCH   3   4
ENDBRANCH   2   3
ENDBRANCH   1   2
BRANCH   1  10
ATOM     10  C   UNL     1      14.875 -34.040  20.028  1.00  0.00     0.000 C 
BRANCH  10  11
ATOM     11  C   UNL     1      15.682 -35.314  20.327  1.00  0.00    -0.000 C 
BRANCH  11  12
ATOM     12  C   UNL     1      16.927 -35.447  19.433  1.00  0.00    -0.000 C 
BRANCH  12  13
ATOM     13  C   UNL     1      17.657 -34.109  19.235  1.00  0.00    -0.000 C 
BRANCH  13  14
ATOM     14  C   UNL     1      18.518 -33.714  20.448  1.00  0.00    -0.000 C 
BRANCH  14  15
ATOM     15  C   UNL     1      18.647 -32.183  20.596  1.00  0.00    -0.000 C 
BRANCH  15  16
ATOM     16  C   UNL     1      17.913 -31.620  21.825  1.00  0.00    -0.003 C 
ATOM     17  C   UNL     1      17.106 -30.361  21.515  1.00  0.00     0.004 C 
ENDBRANCH  15  16
ENDBRANCH  14  15
ENDBRANCH  13  14
ENDBRANCH  12  13
ENDBRANCH  11  12
ENDBRANCH  10  11
ENDBRANCH   1  10
TORSDOF 13
ENDMDL
MODEL 2
REMARK VINA RESULT:    -4.568      3.518      6.302
REMARK INTER + INTRA:          -9.984
REMARK INTER:                  -8.139
REMARK INTRA:                  -1.845
REMARK UNBOUND:                -1.944
REMARK SMILES CCCCCCCCCCCCCCC(=O)[O-]
REMARK SMILES IDX 9 1 10 2 11 3 12 4 13 5 14 6 15 7 16 8 17 9 8 10 7 11 6 12
REMARK SMILES IDX 5 13 4 14 3 15 2 16 1 17
REMARK H PARENT
REMARK Flexibility Score: inf
ROOT
ATOM      1  C   UNL     1      16.675 -30.965  23.334  1.00  0.00     0.000 C 
ENDROOT
BRANCH   1   2
ATOM      2  C   UNL     1      16.229 -32.329  23.886  1.00  0.00     0.000 C 
BRANCH   2   3
ATOM      3  C   UNL     1      16.434 -33.472  22.876  1.00  0.00     0.000 C 
BRANCH   3   4
ATOM      4  C   UNL     1      15.109 -33.992  22.295  1.00  0.00     0.000 C 
BRANCH   4   5
ATOM      5  C   UNL     1      15.244 -34.459  20.835  1.00  0.00     0.006 C 
BRANCH   5   6
ATOM      6  C   UNL     1      16.425 -33.790  20.121  1.00  0.00     0.053 C 
BRANCH   6   7
ATOM      7  C   UNL     1      17.216 -34.774  19.313  1.00  0.00     0.041 C 
ATOM      8  O   UNL     1      18.223 -34.394  18.660  1.00  0.00    -0.550 OA
ATOM      9  O   UNL     1      16.822 -36.105  19.259  1.00  0.00    -0.550 OA
ENDBRANCH   6   7
ENDBRANCH   5   6
ENDBRANCH   4   5
ENDBRANCH   3   4
ENDBRANCH   2   3
ENDBRANCH   1   2
BRANCH   1  10
ATOM     10  C   UNL     1      15.495 -30.000  23.120  1.00  0.00     0.000 C 
BRANCH  10  11
ATOM     11  C   UNL     1      15.150 -29.810  21.633  1.00  0.00    -0.000 C 
BRANCH  11  12
ATOM     12  C   UNL     1      13.967 -30.685  21.186  1.00  0.00    -0.000 C 
BRANCH  12  13
ATOM     13  C   UNL     1      12.938 -30.904  22.307  1.00  0.00    -0.000 C 
BRANCH  13  14
ATOM     14  C   UNL     1      11.567 -30.279  21.988  1.00  0.00    -0.000 C 
BRANCH  14  15
ATOM     15  C   UNL     1      11.339 -28.957  22.750  1.00  0.00    -0.000 C 
BRANCH  15  16
ATOM     16  C   UNL     1      12.160 -28.845  24.046  1.00  0.00    -0.003 C 
ATOM     17  C   UNL     1      12.700 -27.437  24.293  1.00  0.00     0.004 C 
ENDBRANCH  15  16
ENDBRANCH  14  15
ENDBRANCH  13  14
ENDBRANCH  12  13
ENDBRANCH  11  12
ENDBRANCH  10  11
ENDBRANCH   1  10
TORSDOF 13
ENDMDL
MODEL 3
REMARK VINA RESULT:    -4.415      1.359      2.823
REMARK INTER + INTRA:          -9.714
REMARK INTER:                  -7.298
REMARK INTRA:                  -2.417
REMARK UNBOUND:                -1.944
REMARK SMILES CCCCCCCCCCCCCCC(=O)[O-]
REMARK SMILES IDX 9 1 10 2 11 3 12 4 13 5 14 6 15 7 16 8 17 9 8 10 7 11 6 12
REMARK SMILES IDX 5 13 4 14 3 15 2 16 1 17
REMARK H PARENT
REMARK Flexibility Score: inf
ROOT
ATOM      1  C   UNL     1      16.259 -34.459  20.939  1.00  0.00     0.000 C 
ENDROOT
BRANCH   1   2
ATOM      2  C   UNL     1      15.117 -33.780  21.714  1.00  0.00     0.000 C 
BRANCH   2   3
ATOM      3  C   UNL     1      14.222 -32.914  20.812  1.00  0.00     0.000 C 
BRANCH   3   4
ATOM      4  C   UNL     1      14.083 -31.471  21.326  1.00  0.00     0.000 C 
BRANCH   4   5
ATOM      5  C   UNL     1      13.566 -31.405  22.774  1.00  0.00     0.006 C 
BRANCH   5   6
ATOM      6  C   UNL     1      13.829 -30.039  23.421  1.00  0.00     0.053 C 
BRANCH   6   7
ATOM      7  C   UNL     1      12.570 -29.238  23.561  1.00  0.00     0.041 C 
ATOM      8  O   UNL     1      12.408 -28.480  24.553  1.00  0.00    -0.550 OA
ATOM      9  O   UNL     1      11.564 -29.354  22.610  1.00  0.00    -0.550 OA
ENDBRANCH   6   7
ENDBRANCH   5   6
ENDBRANCH   4   5
ENDBRANCH   3   4
ENDBRANCH   2   3
ENDBRANCH   1   2
BRANCH   1  10
ATOM     10  C   UNL     1      17.107 -33.456  20.137  1.00  0.00     0.000 C 
BRANCH  10  11
ATOM     11  C   UNL     1      18.540 -33.327  20.681  1.00  0.00    -0.000 C 
BRANCH  11  12
ATOM     12  C   UNL     1      18.956 -31.864  20.906  1.00  0.00    -0.000 C 
BRANCH  12  13
ATOM     13  C   UNL     1      17.773 -30.889  20.789  1.00  0.00    -0.000 C 
BRANCH  13  14
ATOM     14  C   UNL     1      17.425 -30.210  22.126  1.00  0.00    -0.000 C 
BRANCH  14  15
ATOM     15  C   UNL     1      18.054 -30.942  23.330  1.00  0.00    -0.000 C 
BRANCH  15  16
ATOM     16  C   UNL     1      17.044 -31.765  24.147  1.00  0.00    -0.003 C 
ATOM     17  C   UNL     1      17.529 -33.182  24.446  1.00  0.00     0.004 C 
ENDBRANCH  15  16
ENDBRANCH  14  15
ENDBRANCH  13  14
ENDBRANCH  12  13
ENDBRANCH  11  12
ENDBRANCH  10  11
ENDBRANCH   1  10
TORSDOF 13
ENDMDL
MODEL 4
REMARK VINA RESULT:    -4.411      0.928      2.904
REMARK INTER + INTRA:          -9.708
REMARK INTER:                  -7.747
REMARK INTRA:                  -1.960
REMARK UNBOUND:                -1.944
REMARK SMILES CCCCCCCCCCCCCCC(=O)[O-]
REMARK SMILES IDX 9 1 10 2 11 3 12 4 13 5 14 6 15 7 16 8 17 9 8 10 7 11 6 12
REMARK SMILES IDX 5 13 4 14 3 15 2 16 1 17
REMARK H PARENT
REMARK Flexibility Score: inf
ROOT
ATOM      1  C   UNL     1      17.656 -31.009  23.010  1.00  0.00     0.000 C 
ENDROOT
BRANCH   1   2
ATOM      2  C   UNL     1      16.810 -31.696  24.095  1.00  0.00     0.000 C 
BRANCH   2   3
ATOM      3  C   UNL     1      15.909 -32.806  23.528  1.00  0.00     0.000 C 
BRANCH   3   4
ATOM      4  C   UNL     1      14.445 -32.670  23.981  1.00  0.00     0.000 C 
BRANCH   4   5
ATOM      5  C   UNL     1      13.659 -31.644  23.147  1.00  0.00     0.006 C 
BRANCH   5   6
ATOM      6  C   UNL     1      13.403 -30.344  23.920  1.00  0.00     0.053 C 
BRANCH   6   7
ATOM      7  C   UNL     1      12.482 -29.425  23.175  1.00  0.00     0.041 C 
ATOM      8  O   UNL     1      11.641 -29.893  22.364  1.00  0.00    -0.550 OA
ATOM      9  O   UNL     1      12.576 -28.051  23.356  1.00  0.00    -0.550 OA
ENDBRANCH   6   7
ENDBRANCH   5   6
ENDBRANCH   4   5
ENDBRANCH   3   4
ENDBRANCH   2   3
ENDBRANCH   1   2
BRANCH   1  10
ATOM     10  C   UNL     1      16.945 -30.963  21.647  1.00  0.00     0.000 C 
BRANCH  10  11
ATOM     11  C   UNL     1      17.817 -31.513  20.506  1.00  0.00    -0.000 C 
BRANCH  11  12
ATOM     12  C   UNL     1      18.836 -32.556  20.995  1.00  0.00    -0.000 C 
BRANCH  12  13
ATOM     13  C   UNL     1      18.381 -34.000  20.723  1.00  0.00    -0.000 C 
BRANCH  13  14
ATOM     14  C   UNL     1      17.625 -34.145  19.389  1.00  0.00    -0.000 C 
BRANCH  14  15
ATOM     15  C   UNL     1      16.552 -35.252  19.447  1.00  0.00    -0.000 C 
BRANCH  15  16
ATOM     16  C   UNL     1      15.431 -34.971  20.462  1.00  0.00    -0.003 C 
ATOM     17  C   UNL     1      14.635 -33.708  20.139  1.00  0.00     0.004 C 
ENDBRANCH  15  16
ENDBRANCH  14  15
ENDBRANCH  13  14
ENDBRANCH  12  13
ENDBRANCH  11  12
ENDBRANCH  10  11
ENDBRANCH   1  10
TORSDOF 13
ENDMDL
MODEL 5
REMARK VINA RESULT:    -4.378      2.199      4.848
REMARK INTER + INTRA:          -9.649
REMARK INTER:                  -8.015
REMARK INTRA:                  -1.634
REMARK UNBOUND:                -1.944
REMARK SMILES CCCCCCCCCCCCCCC(=O)[O-]
REMARK SMILES IDX 9 1 10 2 11 3 12 4 13 5 14 6 15 7 16 8 17 9 8 10 7 11 6 12
REMARK SMILES IDX 5 13 4 14 3 15 2 16 1 17
REMARK H PARENT
REMARK Flexibility Score: inf
ROOT
ATOM      1  C   UNL     1      15.997 -34.387  22.251  1.00  0.00     0.000 C 
ENDROOT
BRANCH   1   2
ATOM      2  C   UNL     1      17.511 -34.659  22.256  1.00  0.00     0.000 C 
BRANCH   2   3
ATOM      3  C   UNL     1      18.345 -33.366  22.251  1.00  0.00     0.000 C 
BRANCH   3   4
ATOM      4  C   UNL     1      18.556 -32.804  20.836  1.00  0.00     0.000 C 
BRANCH   4   5
ATOM      5  C   UNL     1      17.706 -31.551  20.562  1.00  0.00     0.006 C 
BRANCH   5   6
ATOM      6  C   UNL     1      18.103 -30.375  21.463  1.00  0.00     0.053 C 
BRANCH   6   7
ATOM      7  C   UNL     1      16.944 -29.884  22.278  1.00  0.00     0.041 C 
ATOM      8  O   UNL     1      16.788 -30.283  23.462  1.00  0.00    -0.550 OA
ATOM      9  O   UNL     1      16.023 -29.008  21.718  1.00  0.00    -0.550 OA
ENDBRANCH   6   7
ENDBRANCH   5   6
ENDBRANCH   4   5
ENDBRANCH   3   4
ENDBRANCH   2   3
ENDBRANCH   1   2
BRANCH   1  10
ATOM     10  C   UNL     1      15.350 -34.674  20.884  1.00  0.00     0.000 C 
BRANCH  10  11
ATOM     11  C   UNL     1      14.483 -33.507  20.385  1.00  0.00    -0.000 C 
BRANCH  11  12
ATOM     12  C   UNL     1      14.296 -32.413  21.449  1.00  0.00    -0.000 C 
BRANCH  12  13
ATOM     13  C   UNL     1      13.314 -31.317  21.003  1.00  0.00    -0.000 C 
BRANCH  13  14
ATOM     14  C   UNL     1      12.421 -30.813  22.151  1.00  0.00    -0.000 C 
BRANCH  14  15
ATOM     15  C   UNL     1      13.214 -30.612  23.459  1.00  0.00    -0.000 C 
BRANCH  15  16
ATOM     16  C   UNL     1      12.982 -29.239  24.115  1.00  0.00    -0.003 C 
ATOM     17  C   UNL     1      11.809 -28.475  23.505  1.00  0.00     0.004 C 
ENDBRANCH  15  16
ENDBRANCH  14  15
ENDBRANCH  13  14
ENDBRANCH  12  13
ENDBRANCH  11  12
ENDBRANCH  10  11
ENDBRANCH   1  10
TORSDOF 13
ENDMDL
MODEL 6
REMARK VINA RESULT:    -4.374      1.266      2.014
REMARK INTER + INTRA:          -9.643
REMARK INTER:                  -7.579
REMARK INTRA:                  -2.064
REMARK UNBOUND:                -1.944
REMARK SMILES CCCCCCCCCCCCCCC(=O)[O-]
REMARK SMILES IDX 9 1 10 2 11 3 12 4 13 5 14 6 15 7 16 8 17 9 8 10 7 11 6 12
REMARK SMILES IDX 5 13 4 14 3 15 2 16 1 17
REMARK H PARENT
REMARK Flexibility Score: inf
ROOT
ATOM      1  C   UNL     1      15.101 -34.024  19.818  1.00  0.00     0.000 C 
ENDROOT
BRANCH   1   2
ATOM      2  C   UNL     1      14.644 -33.231  21.054  1.00  0.00     0.000 C 
BRANCH   2   3
ATOM      3  C   UNL     1      15.085 -33.888  22.374  1.00  0.00     0.000 C 
BRANCH   3   4
ATOM      4  C   UNL     1      14.667 -33.071  23.608  1.00  0.00     0.000 C 
BRANCH   4   5
ATOM      5  C   UNL     1      14.797 -31.554  23.389  1.00  0.00     0.006 C 
BRANCH   5   6
ATOM      6  C   UNL     1      13.576 -30.787  23.913  1.00  0.00     0.053 C 
BRANCH   6   7
ATOM      7  C   UNL     1      12.864 -30.057  22.815  1.00  0.00     0.041 C 
ATOM      8  O   UNL     1      12.842 -28.798  22.801  1.00  0.00    -0.550 OA
ATOM      9  O   UNL     1      12.202 -30.769  21.822  1.00  0.00    -0.550 OA
ENDBRANCH   6   7
ENDBRANCH   5   6
ENDBRANCH   4   5
ENDBRANCH   3   4
ENDBRANCH   2   3
ENDBRANCH   1   2
BRANCH   1  10
ATOM     10  C   UNL     1      15.461 -35.483  20.151  1.00  0.00     0.000 C 
BRANCH  10  11
ATOM     11  C   UNL     1      16.756 -35.944  19.462  1.00  0.00    -0.000 C 
BRANCH  11  12
ATOM     12  C   UNL     1      17.630 -36.819  20.375  1.00  0.00    -0.000 C 
BRANCH  12  13
ATOM     13  C   UNL     1      17.904 -36.161  21.738  1.00  0.00    -0.000 C 
BRANCH  13  14
ATOM     14  C   UNL     1      19.038 -35.122  21.681  1.00  0.00    -0.000 C 
BRANCH  14  15
ATOM     15  C   UNL     1      18.811 -33.959  22.669  1.00  0.00    -0.000 C 
BRANCH  15  16
ATOM     16  C   UNL     1      18.430 -32.635  21.984  1.00  0.00    -0.003 C 
ATOM     17  C   UNL     1      18.510 -32.705  20.460  1.00  0.00     0.004 C 
ENDBRANCH  15  16
ENDBRANCH  14  15
ENDBRANCH  13  14
ENDBRANCH  12  13
ENDBRANCH  11  12
ENDBRANCH  10  11
ENDBRANCH   1  10
TORSDOF 13
ENDMDL
MODEL 7
REMARK VINA RESULT:    -4.348      3.218      5.924
REMARK INTER + INTRA:          -9.596
REMARK INTER:                  -7.031
REMARK INTRA:                  -2.565
REMARK UNBOUND:                -1.944
REMARK SMILES CCCCCCCCCCCCCCC(=O)[O-]
REMARK SMILES IDX 9 1 10 2 11 3 12 4 13 5 14 6 15 7 16 8 17 9 8 10 7 11 6 12
REMARK SMILES IDX 5 13 4 14 3 15 2 16 1 17
REMARK H PARENT
REMARK Flexibility Score: inf
ROOT
ATOM      1  C   UNL     1      18.221 -31.433  23.342  1.00  0.00     0.000 C 
ENDROOT
BRANCH   1   2
ATOM      2  C   UNL     1      17.573 -30.561  22.253  1.00  0.00     0.000 C 
BRANCH   2   3
ATOM      3  C   UNL     1      17.551 -31.251  20.878  1.00  0.00     0.000 C 
BRANCH   3   4
ATOM      4  C   UNL     1      18.415 -32.523  20.841  1.00  0.00     0.000 C 
BRANCH   4   5
ATOM      5  C   UNL     1      17.818 -33.620  19.943  1.00  0.00     0.006 C 
BRANCH   5   6
ATOM      6  C   UNL     1      18.393 -35.006  20.262  1.00  0.00     0.053 C 
BRANCH   6   7
ATOM      7  C   UNL     1      17.331 -36.064  20.254  1.00  0.00     0.041 C 
ATOM      8  O   UNL     1      17.591 -37.226  20.662  1.00  0.00    -0.550 OA
ATOM      9  O   UNL     1      16.063 -35.772  19.767  1.00  0.00    -0.550 OA
ENDBRANCH   6   7
ENDBRANCH   5   6
ENDBRANCH   4   5
ENDBRANCH   3   4
ENDBRANCH   2   3
ENDBRANCH   1   2
BRANCH   1  10
ATOM     10  C   UNL     1      17.184 -32.068  24.286  1.00  0.00     0.000 C 
BRANCH  10  11
ATOM     11  C   UNL     1      17.332 -33.596  24.382  1.00  0.00    -0.000 C 
BRANCH  11  12
ATOM     12  C   UNL     1      16.431 -34.339  23.381  1.00  0.00    -0.000 C 
BRANCH  12  13
ATOM     13  C   UNL     1      15.020 -33.735  23.295  1.00  0.00    -0.000 C 
BRANCH  13  14
ATOM     14  C   UNL     1      14.664 -33.252  21.878  1.00  0.00    -0.000 C 
BRANCH  14  15
ATOM     15  C   UNL     1      13.977 -31.870  21.890  1.00  0.00    -0.000 C 
BRANCH  15  16
ATOM     16  C   UNL     1      13.610 -31.378  23.301  1.00  0.00    -0.003 C 
ATOM     17  C   UNL     1      13.976 -29.914  23.538  1.00  0.00     0.004 C 
ENDBRANCH  15  16
ENDBRANCH  14  15
ENDBRANCH  13  14
ENDBRANCH  12  13
ENDBRANCH  11  12
ENDBRANCH  10  11
ENDBRANCH   1  10
TORSDOF 13
ENDMDL
MODEL 8
REMARK VINA RESULT:    -4.333      1.434      2.446
REMARK INTER + INTRA:          -9.570
REMARK INTER:                  -7.367
REMARK INTRA:                  -2.203
REMARK UNBOUND:                -1.944
REMARK SMILES CCCCCCCCCCCCCCC(=O)[O-]
REMARK SMILES IDX 9 1 10 2 11 3 12 4 13 5 14 6 15 7 16 8 17 9 8 10 7 11 6 12
REMARK SMILES IDX 5 13 4 14 3 15 2 16 1 17
REMARK H PARENT
REMARK Flexibility Score: inf
ROOT
ATOM      1  C   UNL     1      15.104 -34.754  20.581  1.00  0.00     0.000 C 
ENDROOT
BRANCH   1   2
ATOM      2  C   UNL     1      14.456 -33.579  19.828  1.00  0.00     0.000 C 
BRANCH   2   3
ATOM      3  C   UNL     1      13.890 -32.509  20.777  1.00  0.00     0.000 C 
BRANCH   3   4
ATOM      4  C   UNL     1      14.513 -32.574  22.181  1.00  0.00     0.000 C 
BRANCH   4   5
ATOM      5  C   UNL     1      14.934 -31.191  22.708  1.00  0.00     0.006 C 
BRANCH   5   6
ATOM      6  C   UNL     1      14.070 -30.063  22.128  1.00  0.00     0.053 C 
BRANCH   6   7
ATOM      7  C   UNL     1      12.838 -29.828  22.949  1.00  0.00     0.041 C 
ATOM      8  O   UNL     1      11.701 -29.869  22.411  1.00  0.00    -0.550 OA
ATOM      9  O   UNL     1      12.951 -29.534  24.302  1.00  0.00    -0.550 OA
ENDBRANCH   6   7
ENDBRANCH   5   6
ENDBRANCH   4   5
ENDBRANCH   3   4
ENDBRANCH   2   3
ENDBRANCH   1   2
BRANCH   1  10
ATOM     10  C   UNL     1      16.278 -35.377  19.806  1.00  0.00     0.000 C 
BRANCH  10  11
ATOM     11  C   UNL     1      17.060 -34.340  18.983  1.00  0.00    -0.000 C 
BRANCH  11  12
ATOM     12  C   UNL     1      18.342 -33.871  19.689  1.00  0.00    -0.000 C 
BRANCH  12  13
ATOM     13  C   UNL     1      18.101 -32.664  20.611  1.00  0.00    -0.000 C 
BRANCH  13  14
ATOM     14  C   UNL     1      18.170 -33.030  22.104  1.00  0.00    -0.000 C 
BRANCH  14  15
ATOM     15  C   UNL     1      18.887 -34.376  22.340  1.00  0.00    -0.000 C 
BRANCH  15  16
ATOM     16  C   UNL     1      18.034 -35.402  23.104  1.00  0.00    -0.003 C 
ATOM     17  C   UNL     1      16.900 -34.763  23.903  1.00  0.00     0.004 C 
ENDBRANCH  15  16
ENDBRANCH  14  15
ENDBRANCH  13  14
ENDBRANCH  12  13
ENDBRANCH  11  12
ENDBRANCH  10  11
ENDBRANCH   1  10
TORSDOF 13
ENDMDL
MODEL 9
REMARK VINA RESULT:    -4.323      1.697      2.870
REMARK INTER + INTRA:          -9.553
REMARK INTER:                  -7.345
REMARK INTRA:                  -2.208
REMARK UNBOUND:                -1.944
REMARK SMILES CCCCCCCCCCCCCCC(=O)[O-]
REMARK SMILES IDX 9 1 10 2 11 3 12 4 13 5 14 6 15 7 16 8 17 9 8 10 7 11 6 12
REMARK SMILES IDX 5 13 4 14 3 15 2 16 1 17
REMARK H PARENT
REMARK Flexibility Score: inf
ROOT
ATOM      1  C   UNL     1      14.929 -33.144  20.867  1.00  0.00     0.000 C 
ENDROOT
BRANCH   1   2
ATOM      2  C   UNL     1      13.848 -32.104  21.207  1.00  0.00     0.000 C 
BRANCH   2   3
ATOM      3  C   UNL     1      14.411 -30.675  21.299  1.00  0.00     0.000 C 
BRANCH   3   4
ATOM      4  C   UNL     1      14.453 -30.147  22.743  1.00  0.00     0.000 C 
BRANCH   4   5
ATOM      5  C   UNL     1      13.103 -30.289  23.467  1.00  0.00     0.006 C 
BRANCH   5   6
ATOM      6  C   UNL     1      12.039 -29.342  22.898  1.00  0.00     0.053 C 
BRANCH   6   7
ATOM      7  C   UNL     1      11.898 -28.101  23.726  1.00  0.00     0.041 C 
ATOM      8  O   UNL     1      11.087 -27.201  23.386  1.00  0.00    -0.550 OA
ATOM      9  O   UNL     1      12.686 -27.928  24.857  1.00  0.00    -0.550 OA
ENDBRANCH   6   7
ENDBRANCH   5   6
ENDBRANCH   4   5
ENDBRANCH   3   4
ENDBRANCH   2   3
ENDBRANCH   1   2
BRANCH   1  10
ATOM     10  C   UNL     1      15.124 -34.181  21.987  1.00  0.00     0.000 C 
BRANCH  10  11
ATOM     11  C   UNL     1      16.428 -33.963  22.773  1.00  0.00    -0.000 C 
BRANCH  11  12
ATOM     12  C   UNL     1      16.204 -33.194  24.085  1.00  0.00    -0.000 C 
BRANCH  12  13
ATOM     13  C   UNL     1      17.172 -32.011  24.248  1.00  0.00    -0.000 C 
BRANCH  13  14
ATOM     14  C   UNL     1      18.232 -31.949  23.133  1.00  0.00    -0.000 C 
BRANCH  14  15
ATOM     15  C   UNL     1      18.068 -30.699  22.243  1.00  0.00    -0.000 C 
BRANCH  15  16
ATOM     16  C   UNL     1      18.068 -31.012  20.737  1.00  0.00    -0.003 C 
ATOM     17  C   UNL     1      18.589 -32.411  20.416  1.00  0.00     0.004 C 
ENDBRANCH  15  16
ENDBRANCH  14  15
ENDBRANCH  13  14
ENDBRANCH  12  13
ENDBRANCH  11  12
ENDBRANCH  10  11
ENDBRANCH   1  10
TORSDOF 13
ENDMDL
