MODEL 1
REMARK VINA RESULT:    -3.761      0.000      0.000
REMARK INTER + INTRA:          -5.007
REMARK INTER:                  -4.861
REMARK INTRA:                  -0.146
REMARK UNBOUND:                -0.146
REMARK SMILES CCCCCCC(=O)[O-]
REMARK SMILES IDX 5 1 6 2 7 3 8 4 9 5 4 6 3 7 2 8 1 9
REMARK H PARENT
REMARK Flexibility Score: inf
ROOT
ATOM      1  C   UNL     1      -9.118  -8.625   0.050  1.00  0.00     0.006 C 
ENDROOT
BRANCH   1   2
ATOM      2  C   UNL     1      -9.551  -7.754   1.237  1.00  0.00     0.053 C 
BRANCH   2   3
ATOM      3  C   UNL     1     -10.446  -6.633   0.804  1.00  0.00     0.041 C 
ATOM      4  O   UNL     1     -10.325  -5.490   1.320  1.00  0.00    -0.550 OA
ATOM      5  O   UNL     1     -11.391  -6.843  -0.191  1.00  0.00    -0.550 OA
ENDBRANCH   2   3
ENDBRANCH   1   2
BRANCH   1   6
ATOM      6  C   UNL     1      -7.687  -8.307  -0.413  1.00  0.00     0.000 C 
BRANCH   6   7
ATOM      7  C   UNL     1      -6.673  -9.241   0.257  1.00  0.00    -0.000 C 
BRANCH   7   8
ATOM      8  C   UNL     1      -6.772 -10.661  -0.316  1.00  0.00    -0.003 C 
ATOM      9  C   UNL     1      -5.444 -11.401  -0.185  1.00  0.00     0.004 C 
ENDBRANCH   7   8
ENDBRANCH   6   7
ENDBRANCH   1   6
TORSDOF 5
ENDMDL
MODEL 2
REMARK VINA RESULT:    -3.644     17.984     18.437
REMARK INTER + INTRA:          -4.855
REMARK INTER:                  -4.688
REMARK INTRA:                  -0.167
REMARK UNBOUND:                -0.146
REMARK SMILES CCCCCCC(=O)[O-]
REMARK SMILES IDX 5 1 6 2 7 3 8 4 9 5 4 6 3 7 2 8 1 9
REMARK H PARENT
REMARK Flexibility Score: inf
ROOT
ATOM      1  C   UNL     1     -19.635  -4.623 -14.454  1.00  0.00     0.006 C 
ENDROOT
BRANCH   1   2
ATOM      2  C   UNL     1     -20.064  -4.532 -12.984  1.00  0.00     0.053 C 
BRANCH   2   3
ATOM      3  C   UNL     1     -20.959  -3.356 -12.739  1.00  0.00     0.041 C 
ATOM      4  O   UNL     1     -20.812  -2.298 -13.406  1.00  0.00    -0.550 OA
ATOM      5  O   UNL     1     -21.975  -3.441 -11.797  1.00  0.00    -0.550 OA
ENDBRANCH   2   3
ENDBRANCH   1   2
BRANCH   1   6
ATOM      6  C   UNL     1     -19.534  -6.077 -14.942  1.00  0.00     0.000 C 
BRANCH   6   7
ATOM      7  C   UNL     1     -20.225  -7.034 -13.965  1.00  0.00    -0.000 C 
BRANCH   7   8
ATOM      8  C   UNL     1     -19.475  -8.369 -13.880  1.00  0.00    -0.003 C 
ATOM      9  C   UNL     1     -20.391  -9.485 -13.387  1.00  0.00     0.004 C 
ENDBRANCH   7   8
ENDBRANCH   6   7
ENDBRANCH   1   6
TORSDOF 5
ENDMDL
MODEL 3
REMARK VINA RESULT:    -3.623     18.201     18.795
REMARK INTER + INTRA:          -4.829
REMARK INTER:                  -4.622
REMARK INTRA:                  -0.207
REMARK UNBOUND:                -0.146
REMARK SMILES CCCCCCC(=O)[O-]
REMARK SMILES IDX 5 1 6 2 7 3 8 4 9 5 4 6 3 7 2 8 1 9
REMARK H PARENT
REMARK Flexibility Score: inf
ROOT
ATOM      1  C   UNL     1     -19.884  -4.974 -12.982  1.00  0.00     0.006 C 
ENDROOT
BRANCH   1   2
ATOM      2  C   UNL     1     -19.501  -4.528 -14.400  1.00  0.00     0.053 C 
BRANCH   2   3
ATOM      3  C   UNL     1     -20.040  -3.167 -14.717  1.00  0.00     0.041 C 
ATOM      4  O   UNL     1     -19.681  -2.572 -15.768  1.00  0.00    -0.550 OA
ATOM      5  O   UNL     1     -20.965  -2.570 -13.870  1.00  0.00    -0.550 OA
ENDBRANCH   2   3
ENDBRANCH   1   2
BRANCH   1   6
ATOM      6  C   UNL     1     -20.797  -6.210 -12.988  1.00  0.00     0.000 C 
BRANCH   6   7
ATOM      7  C   UNL     1     -20.519  -7.091 -14.210  1.00  0.00    -0.000 C 
BRANCH   7   8
ATOM      8  C   UNL     1     -19.585  -8.253 -13.850  1.00  0.00    -0.003 C 
ATOM      9  C   UNL     1     -20.379  -9.501 -13.470  1.00  0.00     0.004 C 
ENDBRANCH   7   8
ENDBRANCH   6   7
ENDBRANCH   1   6
TORSDOF 5
ENDMDL
MODEL 4
REMARK VINA RESULT:    -3.612     17.719     18.300
REMARK INTER + INTRA:          -4.814
REMARK INTER:                  -4.634
REMARK INTRA:                  -0.180
REMARK UNBOUND:                -0.146
REMARK SMILES CCCCCCC(=O)[O-]
REMARK SMILES IDX 5 1 6 2 7 3 8 4 9 5 4 6 3 7 2 8 1 9
REMARK H PARENT
REMARK Flexibility Score: inf
ROOT
ATOM      1  C   UNL     1     -19.864  -4.504 -13.375  1.00  0.00     0.006 C 
ENDROOT
BRANCH   1   2
ATOM      2  C   UNL     1     -21.061  -3.556 -13.524  1.00  0.00     0.053 C 
BRANCH   2   3
ATOM      3  C   UNL     1     -21.571  -3.093 -12.194  1.00  0.00     0.041 C 
ATOM      4  O   UNL     1     -20.932  -2.232 -11.534  1.00  0.00    -0.550 OA
ATOM      5  O   UNL     1     -22.770  -3.590 -11.699  1.00  0.00    -0.550 OA
ENDBRANCH   2   3
ENDBRANCH   1   2
BRANCH   1   6
ATOM      6  C   UNL     1     -20.227  -5.782 -12.603  1.00  0.00     0.000 C 
BRANCH   6   7
ATOM      7  C   UNL     1     -20.862  -6.823 -13.531  1.00  0.00    -0.000 C 
BRANCH   7   8
ATOM      8  C   UNL     1     -19.859  -7.926 -13.889  1.00  0.00    -0.003 C 
ATOM      9  C   UNL     1     -20.256  -9.257 -13.256  1.00  0.00     0.004 C 
ENDBRANCH   7   8
ENDBRANCH   6   7
ENDBRANCH   1   6
TORSDOF 5
ENDMDL
MODEL 5
REMARK VINA RESULT:    -3.572     18.026     18.554
REMARK INTER + INTRA:          -4.762
REMARK INTER:                  -4.515
REMARK INTRA:                  -0.247
REMARK UNBOUND:                -0.146
REMARK SMILES CCCCCCC(=O)[O-]
REMARK SMILES IDX 5 1 6 2 7 3 8 4 9 5 4 6 3 7 2 8 1 9
REMARK H PARENT
REMARK Flexibility Score: inf
ROOT
ATOM      1  C   UNL     1     -19.934  -5.179 -12.938  1.00  0.00     0.006 C 
ENDROOT
BRANCH   1   2
ATOM      2  C   UNL     1     -20.677  -3.840 -12.850  1.00  0.00     0.053 C 
BRANCH   2   3
ATOM      3  C   UNL     1     -22.142  -4.032 -12.603  1.00  0.00     0.041 C 
ATOM      4  O   UNL     1     -22.721  -3.388 -11.689  1.00  0.00    -0.550 OA
ATOM      5  O   UNL     1     -22.873  -4.899 -13.404  1.00  0.00    -0.550 OA
ENDBRANCH   2   3
ENDBRANCH   1   2
BRANCH   1   6
ATOM      6  C   UNL     1     -19.678  -5.609 -14.391  1.00  0.00     0.000 C 
BRANCH   6   7
ATOM      7  C   UNL     1     -19.788  -7.130 -14.542  1.00  0.00    -0.000 C 
BRANCH   7   8
ATOM      8  C   UNL     1     -20.463  -7.756 -13.315  1.00  0.00    -0.003 C 
ATOM      9  C   UNL     1     -20.258  -9.268 -13.286  1.00  0.00     0.004 C 
ENDBRANCH   7   8
ENDBRANCH   6   7
ENDBRANCH   1   6
TORSDOF 5
ENDMDL
MODEL 6
REMARK VINA RESULT:    -3.570      3.298      4.991
REMARK INTER + INTRA:          -4.759
REMARK INTER:                  -4.561
REMARK INTRA:                  -0.198
REMARK UNBOUND:                -0.146
REMARK SMILES CCCCCCC(=O)[O-]
REMARK SMILES IDX 5 1 6 2 7 3 8 4 9 5 4 6 3 7 2 8 1 9
REMARK H PARENT
REMARK Flexibility Score: inf
ROOT
ATOM      1  C   UNL     1      -6.975  -9.826  -0.422  1.00  0.00     0.006 C 
ENDROOT
BRANCH   1   2
ATOM      2  C   UNL     1      -6.088 -10.041   0.812  1.00  0.00     0.053 C 
BRANCH   2   3
ATOM      3  C   UNL     1      -6.772 -10.882   1.846  1.00  0.00     0.041 C 
ATOM      4  O   UNL     1      -7.522 -10.346   2.705  1.00  0.00    -0.550 OA
ATOM      5  O   UNL     1      -6.606 -12.260   1.842  1.00  0.00    -0.550 OA
ENDBRANCH   2   3
ENDBRANCH   1   2
BRANCH   1   6
ATOM      6  C   UNL     1      -7.695  -8.469  -0.391  1.00  0.00     0.000 C 
BRANCH   6   7
ATOM      7  C   UNL     1      -9.175  -8.641  -0.031  1.00  0.00    -0.000 C 
BRANCH   7   8
ATOM      8  C   UNL     1      -9.708  -7.408   0.709  1.00  0.00    -0.003 C 
ATOM      9  C   UNL     1     -10.985  -6.884   0.058  1.00  0.00     0.004 C 
ENDBRANCH   7   8
ENDBRANCH   6   7
ENDBRANCH   1   6
TORSDOF 5
ENDMDL
MODEL 7
REMARK VINA RESULT:    -3.409      2.114      2.713
REMARK INTER + INTRA:          -4.552
REMARK INTER:                  -4.210
REMARK INTRA:                  -0.343
REMARK UNBOUND:                -0.146
REMARK SMILES CCCCCCC(=O)[O-]
REMARK SMILES IDX 5 1 6 2 7 3 8 4 9 5 4 6 3 7 2 8 1 9
REMARK H PARENT
REMARK Flexibility Score: inf
ROOT
ATOM      1  C   UNL     1     -10.095  -7.083   0.136  1.00  0.00     0.006 C 
ENDROOT
BRANCH   1   2
ATOM      2  C   UNL     1     -10.727  -6.529   1.419  1.00  0.00     0.053 C 
BRANCH   2   3
ATOM      3  C   UNL     1      -9.784  -5.631   2.159  1.00  0.00     0.041 C 
ATOM      4  O   UNL     1      -9.853  -4.382   2.014  1.00  0.00    -0.550 OA
ATOM      5  O   UNL     1      -8.850  -6.172   3.032  1.00  0.00    -0.550 OA
ENDBRANCH   2   3
ENDBRANCH   1   2
BRANCH   1   6
ATOM      6  C   UNL     1      -9.466  -8.469   0.347  1.00  0.00     0.000 C 
BRANCH   6   7
ATOM      7  C   UNL     1      -8.094  -8.558  -0.330  1.00  0.00    -0.000 C 
BRANCH   7   8
ATOM      8  C   UNL     1      -6.999  -7.971   0.569  1.00  0.00    -0.003 C 
ATOM      9  C   UNL     1      -6.386  -6.720  -0.056  1.00  0.00     0.004 C 
ENDBRANCH   7   8
ENDBRANCH   6   7
ENDBRANCH   1   6
TORSDOF 5
ENDMDL
MODEL 8
REMARK VINA RESULT:    -3.404      1.796      2.809
REMARK INTER + INTRA:          -4.545
REMARK INTER:                  -4.225
REMARK INTRA:                  -0.320
REMARK UNBOUND:                -0.146
REMARK SMILES CCCCCCC(=O)[O-]
REMARK SMILES IDX 5 1 6 2 7 3 8 4 9 5 4 6 3 7 2 8 1 9
REMARK H PARENT
REMARK Flexibility Score: inf
ROOT
ATOM      1  C   UNL     1      -8.817  -8.648   1.204  1.00  0.00     0.006 C 
ENDROOT
BRANCH   1   2
ATOM      2  C   UNL     1      -9.675  -8.010   0.104  1.00  0.00     0.053 C 
BRANCH   2   3
ATOM      3  C   UNL     1     -10.511  -6.886   0.635  1.00  0.00     0.041 C 
ATOM      4  O   UNL     1     -11.284  -6.253  -0.133  1.00  0.00    -0.550 OA
ATOM      5  O   UNL     1     -10.461  -6.559   1.984  1.00  0.00    -0.550 OA
ENDBRANCH   2   3
ENDBRANCH   1   2
BRANCH   1   6
ATOM      6  C   UNL     1      -7.325  -8.315   1.046  1.00  0.00     0.000 C 
BRANCH   6   7
ATOM      7  C   UNL     1      -7.045  -7.690  -0.325  1.00  0.00    -0.000 C 
BRANCH   7   8
ATOM      8  C   UNL     1      -6.181  -6.430  -0.189  1.00  0.00    -0.003 C 
ATOM      9  C   UNL     1      -6.493  -5.686   1.107  1.00  0.00     0.004 C 
ENDBRANCH   7   8
ENDBRANCH   6   7
ENDBRANCH   1   6
TORSDOF 5
ENDMDL
MODEL 9
REMARK VINA RESULT:    -3.338     18.015     19.062
REMARK INTER + INTRA:          -4.459
REMARK INTER:                  -4.271
REMARK INTRA:                  -0.188
REMARK UNBOUND:                -0.146
REMARK SMILES CCCCCCC(=O)[O-]
REMARK SMILES IDX 5 1 6 2 7 3 8 4 9 5 4 6 3 7 2 8 1 9
REMARK H PARENT
REMARK Flexibility Score: inf
ROOT
ATOM      1  C   UNL     1     -20.590  -6.446 -12.823  1.00  0.00     0.006 C 
ENDROOT
BRANCH   1   2
ATOM      2  C   UNL     1     -20.030  -7.447 -13.842  1.00  0.00     0.053 C 
BRANCH   2   3
ATOM      3  C   UNL     1     -20.551  -8.831 -13.603  1.00  0.00     0.041 C 
ATOM      4  O   UNL     1     -21.263  -9.399 -14.474  1.00  0.00    -0.550 OA
ATOM      5  O   UNL     1     -20.225  -9.505 -12.434  1.00  0.00    -0.550 OA
ENDBRANCH   2   3
ENDBRANCH   1   2
BRANCH   1   6
ATOM      6  C   UNL     1     -20.032  -5.030 -13.031  1.00  0.00     0.000 C 
BRANCH   6   7
ATOM      7  C   UNL     1     -21.152  -3.985 -12.985  1.00  0.00    -0.000 C 
BRANCH   7   8
ATOM      8  C   UNL     1     -22.531  -4.657 -12.992  1.00  0.00    -0.003 C 
ATOM      9  C   UNL     1     -23.454  -4.032 -11.951  1.00  0.00     0.004 C 
ENDBRANCH   7   8
ENDBRANCH   6   7
ENDBRANCH   1   6
TORSDOF 5
ENDMDL
