MODEL 1
REMARK VINA RESULT:    -3.232      0.000      0.000
REMARK INTER + INTRA:          -3.689
REMARK INTER:                  -3.705
REMARK INTRA:                   0.016
REMARK UNBOUND:                 0.016
REMARK SMILES CC(C)[C@H]([NH3+])C(=O)[O-]
REMARK SMILES IDX 4 1 5 2 6 6 7 7 8 8 2 9 1 10 3 11
REMARK H PARENT 5 3 5 4 5 5
REMARK Flexibility Score: inf
ROOT
ATOM      1  C   UNL     1      18.630   8.097  24.522  1.00  0.00     0.230 C 
ENDROOT
BRANCH   1   2
ATOM      2  N   UNL     1      18.683   6.836  25.280  1.00  0.00    -0.350 N 
ATOM      3  H   UNL     1      18.083   6.112  24.827  1.00  0.00     0.345 HD
ATOM      4  H   UNL     1      18.376   6.973  26.270  1.00  0.00     0.345 HD
ATOM      5  H   UNL     1      19.665   6.476  25.285  1.00  0.00     0.345 HD
ENDBRANCH   1   2
BRANCH   1   6
ATOM      6  C   UNL     1      17.324   8.816  24.759  1.00  0.00     0.099 C 
ATOM      7  O   UNL     1      17.304   9.986  25.226  1.00  0.00    -0.544 OA
ATOM      8  O   UNL     1      16.123   8.163  24.504  1.00  0.00    -0.544 OA
ENDBRANCH   1   6
BRANCH   1   9
ATOM      9  C   UNL     1      18.891   7.906  22.999  1.00  0.00     0.047 C 
ATOM     10  C   UNL     1      18.301   6.587  22.477  1.00  0.00     0.014 C 
ATOM     11  C   UNL     1      18.401   9.082  22.137  1.00  0.00     0.014 C 
ENDBRANCH   1   9
TORSDOF 3
ENDMDL
MODEL 2
REMARK VINA RESULT:    -3.115      1.805      2.452
REMARK INTER + INTRA:          -3.555
REMARK INTER:                  -3.497
REMARK INTRA:                  -0.058
REMARK UNBOUND:                 0.016
REMARK SMILES CC(C)[C@H]([NH3+])C(=O)[O-]
REMARK SMILES IDX 4 1 5 2 6 6 7 7 8 8 2 9 1 10 3 11
REMARK H PARENT 5 3 5 4 5 5
REMARK Flexibility Score: inf
ROOT
ATOM      1  C   UNL     1      16.927   8.862  24.500  1.00  0.00     0.230 C 
ENDROOT
BRANCH   1   2
ATOM      2  N   UNL     1      17.532   9.714  25.536  1.00  0.00    -0.350 N 
ATOM      3  H   UNL     1      16.813  10.344  25.956  1.00  0.00     0.345 HD
ATOM      4  H   UNL     1      18.315  10.288  25.149  1.00  0.00     0.345 HD
ATOM      5  H   UNL     1      17.911   9.112  26.303  1.00  0.00     0.345 HD
ENDBRANCH   1   2
BRANCH   1   6
ATOM      6  C   UNL     1      15.966   7.870  25.108  1.00  0.00     0.099 C 
ATOM      7  O   UNL     1      15.735   6.765  24.548  1.00  0.00    -0.544 OA
ATOM      8  O   UNL     1      15.287   8.197  26.276  1.00  0.00    -0.544 OA
ENDBRANCH   1   6
BRANCH   1   9
ATOM      9  C   UNL     1      17.983   8.139  23.611  1.00  0.00     0.047 C 
ATOM     10  C   UNL     1      18.425   9.009  22.424  1.00  0.00     0.014 C 
ATOM     11  C   UNL     1      19.213   7.646  24.392  1.00  0.00     0.014 C 
ENDBRANCH   1   9
TORSDOF 3
ENDMDL
MODEL 3
REMARK VINA RESULT:    -3.107      2.374      2.622
REMARK INTER + INTRA:          -3.545
REMARK INTER:                  -3.498
REMARK INTRA:                  -0.046
REMARK UNBOUND:                 0.016
REMARK SMILES CC(C)[C@H]([NH3+])C(=O)[O-]
REMARK SMILES IDX 4 1 5 2 6 6 7 7 8 8 2 9 1 10 3 11
REMARK H PARENT 5 3 5 4 5 5
REMARK Flexibility Score: inf
ROOT
ATOM      1  C   UNL     1      18.113   8.979  22.417  1.00  0.00     0.230 C 
ENDROOT
BRANCH   1   2
ATOM      2  N   UNL     1      19.453   9.013  21.809  1.00  0.00    -0.350 N 
ATOM      3  H   UNL     1      19.407   8.725  20.807  1.00  0.00     0.345 HD
ATOM      4  H   UNL     1      20.120   8.391  22.320  1.00  0.00     0.345 HD
ATOM      5  H   UNL     1      19.824   9.991  21.841  1.00  0.00     0.345 HD
ENDBRANCH   1   2
BRANCH   1   6
ATOM      6  C   UNL     1      18.200   8.741  23.905  1.00  0.00     0.099 C 
ATOM      7  O   UNL     1      17.521   9.430  24.711  1.00  0.00    -0.544 OA
ATOM      8  O   UNL     1      19.077   7.782  24.398  1.00  0.00    -0.544 OA
ENDBRANCH   1   6
BRANCH   1   9
ATOM      9  C   UNL     1      17.162   7.945  21.743  1.00  0.00     0.047 C 
ATOM     10  C   UNL     1      15.686   8.343  21.891  1.00  0.00     0.014 C 
ATOM     11  C   UNL     1      17.493   7.677  20.265  1.00  0.00     0.014 C 
ENDBRANCH   1   9
TORSDOF 3
ENDMDL
MODEL 4
REMARK VINA RESULT:    -3.081      2.103      2.185
REMARK INTER + INTRA:          -3.516
REMARK INTER:                  -3.448
REMARK INTRA:                  -0.068
REMARK UNBOUND:                 0.016
REMARK SMILES CC(C)[C@H]([NH3+])C(=O)[O-]
REMARK SMILES IDX 4 1 5 2 6 6 7 7 8 8 2 9 1 10 3 11
REMARK H PARENT 5 3 5 4 5 5
REMARK Flexibility Score: inf
ROOT
ATOM      1  C   UNL     1      17.335   7.970  22.994  1.00  0.00     0.230 C 
ENDROOT
BRANCH   1   2
ATOM      2  N   UNL     1      16.144   8.748  22.620  1.00  0.00    -0.350 N 
ATOM      3  H   UNL     1      15.328   8.116  22.463  1.00  0.00     0.345 HD
ATOM      4  H   UNL     1      16.314   9.317  21.760  1.00  0.00     0.345 HD
ATOM      5  H   UNL     1      15.894   9.398  23.402  1.00  0.00     0.345 HD
ENDBRANCH   1   2
BRANCH   1   6
ATOM      6  C   UNL     1      17.966   8.516  24.251  1.00  0.00     0.099 C 
ATOM      7  O   UNL     1      17.527   9.565  24.792  1.00  0.00    -0.544 OA
ATOM      8  O   UNL     1      19.076   7.881  24.796  1.00  0.00    -0.544 OA
ENDBRANCH   1   6
BRANCH   1   9
ATOM      9  C   UNL     1      18.383   7.867  21.846  1.00  0.00     0.047 C 
ATOM     10  C   UNL     1      17.767   7.307  20.555  1.00  0.00     0.014 C 
ATOM     11  C   UNL     1      19.108   9.192  21.554  1.00  0.00     0.014 C 
ENDBRANCH   1   9
TORSDOF 3
ENDMDL
MODEL 5
REMARK VINA RESULT:    -3.057      1.843      2.211
REMARK INTER + INTRA:          -3.487
REMARK INTER:                  -3.428
REMARK INTRA:                  -0.060
REMARK UNBOUND:                 0.016
REMARK SMILES CC(C)[C@H]([NH3+])C(=O)[O-]
REMARK SMILES IDX 4 1 5 2 6 6 7 7 8 8 2 9 1 10 3 11
REMARK H PARENT 5 3 5 4 5 5
REMARK Flexibility Score: inf
ROOT
ATOM      1  C   UNL     1      16.901   8.339  23.815  1.00  0.00     0.230 C 
ENDROOT
BRANCH   1   2
ATOM      2  N   UNL     1      16.027   8.728  22.697  1.00  0.00    -0.350 N 
ATOM      3  H   UNL     1      15.910   7.932  22.030  1.00  0.00     0.345 HD
ATOM      4  H   UNL     1      16.406   9.557  22.186  1.00  0.00     0.345 HD
ATOM      5  H   UNL     1      15.079   8.972  23.067  1.00  0.00     0.345 HD
ENDBRANCH   1   2
BRANCH   1   6
ATOM      6  C   UNL     1      16.458   8.992  25.100  1.00  0.00     0.099 C 
ATOM      7  O   UNL     1      15.456   8.564  25.733  1.00  0.00    -0.544 OA
ATOM      8  O   UNL     1      17.133  10.113  25.571  1.00  0.00    -0.544 OA
ENDBRANCH   1   6
BRANCH   1   9
ATOM      9  C   UNL     1      18.408   8.621  23.538  1.00  0.00     0.047 C 
ATOM     10  C   UNL     1      19.311   7.512  24.100  1.00  0.00     0.014 C 
ATOM     11  C   UNL     1      18.728   8.861  22.053  1.00  0.00     0.014 C 
ENDBRANCH   1   9
TORSDOF 3
ENDMDL
MODEL 6
REMARK VINA RESULT:    -3.051      1.863      2.518
REMARK INTER + INTRA:          -3.481
REMARK INTER:                  -3.435
REMARK INTRA:                  -0.046
REMARK UNBOUND:                 0.016
REMARK SMILES CC(C)[C@H]([NH3+])C(=O)[O-]
REMARK SMILES IDX 4 1 5 2 6 6 7 7 8 8 2 9 1 10 3 11
REMARK H PARENT 5 3 5 4 5 5
REMARK Flexibility Score: inf
ROOT
ATOM      1  C   UNL     1      18.982   6.840  24.105  1.00  0.00     0.230 C 
ENDROOT
BRANCH   1   2
ATOM      2  N   UNL     1      18.606   6.662  25.517  1.00  0.00    -0.350 N 
ATOM      3  H   UNL     1      19.431   6.816  26.137  1.00  0.00     0.345 HD
ATOM      4  H   UNL     1      18.212   5.710  25.689  1.00  0.00     0.345 HD
ATOM      5  H   UNL     1      17.881   7.372  25.774  1.00  0.00     0.345 HD
ENDBRANCH   1   2
BRANCH   1   6
ATOM      6  C   UNL     1      18.652   8.234  23.629  1.00  0.00     0.099 C 
ATOM      7  O   UNL     1      19.132   8.681  22.553  1.00  0.00    -0.544 OA
ATOM      8  O   UNL     1      17.847   9.055  24.410  1.00  0.00    -0.544 OA
ENDBRANCH   1   6
BRANCH   1   9
ATOM      9  C   UNL     1      18.353   5.768  23.165  1.00  0.00     0.047 C 
ATOM     10  C   UNL     1      19.341   4.636  22.847  1.00  0.00     0.014 C 
ATOM     11  C   UNL     1      17.032   5.185  23.693  1.00  0.00     0.014 C 
ENDBRANCH   1   9
TORSDOF 3
ENDMDL
MODEL 7
REMARK VINA RESULT:    -3.039      2.098      2.460
REMARK INTER + INTRA:          -3.467
REMARK INTER:                  -3.533
REMARK INTRA:                   0.066
REMARK UNBOUND:                 0.016
REMARK SMILES CC(C)[C@H]([NH3+])C(=O)[O-]
REMARK SMILES IDX 4 1 5 2 6 6 7 7 8 8 2 9 1 10 3 11
REMARK H PARENT 5 3 5 4 5 5
REMARK Flexibility Score: inf
ROOT
ATOM      1  C   UNL     1      17.345   8.655  23.765  1.00  0.00     0.230 C 
ENDROOT
BRANCH   1   2
ATOM      2  N   UNL     1      17.475   9.792  24.690  1.00  0.00    -0.350 N 
ATOM      3  H   UNL     1      17.911   9.484  25.588  1.00  0.00     0.345 HD
ATOM      4  H   UNL     1      16.547  10.232  24.887  1.00  0.00     0.345 HD
ATOM      5  H   UNL     1      18.101  10.515  24.266  1.00  0.00     0.345 HD
ENDBRANCH   1   2
BRANCH   1   6
ATOM      6  C   UNL     1      18.303   7.548  24.130  1.00  0.00     0.099 C 
ATOM      7  O   UNL     1      19.338   7.785  24.807  1.00  0.00    -0.544 OA
ATOM      8  O   UNL     1      18.069   6.256  23.672  1.00  0.00    -0.544 OA
ENDBRANCH   1   6
BRANCH   1   9
ATOM      9  C   UNL     1      17.508   9.062  22.270  1.00  0.00     0.047 C 
ATOM     10  C   UNL     1      18.978   9.024  21.824  1.00  0.00     0.014 C 
ATOM     11  C   UNL     1      16.642   8.232  21.307  1.00  0.00     0.014 C 
ENDBRANCH   1   9
TORSDOF 3
ENDMDL
MODEL 8
REMARK VINA RESULT:    -3.011      2.450      3.147
REMARK INTER + INTRA:          -3.435
REMARK INTER:                  -3.366
REMARK INTRA:                  -0.069
REMARK UNBOUND:                 0.016
REMARK SMILES CC(C)[C@H]([NH3+])C(=O)[O-]
REMARK SMILES IDX 4 1 5 2 6 6 7 7 8 8 2 9 1 10 3 11
REMARK H PARENT 5 3 5 4 5 5
REMARK Flexibility Score: inf
ROOT
ATOM      1  C   UNL     1      17.320   8.646  24.724  1.00  0.00     0.230 C 
ENDROOT
BRANCH   1   2
ATOM      2  N   UNL     1      17.461   9.881  25.512  1.00  0.00    -0.350 N 
ATOM      3  H   UNL     1      17.343  10.719  24.901  1.00  0.00     0.345 HD
ATOM      4  H   UNL     1      18.390   9.925  25.989  1.00  0.00     0.345 HD
ATOM      5  H   UNL     1      16.712   9.914  26.243  1.00  0.00     0.345 HD
ENDBRANCH   1   2
BRANCH   1   6
ATOM      6  C   UNL     1      18.236   8.661  23.526  1.00  0.00     0.099 C 
ATOM      7  O   UNL     1      19.286   7.966  23.504  1.00  0.00    -0.544 OA
ATOM      8  O   UNL     1      17.945   9.491  22.448  1.00  0.00    -0.544 OA
ENDBRANCH   1   6
BRANCH   1   9
ATOM      9  C   UNL     1      15.849   8.358  24.297  1.00  0.00     0.047 C 
ATOM     10  C   UNL     1      15.635   6.878  23.944  1.00  0.00     0.014 C 
ATOM     11  C   UNL     1      14.807   8.811  25.333  1.00  0.00     0.014 C 
ENDBRANCH   1   9
TORSDOF 3
ENDMDL
MODEL 9
REMARK VINA RESULT:    -3.005      2.088      2.649
REMARK INTER + INTRA:          -3.429
REMARK INTER:                  -3.384
REMARK INTRA:                  -0.044
REMARK UNBOUND:                 0.016
REMARK SMILES CC(C)[C@H]([NH3+])C(=O)[O-]
REMARK SMILES IDX 4 1 5 2 6 6 7 7 8 8 2 9 1 10 3 11
REMARK H PARENT 5 3 5 4 5 5
REMARK Flexibility Score: inf
ROOT
ATOM      1  C   UNL     1      18.017   7.009  24.201  1.00  0.00     0.230 C 
ENDROOT
BRANCH   1   2
ATOM      2  N   UNL     1      18.601   6.738  25.525  1.00  0.00    -0.350 N 
ATOM      3  H   UNL     1      19.217   5.896  25.487  1.00  0.00     0.345 HD
ATOM      4  H   UNL     1      17.860   6.595  26.247  1.00  0.00     0.345 HD
ATOM      5  H   UNL     1      19.193   7.551  25.815  1.00  0.00     0.345 HD
ENDBRANCH   1   2
BRANCH   1   6
ATOM      6  C   UNL     1      18.250   8.441  23.789  1.00  0.00     0.099 C 
ATOM      7  O   UNL     1      17.710   9.391  24.416  1.00  0.00    -0.544 OA
ATOM      8  O   UNL     1      19.033   8.718  22.673  1.00  0.00    -0.544 OA
ENDBRANCH   1   6
BRANCH   1   9
ATOM      9  C   UNL     1      16.504   6.645  24.115  1.00  0.00     0.047 C 
ATOM     10  C   UNL     1      16.272   5.337  23.344  1.00  0.00     0.014 C 
ATOM     11  C   UNL     1      15.807   6.583  25.484  1.00  0.00     0.014 C 
ENDBRANCH   1   9
TORSDOF 3
ENDMDL
