MODEL 1
REMARK VINA RESULT:    -6.015      0.000      0.000
REMARK INTER + INTRA:          -6.015
REMARK INTER:                  -6.015
REMARK INTRA:                   0.000
REMARK UNBOUND:                 0.000
REMARK SMILES c1ccc2ccccc2c1
REMARK SMILES IDX 2 1 1 2 10 3 9 4 8 5 7 6 6 7 5 8 4 9 3 10
REMARK H PARENT
REMARK Flexibility Score: inf
ROOT
ATOM      1  C   UNL     1       6.760   4.294 -32.199  1.00  0.00     0.001 A 
ATOM      2  C   UNL     1       6.949   5.604 -31.751  1.00  0.00     0.001 A 
ATOM      3  C   UNL     1       5.962   6.238 -30.990  1.00  0.00     0.009 A 
ATOM      4  C   UNL     1       4.774   5.559 -30.674  1.00  0.00    -0.018 A 
ATOM      5  C   UNL     1       3.774   6.184 -29.912  1.00  0.00     0.009 A 
ATOM      6  C   UNL     1       2.596   5.498 -29.604  1.00  0.00     0.001 A 
ATOM      7  C   UNL     1       2.407   4.187 -30.052  1.00  0.00     0.001 A 
ATOM      8  C   UNL     1       3.394   3.554 -30.813  1.00  0.00     0.009 A 
ATOM      9  C   UNL     1       4.582   4.232 -31.129  1.00  0.00    -0.018 A 
ATOM     10  C   UNL     1       5.582   3.608 -31.891  1.00  0.00     0.009 A 
ENDROOT
TORSDOF 0
ENDMDL
MODEL 2
REMARK VINA RESULT:    -6.007      0.077      2.083
REMARK INTER + INTRA:          -6.007
REMARK INTER:                  -6.007
REMARK INTRA:                   0.000
REMARK UNBOUND:                 0.000
REMARK SMILES c1ccc2ccccc2c1
REMARK SMILES IDX 2 1 1 2 10 3 9 4 8 5 7 6 6 7 5 8 4 9 3 10
REMARK H PARENT
REMARK Flexibility Score: inf
ROOT
ATOM      1  C   UNL     1       6.993   5.651 -31.779  1.00  0.00     0.001 A 
ATOM      2  C   UNL     1       6.830   4.330 -32.210  1.00  0.00     0.001 A 
ATOM      3  C   UNL     1       5.658   3.630 -31.907  1.00  0.00     0.009 A 
ATOM      4  C   UNL     1       4.639   4.251 -31.168  1.00  0.00    -0.018 A 
ATOM      5  C   UNL     1       3.458   3.559 -30.856  1.00  0.00     0.009 A 
ATOM      6  C   UNL     1       2.451   4.188 -30.119  1.00  0.00     0.001 A 
ATOM      7  C   UNL     1       2.613   5.508 -29.688  1.00  0.00     0.001 A 
ATOM      8  C   UNL     1       3.785   6.208 -29.991  1.00  0.00     0.009 A 
ATOM      9  C   UNL     1       4.805   5.588 -30.730  1.00  0.00    -0.018 A 
ATOM     10  C   UNL     1       5.986   6.279 -31.042  1.00  0.00     0.009 A 
ENDROOT
TORSDOF 0
ENDMDL
MODEL 3
REMARK VINA RESULT:    -5.987      0.084      3.437
REMARK INTER + INTRA:          -5.987
REMARK INTER:                  -5.987
REMARK INTRA:                   0.000
REMARK UNBOUND:                 0.000
REMARK SMILES c1ccc2ccccc2c1
REMARK SMILES IDX 2 1 1 2 10 3 9 4 8 5 7 6 6 7 5 8 4 9 3 10
REMARK H PARENT
REMARK Flexibility Score: inf
ROOT
ATOM      1  C   UNL     1       2.462   4.244 -30.009  1.00  0.00     0.001 A 
ATOM      2  C   UNL     1       2.659   5.571 -29.617  1.00  0.00     0.001 A 
ATOM      3  C   UNL     1       3.840   6.238 -29.958  1.00  0.00     0.009 A 
ATOM      4  C   UNL     1       4.834   5.577 -30.696  1.00  0.00    -0.018 A 
ATOM      5  C   UNL     1       6.024   6.234 -31.044  1.00  0.00     0.009 A 
ATOM      6  C   UNL     1       7.007   5.565 -31.779  1.00  0.00     0.001 A 
ATOM      7  C   UNL     1       6.810   4.237 -32.171  1.00  0.00     0.001 A 
ATOM      8  C   UNL     1       5.629   3.570 -31.830  1.00  0.00     0.009 A 
ATOM      9  C   UNL     1       4.635   4.231 -31.092  1.00  0.00    -0.018 A 
ATOM     10  C   UNL     1       3.444   3.574 -30.744  1.00  0.00     0.009 A 
ENDROOT
TORSDOF 0
ENDMDL
MODEL 4
REMARK VINA RESULT:    -5.977      0.073      4.018
REMARK INTER + INTRA:          -5.977
REMARK INTER:                  -5.977
REMARK INTRA:                   0.000
REMARK UNBOUND:                 0.000
REMARK SMILES c1ccc2ccccc2c1
REMARK SMILES IDX 2 1 1 2 10 3 9 4 8 5 7 6 6 7 5 8 4 9 3 10
REMARK H PARENT
REMARK Flexibility Score: inf
ROOT
ATOM      1  C   UNL     1       2.649   5.583 -29.543  1.00  0.00     0.001 A 
ATOM      2  C   UNL     1       2.431   4.271 -29.975  1.00  0.00     0.001 A 
ATOM      3  C   UNL     1       3.394   3.614 -30.747  1.00  0.00     0.009 A 
ATOM      4  C   UNL     1       4.587   4.270 -31.092  1.00  0.00    -0.018 A 
ATOM      5  C   UNL     1       5.562   3.623 -31.867  1.00  0.00     0.009 A 
ATOM      6  C   UNL     1       6.745   4.287 -32.203  1.00  0.00     0.001 A 
ATOM      7  C   UNL     1       6.963   5.599 -31.771  1.00  0.00     0.001 A 
ATOM      8  C   UNL     1       5.999   6.255 -31.000  1.00  0.00     0.009 A 
ATOM      9  C   UNL     1       4.807   5.600 -30.655  1.00  0.00    -0.018 A 
ATOM     10  C   UNL     1       3.831   6.247 -29.880  1.00  0.00     0.009 A 
ENDROOT
TORSDOF 0
ENDMDL
MODEL 5
REMARK VINA RESULT:    -5.203      1.006      1.495
REMARK INTER + INTRA:          -5.203
REMARK INTER:                  -5.203
REMARK INTRA:                   0.000
REMARK UNBOUND:                 0.000
REMARK SMILES c1ccc2ccccc2c1
REMARK SMILES IDX 2 1 1 2 10 3 9 4 8 5 7 6 6 7 5 8 4 9 3 10
REMARK H PARENT
REMARK Flexibility Score: inf
ROOT
ATOM      1  C   UNL     1       7.980   5.261 -32.927  1.00  0.00     0.001 A 
ATOM      2  C   UNL     1       7.853   6.563 -32.434  1.00  0.00     0.001 A 
ATOM      3  C   UNL     1       6.787   6.897 -31.593  1.00  0.00     0.009 A 
ATOM      4  C   UNL     1       5.838   5.925 -31.240  1.00  0.00    -0.018 A 
ATOM      5  C   UNL     1       4.762   6.247 -30.398  1.00  0.00     0.009 A 
ATOM      6  C   UNL     1       3.824   5.270 -30.054  1.00  0.00     0.001 A 
ATOM      7  C   UNL     1       3.951   3.968 -30.547  1.00  0.00     0.001 A 
ATOM      8  C   UNL     1       5.017   3.634 -31.388  1.00  0.00     0.009 A 
ATOM      9  C   UNL     1       5.966   4.606 -31.741  1.00  0.00    -0.018 A 
ATOM     10  C   UNL     1       7.042   4.284 -32.584  1.00  0.00     0.009 A 
ENDROOT
TORSDOF 0
ENDMDL
MODEL 6
REMARK VINA RESULT:    -5.045      1.548      2.349
REMARK INTER + INTRA:          -5.045
REMARK INTER:                  -5.045
REMARK INTRA:                   0.000
REMARK UNBOUND:                 0.000
REMARK SMILES c1ccc2ccccc2c1
REMARK SMILES IDX 2 1 1 2 10 3 9 4 8 5 7 6 6 7 5 8 4 9 3 10
REMARK H PARENT
REMARK Flexibility Score: inf
ROOT
ATOM      1  C   UNL     1       5.555   3.316 -32.330  1.00  0.00     0.001 A 
ATOM      2  C   UNL     1       4.627   3.391 -33.374  1.00  0.00     0.001 A 
ATOM      3  C   UNL     1       3.356   3.927 -33.149  1.00  0.00     0.009 A 
ATOM      4  C   UNL     1       3.004   4.393 -31.873  1.00  0.00    -0.018 A 
ATOM      5  C   UNL     1       1.730   4.933 -31.633  1.00  0.00     0.009 A 
ATOM      6  C   UNL     1       1.392   5.393 -30.358  1.00  0.00     0.001 A 
ATOM      7  C   UNL     1       2.319   5.319 -29.314  1.00  0.00     0.001 A 
ATOM      8  C   UNL     1       3.591   4.783 -29.539  1.00  0.00     0.009 A 
ATOM      9  C   UNL     1       3.943   4.317 -30.815  1.00  0.00    -0.018 A 
ATOM     10  C   UNL     1       5.216   3.777 -31.055  1.00  0.00     0.009 A 
ENDROOT
TORSDOF 0
ENDMDL
MODEL 7
REMARK VINA RESULT:    -5.032      1.570      3.770
REMARK INTER + INTRA:          -5.032
REMARK INTER:                  -5.032
REMARK INTRA:                   0.000
REMARK UNBOUND:                 0.000
REMARK SMILES c1ccc2ccccc2c1
REMARK SMILES IDX 2 1 1 2 10 3 9 4 8 5 7 6 6 7 5 8 4 9 3 10
REMARK H PARENT
REMARK Flexibility Score: inf
ROOT
ATOM      1  C   UNL     1       1.498   5.502 -30.021  1.00  0.00     0.001 A 
ATOM      2  C   UNL     1       2.585   5.471 -29.142  1.00  0.00     0.001 A 
ATOM      3  C   UNL     1       3.806   4.927 -29.552  1.00  0.00     0.009 A 
ATOM      4  C   UNL     1       3.946   4.408 -30.849  1.00  0.00    -0.018 A 
ATOM      5  C   UNL     1       5.166   3.858 -31.273  1.00  0.00     0.009 A 
ATOM      6  C   UNL     1       5.292   3.345 -32.567  1.00  0.00     0.001 A 
ATOM      7  C   UNL     1       4.204   3.376 -33.445  1.00  0.00     0.001 A 
ATOM      8  C   UNL     1       2.983   3.920 -33.035  1.00  0.00     0.009 A 
ATOM      9  C   UNL     1       2.844   4.439 -31.738  1.00  0.00    -0.018 A 
ATOM     10  C   UNL     1       1.624   4.989 -31.314  1.00  0.00     0.009 A 
ENDROOT
TORSDOF 0
ENDMDL
MODEL 8
REMARK VINA RESULT:    -4.801      1.321      1.742
REMARK INTER + INTRA:          -4.801
REMARK INTER:                  -4.801
REMARK INTRA:                   0.000
REMARK UNBOUND:                 0.000
REMARK SMILES c1ccc2ccccc2c1
REMARK SMILES IDX 2 1 1 2 10 3 9 4 8 5 7 6 6 7 5 8 4 9 3 10
REMARK H PARENT
REMARK Flexibility Score: inf
ROOT
ATOM      1  C   UNL     1       4.373   3.338 -33.574  1.00  0.00     0.001 A 
ATOM      2  C   UNL     1       5.300   4.384 -33.529  1.00  0.00     0.001 A 
ATOM      3  C   UNL     1       5.305   5.275 -32.451  1.00  0.00     0.009 A 
ATOM      4  C   UNL     1       4.377   5.123 -31.408  1.00  0.00    -0.018 A 
ATOM      5  C   UNL     1       4.370   6.011 -30.321  1.00  0.00     0.009 A 
ATOM      6  C   UNL     1       3.442   5.849 -29.289  1.00  0.00     0.001 A 
ATOM      7  C   UNL     1       2.515   4.803 -29.334  1.00  0.00     0.001 A 
ATOM      8  C   UNL     1       2.510   3.912 -30.412  1.00  0.00     0.009 A 
ATOM      9  C   UNL     1       3.438   4.064 -31.455  1.00  0.00    -0.018 A 
ATOM     10  C   UNL     1       3.445   3.176 -32.542  1.00  0.00     0.009 A 
ENDROOT
TORSDOF 0
ENDMDL
MODEL 9
REMARK VINA RESULT:    -4.367      1.580      3.331
REMARK INTER + INTRA:          -4.367
REMARK INTER:                  -4.367
REMARK INTRA:                   0.000
REMARK UNBOUND:                 0.000
REMARK SMILES c1ccc2ccccc2c1
REMARK SMILES IDX 2 1 1 2 10 3 9 4 8 5 7 6 6 7 5 8 4 9 3 10
REMARK H PARENT
REMARK Flexibility Score: inf
ROOT
ATOM      1  C   UNL     1       5.018   6.413 -30.037  1.00  0.00     0.001 A 
ATOM      2  C   UNL     1       3.984   5.744 -29.375  1.00  0.00     0.001 A 
ATOM      3  C   UNL     1       3.255   4.748 -30.032  1.00  0.00     0.009 A 
ATOM      4  C   UNL     1       3.558   4.415 -31.361  1.00  0.00    -0.018 A 
ATOM      5  C   UNL     1       2.834   3.417 -32.033  1.00  0.00     0.009 A 
ATOM      6  C   UNL     1       3.146   3.095 -33.356  1.00  0.00     0.001 A 
ATOM      7  C   UNL     1       4.180   3.763 -34.018  1.00  0.00     0.001 A 
ATOM      8  C   UNL     1       4.909   4.759 -33.362  1.00  0.00     0.009 A 
ATOM      9  C   UNL     1       4.606   5.093 -32.032  1.00  0.00    -0.018 A 
ATOM     10  C   UNL     1       5.330   6.090 -31.361  1.00  0.00     0.009 A 
ENDROOT
TORSDOF 0
ENDMDL
