MODEL 1
REMARK VINA RESULT:    -3.518      0.000      0.000
REMARK INTER + INTRA:          -6.004
REMARK INTER:                  -4.752
REMARK INTRA:                  -1.252
REMARK UNBOUND:                -1.252
REMARK SMILES CC(=O)CCC=C(C)CCC=C(C)C
REMARK SMILES IDX 7 1 6 2 8 3 9 4 10 5 11 6 13 7 12 8 14 9 5 10 4 11 2 12 3 13
REMARK SMILES IDX 1 14
REMARK H PARENT
REMARK Flexibility Score: inf
ROOT
ATOM      1  C   UNL     1      26.249 -10.095   6.384  1.00  0.00    -0.077 C 
ATOM      2  C   UNL     1      26.067 -11.384   6.751  1.00  0.00    -0.028 C 
ATOM      3  C   UNL     1      25.585  -8.954   7.121  1.00  0.00     0.039 C 
ENDROOT
BRANCH   1   4
ATOM      4  C   UNL     1      27.125  -9.787   5.190  1.00  0.00     0.034 C 
BRANCH   4   5
ATOM      5  C   UNL     1      26.950 -10.849   4.099  1.00  0.00     0.032 C 
BRANCH   5   6
ATOM      6  C   UNL     1      25.876 -10.441   3.122  1.00  0.00    -0.028 C 
ATOM      7  C   UNL     1      24.497 -12.491   3.536  1.00  0.00     0.039 C 
ATOM      8  C   UNL     1      24.755 -11.156   2.878  1.00  0.00    -0.080 C 
ATOM      9  C   UNL     1      23.749 -10.602   1.902  1.00  0.00     0.039 C 
ENDBRANCH   5   6
ENDBRANCH   4   5
ENDBRANCH   1   4
BRANCH   2  10
ATOM     10  C   UNL     1      25.253 -11.831   7.942  1.00  0.00     0.035 C 
BRANCH  10  11
ATOM     11  C   UNL     1      24.134 -12.799   7.538  1.00  0.00     0.079 C 
BRANCH  11  12
ATOM     12  C   UNL     1      22.806 -12.097   7.426  1.00  0.00     0.130 C 
ATOM     13  O   UNL     1      21.898 -12.397   8.187  1.00  0.00    -0.300 OA
ATOM     14  C   UNL     1      22.565 -11.062   6.369  1.00  0.00     0.087 C 
ENDBRANCH  11  12
ENDBRANCH  10  11
ENDBRANCH   2  10
TORSDOF 6
ENDMDL
MODEL 2
REMARK VINA RESULT:    -3.381      1.744      3.211
REMARK INTER + INTRA:          -5.819
REMARK INTER:                  -4.587
REMARK INTRA:                  -1.232
REMARK UNBOUND:                -1.252
REMARK SMILES CC(=O)CCC=C(C)CCC=C(C)C
REMARK SMILES IDX 7 1 6 2 8 3 9 4 10 5 11 6 13 7 12 8 14 9 5 10 4 11 2 12 3 13
REMARK SMILES IDX 1 14
REMARK H PARENT
REMARK Flexibility Score: inf
ROOT
ATOM      1  C   UNL     1      23.760 -12.290   6.240  1.00  0.00    -0.077 C 
ATOM      2  C   UNL     1      24.961 -12.602   6.777  1.00  0.00    -0.028 C 
ATOM      3  C   UNL     1      22.733 -11.480   6.997  1.00  0.00     0.039 C 
ENDROOT
BRANCH   1   4
ATOM      4  C   UNL     1      23.427 -12.784   4.849  1.00  0.00     0.034 C 
BRANCH   4   5
ATOM      5  C   UNL     1      24.702 -13.015   4.033  1.00  0.00     0.032 C 
BRANCH   5   6
ATOM      6  C   UNL     1      24.865 -11.947   2.979  1.00  0.00    -0.028 C 
ATOM      7  C   UNL     1      26.742 -10.813   4.189  1.00  0.00     0.039 C 
ATOM      8  C   UNL     1      25.793 -10.967   3.023  1.00  0.00    -0.080 C 
ATOM      9  C   UNL     1      25.862  -9.992   1.876  1.00  0.00     0.039 C 
ENDBRANCH   5   6
ENDBRANCH   4   5
ENDBRANCH   1   4
BRANCH   2  10
ATOM     10  C   UNL     1      25.439 -12.145   8.135  1.00  0.00     0.035 C 
BRANCH  10  11
ATOM     11  C   UNL     1      26.524 -11.067   8.026  1.00  0.00     0.079 C 
BRANCH  11  12
ATOM     12  C   UNL     1      25.950  -9.683   8.180  1.00  0.00     0.130 C 
ATOM     13  O   UNL     1      25.895  -9.172   9.288  1.00  0.00    -0.300 OA
ATOM     14  C   UNL     1      25.408  -8.935   7.000  1.00  0.00     0.087 C 
ENDBRANCH  11  12
ENDBRANCH  10  11
ENDBRANCH   2  10
TORSDOF 6
ENDMDL
MODEL 3
REMARK VINA RESULT:    -3.191      2.103      4.738
REMARK INTER + INTRA:          -5.562
REMARK INTER:                  -4.469
REMARK INTRA:                  -1.093
REMARK UNBOUND:                -1.252
REMARK SMILES CC(=O)CCC=C(C)CCC=C(C)C
REMARK SMILES IDX 7 1 6 2 8 3 9 4 10 5 11 6 13 7 12 8 14 9 5 10 4 11 2 12 3 13
REMARK SMILES IDX 1 14
REMARK H PARENT
REMARK Flexibility Score: inf
ROOT
ATOM      1  C   UNL     1      23.716 -12.402   6.739  1.00  0.00    -0.077 C 
ATOM      2  C   UNL     1      24.116 -12.679   5.476  1.00  0.00    -0.028 C 
ATOM      3  C   UNL     1      22.457 -11.615   7.022  1.00  0.00     0.039 C 
ENDROOT
BRANCH   1   4
ATOM      4  C   UNL     1      24.564 -12.875   7.899  1.00  0.00     0.034 C 
BRANCH   4   5
ATOM      5  C   UNL     1      25.903 -12.132   7.932  1.00  0.00     0.032 C 
BRANCH   5   6
ATOM      6  C   UNL     1      25.687 -10.638   7.930  1.00  0.00    -0.028 C 
ATOM      7  C   UNL     1      26.854 -10.311   5.738  1.00  0.00     0.039 C 
ATOM      8  C   UNL     1      26.086  -9.811   6.939  1.00  0.00    -0.080 C 
ATOM      9  C   UNL     1      25.765  -8.343   7.057  1.00  0.00     0.039 C 
ENDBRANCH   5   6
ENDBRANCH   4   5
ENDBRANCH   1   4
BRANCH   2  10
ATOM     10  C   UNL     1      23.348 -12.303   4.231  1.00  0.00     0.035 C 
BRANCH  10  11
ATOM     11  C   UNL     1      23.854 -10.987   3.626  1.00  0.00     0.079 C 
BRANCH  11  12
ATOM     12  C   UNL     1      24.766 -11.231   2.452  1.00  0.00     0.130 C 
ATOM     13  O   UNL     1      24.766 -12.321   1.902  1.00  0.00    -0.300 OA
ATOM     14  C   UNL     1      25.706 -10.167   1.971  1.00  0.00     0.087 C 
ENDBRANCH  11  12
ENDBRANCH  10  11
ENDBRANCH   2  10
TORSDOF 6
ENDMDL
MODEL 4
REMARK VINA RESULT:    -3.127      1.923      4.428
REMARK INTER + INTRA:          -5.475
REMARK INTER:                  -4.383
REMARK INTRA:                  -1.092
REMARK UNBOUND:                -1.252
REMARK SMILES CC(=O)CCC=C(C)CCC=C(C)C
REMARK SMILES IDX 7 1 6 2 8 3 9 4 10 5 11 6 13 7 12 8 14 9 5 10 4 11 2 12 3 13
REMARK SMILES IDX 1 14
REMARK H PARENT
REMARK Flexibility Score: inf
ROOT
ATOM      1  C   UNL     1      26.289 -10.588   6.704  1.00  0.00    -0.077 C 
ATOM      2  C   UNL     1      26.923 -10.966   5.570  1.00  0.00    -0.028 C 
ATOM      3  C   UNL     1      25.759  -9.185   6.893  1.00  0.00     0.039 C 
ENDROOT
BRANCH   1   4
ATOM      4  C   UNL     1      26.126 -11.592   7.824  1.00  0.00     0.034 C 
BRANCH   4   5
ATOM      5  C   UNL     1      25.161 -12.709   7.416  1.00  0.00     0.032 C 
BRANCH   5   6
ATOM      6  C   UNL     1      23.756 -12.394   7.866  1.00  0.00    -0.028 C 
ATOM      7  C   UNL     1      23.070 -11.498   5.629  1.00  0.00     0.039 C 
ATOM      8  C   UNL     1      22.798 -11.873   7.067  1.00  0.00    -0.080 C 
ATOM      9  C   UNL     1      21.425 -11.648   7.647  1.00  0.00     0.039 C 
ENDBRANCH   5   6
ENDBRANCH   4   5
ENDBRANCH   1   4
BRANCH   2  10
ATOM     10  C   UNL     1      27.122 -10.080   4.363  1.00  0.00     0.035 C 
BRANCH  10  11
ATOM     11  C   UNL     1      27.058 -10.878   3.054  1.00  0.00     0.079 C 
BRANCH  11  12
ATOM     12  C   UNL     1      25.666 -11.385   2.780  1.00  0.00     0.130 C 
ATOM     13  O   UNL     1      25.427 -12.578   2.885  1.00  0.00    -0.300 OA
ATOM     14  C   UNL     1      24.577 -10.453   2.342  1.00  0.00     0.087 C 
ENDBRANCH  11  12
ENDBRANCH  10  11
ENDBRANCH   2  10
TORSDOF 6
ENDMDL
MODEL 5
REMARK VINA RESULT:    -3.020     21.686     23.303
REMARK INTER + INTRA:          -5.332
REMARK INTER:                  -4.801
REMARK INTRA:                  -0.531
REMARK UNBOUND:                -1.252
REMARK SMILES CC(=O)CCC=C(C)CCC=C(C)C
REMARK SMILES IDX 7 1 6 2 8 3 9 4 10 5 11 6 13 7 12 8 14 9 5 10 4 11 2 12 3 13
REMARK SMILES IDX 1 14
REMARK H PARENT
REMARK Flexibility Score: inf
ROOT
ATOM      1  C   UNL     1      22.903   6.832  20.523  1.00  0.00    -0.077 C 
ATOM      2  C   UNL     1      23.760   6.855  19.476  1.00  0.00    -0.028 C 
ATOM      3  C   UNL     1      23.387   6.687  21.947  1.00  0.00     0.039 C 
ENDROOT
BRANCH   1   4
ATOM      4  C   UNL     1      21.417   6.934  20.258  1.00  0.00     0.034 C 
BRANCH   4   5
ATOM      5  C   UNL     1      20.634   6.000  21.186  1.00  0.00     0.032 C 
BRANCH   5   6
ATOM      6  C   UNL     1      19.168   6.359  21.193  1.00  0.00    -0.028 C 
ATOM      7  C   UNL     1      18.567   4.601  19.512  1.00  0.00     0.039 C 
ATOM      8  C   UNL     1      18.224   5.722  20.465  1.00  0.00    -0.080 C 
ATOM      9  C   UNL     1      16.790   6.166  20.605  1.00  0.00     0.039 C 
ENDBRANCH   5   6
ENDBRANCH   4   5
ENDBRANCH   1   4
BRANCH   2  10
ATOM     10  C   UNL     1      25.265   6.800  19.598  1.00  0.00     0.035 C 
BRANCH  10  11
ATOM     11  C   UNL     1      25.793   5.363  19.510  1.00  0.00     0.079 C 
BRANCH  11  12
ATOM     12  C   UNL     1      26.678   5.024  20.681  1.00  0.00     0.130 C 
ATOM     13  O   UNL     1      27.065   5.914  21.423  1.00  0.00    -0.300 OA
ATOM     14  C   UNL     1      27.125   3.616  20.930  1.00  0.00     0.087 C 
ENDBRANCH  11  12
ENDBRANCH  10  11
ENDBRANCH   2  10
TORSDOF 6
ENDMDL
MODEL 6
REMARK VINA RESULT:    -2.797      1.266      2.051
REMARK INTER + INTRA:          -5.030
REMARK INTER:                  -4.219
REMARK INTRA:                  -0.810
REMARK UNBOUND:                -1.252
REMARK SMILES CC(=O)CCC=C(C)CCC=C(C)C
REMARK SMILES IDX 7 1 6 2 8 3 9 4 10 5 11 6 13 7 12 8 14 9 5 10 4 11 2 12 3 13
REMARK SMILES IDX 1 14
REMARK H PARENT
REMARK Flexibility Score: inf
ROOT
ATOM      1  C   UNL     1      26.288 -10.528   5.199  1.00  0.00    -0.077 C 
ATOM      2  C   UNL     1      25.114  -9.865   5.297  1.00  0.00    -0.028 C 
ATOM      3  C   UNL     1      26.799 -11.416   6.310  1.00  0.00     0.039 C 
ENDROOT
BRANCH   1   4
ATOM      4  C   UNL     1      27.125 -10.360   3.950  1.00  0.00     0.034 C 
BRANCH   4   5
ATOM      5  C   UNL     1      26.258 -10.487   2.693  1.00  0.00     0.032 C 
BRANCH   5   6
ATOM      6  C   UNL     1      25.392 -11.721   2.764  1.00  0.00    -0.028 C 
ATOM      7  C   UNL     1      23.363 -10.540   1.889  1.00  0.00     0.039 C 
ATOM      8  C   UNL     1      24.096 -11.766   2.382  1.00  0.00    -0.080 C 
ATOM      9  C   UNL     1      23.367 -13.081   2.472  1.00  0.00     0.039 C 
ENDBRANCH   5   6
ENDBRANCH   4   5
ENDBRANCH   1   4
BRANCH   2  10
ATOM     10  C   UNL     1      24.163  -9.971   6.467  1.00  0.00     0.035 C 
BRANCH  10  11
ATOM     11  C   UNL     1      22.950 -10.849   6.139  1.00  0.00     0.079 C 
BRANCH  11  12
ATOM     12  C   UNL     1      22.672 -11.844   7.235  1.00  0.00     0.130 C 
ATOM     13  O   UNL     1      23.501 -12.702   7.497  1.00  0.00    -0.300 OA
ATOM     14  C   UNL     1      21.375 -11.823   7.986  1.00  0.00     0.087 C 
ENDBRANCH  11  12
ENDBRANCH  10  11
ENDBRANCH   2  10
TORSDOF 6
ENDMDL
MODEL 7
REMARK VINA RESULT:    -2.788      1.938      4.268
REMARK INTER + INTRA:          -5.018
REMARK INTER:                  -3.830
REMARK INTRA:                  -1.188
REMARK UNBOUND:                -1.252
REMARK SMILES CC(=O)CCC=C(C)CCC=C(C)C
REMARK SMILES IDX 7 1 6 2 8 3 9 4 10 5 11 6 13 7 12 8 14 9 5 10 4 11 2 12 3 13
REMARK SMILES IDX 1 14
REMARK H PARENT
REMARK Flexibility Score: inf
ROOT
ATOM      1  C   UNL     1      26.943 -10.534   5.348  1.00  0.00    -0.077 C 
ATOM      2  C   UNL     1      26.824 -10.188   4.046  1.00  0.00    -0.028 C 
ATOM      3  C   UNL     1      27.125 -11.971   5.779  1.00  0.00     0.039 C 
ENDROOT
BRANCH   1   4
ATOM      4  C   UNL     1      26.872  -9.453   6.405  1.00  0.00     0.034 C 
BRANCH   4   5
ATOM      5  C   UNL     1      25.754  -9.747   7.409  1.00  0.00     0.032 C 
BRANCH   5   6
ATOM      6  C   UNL     1      24.424  -9.876   6.708  1.00  0.00    -0.028 C 
ATOM      7  C   UNL     1      24.026 -12.202   7.548  1.00  0.00     0.039 C 
ATOM      8  C   UNL     1      23.625 -10.963   6.782  1.00  0.00    -0.080 C 
ATOM      9  C   UNL     1      22.303 -10.932   6.059  1.00  0.00     0.039 C 
ENDBRANCH   5   6
ENDBRANCH   4   5
ENDBRANCH   1   4
BRANCH   2  10
ATOM     10  C   UNL     1      26.915 -11.156   2.890  1.00  0.00     0.035 C 
BRANCH  10  11
ATOM     11  C   UNL     1      25.760 -10.969   1.897  1.00  0.00     0.079 C 
BRANCH  11  12
ATOM     12  C   UNL     1      24.432 -11.303   2.523  1.00  0.00     0.130 C 
ATOM     13  O   UNL     1      23.490 -10.537   2.385  1.00  0.00    -0.300 OA
ATOM     14  C   UNL     1      24.255 -12.543   3.347  1.00  0.00     0.087 C 
ENDBRANCH  11  12
ENDBRANCH  10  11
ENDBRANCH   2  10
TORSDOF 6
ENDMDL
MODEL 8
REMARK VINA RESULT:    -1.998     22.129     23.619
REMARK INTER + INTRA:          -3.950
REMARK INTER:                  -3.953
REMARK INTRA:                   0.003
REMARK UNBOUND:                -1.252
REMARK SMILES CC(=O)CCC=C(C)CCC=C(C)C
REMARK SMILES IDX 7 1 6 2 8 3 9 4 10 5 11 6 13 7 12 8 14 9 5 10 4 11 2 12 3 13
REMARK SMILES IDX 1 14
REMARK H PARENT
REMARK Flexibility Score: inf
ROOT
ATOM      1  C   UNL     1      20.748   6.241  20.945  1.00  0.00    -0.077 C 
ATOM      2  C   UNL     1      20.188   5.478  19.978  1.00  0.00    -0.028 C 
ATOM      3  C   UNL     1      19.951   6.746  22.125  1.00  0.00     0.039 C 
ENDROOT
BRANCH   1   4
ATOM      4  C   UNL     1      22.209   6.616  20.830  1.00  0.00     0.034 C 
BRANCH   4   5
ATOM      5  C   UNL     1      23.101   5.378  20.965  1.00  0.00     0.032 C 
BRANCH   5   6
ATOM      6  C   UNL     1      24.403   5.728  21.644  1.00  0.00    -0.028 C 
ATOM      7  C   UNL     1      25.728   5.596  19.522  1.00  0.00     0.039 C 
ATOM      8  C   UNL     1      25.586   5.854  21.004  1.00  0.00    -0.080 C 
ATOM      9  C   UNL     1      26.798   6.248  21.809  1.00  0.00     0.039 C 
ENDBRANCH   5   6
ENDBRANCH   4   5
ENDBRANCH   1   4
BRANCH   2  10
ATOM     10  C   UNL     1      18.755   4.999  19.985  1.00  0.00     0.035 C 
BRANCH  10  11
ATOM     11  C   UNL     1      17.772   6.135  19.676  1.00  0.00     0.079 C 
BRANCH  11  12
ATOM     12  C   UNL     1      16.801   6.351  20.807  1.00  0.00     0.130 C 
ATOM     13  O   UNL     1      15.867   7.125  20.661  1.00  0.00    -0.300 OA
ATOM     14  C   UNL     1      16.982   5.661  22.125  1.00  0.00     0.087 C 
ENDBRANCH  11  12
ENDBRANCH  10  11
ENDBRANCH   2  10
TORSDOF 6
ENDMDL
