MODEL 1
REMARK VINA RESULT:    -4.134      0.000      0.000
REMARK INTER + INTRA:          -4.799
REMARK INTER:                  -4.617
REMARK INTRA:                  -0.182
REMARK UNBOUND:                -0.182
REMARK SMILES CC(C)c1ccc(C=O)cc1
REMARK SMILES IDX 4 1 5 2 6 3 7 4 10 5 11 6 2 7 1 8 3 9 8 10 9 11
REMARK H PARENT
REMARK Flexibility Score: inf
ROOT
ATOM      1  C   UNL     1     -31.385 -21.152 -33.364  1.00  0.00    -0.045 A 
ATOM      2  C   UNL     1     -32.165 -20.089 -33.856  1.00  0.00     0.005 A 
ATOM      3  C   UNL     1     -33.047 -20.289 -34.922  1.00  0.00     0.012 A 
ATOM      4  C   UNL     1     -33.167 -21.554 -35.517  1.00  0.00     0.014 A 
ATOM      5  C   UNL     1     -32.389 -22.618 -35.029  1.00  0.00     0.012 A 
ATOM      6  C   UNL     1     -31.508 -22.417 -33.962  1.00  0.00     0.005 A 
ENDROOT
BRANCH   1   7
ATOM      7  C   UNL     1     -30.424 -20.948 -32.207  1.00  0.00     0.013 C 
ATOM      8  C   UNL     1     -29.011 -20.637 -32.710  1.00  0.00     0.012 C 
ATOM      9  C   UNL     1     -30.423 -22.161 -31.269  1.00  0.00     0.012 C 
ENDBRANCH   1   7
BRANCH   4  10
ATOM     10  C   UNL     1     -34.102 -21.746 -36.640  1.00  0.00     0.260 C 
ATOM     11  O   UNL     1     -33.688 -22.096 -37.778  1.00  0.00    -0.298 OA
ENDBRANCH   4  10
TORSDOF 2
ENDMDL
MODEL 2
REMARK VINA RESULT:    -4.129      0.023      1.461
REMARK INTER + INTRA:          -4.794
REMARK INTER:                  -4.613
REMARK INTRA:                  -0.180
REMARK UNBOUND:                -0.182
REMARK SMILES CC(C)c1ccc(C=O)cc1
REMARK SMILES IDX 4 1 5 2 6 3 7 4 10 5 11 6 2 7 1 8 3 9 8 10 9 11
REMARK H PARENT
REMARK Flexibility Score: inf
ROOT
ATOM      1  C   UNL     1     -31.379 -21.161 -33.359  1.00  0.00    -0.045 A 
ATOM      2  C   UNL     1     -31.503 -22.426 -33.965  1.00  0.00     0.005 A 
ATOM      3  C   UNL     1     -32.386 -22.618 -35.032  1.00  0.00     0.012 A 
ATOM      4  C   UNL     1     -33.160 -21.552 -35.514  1.00  0.00     0.014 A 
ATOM      5  C   UNL     1     -33.039 -20.289 -34.912  1.00  0.00     0.012 A 
ATOM      6  C   UNL     1     -32.156 -20.097 -33.845  1.00  0.00     0.005 A 
ENDROOT
BRANCH   1   7
ATOM      7  C   UNL     1     -30.424 -20.939 -32.200  1.00  0.00     0.013 C 
ATOM      8  C   UNL     1     -29.009 -20.629 -32.701  1.00  0.00     0.012 C 
ATOM      9  C   UNL     1     -30.423 -22.140 -31.247  1.00  0.00     0.012 C 
ENDBRANCH   1   7
BRANCH   4  10
ATOM     10  C   UNL     1     -34.085 -21.775 -36.641  1.00  0.00     0.260 C 
ATOM     11  O   UNL     1     -33.654 -22.057 -37.790  1.00  0.00    -0.298 OA
ENDBRANCH   4  10
TORSDOF 2
ENDMDL
MODEL 3
REMARK VINA RESULT:    -3.856      2.516      4.887
REMARK INTER + INTRA:          -4.489
REMARK INTER:                  -4.299
REMARK INTRA:                  -0.189
REMARK UNBOUND:                -0.182
REMARK SMILES CC(C)c1ccc(C=O)cc1
REMARK SMILES IDX 4 1 5 2 6 3 7 4 10 5 11 6 2 7 1 8 3 9 8 10 9 11
REMARK H PARENT
REMARK Flexibility Score: inf
ROOT
ATOM      1  C   UNL     1     -32.764 -22.191 -35.494  1.00  0.00    -0.045 A 
ATOM      2  C   UNL     1     -31.808 -22.814 -34.671  1.00  0.00     0.005 A 
ATOM      3  C   UNL     1     -31.212 -22.113 -33.619  1.00  0.00     0.012 A 
ATOM      4  C   UNL     1     -31.558 -20.777 -33.370  1.00  0.00     0.014 A 
ATOM      5  C   UNL     1     -32.512 -20.151 -34.190  1.00  0.00     0.012 A 
ATOM      6  C   UNL     1     -33.108 -20.852 -35.241  1.00  0.00     0.005 A 
ENDROOT
BRANCH   1   7
ATOM      7  C   UNL     1     -33.420 -22.941 -36.639  1.00  0.00     0.013 C 
ATOM      8  C   UNL     1     -32.763 -24.310 -36.852  1.00  0.00     0.012 C 
ATOM      9  C   UNL     1     -33.398 -22.112 -37.928  1.00  0.00     0.012 C 
ENDBRANCH   1   7
BRANCH   4  10
ATOM     10  C   UNL     1     -30.918 -20.054 -32.256  1.00  0.00     0.260 C 
ATOM     11  O   UNL     1     -31.128 -20.386 -31.058  1.00  0.00    -0.298 OA
ENDBRANCH   4  10
TORSDOF 2
ENDMDL
MODEL 4
REMARK VINA RESULT:    -3.381      2.884      4.798
REMARK INTER + INTRA:          -3.958
REMARK INTER:                  -3.768
REMARK INTRA:                  -0.190
REMARK UNBOUND:                -0.182
REMARK SMILES CC(C)c1ccc(C=O)cc1
REMARK SMILES IDX 4 1 5 2 6 3 7 4 10 5 11 6 2 7 1 8 3 9 8 10 9 11
REMARK H PARENT
REMARK Flexibility Score: inf
ROOT
ATOM      1  C   UNL     1     -31.862 -21.611 -34.249  1.00  0.00    -0.045 A 
ATOM      2  C   UNL     1     -31.999 -20.284 -33.801  1.00  0.00     0.005 A 
ATOM      3  C   UNL     1     -31.415 -19.877 -32.598  1.00  0.00     0.012 A 
ATOM      4  C   UNL     1     -30.683 -20.786 -31.821  1.00  0.00     0.014 A 
ATOM      5  C   UNL     1     -30.545 -22.112 -32.264  1.00  0.00     0.012 A 
ATOM      6  C   UNL     1     -31.129 -22.519 -33.467  1.00  0.00     0.005 A 
ENDROOT
BRANCH   1   7
ATOM      7  C   UNL     1     -32.492 -22.066 -35.553  1.00  0.00     0.013 C 
ATOM      8  C   UNL     1     -33.859 -21.407 -35.767  1.00  0.00     0.012 C 
ATOM      9  C   UNL     1     -32.599 -23.594 -35.612  1.00  0.00     0.012 C 
ENDBRANCH   1   7
BRANCH   4  10
ATOM     10  C   UNL     1     -30.075 -20.338 -30.555  1.00  0.00     0.260 C 
ATOM     11  O   UNL     1     -28.891 -19.907 -30.519  1.00  0.00    -0.298 OA
ENDBRANCH   4  10
TORSDOF 2
ENDMDL
MODEL 5
REMARK VINA RESULT:    -3.214      3.880      5.209
REMARK INTER + INTRA:          -3.772
REMARK INTER:                  -3.595
REMARK INTRA:                  -0.177
REMARK UNBOUND:                -0.182
REMARK SMILES CC(C)c1ccc(C=O)cc1
REMARK SMILES IDX 4 1 5 2 6 3 7 4 10 5 11 6 2 7 1 8 3 9 8 10 9 11
REMARK H PARENT
REMARK Flexibility Score: inf
ROOT
ATOM      1  C   UNL     1     -32.042 -23.807 -36.625  1.00  0.00    -0.045 A 
ATOM      2  C   UNL     1     -33.129 -24.701 -36.596  1.00  0.00     0.005 A 
ATOM      3  C   UNL     1     -33.132 -25.841 -37.405  1.00  0.00     0.012 A 
ATOM      4  C   UNL     1     -32.051 -26.111 -38.256  1.00  0.00     0.014 A 
ATOM      5  C   UNL     1     -30.964 -25.221 -38.288  1.00  0.00     0.012 A 
ATOM      6  C   UNL     1     -30.961 -24.081 -37.480  1.00  0.00     0.005 A 
ENDROOT
BRANCH   1   7
ATOM      7  C   UNL     1     -32.026 -22.565 -35.752  1.00  0.00     0.013 C 
ATOM      8  C   UNL     1     -31.745 -22.922 -34.288  1.00  0.00     0.012 C 
ATOM      9  C   UNL     1     -33.335 -21.778 -35.887  1.00  0.00     0.012 C 
ENDBRANCH   1   7
BRANCH   4  10
ATOM     10  C   UNL     1     -32.072 -27.319 -39.101  1.00  0.00     0.260 C 
ATOM     11  O   UNL     1     -31.494 -28.377 -38.738  1.00  0.00    -0.298 OA
ENDBRANCH   4  10
TORSDOF 2
ENDMDL
MODEL 6
REMARK VINA RESULT:    -3.159      3.585      5.107
REMARK INTER + INTRA:          -3.710
REMARK INTER:                  -3.525
REMARK INTRA:                  -0.185
REMARK UNBOUND:                -0.182
REMARK SMILES CC(C)c1ccc(C=O)cc1
REMARK SMILES IDX 4 1 5 2 6 3 7 4 10 5 11 6 2 7 1 8 3 9 8 10 9 11
REMARK H PARENT
REMARK Flexibility Score: inf
ROOT
ATOM      1  C   UNL     1     -33.285 -22.336 -37.254  1.00  0.00    -0.045 A 
ATOM      2  C   UNL     1     -32.546 -22.397 -38.450  1.00  0.00     0.005 A 
ATOM      3  C   UNL     1     -31.823 -23.547 -38.779  1.00  0.00     0.012 A 
ATOM      4  C   UNL     1     -31.824 -24.657 -37.922  1.00  0.00     0.014 A 
ATOM      5  C   UNL     1     -32.561 -24.599 -36.727  1.00  0.00     0.012 A 
ATOM      6  C   UNL     1     -33.284 -23.449 -36.397  1.00  0.00     0.005 A 
ENDROOT
BRANCH   1   7
ATOM      7  C   UNL     1     -34.075 -21.093 -36.884  1.00  0.00     0.013 C 
ATOM      8  C   UNL     1     -34.121 -20.100 -38.051  1.00  0.00     0.012 C 
ATOM      9  C   UNL     1     -33.510 -20.435 -35.620  1.00  0.00     0.012 C 
ENDBRANCH   1   7
BRANCH   4  10
ATOM     10  C   UNL     1     -31.055 -25.860 -38.286  1.00  0.00     0.260 C 
ATOM     11  O   UNL     1     -31.623 -26.976 -38.430  1.00  0.00    -0.298 OA
ENDBRANCH   4  10
TORSDOF 2
ENDMDL
MODEL 7
REMARK VINA RESULT:    -3.144      2.894      4.956
REMARK INTER + INTRA:          -3.693
REMARK INTER:                  -3.512
REMARK INTRA:                  -0.181
REMARK UNBOUND:                -0.182
REMARK SMILES CC(C)c1ccc(C=O)cc1
REMARK SMILES IDX 4 1 5 2 6 3 7 4 10 5 11 6 2 7 1 8 3 9 8 10 9 11
REMARK H PARENT
REMARK Flexibility Score: inf
ROOT
ATOM      1  C   UNL     1     -32.517 -23.910 -37.280  1.00  0.00    -0.045 A 
ATOM      2  C   UNL     1     -33.094 -22.786 -37.901  1.00  0.00     0.005 A 
ATOM      3  C   UNL     1     -33.404 -21.644 -37.157  1.00  0.00     0.012 A 
ATOM      4  C   UNL     1     -33.142 -21.602 -35.780  1.00  0.00     0.014 A 
ATOM      5  C   UNL     1     -32.567 -22.722 -35.156  1.00  0.00     0.012 A 
ATOM      6  C   UNL     1     -32.257 -23.864 -35.900  1.00  0.00     0.005 A 
ENDROOT
BRANCH   1   7
ATOM      7  C   UNL     1     -32.176 -25.156 -38.077  1.00  0.00     0.013 C 
ATOM      8  C   UNL     1     -33.022 -26.351 -37.622  1.00  0.00     0.012 C 
ATOM      9  C   UNL     1     -30.679 -25.474 -37.993  1.00  0.00     0.012 C 
ENDBRANCH   1   7
BRANCH   4  10
ATOM     10  C   UNL     1     -33.476 -20.389 -35.011  1.00  0.00     0.260 C 
ATOM     11  O   UNL     1     -32.647 -19.877 -34.211  1.00  0.00    -0.298 OA
ENDBRANCH   4  10
TORSDOF 2
ENDMDL
MODEL 8
REMARK VINA RESULT:    -3.084      4.620      6.763
REMARK INTER + INTRA:          -3.626
REMARK INTER:                  -3.436
REMARK INTRA:                  -0.190
REMARK UNBOUND:                -0.182
REMARK SMILES CC(C)c1ccc(C=O)cc1
REMARK SMILES IDX 4 1 5 2 6 3 7 4 10 5 11 6 2 7 1 8 3 9 8 10 9 11
REMARK H PARENT
REMARK Flexibility Score: inf
ROOT
ATOM      1  C   UNL     1     -32.361 -26.284 -38.199  1.00  0.00    -0.045 A 
ATOM      2  C   UNL     1     -33.353 -25.832 -37.308  1.00  0.00     0.005 A 
ATOM      3  C   UNL     1     -33.121 -24.722 -36.491  1.00  0.00     0.012 A 
ATOM      4  C   UNL     1     -31.895 -24.043 -36.548  1.00  0.00     0.014 A 
ATOM      5  C   UNL     1     -30.903 -24.491 -37.436  1.00  0.00     0.012 A 
ATOM      6  C   UNL     1     -31.135 -25.601 -38.253  1.00  0.00     0.005 A 
ENDROOT
BRANCH   1   7
ATOM      7  C   UNL     1     -32.601 -27.488 -39.092  1.00  0.00     0.013 C 
ATOM      8  C   UNL     1     -34.006 -28.063 -38.880  1.00  0.00     0.012 C 
ATOM      9  C   UNL     1     -31.527 -28.560 -38.875  1.00  0.00     0.012 C 
ENDBRANCH   1   7
BRANCH   4  10
ATOM     10  C   UNL     1     -31.669 -22.874 -35.678  1.00  0.00     0.260 C 
ATOM     11  O   UNL     1     -32.126 -22.839 -34.504  1.00  0.00    -0.298 OA
ENDBRANCH   4  10
TORSDOF 2
ENDMDL
