MODEL 1
REMARK VINA RESULT:    -3.977      0.000      0.000
REMARK INTER + INTRA:         -15.688
REMARK INTER:                 -10.487
REMARK INTRA:                  -5.200
REMARK UNBOUND:                -5.200
REMARK SMILES CCCCCCCCCCCCCCCCCCCCCCCCCCCCCC(=O)[O-]
REMARK SMILES IDX 16 1 17 2 18 3 19 4 20 5 21 6 22 7 23 8 24 9 25 10 26 11
REMARK SMILES IDX 27 12 28 13 29 14 30 15 31 16 32 17 15 18 14 19 13 20 12 21
REMARK SMILES IDX 11 22 10 23 9 24 8 25 7 26 6 27 5 28 4 29 3 30 2 31 1 32
REMARK H PARENT
REMARK Flexibility Score: inf
ROOT
ATOM      1  C   UNL     1      27.546  24.684 -18.232  1.00  0.00     0.000 C 
ENDROOT
BRANCH   1   2
ATOM      2  C   UNL     1      26.701  24.502 -19.499  1.00  0.00     0.000 C 
BRANCH   2   3
ATOM      3  C   UNL     1      27.434  23.628 -20.525  1.00  0.00     0.000 C 
BRANCH   3   4
ATOM      4  C   UNL     1      28.867  23.270 -20.095  1.00  0.00     0.000 C 
BRANCH   4   5
ATOM      5  C   UNL     1      29.176  21.759 -20.121  1.00  0.00     0.000 C 
BRANCH   5   6
ATOM      6  C   UNL     1      29.893  21.273 -18.848  1.00  0.00     0.000 C 
BRANCH   6   7
ATOM      7  C   UNL     1      29.116  21.661 -17.576  1.00  0.00     0.000 C 
BRANCH   7   8
ATOM      8  C   UNL     1      30.003  22.403 -16.553  1.00  0.00     0.000 C 
BRANCH   8   9
ATOM      9  C   UNL     1      31.507  22.238 -16.838  1.00  0.00     0.000 C 
BRANCH   9  10
ATOM     10  C   UNL     1      32.259  23.567 -17.050  1.00  0.00     0.000 C 
BRANCH  10  11
ATOM     11  C   UNL     1      32.182  24.143 -18.479  1.00  0.00     0.000 C 
BRANCH  11  12
ATOM     12  C   UNL     1      32.426  25.665 -18.554  1.00  0.00     0.000 C 
BRANCH  12  13
ATOM     13  C   UNL     1      33.725  26.085 -17.840  1.00  0.00     0.006 C 
BRANCH  13  14
ATOM     14  C   UNL     1      34.963  25.417 -18.454  1.00  0.00     0.053 C 
BRANCH  14  15
ATOM     15  C   UNL     1      35.274  25.955 -19.820  1.00  0.00     0.041 C 
ATOM     16  O   UNL     1      35.327  27.197 -20.014  1.00  0.00    -0.550 OA
ATOM     17  O   UNL     1      35.534  25.081 -20.869  1.00  0.00    -0.550 OA
ENDBRANCH  14  15
ENDBRANCH  13  14
ENDBRANCH  12  13
ENDBRANCH  11  12
ENDBRANCH  10  11
ENDBRANCH   9  10
ENDBRANCH   8   9
ENDBRANCH   7   8
ENDBRANCH   6   7
ENDBRANCH   5   6
ENDBRANCH   4   5
ENDBRANCH   3   4
ENDBRANCH   2   3
ENDBRANCH   1   2
BRANCH   1  18
ATOM     18  C   UNL     1      26.682  25.086 -17.023  1.00  0.00     0.000 C 
BRANCH  18  19
ATOM     19  C   UNL     1      27.402  24.842 -15.686  1.00  0.00     0.000 C 
BRANCH  19  20
ATOM     20  C   UNL     1      26.916  25.782 -14.569  1.00  0.00     0.000 C 
BRANCH  20  21
ATOM     21  C   UNL     1      27.794  25.694 -13.312  1.00  0.00     0.000 C 
BRANCH  21  22
ATOM     22  C   UNL     1      28.634  24.401 -13.248  1.00  0.00     0.000 C 
BRANCH  22  23
ATOM     23  C   UNL     1      29.972  24.597 -12.506  1.00  0.00     0.000 C 
BRANCH  23  24
ATOM     24  C   UNL     1      31.199  24.704 -13.434  1.00  0.00    -0.000 C 
BRANCH  24  25
ATOM     25  C   UNL     1      31.689  26.148 -13.652  1.00  0.00    -0.000 C 
BRANCH  25  26
ATOM     26  C   UNL     1      31.546  26.606 -15.114  1.00  0.00    -0.000 C 
BRANCH  26  27
ATOM     27  C   UNL     1      30.255  27.411 -15.335  1.00  0.00    -0.000 C 
BRANCH  27  28
ATOM     28  C   UNL     1      29.836  27.488 -16.817  1.00  0.00    -0.000 C 
BRANCH  28  29
ATOM     29  C   UNL     1      29.085  28.795 -17.164  1.00  0.00    -0.000 C 
BRANCH  29  30
ATOM     30  C   UNL     1      27.556  28.609 -17.209  1.00  0.00    -0.000 C 
BRANCH  30  31
ATOM     31  C   UNL     1      26.815  29.922 -17.521  1.00  0.00    -0.003 C 
ATOM     32  C   UNL     1      26.824  30.265 -19.012  1.00  0.00     0.004 C 
ENDBRANCH  30  31
ENDBRANCH  29  30
ENDBRANCH  28  29
ENDBRANCH  27  28
ENDBRANCH  26  27
ENDBRANCH  25  26
ENDBRANCH  24  25
ENDBRANCH  23  24
ENDBRANCH  22  23
ENDBRANCH  21  22
ENDBRANCH  20  21
ENDBRANCH  19  20
ENDBRANCH  18  19
ENDBRANCH   1  18
TORSDOF 28
ENDMDL
MODEL 2
REMARK VINA RESULT:    -3.853      2.210      3.407
REMARK INTER + INTRA:         -15.360
REMARK INTER:                 -11.345
REMARK INTRA:                  -4.015
REMARK UNBOUND:                -5.200
REMARK SMILES CCCCCCCCCCCCCCCCCCCCCCCCCCCCCC(=O)[O-]
REMARK SMILES IDX 16 1 17 2 18 3 19 4 20 5 21 6 22 7 23 8 24 9 25 10 26 11
REMARK SMILES IDX 27 12 28 13 29 14 30 15 31 16 32 17 15 18 14 19 13 20 12 21
REMARK SMILES IDX 11 22 10 23 9 24 8 25 7 26 6 27 5 28 4 29 3 30 2 31 1 32
REMARK H PARENT
REMARK Flexibility Score: inf
ROOT
ATOM      1  C   UNL     1      27.734  24.558 -18.286  1.00  0.00     0.000 C 
ENDROOT
BRANCH   1   2
ATOM      2  C   UNL     1      27.329  23.752 -19.526  1.00  0.00     0.000 C 
BRANCH   2   3
ATOM      3  C   UNL     1      28.557  23.116 -20.191  1.00  0.00     0.000 C 
BRANCH   3   4
ATOM      4  C   UNL     1      29.885  23.715 -19.697  1.00  0.00     0.000 C 
BRANCH   4   5
ATOM      5  C   UNL     1      31.141  23.019 -20.259  1.00  0.00     0.000 C 
BRANCH   5   6
ATOM      6  C   UNL     1      32.166  24.011 -20.840  1.00  0.00     0.000 C 
BRANCH   6   7
ATOM      7  C   UNL     1      33.233  24.398 -19.800  1.00  0.00     0.000 C 
BRANCH   7   8
ATOM      8  C   UNL     1      33.044  25.840 -19.280  1.00  0.00     0.000 C 
BRANCH   8   9
ATOM      9  C   UNL     1      34.365  26.489 -18.830  1.00  0.00     0.000 C 
BRANCH   9  10
ATOM     10  C   UNL     1      35.172  27.136 -19.973  1.00  0.00     0.000 C 
BRANCH  10  11
ATOM     11  C   UNL     1      36.637  26.669 -20.086  1.00  0.00     0.000 C 
BRANCH  11  12
ATOM     12  C   UNL     1      37.646  27.589 -19.368  1.00  0.00     0.000 C 
BRANCH  12  13
ATOM     13  C   UNL     1      38.506  26.825 -18.342  1.00  0.00     0.006 C 
BRANCH  13  14
ATOM     14  C   UNL     1      37.711  26.459 -17.081  1.00  0.00     0.053 C 
BRANCH  14  15
ATOM     15  C   UNL     1      38.234  27.159 -15.861  1.00  0.00     0.041 C 
ATOM     16  O   UNL     1      38.375  26.528 -14.781  1.00  0.00    -0.550 OA
ATOM     17  O   UNL     1      38.593  28.499 -15.929  1.00  0.00    -0.550 OA
ENDBRANCH  14  15
ENDBRANCH  13  14
ENDBRANCH  12  13
ENDBRANCH  11  12
ENDBRANCH  10  11
ENDBRANCH   9  10
ENDBRANCH   8   9
ENDBRANCH   7   8
ENDBRANCH   6   7
ENDBRANCH   5   6
ENDBRANCH   4   5
ENDBRANCH   3   4
ENDBRANCH   2   3
ENDBRANCH   1   2
BRANCH   1  18
ATOM     18  C   UNL     1      26.509  24.976 -17.452  1.00  0.00     0.000 C 
BRANCH  18  19
ATOM     19  C   UNL     1      26.906  25.532 -16.073  1.00  0.00     0.000 C 
BRANCH  19  20
ATOM     20  C   UNL     1      26.939  24.447 -14.984  1.00  0.00     0.000 C 
BRANCH  20  21
ATOM     21  C   UNL     1      28.100  24.648 -13.998  1.00  0.00     0.000 C 
BRANCH  21  22
ATOM     22  C   UNL     1      28.111  26.050 -13.353  1.00  0.00     0.000 C 
BRANCH  22  23
ATOM     23  C   UNL     1      29.526  26.503 -12.939  1.00  0.00     0.000 C 
BRANCH  23  24
ATOM     24  C   UNL     1      30.659  25.609 -13.482  1.00  0.00    -0.000 C 
BRANCH  24  25
ATOM     25  C   UNL     1      31.789  26.392 -14.176  1.00  0.00    -0.000 C 
BRANCH  25  26
ATOM     26  C   UNL     1      32.039  25.915 -15.618  1.00  0.00    -0.000 C 
BRANCH  26  27
ATOM     27  C   UNL     1      30.722  25.706 -16.384  1.00  0.00    -0.000 C 
BRANCH  27  28
ATOM     28  C   UNL     1      30.289  26.945 -17.192  1.00  0.00    -0.000 C 
BRANCH  28  29
ATOM     29  C   UNL     1      29.397  27.913 -16.380  1.00  0.00    -0.000 C 
BRANCH  29  30
ATOM     30  C   UNL     1      28.824  29.056 -17.238  1.00  0.00    -0.000 C 
BRANCH  30  31
ATOM     31  C   UNL     1      27.312  28.901 -17.488  1.00  0.00    -0.003 C 
ATOM     32  C   UNL     1      26.709  30.102 -18.220  1.00  0.00     0.004 C 
ENDBRANCH  30  31
ENDBRANCH  29  30
ENDBRANCH  28  29
ENDBRANCH  27  28
ENDBRANCH  26  27
ENDBRANCH  25  26
ENDBRANCH  24  25
ENDBRANCH  23  24
ENDBRANCH  22  23
ENDBRANCH  21  22
ENDBRANCH  20  21
ENDBRANCH  19  20
ENDBRANCH  18  19
ENDBRANCH   1  18
TORSDOF 28
ENDMDL
MODEL 3
REMARK VINA RESULT:    -3.844      2.578      5.793
REMARK INTER + INTRA:         -15.336
REMARK INTER:                 -10.566
REMARK INTRA:                  -4.770
REMARK UNBOUND:                -5.200
REMARK SMILES CCCCCCCCCCCCCCCCCCCCCCCCCCCCCC(=O)[O-]
REMARK SMILES IDX 16 1 17 2 18 3 19 4 20 5 21 6 22 7 23 8 24 9 25 10 26 11
REMARK SMILES IDX 27 12 28 13 29 14 30 15 31 16 32 17 15 18 14 19 13 20 12 21
REMARK SMILES IDX 11 22 10 23 9 24 8 25 7 26 6 27 5 28 4 29 3 30 2 31 1 32
REMARK H PARENT
REMARK Flexibility Score: inf
ROOT
ATOM      1  C   UNL     1      32.087  25.998 -15.029  1.00  0.00     0.000 C 
ENDROOT
BRANCH   1   2
ATOM      2  C   UNL     1      33.228  25.885 -16.047  1.00  0.00     0.000 C 
BRANCH   2   3
ATOM      3  C   UNL     1      33.163  24.546 -16.795  1.00  0.00     0.000 C 
BRANCH   3   4
ATOM      4  C   UNL     1      32.881  24.710 -18.298  1.00  0.00     0.000 C 
BRANCH   4   5
ATOM      5  C   UNL     1      33.220  26.107 -18.856  1.00  0.00     0.000 C 
BRANCH   5   6
ATOM      6  C   UNL     1      34.508  26.118 -19.699  1.00  0.00     0.000 C 
BRANCH   6   7
ATOM      7  C   UNL     1      35.065  27.544 -19.866  1.00  0.00     0.000 C 
BRANCH   7   8
ATOM      8  C   UNL     1      36.577  27.547 -20.182  1.00  0.00     0.000 C 
BRANCH   8   9
ATOM      9  C   UNL     1      37.224  26.161 -20.012  1.00  0.00     0.000 C 
BRANCH   9  10
ATOM     10  C   UNL     1      38.244  26.077 -18.859  1.00  0.00     0.000 C 
BRANCH  10  11
ATOM     11  C   UNL     1      38.194  27.245 -17.853  1.00  0.00     0.000 C 
BRANCH  11  12
ATOM     12  C   UNL     1      37.628  26.858 -16.472  1.00  0.00     0.000 C 
BRANCH  12  13
ATOM     13  C   UNL     1      36.938  25.479 -16.488  1.00  0.00     0.006 C 
BRANCH  13  14
ATOM     14  C   UNL     1      37.286  24.645 -15.247  1.00  0.00     0.053 C 
BRANCH  14  15
ATOM     15  C   UNL     1      36.183  24.662 -14.229  1.00  0.00     0.041 C 
ATOM     16  O   UNL     1      35.578  23.599 -13.935  1.00  0.00    -0.550 OA
ATOM     17  O   UNL     1      35.848  25.847 -13.587  1.00  0.00    -0.550 OA
ENDBRANCH  14  15
ENDBRANCH  13  14
ENDBRANCH  12  13
ENDBRANCH  11  12
ENDBRANCH  10  11
ENDBRANCH   9  10
ENDBRANCH   8   9
ENDBRANCH   7   8
ENDBRANCH   6   7
ENDBRANCH   5   6
ENDBRANCH   4   5
ENDBRANCH   3   4
ENDBRANCH   2   3
ENDBRANCH   1   2
BRANCH   1  18
ATOM     18  C   UNL     1      31.137  27.162 -15.366  1.00  0.00     0.000 C 
BRANCH  18  19
ATOM     19  C   UNL     1      30.314  26.892 -16.638  1.00  0.00     0.000 C 
BRANCH  19  20
ATOM     20  C   UNL     1      29.084  27.808 -16.754  1.00  0.00     0.000 C 
BRANCH  20  21
ATOM     21  C   UNL     1      27.767  27.038 -16.577  1.00  0.00     0.000 C 
BRANCH  21  22
ATOM     22  C   UNL     1      27.642  26.360 -15.197  1.00  0.00     0.000 C 
BRANCH  22  23
ATOM     23  C   UNL     1      26.699  25.139 -15.216  1.00  0.00     0.000 C 
BRANCH  23  24
ATOM     24  C   UNL     1      27.421  23.782 -15.102  1.00  0.00    -0.000 C 
BRANCH  24  25
ATOM     25  C   UNL     1      28.955  23.900 -15.011  1.00  0.00    -0.000 C 
BRANCH  25  26
ATOM     26  C   UNL     1      29.667  23.289 -16.231  1.00  0.00    -0.000 C 
BRANCH  26  27
ATOM     27  C   UNL     1      28.813  22.201 -16.904  1.00  0.00    -0.000 C 
BRANCH  27  28
ATOM     28  C   UNL     1      28.726  22.361 -18.434  1.00  0.00    -0.000 C 
BRANCH  28  29
ATOM     29  C   UNL     1      28.326  23.791 -18.869  1.00  0.00    -0.000 C 
BRANCH  29  30
ATOM     30  C   UNL     1      27.519  23.810 -20.181  1.00  0.00    -0.000 C 
BRANCH  30  31
ATOM     31  C   UNL     1      26.320  24.774 -20.118  1.00  0.00    -0.003 C 
ATOM     32  C   UNL     1      25.776  24.948 -18.699  1.00  0.00     0.004 C 
ENDBRANCH  30  31
ENDBRANCH  29  30
ENDBRANCH  28  29
ENDBRANCH  27  28
ENDBRANCH  26  27
ENDBRANCH  25  26
ENDBRANCH  24  25
ENDBRANCH  23  24
ENDBRANCH  22  23
ENDBRANCH  21  22
ENDBRANCH  20  21
ENDBRANCH  19  20
ENDBRANCH  18  19
ENDBRANCH   1  18
TORSDOF 28
ENDMDL
MODEL 4
REMARK VINA RESULT:    -3.830      2.019      4.387
REMARK INTER + INTRA:         -15.299
REMARK INTER:                  -9.580
REMARK INTRA:                  -5.719
REMARK UNBOUND:                -5.200
REMARK SMILES CCCCCCCCCCCCCCCCCCCCCCCCCCCCCC(=O)[O-]
REMARK SMILES IDX 16 1 17 2 18 3 19 4 20 5 21 6 22 7 23 8 24 9 25 10 26 11
REMARK SMILES IDX 27 12 28 13 29 14 30 15 31 16 32 17 15 18 14 19 13 20 12 21
REMARK SMILES IDX 11 22 10 23 9 24 8 25 7 26 6 27 5 28 4 29 3 30 2 31 1 32
REMARK H PARENT
REMARK Flexibility Score: inf
ROOT
ATOM      1  C   UNL     1      26.894  24.426 -20.019  1.00  0.00     0.000 C 
ENDROOT
BRANCH   1   2
ATOM      2  C   UNL     1      27.801  23.312 -19.484  1.00  0.00     0.000 C 
BRANCH   2   3
ATOM      3  C   UNL     1      29.229  23.461 -20.025  1.00  0.00     0.000 C 
BRANCH   3   4
ATOM      4  C   UNL     1      30.293  22.865 -19.087  1.00  0.00     0.000 C 
BRANCH   4   5
ATOM      5  C   UNL     1      31.511  23.780 -18.849  1.00  0.00     0.000 C 
BRANCH   5   6
ATOM      6  C   UNL     1      32.228  24.173 -20.154  1.00  0.00     0.000 C 
BRANCH   6   7
ATOM      7  C   UNL     1      33.205  25.342 -19.935  1.00  0.00     0.000 C 
BRANCH   7   8
ATOM      8  C   UNL     1      32.994  26.031 -18.568  1.00  0.00     0.000 C 
BRANCH   8   9
ATOM      9  C   UNL     1      34.298  26.165 -17.761  1.00  0.00     0.000 C 
BRANCH   9  10
ATOM     10  C   UNL     1      35.027  24.830 -17.512  1.00  0.00     0.000 C 
BRANCH  10  11
ATOM     11  C   UNL     1      35.981  24.820 -16.300  1.00  0.00     0.000 C 
BRANCH  11  12
ATOM     12  C   UNL     1      36.553  26.207 -15.942  1.00  0.00     0.000 C 
BRANCH  12  13
ATOM     13  C   UNL     1      38.083  26.270 -16.111  1.00  0.00     0.006 C 
BRANCH  13  14
ATOM     14  C   UNL     1      38.505  27.279 -17.187  1.00  0.00     0.053 C 
BRANCH  14  15
ATOM     15  C   UNL     1      38.066  26.857 -18.559  1.00  0.00     0.041 C 
ATOM     16  O   UNL     1      37.459  27.667 -19.307  1.00  0.00    -0.550 OA
ATOM     17  O   UNL     1      38.355  25.579 -19.019  1.00  0.00    -0.550 OA
ENDBRANCH  14  15
ENDBRANCH  13  14
ENDBRANCH  12  13
ENDBRANCH  11  12
ENDBRANCH  10  11
ENDBRANCH   9  10
ENDBRANCH   8   9
ENDBRANCH   7   8
ENDBRANCH   6   7
ENDBRANCH   5   6
ENDBRANCH   4   5
ENDBRANCH   3   4
ENDBRANCH   2   3
ENDBRANCH   1   2
BRANCH   1  18
ATOM     18  C   UNL     1      26.055  25.066 -18.898  1.00  0.00     0.000 C 
BRANCH  18  19
ATOM     19  C   UNL     1      26.727  24.936 -17.521  1.00  0.00     0.000 C 
BRANCH  19  20
ATOM     20  C   UNL     1      27.543  26.182 -17.138  1.00  0.00     0.000 C 
BRANCH  20  21
ATOM     21  C   UNL     1      29.057  25.931 -17.211  1.00  0.00     0.000 C 
BRANCH  21  22
ATOM     22  C   UNL     1      29.878  26.925 -16.363  1.00  0.00     0.000 C 
BRANCH  22  23
ATOM     23  C   UNL     1      29.521  26.865 -14.863  1.00  0.00     0.000 C 
BRANCH  23  24
ATOM     24  C   UNL     1      30.716  26.548 -13.942  1.00  0.00    -0.000 C 
BRANCH  24  25
ATOM     25  C   UNL     1      32.073  26.524 -14.672  1.00  0.00    -0.000 C 
BRANCH  25  26
ATOM     26  C   UNL     1      32.822  25.194 -14.481  1.00  0.00    -0.000 C 
BRANCH  26  27
ATOM     27  C   UNL     1      32.191  24.060 -15.307  1.00  0.00    -0.000 C 
BRANCH  27  28
ATOM     28  C   UNL     1      32.078  22.735 -14.528  1.00  0.00    -0.000 C 
BRANCH  28  29
ATOM     29  C   UNL     1      30.613  22.293 -14.299  1.00  0.00    -0.000 C 
BRANCH  29  30
ATOM     30  C   UNL     1      29.612  23.082 -15.164  1.00  0.00    -0.000 C 
BRANCH  30  31
ATOM     31  C   UNL     1      28.389  22.236 -15.566  1.00  0.00    -0.003 C 
ATOM     32  C   UNL     1      28.762  21.039 -16.443  1.00  0.00     0.004 C 
ENDBRANCH  30  31
ENDBRANCH  29  30
ENDBRANCH  28  29
ENDBRANCH  27  28
ENDBRANCH  26  27
ENDBRANCH  25  26
ENDBRANCH  24  25
ENDBRANCH  23  24
ENDBRANCH  22  23
ENDBRANCH  21  22
ENDBRANCH  20  21
ENDBRANCH  19  20
ENDBRANCH  18  19
ENDBRANCH   1  18
TORSDOF 28
ENDMDL
MODEL 5
REMARK VINA RESULT:    -3.815      3.339      7.894
REMARK INTER + INTRA:         -15.259
REMARK INTER:                 -10.269
REMARK INTRA:                  -4.990
REMARK UNBOUND:                -5.200
REMARK SMILES CCCCCCCCCCCCCCCCCCCCCCCCCCCCCC(=O)[O-]
REMARK SMILES IDX 16 1 17 2 18 3 19 4 20 5 21 6 22 7 23 8 24 9 25 10 26 11
REMARK SMILES IDX 27 12 28 13 29 14 30 15 31 16 32 17 15 18 14 19 13 20 12 21
REMARK SMILES IDX 11 22 10 23 9 24 8 25 7 26 6 27 5 28 4 29 3 30 2 31 1 32
REMARK H PARENT
REMARK Flexibility Score: inf
ROOT
ATOM      1  C   UNL     1      32.171  24.642 -19.247  1.00  0.00     0.000 C 
ENDROOT
BRANCH   1   2
ATOM      2  C   UNL     1      32.430  23.580 -18.172  1.00  0.00     0.000 C 
BRANCH   2   3
ATOM      3  C   UNL     1      32.725  24.235 -16.816  1.00  0.00     0.000 C 
BRANCH   3   4
ATOM      4  C   UNL     1      32.385  25.734 -16.786  1.00  0.00     0.000 C 
BRANCH   4   5
ATOM      5  C   UNL     1      32.349  26.347 -15.371  1.00  0.00     0.000 C 
BRANCH   5   6
ATOM      6  C   UNL     1      31.020  27.061 -15.062  1.00  0.00     0.000 C 
BRANCH   6   7
ATOM      7  C   UNL     1      30.226  27.364 -16.346  1.00  0.00     0.000 C 
BRANCH   7   8
ATOM      8  C   UNL     1      28.701  27.277 -16.123  1.00  0.00     0.000 C 
BRANCH   8   9
ATOM      9  C   UNL     1      28.329  26.526 -14.832  1.00  0.00     0.000 C 
BRANCH   9  10
ATOM     10  C   UNL     1      26.996  25.754 -14.912  1.00  0.00     0.000 C 
BRANCH  10  11
ATOM     11  C   UNL     1      26.977  24.582 -15.914  1.00  0.00     0.000 C 
BRANCH  11  12
ATOM     12  C   UNL     1      28.328  23.849 -16.046  1.00  0.00     0.000 C 
BRANCH  12  13
ATOM     13  C   UNL     1      28.836  23.818 -17.501  1.00  0.00     0.006 C 
BRANCH  13  14
ATOM     14  C   UNL     1      27.770  24.299 -18.495  1.00  0.00     0.053 C 
BRANCH  14  15
ATOM     15  C   UNL     1      27.955  23.694 -19.856  1.00  0.00     0.041 C 
ATOM     16  O   UNL     1      27.066  23.834 -20.736  1.00  0.00    -0.550 OA
ATOM     17  O   UNL     1      29.121  23.002 -20.157  1.00  0.00    -0.550 OA
ENDBRANCH  14  15
ENDBRANCH  13  14
ENDBRANCH  12  13
ENDBRANCH  11  12
ENDBRANCH  10  11
ENDBRANCH   9  10
ENDBRANCH   8   9
ENDBRANCH   7   8
ENDBRANCH   6   7
ENDBRANCH   5   6
ENDBRANCH   4   5
ENDBRANCH   3   4
ENDBRANCH   2   3
ENDBRANCH   1   2
BRANCH   1  18
ATOM     18  C   UNL     1      33.003  24.383 -20.517  1.00  0.00     0.000 C 
BRANCH  18  19
ATOM     19  C   UNL     1      34.443  24.908 -20.386  1.00  0.00     0.000 C 
BRANCH  19  20
ATOM     20  C   UNL     1      34.509  26.307 -19.751  1.00  0.00     0.000 C 
BRANCH  20  21
ATOM     21  C   UNL     1      35.573  26.395 -18.646  1.00  0.00     0.000 C 
BRANCH  21  22
ATOM     22  C   UNL     1      36.285  25.052 -18.383  1.00  0.00     0.000 C 
BRANCH  22  23
ATOM     23  C   UNL     1      36.351  24.697 -16.883  1.00  0.00     0.000 C 
BRANCH  23  24
ATOM     24  C   UNL     1      36.089  25.890 -15.941  1.00  0.00    -0.000 C 
BRANCH  24  25
ATOM     25  C   UNL     1      37.169  26.073 -14.857  1.00  0.00    -0.000 C 
BRANCH  25  26
ATOM     26  C   UNL     1      38.520  26.524 -15.440  1.00  0.00    -0.000 C 
BRANCH  26  27
ATOM     27  C   UNL     1      38.652  28.057 -15.451  1.00  0.00    -0.000 C 
BRANCH  27  28
ATOM     28  C   UNL     1      38.594  28.659 -16.869  1.00  0.00    -0.000 C 
BRANCH  28  29
ATOM     29  C   UNL     1      39.015  27.654 -17.968  1.00  0.00    -0.000 C 
BRANCH  29  30
ATOM     30  C   UNL     1      40.331  28.049 -18.663  1.00  0.00    -0.000 C 
BRANCH  30  31
ATOM     31  C   UNL     1      40.107  28.557 -20.099  1.00  0.00    -0.003 C 
ATOM     32  C   UNL     1      38.711  28.226 -20.631  1.00  0.00     0.004 C 
ENDBRANCH  30  31
ENDBRANCH  29  30
ENDBRANCH  28  29
ENDBRANCH  27  28
ENDBRANCH  26  27
ENDBRANCH  25  26
ENDBRANCH  24  25
ENDBRANCH  23  24
ENDBRANCH  22  23
ENDBRANCH  21  22
ENDBRANCH  20  21
ENDBRANCH  19  20
ENDBRANCH  18  19
ENDBRANCH   1  18
TORSDOF 28
ENDMDL
MODEL 6
REMARK VINA RESULT:    -3.798      3.221      5.710
REMARK INTER + INTRA:         -15.215
REMARK INTER:                 -11.098
REMARK INTRA:                  -4.117
REMARK UNBOUND:                -5.200
REMARK SMILES CCCCCCCCCCCCCCCCCCCCCCCCCCCCCC(=O)[O-]
REMARK SMILES IDX 16 1 17 2 18 3 19 4 20 5 21 6 22 7 23 8 24 9 25 10 26 11
REMARK SMILES IDX 27 12 28 13 29 14 30 15 31 16 32 17 15 18 14 19 13 20 12 21
REMARK SMILES IDX 11 22 10 23 9 24 8 25 7 26 6 27 5 28 4 29 3 30 2 31 1 32
REMARK H PARENT
REMARK Flexibility Score: inf
ROOT
ATOM      1  C   UNL     1      31.534  25.889 -14.805  1.00  0.00     0.000 C 
ENDROOT
BRANCH   1   2
ATOM      2  C   UNL     1      33.062  25.798 -14.712  1.00  0.00     0.000 C 
BRANCH   2   3
ATOM      3  C   UNL     1      33.719  26.301 -16.004  1.00  0.00     0.000 C 
BRANCH   3   4
ATOM      4  C   UNL     1      33.786  25.227 -17.103  1.00  0.00     0.000 C 
BRANCH   4   5
ATOM      5  C   UNL     1      33.849  23.781 -16.570  1.00  0.00     0.000 C 
BRANCH   5   6
ATOM      6  C   UNL     1      35.283  23.327 -16.240  1.00  0.00     0.000 C 
BRANCH   6   7
ATOM      7  C   UNL     1      35.427  22.931 -14.759  1.00  0.00     0.000 C 
BRANCH   7   8
ATOM      8  C   UNL     1      36.741  23.453 -14.140  1.00  0.00     0.000 C 
BRANCH   8   9
ATOM      9  C   UNL     1      36.678  24.949 -13.779  1.00  0.00     0.000 C 
BRANCH   9  10
ATOM     10  C   UNL     1      37.795  25.800 -14.415  1.00  0.00     0.000 C 
BRANCH  10  11
ATOM     11  C   UNL     1      37.456  26.403 -15.793  1.00  0.00     0.000 C 
BRANCH  11  12
ATOM     12  C   UNL     1      38.394  27.551 -16.221  1.00  0.00     0.000 C 
BRANCH  12  13
ATOM     13  C   UNL     1      38.601  27.598 -17.748  1.00  0.00     0.006 C 
BRANCH  13  14
ATOM     14  C   UNL     1      38.914  29.016 -18.244  1.00  0.00     0.053 C 
BRANCH  14  15
ATOM     15  C   UNL     1      40.367  29.187 -18.581  1.00  0.00     0.041 C 
ATOM     16  O   UNL     1      40.887  30.333 -18.578  1.00  0.00    -0.550 OA
ATOM     17  O   UNL     1      41.150  28.075 -18.868  1.00  0.00    -0.550 OA
ENDBRANCH  14  15
ENDBRANCH  13  14
ENDBRANCH  12  13
ENDBRANCH  11  12
ENDBRANCH  10  11
ENDBRANCH   9  10
ENDBRANCH   8   9
ENDBRANCH   7   8
ENDBRANCH   6   7
ENDBRANCH   5   6
ENDBRANCH   4   5
ENDBRANCH   3   4
ENDBRANCH   2   3
ENDBRANCH   1   2
BRANCH   1  18
ATOM     18  C   UNL     1      31.083  27.149 -15.565  1.00  0.00     0.000 C 
BRANCH  18  19
ATOM     19  C   UNL     1      30.137  26.818 -16.733  1.00  0.00     0.000 C 
BRANCH  19  20
ATOM     20  C   UNL     1      28.761  27.490 -16.591  1.00  0.00     0.000 C 
BRANCH  20  21
ATOM     21  C   UNL     1      27.690  26.518 -16.072  1.00  0.00     0.000 C 
BRANCH  21  22
ATOM     22  C   UNL     1      27.673  26.400 -14.534  1.00  0.00     0.000 C 
BRANCH  22  23
ATOM     23  C   UNL     1      27.390  24.962 -14.051  1.00  0.00     0.000 C 
BRANCH  23  24
ATOM     24  C   UNL     1      27.204  23.939 -15.189  1.00  0.00    -0.000 C 
BRANCH  24  25
ATOM     25  C   UNL     1      28.094  22.688 -15.051  1.00  0.00    -0.000 C 
BRANCH  25  26
ATOM     26  C   UNL     1      28.700  22.244 -16.394  1.00  0.00    -0.000 C 
BRANCH  26  27
ATOM     27  C   UNL     1      29.634  23.317 -16.980  1.00  0.00    -0.000 C 
BRANCH  27  28
ATOM     28  C   UNL     1      29.374  23.597 -18.473  1.00  0.00    -0.000 C 
BRANCH  28  29
ATOM     29  C   UNL     1      27.918  23.289 -18.899  1.00  0.00    -0.000 C 
BRANCH  29  30
ATOM     30  C   UNL     1      27.538  23.949 -20.238  1.00  0.00    -0.000 C 
BRANCH  30  31
ATOM     31  C   UNL     1      26.254  24.792 -20.133  1.00  0.00    -0.003 C 
ATOM     32  C   UNL     1      25.785  24.977 -18.689  1.00  0.00     0.004 C 
ENDBRANCH  30  31
ENDBRANCH  29  30
ENDBRANCH  28  29
ENDBRANCH  27  28
ENDBRANCH  26  27
ENDBRANCH  25  26
ENDBRANCH  24  25
ENDBRANCH  23  24
ENDBRANCH  22  23
ENDBRANCH  21  22
ENDBRANCH  20  21
ENDBRANCH  19  20
ENDBRANCH  18  19
ENDBRANCH   1  18
TORSDOF 28
ENDMDL
MODEL 7
REMARK VINA RESULT:    -3.794      1.486      4.822
REMARK INTER + INTRA:         -15.206
REMARK INTER:                  -9.387
REMARK INTRA:                  -5.819
REMARK UNBOUND:                -5.200
REMARK SMILES CCCCCCCCCCCCCCCCCCCCCCCCCCCCCC(=O)[O-]
REMARK SMILES IDX 16 1 17 2 18 3 19 4 20 5 21 6 22 7 23 8 24 9 25 10 26 11
REMARK SMILES IDX 27 12 28 13 29 14 30 15 31 16 32 17 15 18 14 19 13 20 12 21
REMARK SMILES IDX 11 22 10 23 9 24 8 25 7 26 6 27 5 28 4 29 3 30 2 31 1 32
REMARK H PARENT
REMARK Flexibility Score: inf
ROOT
ATOM      1  C   UNL     1      29.080  27.917 -16.758  1.00  0.00     0.000 C 
ENDROOT
BRANCH   1   2
ATOM      2  C   UNL     1      27.666  27.324 -16.752  1.00  0.00     0.000 C 
BRANCH   2   3
ATOM      3  C   UNL     1      27.654  25.944 -16.080  1.00  0.00     0.000 C 
BRANCH   3   4
ATOM      4  C   UNL     1      26.789  24.918 -16.831  1.00  0.00     0.000 C 
BRANCH   4   5
ATOM      5  C   UNL     1      26.428  25.328 -18.273  1.00  0.00     0.000 C 
BRANCH   5   6
ATOM      6  C   UNL     1      26.754  24.234 -19.306  1.00  0.00     0.000 C 
BRANCH   6   7
ATOM      7  C   UNL     1      27.964  23.387 -18.873  1.00  0.00     0.000 C 
BRANCH   7   8
ATOM      8  C   UNL     1      29.300  23.980 -19.372  1.00  0.00     0.000 C 
BRANCH   8   9
ATOM      9  C   UNL     1      30.299  22.900 -19.826  1.00  0.00     0.000 C 
BRANCH   9  10
ATOM     10  C   UNL     1      31.397  22.581 -18.793  1.00  0.00     0.000 C 
BRANCH  10  11
ATOM     11  C   UNL     1      31.553  23.616 -17.661  1.00  0.00     0.000 C 
BRANCH  11  12
ATOM     12  C   UNL     1      32.805  24.508 -17.797  1.00  0.00     0.000 C 
BRANCH  12  13
ATOM     13  C   UNL     1      32.711  25.467 -19.000  1.00  0.00     0.006 C 
BRANCH  13  14
ATOM     14  C   UNL     1      33.894  26.444 -19.053  1.00  0.00     0.053 C 
BRANCH  14  15
ATOM     15  C   UNL     1      35.208  25.751 -18.830  1.00  0.00     0.041 C 
ATOM     16  O   UNL     1      35.682  24.995 -19.717  1.00  0.00    -0.550 OA
ATOM     17  O   UNL     1      35.918  25.968 -17.656  1.00  0.00    -0.550 OA
ENDBRANCH  14  15
ENDBRANCH  13  14
ENDBRANCH  12  13
ENDBRANCH  11  12
ENDBRANCH  10  11
ENDBRANCH   9  10
ENDBRANCH   8   9
ENDBRANCH   7   8
ENDBRANCH   6   7
ENDBRANCH   5   6
ENDBRANCH   4   5
ENDBRANCH   3   4
ENDBRANCH   2   3
ENDBRANCH   1   2
BRANCH   1  18
ATOM     18  C   UNL     1      30.156  26.827 -16.603  1.00  0.00     0.000 C 
BRANCH  18  19
ATOM     19  C   UNL     1      31.052  27.063 -15.375  1.00  0.00     0.000 C 
BRANCH  19  20
ATOM     20  C   UNL     1      31.407  25.760 -14.640  1.00  0.00     0.000 C 
BRANCH  20  21
ATOM     21  C   UNL     1      30.775  25.690 -13.242  1.00  0.00     0.000 C 
BRANCH  21  22
ATOM     22  C   UNL     1      29.802  26.854 -12.958  1.00  0.00     0.000 C 
BRANCH  22  23
ATOM     23  C   UNL     1      28.406  26.368 -12.517  1.00  0.00     0.000 C 
BRANCH  23  24
ATOM     24  C   UNL     1      28.344  24.871 -12.153  1.00  0.00    -0.000 C 
BRANCH  24  25
ATOM     25  C   UNL     1      27.262  24.089 -12.922  1.00  0.00    -0.000 C 
BRANCH  25  26
ATOM     26  C   UNL     1      27.635  22.610 -13.127  1.00  0.00    -0.000 C 
BRANCH  26  27
ATOM     27  C   UNL     1      29.152  22.425 -13.302  1.00  0.00    -0.000 C 
BRANCH  27  28
ATOM     28  C   UNL     1      29.600  22.462 -14.777  1.00  0.00    -0.000 C 
BRANCH  28  29
ATOM     29  C   UNL     1      28.538  21.887 -15.744  1.00  0.00    -0.000 C 
BRANCH  29  30
ATOM     30  C   UNL     1      28.745  20.389 -16.032  1.00  0.00    -0.000 C 
BRANCH  30  31
ATOM     31  C   UNL     1      29.099  20.118 -17.506  1.00  0.00    -0.003 C 
ATOM     32  C   UNL     1      29.117  18.626 -17.844  1.00  0.00     0.004 C 
ENDBRANCH  30  31
ENDBRANCH  29  30
ENDBRANCH  28  29
ENDBRANCH  27  28
ENDBRANCH  26  27
ENDBRANCH  25  26
ENDBRANCH  24  25
ENDBRANCH  23  24
ENDBRANCH  22  23
ENDBRANCH  21  22
ENDBRANCH  20  21
ENDBRANCH  19  20
ENDBRANCH  18  19
ENDBRANCH   1  18
TORSDOF 28
ENDMDL
MODEL 8
REMARK VINA RESULT:    -3.761      1.441      4.705
REMARK INTER + INTRA:         -15.117
REMARK INTER:                  -9.190
REMARK INTRA:                  -5.927
REMARK UNBOUND:                -5.200
REMARK SMILES CCCCCCCCCCCCCCCCCCCCCCCCCCCCCC(=O)[O-]
REMARK SMILES IDX 16 1 17 2 18 3 19 4 20 5 21 6 22 7 23 8 24 9 25 10 26 11
REMARK SMILES IDX 27 12 28 13 29 14 30 15 31 16 32 17 15 18 14 19 13 20 12 21
REMARK SMILES IDX 11 22 10 23 9 24 8 25 7 26 6 27 5 28 4 29 3 30 2 31 1 32
REMARK H PARENT
REMARK Flexibility Score: inf
ROOT
ATOM      1  C   UNL     1      30.259  26.930 -16.948  1.00  0.00     0.000 C 
ENDROOT
BRANCH   1   2
ATOM      2  C   UNL     1      29.171  27.850 -16.382  1.00  0.00     0.000 C 
BRANCH   2   3
ATOM      3  C   UNL     1      27.777  27.383 -16.821  1.00  0.00     0.000 C 
BRANCH   3   4
ATOM      4  C   UNL     1      27.644  25.851 -16.868  1.00  0.00     0.000 C 
BRANCH   4   5
ATOM      5  C   UNL     1      26.617  25.336 -17.896  1.00  0.00     0.000 C 
BRANCH   5   6
ATOM      6  C   UNL     1      27.182  24.225 -18.801  1.00  0.00     0.000 C 
BRANCH   6   7
ATOM      7  C   UNL     1      28.718  24.160 -18.727  1.00  0.00     0.000 C 
BRANCH   7   8
ATOM      8  C   UNL     1      29.327  23.382 -19.914  1.00  0.00     0.000 C 
BRANCH   8   9
ATOM      9  C   UNL     1      30.766  22.908 -19.641  1.00  0.00     0.000 C 
BRANCH   9  10
ATOM     10  C   UNL     1      31.773  23.280 -20.747  1.00  0.00     0.000 C 
BRANCH  10  11
ATOM     11  C   UNL     1      32.689  24.477 -20.423  1.00  0.00     0.000 C 
BRANCH  11  12
ATOM     12  C   UNL     1      32.523  25.023 -18.989  1.00  0.00     0.000 C 
BRANCH  12  13
ATOM     13  C   UNL     1      33.796  25.726 -18.480  1.00  0.00     0.006 C 
BRANCH  13  14
ATOM     14  C   UNL     1      34.377  26.693 -19.521  1.00  0.00     0.053 C 
BRANCH  14  15
ATOM     15  C   UNL     1      35.839  26.449 -19.762  1.00  0.00     0.041 C 
ATOM     16  O   UNL     1      36.681  26.719 -18.867  1.00  0.00    -0.550 OA
ATOM     17  O   UNL     1      36.262  25.897 -20.964  1.00  0.00    -0.550 OA
ENDBRANCH  14  15
ENDBRANCH  13  14
ENDBRANCH  12  13
ENDBRANCH  11  12
ENDBRANCH  10  11
ENDBRANCH   9  10
ENDBRANCH   8   9
ENDBRANCH   7   8
ENDBRANCH   6   7
ENDBRANCH   5   6
ENDBRANCH   4   5
ENDBRANCH   3   4
ENDBRANCH   2   3
ENDBRANCH   1   2
BRANCH   1  18
ATOM     18  C   UNL     1      31.172  26.377 -15.838  1.00  0.00     0.000 C 
BRANCH  18  19
ATOM     19  C   UNL     1      30.675  26.757 -14.432  1.00  0.00     0.000 C 
BRANCH  19  20
ATOM     20  C   UNL     1      30.734  25.580 -13.444  1.00  0.00     0.000 C 
BRANCH  20  21
ATOM     21  C   UNL     1      29.529  25.559 -12.492  1.00  0.00     0.000 C 
BRANCH  21  22
ATOM     22  C   UNL     1      28.278  26.243 -13.083  1.00  0.00     0.000 C 
BRANCH  22  23
ATOM     23  C   UNL     1      27.081  25.279 -13.221  1.00  0.00     0.000 C 
BRANCH  23  24
ATOM     24  C   UNL     1      27.450  23.790 -13.066  1.00  0.00    -0.000 C 
BRANCH  24  25
ATOM     25  C   UNL     1      27.317  22.979 -14.370  1.00  0.00    -0.000 C 
BRANCH  25  26
ATOM     26  C   UNL     1      28.557  23.107 -15.273  1.00  0.00    -0.000 C 
BRANCH  26  27
ATOM     27  C   UNL     1      28.846  21.800 -16.032  1.00  0.00    -0.000 C 
BRANCH  27  28
ATOM     28  C   UNL     1      30.350  21.477 -16.128  1.00  0.00    -0.000 C 
BRANCH  28  29
ATOM     29  C   UNL     1      31.250  22.664 -15.711  1.00  0.00    -0.000 C 
BRANCH  29  30
ATOM     30  C   UNL     1      32.646  22.608 -16.358  1.00  0.00    -0.000 C 
BRANCH  30  31
ATOM     31  C   UNL     1      33.777  22.801 -15.331  1.00  0.00    -0.003 C 
ATOM     32  C   UNL     1      34.082  24.274 -15.058  1.00  0.00     0.004 C 
ENDBRANCH  30  31
ENDBRANCH  29  30
ENDBRANCH  28  29
ENDBRANCH  27  28
ENDBRANCH  26  27
ENDBRANCH  25  26
ENDBRANCH  24  25
ENDBRANCH  23  24
ENDBRANCH  22  23
ENDBRANCH  21  22
ENDBRANCH  20  21
ENDBRANCH  19  20
ENDBRANCH  18  19
ENDBRANCH   1  18
TORSDOF 28
ENDMDL
MODEL 9
REMARK VINA RESULT:    -3.759      2.990      7.854
REMARK INTER + INTRA:         -15.112
REMARK INTER:                 -10.406
REMARK INTRA:                  -4.706
REMARK UNBOUND:                -5.200
REMARK SMILES CCCCCCCCCCCCCCCCCCCCCCCCCCCCCC(=O)[O-]
REMARK SMILES IDX 16 1 17 2 18 3 19 4 20 5 21 6 22 7 23 8 24 9 25 10 26 11
REMARK SMILES IDX 27 12 28 13 29 14 30 15 31 16 32 17 15 18 14 19 13 20 12 21
REMARK SMILES IDX 11 22 10 23 9 24 8 25 7 26 6 27 5 28 4 29 3 30 2 31 1 32
REMARK H PARENT
REMARK Flexibility Score: inf
ROOT
ATOM      1  C   UNL     1      32.708  24.694 -19.215  1.00  0.00     0.000 C 
ENDROOT
BRANCH   1   2
ATOM      2  C   UNL     1      32.103  24.631 -17.807  1.00  0.00     0.000 C 
BRANCH   2   3
ATOM      3  C   UNL     1      31.300  25.903 -17.500  1.00  0.00     0.000 C 
BRANCH   3   4
ATOM      4  C   UNL     1      31.473  26.386 -16.050  1.00  0.00     0.000 C 
BRANCH   4   5
ATOM      5  C   UNL     1      30.419  27.416 -15.597  1.00  0.00     0.000 C 
BRANCH   5   6
ATOM      6  C   UNL     1      29.450  27.817 -16.725  1.00  0.00     0.000 C 
BRANCH   6   7
ATOM      7  C   UNL     1      28.026  27.294 -16.463  1.00  0.00     0.000 C 
BRANCH   7   8
ATOM      8  C   UNL     1      27.899  26.615 -15.082  1.00  0.00     0.000 C 
BRANCH   8   9
ATOM      9  C   UNL     1      27.446  25.147 -15.179  1.00  0.00     0.000 C 
BRANCH   9  10
ATOM     10  C   UNL     1      28.508  24.196 -15.766  1.00  0.00     0.000 C 
BRANCH  10  11
ATOM     11  C   UNL     1      28.073  23.431 -17.033  1.00  0.00     0.000 C 
BRANCH  11  12
ATOM     12  C   UNL     1      28.066  24.293 -18.312  1.00  0.00     0.000 C 
BRANCH  12  13
ATOM     13  C   UNL     1      28.105  23.437 -19.593  1.00  0.00     0.006 C 
BRANCH  13  14
ATOM     14  C   UNL     1      29.531  23.286 -20.143  1.00  0.00     0.053 C 
BRANCH  14  15
ATOM     15  C   UNL     1      29.947  21.847 -20.242  1.00  0.00     0.041 C 
ATOM     16  O   UNL     1      30.520  21.424 -21.280  1.00  0.00    -0.550 OA
ATOM     17  O   UNL     1      29.727  20.985 -19.176  1.00  0.00    -0.550 OA
ENDBRANCH  14  15
ENDBRANCH  13  14
ENDBRANCH  12  13
ENDBRANCH  11  12
ENDBRANCH  10  11
ENDBRANCH   9  10
ENDBRANCH   8   9
ENDBRANCH   7   8
ENDBRANCH   6   7
ENDBRANCH   5   6
ENDBRANCH   4   5
ENDBRANCH   3   4
ENDBRANCH   2   3
ENDBRANCH   1   2
BRANCH   1  18
ATOM     18  C   UNL     1      33.564  25.959 -19.413  1.00  0.00     0.000 C 
BRANCH  18  19
ATOM     19  C   UNL     1      34.929  25.644 -20.049  1.00  0.00     0.000 C 
BRANCH  19  20
ATOM     20  C   UNL     1      36.031  26.619 -19.601  1.00  0.00     0.000 C 
BRANCH  20  21
ATOM     21  C   UNL     1      36.039  27.910 -20.433  1.00  0.00     0.000 C 
BRANCH  21  22
ATOM     22  C   UNL     1      37.367  28.689 -20.330  1.00  0.00     0.000 C 
BRANCH  22  23
ATOM     23  C   UNL     1      38.331  28.086 -19.288  1.00  0.00     0.000 C 
BRANCH  23  24
ATOM     24  C   UNL     1      38.938  29.120 -18.317  1.00  0.00    -0.000 C 
BRANCH  24  25
ATOM     25  C   UNL     1      38.875  28.694 -16.838  1.00  0.00    -0.000 C 
BRANCH  25  26
ATOM     26  C   UNL     1      38.344  27.261 -16.658  1.00  0.00    -0.000 C 
BRANCH  26  27
ATOM     27  C   UNL     1      38.242  26.872 -15.173  1.00  0.00    -0.000 C 
BRANCH  27  28
ATOM     28  C   UNL     1      37.048  25.946 -14.871  1.00  0.00    -0.000 C 
BRANCH  28  29
ATOM     29  C   UNL     1      35.907  26.074 -15.908  1.00  0.00    -0.000 C 
BRANCH  29  30
ATOM     30  C   UNL     1      35.240  24.724 -16.229  1.00  0.00    -0.000 C 
BRANCH  30  31
ATOM     31  C   UNL     1      36.242  23.687 -16.768  1.00  0.00    -0.003 C 
ATOM     32  C   UNL     1      35.648  22.809 -17.871  1.00  0.00     0.004 C 
ENDBRANCH  30  31
ENDBRANCH  29  30
ENDBRANCH  28  29
ENDBRANCH  27  28
ENDBRANCH  26  27
ENDBRANCH  25  26
ENDBRANCH  24  25
ENDBRANCH  23  24
ENDBRANCH  22  23
ENDBRANCH  21  22
ENDBRANCH  20  21
ENDBRANCH  19  20
ENDBRANCH  18  19
ENDBRANCH   1  18
TORSDOF 28
ENDMDL
