MODEL 1
REMARK VINA RESULT:    -5.425      0.000      0.000
REMARK INTER + INTRA:          -8.058
REMARK INTER:                  -7.327
REMARK INTRA:                  -0.731
REMARK UNBOUND:                -0.731
REMARK SMILES CC(=O)CCC=C(C)CCC=C(C)C
REMARK SMILES IDX 7 1 6 2 8 3 9 4 10 5 11 6 13 7 12 8 14 9 5 10 4 11 2 12 3 13
REMARK SMILES IDX 1 14
REMARK H PARENT
REMARK Flexibility Score: inf
ROOT
ATOM      1  C   UNL     1       3.982   3.000  13.321  1.00  0.00    -0.077 C 
ATOM      2  C   UNL     1       4.114   4.315  13.035  1.00  0.00    -0.028 C 
ATOM      3  C   UNL     1       4.372   1.926  12.333  1.00  0.00     0.039 C 
ENDROOT
BRANCH   1   4
ATOM      4  C   UNL     1       3.442   2.598  14.674  1.00  0.00     0.034 C 
BRANCH   4   5
ATOM      5  C   UNL     1       3.340   3.817  15.599  1.00  0.00     0.032 C 
BRANCH   5   6
ATOM      6  C   UNL     1       2.393   3.546  16.740  1.00  0.00    -0.028 C 
ATOM      7  C   UNL     1       1.133   4.030  18.794  1.00  0.00     0.039 C 
ATOM      8  C   UNL     1       2.063   4.453  17.688  1.00  0.00    -0.080 C 
ATOM      9  C   UNL     1       2.585   5.871  17.653  1.00  0.00     0.039 C 
ENDBRANCH   5   6
ENDBRANCH   4   5
ENDBRANCH   1   4
BRANCH   2  10
ATOM     10  C   UNL     1       4.550   4.862  11.697  1.00  0.00     0.035 C 
BRANCH  10  11
ATOM     11  C   UNL     1       3.392   5.557  10.972  1.00  0.00     0.079 C 
BRANCH  11  12
ATOM     12  C   UNL     1       2.349   4.568  10.517  1.00  0.00     0.130 C 
ATOM     13  O   UNL     1       2.650   3.706   9.705  1.00  0.00    -0.300 OA
ATOM     14  C   UNL     1       0.942   4.625  11.036  1.00  0.00     0.087 C 
ENDBRANCH  11  12
ENDBRANCH  10  11
ENDBRANCH   2  10
TORSDOF 6
ENDMDL
MODEL 2
REMARK VINA RESULT:    -5.181      2.556      5.788
REMARK INTER + INTRA:          -7.730
REMARK INTER:                  -6.909
REMARK INTRA:                  -0.822
REMARK UNBOUND:                -0.731
REMARK SMILES CC(=O)CCC=C(C)CCC=C(C)C
REMARK SMILES IDX 7 1 6 2 8 3 9 4 10 5 11 6 13 7 12 8 14 9 5 10 4 11 2 12 3 13
REMARK SMILES IDX 1 14
REMARK H PARENT
REMARK Flexibility Score: inf
ROOT
ATOM      1  C   UNL     1       3.621   2.238  14.468  1.00  0.00    -0.077 C 
ATOM      2  C   UNL     1       3.015   3.386  14.846  1.00  0.00    -0.028 C 
ATOM      3  C   UNL     1       4.630   1.540  15.351  1.00  0.00     0.039 C 
ENDROOT
BRANCH   1   4
ATOM      4  C   UNL     1       3.267   1.630  13.131  1.00  0.00     0.034 C 
BRANCH   4   5
ATOM      5  C   UNL     1       4.166   2.198  12.025  1.00  0.00     0.032 C 
BRANCH   5   6
ATOM      6  C   UNL     1       3.421   3.215  11.199  1.00  0.00    -0.028 C 
ATOM      7  C   UNL     1       2.852   5.444  10.333  1.00  0.00     0.039 C 
ATOM      8  C   UNL     1       3.707   4.537  11.179  1.00  0.00    -0.080 C 
ATOM      9  C   UNL     1       4.861   5.117  11.962  1.00  0.00     0.039 C 
ENDBRANCH   5   6
ENDBRANCH   4   5
ENDBRANCH   1   4
BRANCH   2  10
ATOM     10  C   UNL     1       3.337   4.151  16.107  1.00  0.00     0.035 C 
BRANCH  10  11
ATOM     11  C   UNL     1       2.185   4.078  17.116  1.00  0.00     0.079 C 
BRANCH  11  12
ATOM     12  C   UNL     1       1.897   5.426  17.728  1.00  0.00     0.130 C 
ATOM     13  O   UNL     1       2.819   6.198  17.944  1.00  0.00    -0.300 OA
ATOM     14  C   UNL     1       0.499   5.836  18.086  1.00  0.00     0.087 C 
ENDBRANCH  11  12
ENDBRANCH  10  11
ENDBRANCH   2  10
TORSDOF 6
ENDMDL
MODEL 3
REMARK VINA RESULT:    -5.120      2.682      5.568
REMARK INTER + INTRA:          -7.647
REMARK INTER:                  -6.661
REMARK INTRA:                  -0.986
REMARK UNBOUND:                -0.731
REMARK SMILES CC(=O)CCC=C(C)CCC=C(C)C
REMARK SMILES IDX 7 1 6 2 8 3 9 4 10 5 11 6 13 7 12 8 14 9 5 10 4 11 2 12 3 13
REMARK SMILES IDX 1 14
REMARK H PARENT
REMARK Flexibility Score: inf
ROOT
ATOM      1  C   UNL     1       4.249   3.624  12.840  1.00  0.00    -0.077 C 
ATOM      2  C   UNL     1       3.872   3.720  14.135  1.00  0.00    -0.028 C 
ATOM      3  C   UNL     1       4.644   2.304  12.219  1.00  0.00     0.039 C 
ENDROOT
BRANCH   1   4
ATOM      4  C   UNL     1       4.261   4.873  11.988  1.00  0.00     0.034 C 
BRANCH   4   5
ATOM      5  C   UNL     1       3.628   4.599  10.619  1.00  0.00     0.032 C 
BRANCH   5   6
ATOM      6  C   UNL     1       2.161   4.950  10.626  1.00  0.00    -0.028 C 
ATOM      7  C   UNL     1      -0.261   4.538  10.571  1.00  0.00     0.039 C 
ATOM      8  C   UNL     1       1.160   4.041  10.599  1.00  0.00    -0.080 C 
ATOM      9  C   UNL     1       1.430   2.554  10.613  1.00  0.00     0.039 C 
ENDBRANCH   5   6
ENDBRANCH   4   5
ENDBRANCH   1   4
BRANCH   2  10
ATOM     10  C   UNL     1       3.901   2.578  15.123  1.00  0.00     0.035 C 
BRANCH  10  11
ATOM     11  C   UNL     1       2.565   1.826  15.148  1.00  0.00     0.079 C 
BRANCH  11  12
ATOM     12  C   UNL     1       2.731   0.387  14.729  1.00  0.00     0.130 C 
ATOM     13  O   UNL     1       1.780  -0.215  14.254  1.00  0.00    -0.300 OA
ATOM     14  C   UNL     1       4.042  -0.326  14.890  1.00  0.00     0.087 C 
ENDBRANCH  11  12
ENDBRANCH  10  11
ENDBRANCH   2  10
TORSDOF 6
ENDMDL
MODEL 4
REMARK VINA RESULT:    -5.108     15.363     16.600
REMARK INTER + INTRA:          -7.631
REMARK INTER:                  -6.473
REMARK INTRA:                  -1.159
REMARK UNBOUND:                -0.731
REMARK SMILES CC(=O)CCC=C(C)CCC=C(C)C
REMARK SMILES IDX 7 1 6 2 8 3 9 4 10 5 11 6 13 7 12 8 14 9 5 10 4 11 2 12 3 13
REMARK SMILES IDX 1 14
REMARK H PARENT
REMARK Flexibility Score: inf
ROOT
ATOM      1  C   UNL     1      -7.025  -8.625  11.878  1.00  0.00    -0.077 C 
ATOM      2  C   UNL     1      -8.218  -8.797  12.491  1.00  0.00    -0.028 C 
ATOM      3  C   UNL     1      -5.735  -9.117  12.492  1.00  0.00     0.039 C 
ENDROOT
BRANCH   1   4
ATOM      4  C   UNL     1      -6.986  -7.933  10.535  1.00  0.00     0.034 C 
BRANCH   4   5
ATOM      5  C   UNL     1      -7.633  -6.545  10.624  1.00  0.00     0.032 C 
BRANCH   5   6
ATOM      6  C   UNL     1      -6.759  -5.595  11.404  1.00  0.00    -0.028 C 
ATOM      7  C   UNL     1      -6.187  -3.982  13.167  1.00  0.00     0.039 C 
ATOM      8  C   UNL     1      -7.157  -4.930  12.512  1.00  0.00    -0.080 C 
ATOM      9  C   UNL     1      -8.529  -5.127  13.113  1.00  0.00     0.039 C 
ENDBRANCH   5   6
ENDBRANCH   4   5
ENDBRANCH   1   4
BRANCH   2  10
ATOM     10  C   UNL     1      -8.398  -9.384  13.870  1.00  0.00     0.035 C 
BRANCH  10  11
ATOM     11  C   UNL     1      -8.937  -8.343  14.856  1.00  0.00     0.079 C 
BRANCH  11  12
ATOM     12  C   UNL     1     -10.435  -8.200  14.749  1.00  0.00     0.130 C 
ATOM     13  O   UNL     1     -11.102  -9.141  14.346  1.00  0.00    -0.300 OA
ATOM     14  C   UNL     1     -11.124  -6.921  15.123  1.00  0.00     0.087 C 
ENDBRANCH  11  12
ENDBRANCH  10  11
ENDBRANCH   2  10
TORSDOF 6
ENDMDL
MODEL 5
REMARK VINA RESULT:    -5.092      2.970      6.233
REMARK INTER + INTRA:          -7.609
REMARK INTER:                  -7.123
REMARK INTRA:                  -0.486
REMARK UNBOUND:                -0.731
REMARK SMILES CC(=O)CCC=C(C)CCC=C(C)C
REMARK SMILES IDX 7 1 6 2 8 3 9 4 10 5 11 6 13 7 12 8 14 9 5 10 4 11 2 12 3 13
REMARK SMILES IDX 1 14
REMARK H PARENT
REMARK Flexibility Score: inf
ROOT
ATOM      1  C   UNL     1       2.863   3.537  16.233  1.00  0.00    -0.077 C 
ATOM      2  C   UNL     1       2.467   4.575  17.004  1.00  0.00    -0.028 C 
ATOM      3  C   UNL     1       2.382   2.127  16.486  1.00  0.00     0.039 C 
ENDROOT
BRANCH   1   4
ATOM      4  C   UNL     1       3.802   3.801  15.079  1.00  0.00     0.034 C 
BRANCH   4   5
ATOM      5  C   UNL     1       3.442   2.918  13.878  1.00  0.00     0.032 C 
BRANCH   5   6
ATOM      6  C   UNL     1       2.686   3.707  12.839  1.00  0.00    -0.028 C 
ATOM      7  C   UNL     1       2.383   5.287  10.981  1.00  0.00     0.039 C 
ATOM      8  C   UNL     1       3.267   4.530  11.937  1.00  0.00    -0.080 C 
ATOM      9  C   UNL     1       4.767   4.692  11.852  1.00  0.00     0.039 C 
ENDBRANCH   5   6
ENDBRANCH   4   5
ENDBRANCH   1   4
BRANCH   2  10
ATOM     10  C   UNL     1       1.610   4.448  18.240  1.00  0.00     0.035 C 
BRANCH  10  11
ATOM     11  C   UNL     1       1.269   5.822  18.829  1.00  0.00     0.079 C 
BRANCH  11  12
ATOM     12  C   UNL     1      -0.044   6.342  18.301  1.00  0.00     0.130 C 
ATOM     13  O   UNL     1      -1.045   5.645  18.385  1.00  0.00    -0.300 OA
ATOM     14  C   UNL     1      -0.148   7.698  17.668  1.00  0.00     0.087 C 
ENDBRANCH  11  12
ENDBRANCH  10  11
ENDBRANCH   2  10
TORSDOF 6
ENDMDL
MODEL 6
REMARK VINA RESULT:    -5.082      1.871      3.876
REMARK INTER + INTRA:          -7.596
REMARK INTER:                  -6.938
REMARK INTRA:                  -0.658
REMARK UNBOUND:                -0.731
REMARK SMILES CC(=O)CCC=C(C)CCC=C(C)C
REMARK SMILES IDX 7 1 6 2 8 3 9 4 10 5 11 6 13 7 12 8 14 9 5 10 4 11 2 12 3 13
REMARK SMILES IDX 1 14
REMARK H PARENT
REMARK Flexibility Score: inf
ROOT
ATOM      1  C   UNL     1       2.403   3.783  16.875  1.00  0.00    -0.077 C 
ATOM      2  C   UNL     1       3.292   4.138  15.919  1.00  0.00    -0.028 C 
ATOM      3  C   UNL     1       1.881   2.370  16.992  1.00  0.00     0.039 C 
ENDROOT
BRANCH   1   4
ATOM      4  C   UNL     1       1.933   4.829  17.859  1.00  0.00     0.034 C 
BRANCH   4   5
ATOM      5  C   UNL     1       1.093   4.185  18.969  1.00  0.00     0.032 C 
BRANCH   5   6
ATOM      6  C   UNL     1      -0.179   4.963  19.198  1.00  0.00    -0.028 C 
ATOM      7  C   UNL     1      -2.559   5.525  18.954  1.00  0.00     0.039 C 
ATOM      8  C   UNL     1      -1.379   4.632  18.670  1.00  0.00    -0.080 C 
ATOM      9  C   UNL     1      -1.567   3.393  17.827  1.00  0.00     0.039 C 
ENDBRANCH   5   6
ENDBRANCH   4   5
ENDBRANCH   1   4
BRANCH   2  10
ATOM     10  C   UNL     1       3.777   3.226  14.818  1.00  0.00     0.035 C 
BRANCH  10  11
ATOM     11  C   UNL     1       3.190   3.629  13.460  1.00  0.00     0.079 C 
BRANCH  11  12
ATOM     12  C   UNL     1       4.259   3.730  12.401  1.00  0.00     0.130 C 
ATOM     13  O   UNL     1       4.742   2.709  11.933  1.00  0.00    -0.300 OA
ATOM     14  C   UNL     1       4.749   5.061  11.913  1.00  0.00     0.087 C 
ENDBRANCH  11  12
ENDBRANCH  10  11
ENDBRANCH   2  10
TORSDOF 6
ENDMDL
MODEL 7
REMARK VINA RESULT:    -5.009      1.801      3.120
REMARK INTER + INTRA:          -7.498
REMARK INTER:                  -6.862
REMARK INTRA:                  -0.636
REMARK UNBOUND:                -0.731
REMARK SMILES CC(=O)CCC=C(C)CCC=C(C)C
REMARK SMILES IDX 7 1 6 2 8 3 9 4 10 5 11 6 13 7 12 8 14 9 5 10 4 11 2 12 3 13
REMARK SMILES IDX 1 14
REMARK H PARENT
REMARK Flexibility Score: inf
ROOT
ATOM      1  C   UNL     1       2.203   2.108  16.186  1.00  0.00    -0.077 C 
ATOM      2  C   UNL     1       2.926   3.214  15.898  1.00  0.00    -0.028 C 
ATOM      3  C   UNL     1       2.444   0.792  15.485  1.00  0.00     0.039 C 
ENDROOT
BRANCH   1   4
ATOM      4  C   UNL     1       1.133   2.192  17.250  1.00  0.00     0.034 C 
BRANCH   4   5
ATOM      5  C   UNL     1       1.494   3.254  18.296  1.00  0.00     0.032 C 
BRANCH   5   6
ATOM      6  C   UNL     1       0.589   4.454  18.177  1.00  0.00    -0.028 C 
ATOM      7  C   UNL     1       0.006   6.833  17.979  1.00  0.00     0.039 C 
ATOM      8  C   UNL     1       1.026   5.728  18.050  1.00  0.00    -0.080 C 
ATOM      9  C   UNL     1       2.496   6.063  17.960  1.00  0.00     0.039 C 
ENDBRANCH   5   6
ENDBRANCH   4   5
ENDBRANCH   1   4
BRANCH   2  10
ATOM     10  C   UNL     1       3.959   3.301  14.800  1.00  0.00     0.035 C 
BRANCH  10  11
ATOM     11  C   UNL     1       3.350   3.838  13.500  1.00  0.00     0.079 C 
BRANCH  11  12
ATOM     12  C   UNL     1       4.363   3.872  12.385  1.00  0.00     0.130 C 
ATOM     13  O   UNL     1       4.830   2.824  11.963  1.00  0.00    -0.300 OA
ATOM     14  C   UNL     1       4.818   5.170  11.784  1.00  0.00     0.087 C 
ENDBRANCH  11  12
ENDBRANCH  10  11
ENDBRANCH   2  10
TORSDOF 6
ENDMDL
MODEL 8
REMARK VINA RESULT:    -4.966     14.716     16.984
REMARK INTER + INTRA:          -7.439
REMARK INTER:                  -6.868
REMARK INTRA:                  -0.571
REMARK UNBOUND:                -0.731
REMARK SMILES CC(=O)CCC=C(C)CCC=C(C)C
REMARK SMILES IDX 7 1 6 2 8 3 9 4 10 5 11 6 13 7 12 8 14 9 5 10 4 11 2 12 3 13
REMARK SMILES IDX 1 14
REMARK H PARENT
REMARK Flexibility Score: inf
ROOT
ATOM      1  C   UNL     1      -4.494  -8.245   2.646  1.00  0.00    -0.077 C 
ATOM      2  C   UNL     1      -5.319  -7.321   2.102  1.00  0.00    -0.028 C 
ATOM      3  C   UNL     1      -5.015  -9.367   3.513  1.00  0.00     0.039 C 
ENDROOT
BRANCH   1   4
ATOM      4  C   UNL     1      -3.012  -8.156   2.364  1.00  0.00     0.034 C 
BRANCH   4   5
ATOM      5  C   UNL     1      -2.437  -6.844   2.910  1.00  0.00     0.032 C 
BRANCH   5   6
ATOM      6  C   UNL     1      -1.731  -7.073   4.222  1.00  0.00    -0.028 C 
ATOM      7  C   UNL     1      -0.228  -6.562   6.099  1.00  0.00     0.039 C 
ATOM      8  C   UNL     1      -0.895  -6.182   4.803  1.00  0.00    -0.080 C 
ATOM      9  C   UNL     1      -0.630  -4.823   4.198  1.00  0.00     0.039 C 
ENDBRANCH   5   6
ENDBRANCH   4   5
ENDBRANCH   1   4
BRANCH   2  10
ATOM     10  C   UNL     1      -6.802  -7.231   2.371  1.00  0.00     0.035 C 
BRANCH  10  11
ATOM     11  C   UNL     1      -7.374  -5.886   1.909  1.00  0.00     0.079 C 
BRANCH  11  12
ATOM     12  C   UNL     1      -6.641  -4.727   2.538  1.00  0.00     0.130 C 
ATOM     13  O   UNL     1      -6.671  -4.582   3.751  1.00  0.00    -0.300 OA
ATOM     14  C   UNL     1      -5.881  -3.740   1.701  1.00  0.00     0.087 C 
ENDBRANCH  11  12
ENDBRANCH  10  11
ENDBRANCH   2  10
TORSDOF 6
ENDMDL
MODEL 9
REMARK VINA RESULT:    -4.964     14.872     15.855
REMARK INTER + INTRA:          -7.436
REMARK INTER:                  -6.297
REMARK INTRA:                  -1.140
REMARK UNBOUND:                -0.731
REMARK SMILES CC(=O)CCC=C(C)CCC=C(C)C
REMARK SMILES IDX 7 1 6 2 8 3 9 4 10 5 11 6 13 7 12 8 14 9 5 10 4 11 2 12 3 13
REMARK SMILES IDX 1 14
REMARK H PARENT
REMARK Flexibility Score: inf
ROOT
ATOM      1  C   UNL     1      -6.606  -7.993  11.079  1.00  0.00    -0.077 C 
ATOM      2  C   UNL     1      -7.433  -6.952  10.831  1.00  0.00    -0.028 C 
ATOM      3  C   UNL     1      -5.206  -7.790  11.608  1.00  0.00     0.039 C 
ENDROOT
BRANCH   1   4
ATOM      4  C   UNL     1      -7.106  -9.397  10.831  1.00  0.00     0.034 C 
BRANCH   4   5
ATOM      5  C   UNL     1      -7.433 -10.095  12.157  1.00  0.00     0.032 C 
BRANCH   5   6
ATOM      6  C   UNL     1      -8.897  -9.955  12.489  1.00  0.00    -0.028 C 
ATOM      7  C   UNL     1     -10.869  -9.147  13.713  1.00  0.00     0.039 C 
ATOM      8  C   UNL     1      -9.383  -9.159  13.468  1.00  0.00    -0.080 C 
ATOM      9  C   UNL     1      -8.483  -8.276  14.300  1.00  0.00     0.039 C 
ENDBRANCH   5   6
ENDBRANCH   4   5
ENDBRANCH   1   4
BRANCH   2  10
ATOM     10  C   UNL     1      -7.040  -5.498  10.944  1.00  0.00     0.035 C 
BRANCH  10  11
ATOM     11  C   UNL     1      -7.449  -4.912  12.300  1.00  0.00     0.079 C 
BRANCH  11  12
ATOM     12  C   UNL     1      -6.296  -4.206  12.970  1.00  0.00     0.130 C 
ATOM     13  O   UNL     1      -6.487  -3.594  14.010  1.00  0.00    -0.300 OA
ATOM     14  C   UNL     1      -4.917  -4.235  12.380  1.00  0.00     0.087 C 
ENDBRANCH  11  12
ENDBRANCH  10  11
ENDBRANCH   2  10
TORSDOF 6
ENDMDL
