MODEL 1
REMARK VINA RESULT:    30.732      0.000      0.000
REMARK INTER + INTRA:          37.364
REMARK INTER:                  37.020
REMARK INTRA:                   0.344
REMARK UNBOUND:                 0.344
REMARK SMILES Oc1cc(O)c2c(c1)O[C@@H](c1ccc(O)c(O)c1)[C@H](O)C2
REMARK SMILES IDX 21 1 19 2 10 3 9 4 7 5 8 6 2 7 3 8 4 9 6 10 20 11 11 13
REMARK SMILES IDX 18 14 12 15 16 16 13 17 14 18 17 19 15 21 5 23 1 25
REMARK H PARENT 20 12 17 20 15 22 5 24 1 26
REMARK Flexibility Score: inf
ROOT
ATOM      1  C   UNL     1      14.600  16.148  17.197  1.00  0.00     0.079 C 
ATOM      2  C   UNL     1      14.212  14.729  16.737  1.00  0.00     0.164 C 
ATOM      3  C   UNL     1      15.270  13.709  17.198  1.00  0.00     0.232 C 
ATOM      4  O   UNL     1      15.425  13.784  18.615  1.00  0.00    -0.482 OA
ATOM      5  C   UNL     1      15.389  15.000  19.308  1.00  0.00     0.131 A 
ATOM      6  C   UNL     1      15.735  15.017  20.663  1.00  0.00     0.093 A 
ATOM      7  C   UNL     1      15.724  16.219  21.378  1.00  0.00     0.122 A 
ATOM      8  C   UNL     1      15.375  17.407  20.734  1.00  0.00     0.092 A 
ATOM      9  C   UNL     1      15.027  17.410  19.378  1.00  0.00     0.126 A 
ATOM     10  C   UNL     1      14.994  16.191  18.659  1.00  0.00     0.039 A 
ENDROOT
BRANCH   2  11
ATOM     11  O   UNL     1      14.036  14.693  15.342  1.00  0.00    -0.389 OA
ATOM     12  H   UNL     1      13.154  14.276  15.159  1.00  0.00     0.211 HD
ENDBRANCH   2  11
BRANCH   3  13
ATOM     13  C   UNL     1      14.884  12.303  16.803  1.00  0.00    -0.001 A 
ATOM     14  C   UNL     1      15.083  11.238  17.694  1.00  0.00     0.057 A 
ATOM     15  C   UNL     1      14.371  12.038  15.524  1.00  0.00     0.012 A 
ATOM     16  C   UNL     1      14.757   9.925  17.330  1.00  0.00     0.157 A 
ATOM     17  C   UNL     1      14.042  10.733  15.153  1.00  0.00     0.050 A 
ATOM     18  C   UNL     1      14.226   9.670  16.043  1.00  0.00     0.157 A 
BRANCH  16  19
ATOM     19  O   UNL     1      14.976   8.915  18.269  1.00  0.00    -0.504 OA
ATOM     20  H   UNL     1      15.155   9.083  19.249  1.00  0.00     0.293 HD
ENDBRANCH  16  19
BRANCH  18  21
ATOM     21  O   UNL     1      13.875   8.388  15.611  1.00  0.00    -0.504 OA
ATOM     22  H   UNL     1      13.483   7.678  16.212  1.00  0.00     0.293 HD
ENDBRANCH  18  21
ENDBRANCH   3  13
BRANCH   9  23
ATOM     23  O   UNL     1      14.732  18.637  18.779  1.00  0.00    -0.507 OA
ATOM     24  H   UNL     1      14.671  19.506  19.292  1.00  0.00     0.293 HD
ENDBRANCH   9  23
BRANCH   7  25
ATOM     25  O   UNL     1      16.065  16.243  22.729  1.00  0.00    -0.508 OA
ATOM     26  H   UNL     1      15.604  15.643  23.403  1.00  0.00     0.293 HD
ENDBRANCH   7  25
TORSDOF 6
ENDMDL
MODEL 2
REMARK VINA RESULT:    32.599      1.957      3.281
REMARK INTER + INTRA:          39.613
REMARK INTER:                  39.370
REMARK INTRA:                   0.244
REMARK UNBOUND:                 0.344
REMARK SMILES Oc1cc(O)c2c(c1)O[C@@H](c1ccc(O)c(O)c1)[C@H](O)C2
REMARK SMILES IDX 21 1 19 2 10 3 9 4 7 5 8 6 2 7 3 8 4 9 6 10 20 11 11 13
REMARK SMILES IDX 18 14 12 15 16 16 13 17 14 18 17 19 15 21 5 23 1 25
REMARK H PARENT 20 12 17 20 15 22 5 24 1 26
REMARK Flexibility Score: inf
ROOT
ATOM      1  C   UNL     1      15.153  17.717  20.563  1.00  0.00     0.079 C 
ATOM      2  C   UNL     1      14.782  16.816  19.369  1.00  0.00     0.164 C 
ATOM      3  C   UNL     1      15.608  15.516  19.402  1.00  0.00     0.232 C 
ATOM      4  O   UNL     1      15.409  14.853  20.650  1.00  0.00    -0.482 OA
ATOM      5  C   UNL     1      15.298  15.550  21.859  1.00  0.00     0.131 A 
ATOM      6  C   UNL     1      15.295  14.830  23.057  1.00  0.00     0.093 A 
ATOM      7  C   UNL     1      15.201  15.500  24.282  1.00  0.00     0.122 A 
ATOM      8  C   UNL     1      15.118  16.894  24.306  1.00  0.00     0.092 A 
ATOM      9  C   UNL     1      15.122  17.631  23.116  1.00  0.00     0.126 A 
ATOM     10  C   UNL     1      15.173  16.957  21.873  1.00  0.00     0.039 A 
ENDROOT
BRANCH   2  11
ATOM     11  O   UNL     1      14.958  17.507  18.155  1.00  0.00    -0.389 OA
ATOM     12  H   UNL     1      15.413  18.366  18.360  1.00  0.00     0.211 HD
ENDBRANCH   2  11
BRANCH   3  13
ATOM     13  C   UNL     1      15.223  14.594  18.269  1.00  0.00    -0.001 A 
ATOM     14  C   UNL     1      15.912  13.387  18.074  1.00  0.00     0.057 A 
ATOM     15  C   UNL     1      14.210  14.957  17.368  1.00  0.00     0.012 A 
ATOM     16  C   UNL     1      15.586  12.536  17.010  1.00  0.00     0.157 A 
ATOM     17  C   UNL     1      13.877  14.113  16.306  1.00  0.00     0.050 A 
ATOM     18  C   UNL     1      14.552  12.903  16.116  1.00  0.00     0.157 A 
BRANCH  16  19
ATOM     19  O   UNL     1      16.308  11.349  16.880  1.00  0.00    -0.504 OA
ATOM     20  H   UNL     1      15.886  10.433  16.821  1.00  0.00     0.293 HD
ENDBRANCH  16  19
BRANCH  18  21
ATOM     21  O   UNL     1      14.169  12.106  15.035  1.00  0.00    -0.504 OA
ATOM     22  H   UNL     1      13.967  12.464  14.113  1.00  0.00     0.293 HD
ENDBRANCH  18  21
ENDBRANCH   3  13
BRANCH   9  23
ATOM     23  O   UNL     1      15.083  19.024  23.208  1.00  0.00    -0.507 OA
ATOM     24  H   UNL     1      14.465  19.601  22.653  1.00  0.00     0.293 HD
ENDBRANCH   9  23
BRANCH   7  25
ATOM     25  O   UNL     1      15.195  14.789  25.480  1.00  0.00    -0.508 OA
ATOM     26  H   UNL     1      14.601  15.062  26.255  1.00  0.00     0.293 HD
ENDBRANCH   7  25
TORSDOF 6
ENDMDL
