MODEL 1
REMARK VINA RESULT:    -5.238      0.000      0.000
REMARK INTER + INTRA:         -14.524
REMARK INTER:                 -11.363
REMARK INTRA:                  -3.160
REMARK UNBOUND:                -3.160
REMARK SMILES CCCCCCCCCCCCCCCCCCCCCC(=O)[O-]
REMARK SMILES IDX 12 1 11 2 10 3 9 4 8 5 7 6 6 7 5 8 4 9 3 10 2 11 1 12 13 13
REMARK SMILES IDX 14 14 15 15 16 16 17 17 18 18 19 19 20 20 21 21 22 22 23 23
REMARK SMILES IDX 24 24
REMARK H PARENT
REMARK Flexibility Score: inf
ROOT
ATOM      1  C   UNL     1      -1.879   8.715  21.873  1.00  0.00     0.000 C 
ENDROOT
BRANCH   1   2
ATOM      2  C   UNL     1      -2.927   8.918  20.770  1.00  0.00     0.000 C 
BRANCH   2   3
ATOM      3  C   UNL     1      -3.869  10.106  21.046  1.00  0.00     0.000 C 
BRANCH   3   4
ATOM      4  C   UNL     1      -3.162  11.444  21.335  1.00  0.00    -0.000 C 
BRANCH   4   5
ATOM      5  C   UNL     1      -3.653  12.183  22.593  1.00  0.00    -0.000 C 
BRANCH   5   6
ATOM      6  C   UNL     1      -3.058  11.637  23.912  1.00  0.00    -0.000 C 
BRANCH   6   7
ATOM      7  C   UNL     1      -4.088  11.012  24.874  1.00  0.00    -0.000 C 
BRANCH   7   8
ATOM      8  C   UNL     1      -3.706  11.040  26.370  1.00  0.00    -0.000 C 
BRANCH   8   9
ATOM      9  C   UNL     1      -3.445   9.663  27.008  1.00  0.00    -0.000 C 
BRANCH   9  10
ATOM     10  C   UNL     1      -2.442   9.725  28.169  1.00  0.00    -0.000 C 
BRANCH  10  11
ATOM     11  C   UNL     1      -2.147  11.176  28.562  1.00  0.00    -0.003 C 
ATOM     12  C   UNL     1      -2.464  11.425  30.034  1.00  0.00     0.004 C 
ENDBRANCH  10  11
ENDBRANCH   9  10
ENDBRANCH   8   9
ENDBRANCH   7   8
ENDBRANCH   6   7
ENDBRANCH   5   6
ENDBRANCH   4   5
ENDBRANCH   3   4
ENDBRANCH   2   3
ENDBRANCH   1   2
BRANCH   1  13
ATOM     13  C   UNL     1      -2.498   8.012  23.091  1.00  0.00     0.000 C 
BRANCH  13  14
ATOM     14  C   UNL     1      -1.667   8.197  24.371  1.00  0.00     0.000 C 
BRANCH  14  15
ATOM     15  C   UNL     1      -0.538   9.227  24.197  1.00  0.00     0.000 C 
BRANCH  15  16
ATOM     16  C   UNL     1      -0.001   9.750  25.539  1.00  0.00     0.000 C 
BRANCH  16  17
ATOM     17  C   UNL     1       1.495  10.096  25.489  1.00  0.00     0.000 C 
BRANCH  17  18
ATOM     18  C   UNL     1       1.713  11.615  25.545  1.00  0.00     0.000 C 
BRANCH  18  19
ATOM     19  C   UNL     1       0.600  12.328  26.340  1.00  0.00     0.000 C 
BRANCH  19  20
ATOM     20  C   UNL     1       0.183  13.688  25.748  1.00  0.00     0.006 C 
BRANCH  20  21
ATOM     21  C   UNL     1       1.298  14.750  25.769  1.00  0.00     0.053 C 
BRANCH  21  22
ATOM     22  C   UNL     1       1.762  15.128  24.393  1.00  0.00     0.041 C 
ATOM     23  O   UNL     1       2.746  14.541  23.872  1.00  0.00    -0.550 OA
ATOM     24  O   UNL     1       1.146  16.168  23.707  1.00  0.00    -0.550 OA
ENDBRANCH  21  22
ENDBRANCH  20  21
ENDBRANCH  19  20
ENDBRANCH  18  19
ENDBRANCH  17  18
ENDBRANCH  16  17
ENDBRANCH  15  16
ENDBRANCH  14  15
ENDBRANCH  13  14
ENDBRANCH   1  13
TORSDOF 20
ENDMDL
MODEL 2
REMARK VINA RESULT:    -5.064      2.499      5.990
REMARK INTER + INTRA:         -14.145
REMARK INTER:                 -11.352
REMARK INTRA:                  -2.794
REMARK UNBOUND:                -3.160
REMARK SMILES CCCCCCCCCCCCCCCCCCCCCC(=O)[O-]
REMARK SMILES IDX 12 1 11 2 10 3 9 4 8 5 7 6 6 7 5 8 4 9 3 10 2 11 1 12 13 13
REMARK SMILES IDX 14 14 15 15 16 16 17 17 18 18 19 19 20 20 21 21 22 22 23 23
REMARK SMILES IDX 24 24
REMARK H PARENT
REMARK Flexibility Score: inf
ROOT
ATOM      1  C   UNL     1      -2.534   7.899  22.864  1.00  0.00     0.000 C 
ENDROOT
BRANCH   1   2
ATOM      2  C   UNL     1      -1.792   8.215  24.170  1.00  0.00     0.000 C 
BRANCH   2   3
ATOM      3  C   UNL     1      -0.650   9.233  23.982  1.00  0.00     0.000 C 
BRANCH   3   4
ATOM      4  C   UNL     1      -0.007   9.737  25.288  1.00  0.00    -0.000 C 
BRANCH   4   5
ATOM      5  C   UNL     1       1.456  10.200  25.159  1.00  0.00    -0.000 C 
BRANCH   5   6
ATOM      6  C   UNL     1       1.734  11.580  25.800  1.00  0.00    -0.000 C 
BRANCH   6   7
ATOM      7  C   UNL     1       0.564  12.156  26.623  1.00  0.00    -0.000 C 
BRANCH   7   8
ATOM      8  C   UNL     1       0.400  13.690  26.567  1.00  0.00    -0.000 C 
BRANCH   8   9
ATOM      9  C   UNL     1       0.823  14.349  25.241  1.00  0.00    -0.000 C 
BRANCH   9  10
ATOM     10  C   UNL     1       2.023  15.293  25.401  1.00  0.00    -0.000 C 
BRANCH  10  11
ATOM     11  C   UNL     1       2.978  15.172  24.208  1.00  0.00    -0.003 C 
ATOM     12  C   UNL     1       3.320  16.544  23.634  1.00  0.00     0.004 C 
ENDBRANCH  10  11
ENDBRANCH   9  10
ENDBRANCH   8   9
ENDBRANCH   7   8
ENDBRANCH   6   7
ENDBRANCH   5   6
ENDBRANCH   4   5
ENDBRANCH   3   4
ENDBRANCH   2   3
ENDBRANCH   1   2
BRANCH   1  13
ATOM     13  C   UNL     1      -1.680   8.278  21.645  1.00  0.00     0.000 C 
BRANCH  13  14
ATOM     14  C   UNL     1      -2.498   8.950  20.530  1.00  0.00     0.000 C 
BRANCH  14  15
ATOM     15  C   UNL     1      -3.674   9.776  21.078  1.00  0.00     0.000 C 
BRANCH  15  16
ATOM     16  C   UNL     1      -3.264  11.204  21.470  1.00  0.00     0.000 C 
BRANCH  16  17
ATOM     17  C   UNL     1      -4.305  11.900  22.361  1.00  0.00     0.000 C 
BRANCH  17  18
ATOM     18  C   UNL     1      -4.477  11.159  23.694  1.00  0.00     0.000 C 
BRANCH  18  19
ATOM     19  C   UNL     1      -3.339  11.485  24.685  1.00  0.00     0.000 C 
BRANCH  19  20
ATOM     20  C   UNL     1      -3.506  10.824  26.067  1.00  0.00     0.006 C 
BRANCH  20  21
ATOM     21  C   UNL     1      -2.887  11.629  27.225  1.00  0.00     0.053 C 
BRANCH  21  22
ATOM     22  C   UNL     1      -2.393  10.752  28.338  1.00  0.00     0.041 C 
ATOM     23  O   UNL     1      -1.973  11.263  29.409  1.00  0.00    -0.550 OA
ATOM     24  O   UNL     1      -2.338   9.373  28.173  1.00  0.00    -0.550 OA
ENDBRANCH  21  22
ENDBRANCH  20  21
ENDBRANCH  19  20
ENDBRANCH  18  19
ENDBRANCH  17  18
ENDBRANCH  16  17
ENDBRANCH  15  16
ENDBRANCH  14  15
ENDBRANCH  13  14
ENDBRANCH   1  13
TORSDOF 20
ENDMDL
MODEL 3
REMARK VINA RESULT:    -4.756      3.469      7.755
REMARK INTER + INTRA:         -13.477
REMARK INTER:                 -11.368
REMARK INTRA:                  -2.109
REMARK UNBOUND:                -3.160
REMARK SMILES CCCCCCCCCCCCCCCCCCCCCC(=O)[O-]
REMARK SMILES IDX 12 1 11 2 10 3 9 4 8 5 7 6 6 7 5 8 4 9 3 10 2 11 1 12 13 13
REMARK SMILES IDX 14 14 15 15 16 16 17 17 18 18 19 19 20 20 21 21 22 22 23 23
REMARK SMILES IDX 24 24
REMARK H PARENT
REMARK Flexibility Score: inf
ROOT
ATOM      1  C   UNL     1      -0.827  13.083  26.861  1.00  0.00     0.000 C 
ENDROOT
BRANCH   1   2
ATOM      2  C   UNL     1       0.430  13.169  25.983  1.00  0.00     0.000 C 
BRANCH   2   3
ATOM      3  C   UNL     1       0.875  14.618  25.710  1.00  0.00     0.000 C 
BRANCH   3   4
ATOM      4  C   UNL     1       2.070  14.761  24.747  1.00  0.00    -0.000 C 
BRANCH   4   5
ATOM      5  C   UNL     1       1.979  15.943  23.765  1.00  0.00    -0.000 C 
BRANCH   5   6
ATOM      6  C   UNL     1       3.343  16.601  23.450  1.00  0.00    -0.000 C 
BRANCH   6   7
ATOM      7  C   UNL     1       3.424  18.106  23.778  1.00  0.00    -0.000 C 
BRANCH   7   8
ATOM      8  C   UNL     1       3.045  18.495  25.224  1.00  0.00    -0.000 C 
BRANCH   8   9
ATOM      9  C   UNL     1       1.866  19.475  25.354  1.00  0.00    -0.000 C 
BRANCH   9  10
ATOM     10  C   UNL     1       1.405  20.036  24.001  1.00  0.00    -0.000 C 
BRANCH  10  11
ATOM     11  C   UNL     1      -0.092  19.788  23.785  1.00  0.00    -0.003 C 
ATOM     12  C   UNL     1      -0.341  18.984  22.512  1.00  0.00     0.004 C 
ENDBRANCH  10  11
ENDBRANCH   9  10
ENDBRANCH   8   9
ENDBRANCH   7   8
ENDBRANCH   6   7
ENDBRANCH   5   6
ENDBRANCH   4   5
ENDBRANCH   3   4
ENDBRANCH   2   3
ENDBRANCH   1   2
BRANCH   1  13
ATOM     13  C   UNL     1      -2.041  12.634  26.035  1.00  0.00     0.000 C 
BRANCH  13  14
ATOM     14  C   UNL     1      -2.905  11.593  26.764  1.00  0.00     0.000 C 
BRANCH  14  15
ATOM     15  C   UNL     1      -2.119  10.823  27.839  1.00  0.00     0.000 C 
BRANCH  15  16
ATOM     16  C   UNL     1      -2.121   9.304  27.601  1.00  0.00     0.000 C 
BRANCH  16  17
ATOM     17  C   UNL     1      -2.013   8.934  26.114  1.00  0.00     0.000 C 
BRANCH  17  18
ATOM     18  C   UNL     1      -0.590   9.172  25.587  1.00  0.00     0.000 C 
BRANCH  18  19
ATOM     19  C   UNL     1      -0.553   9.261  24.047  1.00  0.00     0.000 C 
BRANCH  19  20
ATOM     20  C   UNL     1      -1.870   9.758  23.419  1.00  0.00     0.006 C 
BRANCH  20  21
ATOM     21  C   UNL     1      -2.478   8.787  22.390  1.00  0.00     0.053 C 
BRANCH  21  22
ATOM     22  C   UNL     1      -3.203   9.497  21.284  1.00  0.00     0.041 C 
ATOM     23  O   UNL     1      -3.254  10.754  21.265  1.00  0.00    -0.550 OA
ATOM     24  O   UNL     1      -3.873   8.772  20.306  1.00  0.00    -0.550 OA
ENDBRANCH  21  22
ENDBRANCH  20  21
ENDBRANCH  19  20
ENDBRANCH  18  19
ENDBRANCH  17  18
ENDBRANCH  16  17
ENDBRANCH  15  16
ENDBRANCH  14  15
ENDBRANCH  13  14
ENDBRANCH   1  13
TORSDOF 20
ENDMDL
MODEL 4
REMARK VINA RESULT:    -4.755      2.128      6.087
REMARK INTER + INTRA:         -13.476
REMARK INTER:                 -11.193
REMARK INTRA:                  -2.282
REMARK UNBOUND:                -3.160
REMARK SMILES CCCCCCCCCCCCCCCCCCCCCC(=O)[O-]
REMARK SMILES IDX 12 1 11 2 10 3 9 4 8 5 7 6 6 7 5 8 4 9 3 10 2 11 1 12 13 13
REMARK SMILES IDX 14 14 15 15 16 16 17 17 18 18 19 19 20 20 21 21 22 22 23 23
REMARK SMILES IDX 24 24
REMARK H PARENT
REMARK Flexibility Score: inf
ROOT
ATOM      1  C   UNL     1      -4.338  11.142  23.733  1.00  0.00     0.000 C 
ENDROOT
BRANCH   1   2
ATOM      2  C   UNL     1      -3.085  11.801  24.327  1.00  0.00     0.000 C 
BRANCH   2   3
ATOM      3  C   UNL     1      -2.898  11.498  25.826  1.00  0.00     0.000 C 
BRANCH   3   4
ATOM      4  C   UNL     1      -2.081  12.546  26.604  1.00  0.00    -0.000 C 
BRANCH   4   5
ATOM      5  C   UNL     1      -1.070  13.344  25.760  1.00  0.00    -0.000 C 
BRANCH   5   6
ATOM      6  C   UNL     1       0.283  13.588  26.470  1.00  0.00    -0.000 C 
BRANCH   6   7
ATOM      7  C   UNL     1       1.178  14.652  25.803  1.00  0.00    -0.000 C 
BRANCH   7   8
ATOM      8  C   UNL     1       2.408  14.109  25.044  1.00  0.00    -0.000 C 
BRANCH   8   9
ATOM      9  C   UNL     1       2.895  14.979  23.871  1.00  0.00    -0.000 C 
BRANCH   9  10
ATOM     10  C   UNL     1       2.069  16.262  23.699  1.00  0.00    -0.000 C 
BRANCH  10  11
ATOM     11  C   UNL     1       2.976  17.496  23.642  1.00  0.00    -0.003 C 
ATOM     12  C   UNL     1       4.448  17.096  23.591  1.00  0.00     0.004 C 
ENDBRANCH  10  11
ENDBRANCH   9  10
ENDBRANCH   8   9
ENDBRANCH   7   8
ENDBRANCH   6   7
ENDBRANCH   5   6
ENDBRANCH   4   5
ENDBRANCH   3   4
ENDBRANCH   2   3
ENDBRANCH   1   2
BRANCH   1  13
ATOM     13  C   UNL     1      -4.226  11.032  22.205  1.00  0.00     0.000 C 
BRANCH  13  14
ATOM     14  C   UNL     1      -4.046   9.583  21.725  1.00  0.00     0.000 C 
BRANCH  14  15
ATOM     15  C   UNL     1      -3.013   9.460  20.591  1.00  0.00     0.000 C 
BRANCH  15  16
ATOM     16  C   UNL     1      -1.852   8.518  20.947  1.00  0.00     0.000 C 
BRANCH  16  17
ATOM     17  C   UNL     1      -1.888   8.054  22.411  1.00  0.00     0.000 C 
BRANCH  17  18
ATOM     18  C   UNL     1      -0.923   8.878  23.277  1.00  0.00     0.000 C 
BRANCH  18  19
ATOM     19  C   UNL     1      -1.285   8.804  24.774  1.00  0.00     0.000 C 
BRANCH  19  20
ATOM     20  C   UNL     1      -0.104   9.098  25.718  1.00  0.00     0.006 C 
BRANCH  20  21
ATOM     21  C   UNL     1       0.960  10.035  25.117  1.00  0.00     0.053 C 
BRANCH  21  22
ATOM     22  C   UNL     1       2.316   9.839  25.731  1.00  0.00     0.041 C 
ATOM     23  O   UNL     1       2.968  10.828  26.155  1.00  0.00    -0.550 OA
ATOM     24  O   UNL     1       2.886   8.573  25.780  1.00  0.00    -0.550 OA
ENDBRANCH  21  22
ENDBRANCH  20  21
ENDBRANCH  19  20
ENDBRANCH  18  19
ENDBRANCH  17  18
ENDBRANCH  16  17
ENDBRANCH  15  16
ENDBRANCH  14  15
ENDBRANCH  13  14
ENDBRANCH   1  13
TORSDOF 20
ENDMDL
MODEL 5
REMARK VINA RESULT:    -4.754      2.135      4.401
REMARK INTER + INTRA:         -13.474
REMARK INTER:                 -11.212
REMARK INTRA:                  -2.261
REMARK UNBOUND:                -3.160
REMARK SMILES CCCCCCCCCCCCCCCCCCCCCC(=O)[O-]
REMARK SMILES IDX 12 1 11 2 10 3 9 4 8 5 7 6 6 7 5 8 4 9 3 10 2 11 1 12 13 13
REMARK SMILES IDX 14 14 15 15 16 16 17 17 18 18 19 19 20 20 21 21 22 22 23 23
REMARK SMILES IDX 24 24
REMARK H PARENT
REMARK Flexibility Score: inf
ROOT
ATOM      1  C   UNL     1      -2.387  12.011  24.514  1.00  0.00     0.000 C 
ENDROOT
BRANCH   1   2
ATOM      2  C   UNL     1      -3.759  11.371  24.261  1.00  0.00     0.000 C 
BRANCH   2   3
ATOM      3  C   UNL     1      -4.213  11.479  22.793  1.00  0.00     0.000 C 
BRANCH   3   4
ATOM      4  C   UNL     1      -3.121  11.172  21.750  1.00  0.00    -0.000 C 
BRANCH   4   5
ATOM      5  C   UNL     1      -3.161   9.748  21.164  1.00  0.00    -0.000 C 
BRANCH   5   6
ATOM      6  C   UNL     1      -2.077   8.805  21.737  1.00  0.00    -0.000 C 
BRANCH   6   7
ATOM      7  C   UNL     1      -2.511   8.008  22.984  1.00  0.00    -0.000 C 
BRANCH   7   8
ATOM      8  C   UNL     1      -1.761   8.351  24.290  1.00  0.00    -0.000 C 
BRANCH   8   9
ATOM      9  C   UNL     1      -0.566   9.308  24.129  1.00  0.00    -0.000 C 
BRANCH   9  10
ATOM     10  C   UNL     1       0.341   9.341  25.367  1.00  0.00    -0.000 C 
BRANCH  10  11
ATOM     11  C   UNL     1       1.747   9.832  25.004  1.00  0.00    -0.003 C 
ATOM     12  C   UNL     1       2.784   9.323  26.002  1.00  0.00     0.004 C 
ENDBRANCH  10  11
ENDBRANCH   9  10
ENDBRANCH   8   9
ENDBRANCH   7   8
ENDBRANCH   6   7
ENDBRANCH   5   6
ENDBRANCH   4   5
ENDBRANCH   3   4
ENDBRANCH   2   3
ENDBRANCH   1   2
BRANCH   1  13
ATOM     13  C   UNL     1      -2.171  12.263  26.014  1.00  0.00     0.000 C 
BRANCH  13  14
ATOM     14  C   UNL     1      -1.252  13.464  26.289  1.00  0.00     0.000 C 
BRANCH  14  15
ATOM     15  C   UNL     1       0.158  13.039  26.735  1.00  0.00     0.000 C 
BRANCH  15  16
ATOM     16  C   UNL     1       1.229  13.334  25.673  1.00  0.00     0.000 C 
BRANCH  16  17
ATOM     17  C   UNL     1       1.543  14.833  25.544  1.00  0.00     0.000 C 
BRANCH  17  18
ATOM     18  C   UNL     1       2.830  15.061  24.739  1.00  0.00     0.000 C 
BRANCH  18  19
ATOM     19  C   UNL     1       2.704  16.264  23.780  1.00  0.00     0.000 C 
BRANCH  19  20
ATOM     20  C   UNL     1       1.747  17.362  24.279  1.00  0.00     0.006 C 
BRANCH  20  21
ATOM     21  C   UNL     1       0.628  17.719  23.282  1.00  0.00     0.053 C 
BRANCH  21  22
ATOM     22  C   UNL     1       0.367  19.195  23.210  1.00  0.00     0.041 C 
ATOM     23  O   UNL     1       1.172  19.952  22.608  1.00  0.00    -0.550 OA
ATOM     24  O   UNL     1      -0.732  19.745  23.858  1.00  0.00    -0.550 OA
ENDBRANCH  21  22
ENDBRANCH  20  21
ENDBRANCH  19  20
ENDBRANCH  18  19
ENDBRANCH  17  18
ENDBRANCH  16  17
ENDBRANCH  15  16
ENDBRANCH  14  15
ENDBRANCH  13  14
ENDBRANCH   1  13
TORSDOF 20
ENDMDL
MODEL 6
REMARK VINA RESULT:    -4.670      3.637      8.540
REMARK INTER + INTRA:         -13.291
REMARK INTER:                 -11.139
REMARK INTRA:                  -2.152
REMARK UNBOUND:                -3.160
REMARK SMILES CCCCCCCCCCCCCCCCCCCCCC(=O)[O-]
REMARK SMILES IDX 12 1 11 2 10 3 9 4 8 5 7 6 6 7 5 8 4 9 3 10 2 11 1 12 13 13
REMARK SMILES IDX 14 14 15 15 16 16 17 17 18 18 19 19 20 20 21 21 22 22 23 23
REMARK SMILES IDX 24 24
REMARK H PARENT
REMARK Flexibility Score: inf
ROOT
ATOM      1  C   UNL     1       1.244  15.186  25.453  1.00  0.00     0.000 C 
ENDROOT
BRANCH   1   2
ATOM      2  C   UNL     1       1.688  15.919  24.179  1.00  0.00     0.000 C 
BRANCH   2   3
ATOM      3  C   UNL     1       3.055  15.438  23.653  1.00  0.00     0.000 C 
BRANCH   3   4
ATOM      4  C   UNL     1       4.152  16.518  23.609  1.00  0.00    -0.000 C 
BRANCH   4   5
ATOM      5  C   UNL     1       3.778  17.856  24.275  1.00  0.00    -0.000 C 
BRANCH   5   6
ATOM      6  C   UNL     1       4.527  19.076  23.690  1.00  0.00    -0.000 C 
BRANCH   6   7
ATOM      7  C   UNL     1       4.089  19.480  22.268  1.00  0.00    -0.000 C 
BRANCH   7   8
ATOM      8  C   UNL     1       3.342  20.826  22.156  1.00  0.00    -0.000 C 
BRANCH   8   9
ATOM      9  C   UNL     1       1.807  20.723  22.099  1.00  0.00    -0.000 C 
BRANCH   9  10
ATOM     10  C   UNL     1       1.150  20.830  23.483  1.00  0.00    -0.000 C 
BRANCH  10  11
ATOM     11  C   UNL     1       0.517  19.496  23.893  1.00  0.00    -0.003 C 
ATOM     12  C   UNL     1      -0.208  18.844  22.719  1.00  0.00     0.004 C 
ENDBRANCH  10  11
ENDBRANCH   9  10
ENDBRANCH   8   9
ENDBRANCH   7   8
ENDBRANCH   6   7
ENDBRANCH   5   6
ENDBRANCH   4   5
ENDBRANCH   3   4
ENDBRANCH   2   3
ENDBRANCH   1   2
BRANCH   1  13
ATOM     13  C   UNL     1       1.758  13.738  25.457  1.00  0.00     0.000 C 
BRANCH  13  14
ATOM     14  C   UNL     1       0.803  12.770  26.174  1.00  0.00     0.000 C 
BRANCH  14  15
ATOM     15  C   UNL     1      -0.420  13.485  26.776  1.00  0.00     0.000 C 
BRANCH  15  16
ATOM     16  C   UNL     1      -1.744  13.019  26.151  1.00  0.00     0.000 C 
BRANCH  16  17
ATOM     17  C   UNL     1      -2.668  12.322  27.162  1.00  0.00     0.000 C 
BRANCH  17  18
ATOM     18  C   UNL     1      -1.934  11.186  27.889  1.00  0.00     0.000 C 
BRANCH  18  19
ATOM     19  C   UNL     1      -2.579   9.812  27.610  1.00  0.00     0.000 C 
BRANCH  19  20
ATOM     20  C   UNL     1      -1.779   8.935  26.629  1.00  0.00     0.006 C 
BRANCH  20  21
ATOM     21  C   UNL     1      -1.823   9.426  25.170  1.00  0.00     0.053 C 
BRANCH  21  22
ATOM     22  C   UNL     1      -0.496   9.304  24.479  1.00  0.00     0.041 C 
ATOM     23  O   UNL     1      -0.441   8.960  23.270  1.00  0.00    -0.550 OA
ATOM     24  O   UNL     1       0.683   9.511  25.184  1.00  0.00    -0.550 OA
ENDBRANCH  21  22
ENDBRANCH  20  21
ENDBRANCH  19  20
ENDBRANCH  18  19
ENDBRANCH  17  18
ENDBRANCH  16  17
ENDBRANCH  15  16
ENDBRANCH  14  15
ENDBRANCH  13  14
ENDBRANCH   1  13
TORSDOF 20
ENDMDL
MODEL 7
REMARK VINA RESULT:    -4.664      3.778      8.547
REMARK INTER + INTRA:         -13.277
REMARK INTER:                 -10.781
REMARK INTRA:                  -2.496
REMARK UNBOUND:                -3.160
REMARK SMILES CCCCCCCCCCCCCCCCCCCCCC(=O)[O-]
REMARK SMILES IDX 12 1 11 2 10 3 9 4 8 5 7 6 6 7 5 8 4 9 3 10 2 11 1 12 13 13
REMARK SMILES IDX 14 14 15 15 16 16 17 17 18 18 19 19 20 20 21 21 22 22 23 23
REMARK SMILES IDX 24 24
REMARK H PARENT
REMARK Flexibility Score: inf
ROOT
ATOM      1  C   UNL     1       3.659  14.230  24.118  1.00  0.00     0.000 C 
ENDROOT
BRANCH   1   2
ATOM      2  C   UNL     1       3.056  15.570  23.671  1.00  0.00     0.000 C 
BRANCH   2   3
ATOM      3  C   UNL     1       4.106  16.691  23.549  1.00  0.00     0.000 C 
BRANCH   3   4
ATOM      4  C   UNL     1       3.702  18.033  24.189  1.00  0.00    -0.000 C 
BRANCH   4   5
ATOM      5  C   UNL     1       2.752  17.920  25.396  1.00  0.00    -0.000 C 
BRANCH   5   6
ATOM      6  C   UNL     1       1.384  18.610  25.181  1.00  0.00    -0.000 C 
BRANCH   6   7
ATOM      7  C   UNL     1       0.877  18.597  23.725  1.00  0.00    -0.000 C 
BRANCH   7   8
ATOM      8  C   UNL     1       0.587  19.982  23.107  1.00  0.00    -0.000 C 
BRANCH   8   9
ATOM      9  C   UNL     1       1.695  20.541  22.196  1.00  0.00    -0.000 C 
BRANCH   9  10
ATOM     10  C   UNL     1       2.184  21.929  22.636  1.00  0.00    -0.000 C 
BRANCH  10  11
ATOM     11  C   UNL     1       2.114  22.078  24.159  1.00  0.00    -0.003 C 
ATOM     12  C   UNL     1       3.455  21.749  24.809  1.00  0.00     0.004 C 
ENDBRANCH  10  11
ENDBRANCH   9  10
ENDBRANCH   8   9
ENDBRANCH   7   8
ENDBRANCH   6   7
ENDBRANCH   5   6
ENDBRANCH   4   5
ENDBRANCH   3   4
ENDBRANCH   2   3
ENDBRANCH   1   2
BRANCH   1  13
ATOM     13  C   UNL     1       2.708  13.497  25.076  1.00  0.00     0.000 C 
BRANCH  13  14
ATOM     14  C   UNL     1       1.451  14.317  25.410  1.00  0.00     0.000 C 
BRANCH  14  15
ATOM     15  C   UNL     1       0.479  13.558  26.331  1.00  0.00     0.000 C 
BRANCH  15  16
ATOM     16  C   UNL     1      -0.944  13.482  25.757  1.00  0.00     0.000 C 
BRANCH  16  17
ATOM     17  C   UNL     1      -1.960  12.906  26.755  1.00  0.00     0.000 C 
BRANCH  17  18
ATOM     18  C   UNL     1      -2.527  11.568  26.258  1.00  0.00     0.000 C 
BRANCH  18  19
ATOM     19  C   UNL     1      -2.034  11.227  24.836  1.00  0.00     0.000 C 
BRANCH  19  20
ATOM     20  C   UNL     1      -1.230   9.916  24.752  1.00  0.00     0.006 C 
BRANCH  20  21
ATOM     21  C   UNL     1      -0.051   9.839  25.741  1.00  0.00     0.053 C 
BRANCH  21  22
ATOM     22  C   UNL     1       1.270   9.659  25.051  1.00  0.00     0.041 C 
ATOM     23  O   UNL     1       1.312   9.328  23.838  1.00  0.00    -0.550 OA
ATOM     24  O   UNL     1       2.456   9.798  25.762  1.00  0.00    -0.550 OA
ENDBRANCH  21  22
ENDBRANCH  20  21
ENDBRANCH  19  20
ENDBRANCH  18  19
ENDBRANCH  17  18
ENDBRANCH  16  17
ENDBRANCH  15  16
ENDBRANCH  14  15
ENDBRANCH  13  14
ENDBRANCH   1  13
TORSDOF 20
ENDMDL
MODEL 8
REMARK VINA RESULT:    -4.640      4.159      8.886
REMARK INTER + INTRA:         -13.225
REMARK INTER:                 -10.724
REMARK INTRA:                  -2.501
REMARK UNBOUND:                -3.160
REMARK SMILES CCCCCCCCCCCCCCCCCCCCCC(=O)[O-]
REMARK SMILES IDX 12 1 11 2 10 3 9 4 8 5 7 6 6 7 5 8 4 9 3 10 2 11 1 12 13 13
REMARK SMILES IDX 14 14 15 15 16 16 17 17 18 18 19 19 20 20 21 21 22 22 23 23
REMARK SMILES IDX 24 24
REMARK H PARENT
REMARK Flexibility Score: inf
ROOT
ATOM      1  C   UNL     1       2.917  15.811  25.005  1.00  0.00     0.000 C 
ENDROOT
BRANCH   1   2
ATOM      2  C   UNL     1       2.641  16.647  23.748  1.00  0.00     0.000 C 
BRANCH   2   3
ATOM      3  C   UNL     1       3.877  17.428  23.261  1.00  0.00     0.000 C 
BRANCH   3   4
ATOM      4  C   UNL     1       4.263  18.642  24.128  1.00  0.00    -0.000 C 
BRANCH   4   5
ATOM      5  C   UNL     1       4.677  19.900  23.343  1.00  0.00    -0.000 C 
BRANCH   5   6
ATOM      6  C   UNL     1       4.036  19.999  21.939  1.00  0.00    -0.000 C 
BRANCH   6   7
ATOM      7  C   UNL     1       3.049  21.171  21.762  1.00  0.00    -0.000 C 
BRANCH   7   8
ATOM      8  C   UNL     1       1.789  21.122  22.653  1.00  0.00    -0.000 C 
BRANCH   8   9
ATOM      9  C   UNL     1       0.985  19.811  22.583  1.00  0.00    -0.000 C 
BRANCH   9  10
ATOM     10  C   UNL     1       0.173  19.542  23.858  1.00  0.00    -0.000 C 
BRANCH  10  11
ATOM     11  C   UNL     1       0.779  20.274  25.060  1.00  0.00    -0.003 C 
ATOM     12  C   UNL     1       1.288  19.288  26.108  1.00  0.00     0.004 C 
ENDBRANCH  10  11
ENDBRANCH   9  10
ENDBRANCH   8   9
ENDBRANCH   7   8
ENDBRANCH   6   7
ENDBRANCH   5   6
ENDBRANCH   4   5
ENDBRANCH   3   4
ENDBRANCH   2   3
ENDBRANCH   1   2
BRANCH   1  13
ATOM     13  C   UNL     1       1.631  15.610  25.820  1.00  0.00     0.000 C 
BRANCH  13  14
ATOM     14  C   UNL     1       0.772  14.446  25.300  1.00  0.00     0.000 C 
BRANCH  14  15
ATOM     15  C   UNL     1       0.972  13.156  26.113  1.00  0.00     0.000 C 
BRANCH  15  16
ATOM     16  C   UNL     1      -0.346  12.593  26.666  1.00  0.00     0.000 C 
BRANCH  16  17
ATOM     17  C   UNL     1      -1.558  12.940  25.787  1.00  0.00     0.000 C 
BRANCH  17  18
ATOM     18  C   UNL     1      -2.112  11.688  25.091  1.00  0.00     0.000 C 
BRANCH  18  19
ATOM     19  C   UNL     1      -1.407  10.402  25.572  1.00  0.00     0.000 C 
BRANCH  19  20
ATOM     20  C   UNL     1      -0.798   9.561  24.434  1.00  0.00     0.006 C 
BRANCH  20  21
ATOM     21  C   UNL     1      -1.807   8.635  23.729  1.00  0.00     0.053 C 
BRANCH  21  22
ATOM     22  C   UNL     1      -2.037   9.015  22.296  1.00  0.00     0.041 C 
ATOM     23  O   UNL     1      -2.660  10.072  22.013  1.00  0.00    -0.550 OA
ATOM     24  O   UNL     1      -1.618   8.175  21.272  1.00  0.00    -0.550 OA
ENDBRANCH  21  22
ENDBRANCH  20  21
ENDBRANCH  19  20
ENDBRANCH  18  19
ENDBRANCH  17  18
ENDBRANCH  16  17
ENDBRANCH  15  16
ENDBRANCH  14  15
ENDBRANCH  13  14
ENDBRANCH   1  13
TORSDOF 20
ENDMDL
MODEL 9
REMARK VINA RESULT:    -4.608      1.855      4.292
REMARK INTER + INTRA:         -13.156
REMARK INTER:                 -10.371
REMARK INTRA:                  -2.785
REMARK UNBOUND:                -3.160
REMARK SMILES CCCCCCCCCCCCCCCCCCCCCC(=O)[O-]
REMARK SMILES IDX 12 1 11 2 10 3 9 4 8 5 7 6 6 7 5 8 4 9 3 10 2 11 1 12 13 13
REMARK SMILES IDX 14 14 15 15 16 16 17 17 18 18 19 19 20 20 21 21 22 22 23 23
REMARK SMILES IDX 24 24
REMARK H PARENT
REMARK Flexibility Score: inf
ROOT
ATOM      1  C   UNL     1      -3.351  10.999  26.462  1.00  0.00     0.000 C 
ENDROOT
BRANCH   1   2
ATOM      2  C   UNL     1      -3.772   9.544  26.214  1.00  0.00     0.000 C 
BRANCH   2   3
ATOM      3  C   UNL     1      -4.834   9.405  25.106  1.00  0.00     0.000 C 
BRANCH   3   4
ATOM      4  C   UNL     1      -4.461   8.440  23.965  1.00  0.00    -0.000 C 
BRANCH   4   5
ATOM      5  C   UNL     1      -4.430   9.071  22.560  1.00  0.00    -0.000 C 
BRANCH   5   6
ATOM      6  C   UNL     1      -3.003   9.339  22.027  1.00  0.00    -0.000 C 
BRANCH   6   7
ATOM      7  C   UNL     1      -1.911   8.429  22.623  1.00  0.00    -0.000 C 
BRANCH   7   8
ATOM      8  C   UNL     1      -0.806   9.150  23.426  1.00  0.00    -0.000 C 
BRANCH   8   9
ATOM      9  C   UNL     1      -0.717   8.766  24.914  1.00  0.00    -0.000 C 
BRANCH   9  10
ATOM     10  C   UNL     1       0.240   9.669  25.706  1.00  0.00    -0.000 C 
BRANCH  10  11
ATOM     11  C   UNL     1       1.610   9.748  25.024  1.00  0.00    -0.003 C 
ATOM     12  C   UNL     1       2.691   9.093  25.880  1.00  0.00     0.004 C 
ENDBRANCH  10  11
ENDBRANCH   9  10
ENDBRANCH   8   9
ENDBRANCH   7   8
ENDBRANCH   6   7
ENDBRANCH   5   6
ENDBRANCH   4   5
ENDBRANCH   3   4
ENDBRANCH   2   3
ENDBRANCH   1   2
BRANCH   1  13
ATOM     13  C   UNL     1      -2.950  11.683  25.146  1.00  0.00     0.000 C 
BRANCH  13  14
ATOM     14  C   UNL     1      -1.718  12.589  25.298  1.00  0.00     0.000 C 
BRANCH  14  15
ATOM     15  C   UNL     1      -1.421  12.941  26.766  1.00  0.00     0.000 C 
BRANCH  15  16
ATOM     16  C   UNL     1       0.059  13.275  27.008  1.00  0.00     0.000 C 
BRANCH  16  17
ATOM     17  C   UNL     1       0.869  13.372  25.706  1.00  0.00     0.000 C 
BRANCH  17  18
ATOM     18  C   UNL     1       1.128  14.837  25.324  1.00  0.00     0.000 C 
BRANCH  18  19
ATOM     19  C   UNL     1       2.633  15.128  25.146  1.00  0.00     0.000 C 
BRANCH  19  20
ATOM     20  C   UNL     1       3.023  15.551  23.717  1.00  0.00     0.006 C 
BRANCH  20  21
ATOM     21  C   UNL     1       4.164  16.584  23.658  1.00  0.00     0.053 C 
BRANCH  21  22
ATOM     22  C   UNL     1       3.695  17.979  23.952  1.00  0.00     0.041 C 
ATOM     23  O   UNL     1       2.530  18.336  23.635  1.00  0.00    -0.550 OA
ATOM     24  O   UNL     1       4.562  18.905  24.520  1.00  0.00    -0.550 OA
ENDBRANCH  21  22
ENDBRANCH  20  21
ENDBRANCH  19  20
ENDBRANCH  18  19
ENDBRANCH  17  18
ENDBRANCH  16  17
ENDBRANCH  15  16
ENDBRANCH  14  15
ENDBRANCH  13  14
ENDBRANCH   1  13
TORSDOF 20
ENDMDL
