MODEL 1
REMARK VINA RESULT:    43.773      0.000      0.000
REMARK INTER + INTRA:          47.951
REMARK INTER:                  47.612
REMARK INTRA:                   0.339
REMARK UNBOUND:                 0.339
REMARK SMILES CC(C)c1cc2c(cc1O)[C@]1(C)CCCC(C)(C)[C@H]1CC2=O
REMARK SMILES IDX 4 1 9 2 8 3 7 4 6 5 5 6 21 7 22 8 20 9 19 10 11 11 13 12
REMARK SMILES IDX 14 13 15 14 16 15 17 16 18 17 12 18 2 19 1 20 3 21 10 22
REMARK H PARENT 10 23
REMARK Flexibility Score: inf
ROOT
ATOM      1  C   UNL     1      35.281  14.912  42.813  1.00  0.00    -0.003 A 
ATOM      2  C   UNL     1      35.545  13.793  43.628  1.00  0.00     0.119 A 
ATOM      3  C   UNL     1      35.132  12.519  43.223  1.00  0.00     0.051 A 
ATOM      4  C   UNL     1      34.477  12.310  41.991  1.00  0.00    -0.027 A 
ATOM      5  C   UNL     1      34.166  13.443  41.199  1.00  0.00     0.022 A 
ATOM      6  C   UNL     1      34.586  14.721  41.608  1.00  0.00     0.020 A 
ATOM      7  C   UNL     1      33.393  13.295  39.946  1.00  0.00     0.163 C 
ATOM      8  O   UNL     1      33.161  14.296  39.214  1.00  0.00    -0.294 OA
ATOM      9  C   UNL     1      32.828  11.969  39.553  1.00  0.00     0.086 C 
ATOM     10  C   UNL     1      33.737  10.823  40.046  1.00  0.00     0.013 C 
ATOM     11  C   UNL     1      33.999  10.895  41.598  1.00  0.00    -0.003 C 
ATOM     12  C   UNL     1      35.100   9.837  41.976  1.00  0.00     0.012 C 
ATOM     13  C   UNL     1      35.241   8.648  41.007  1.00  0.00     0.001 C 
ATOM     14  C   UNL     1      33.909   8.254  40.375  1.00  0.00     0.007 C 
ATOM     15  C   UNL     1      33.319   9.396  39.493  1.00  0.00    -0.031 C 
ATOM     16  C   UNL     1      33.875   9.230  38.053  1.00  0.00     0.011 C 
ATOM     17  C   UNL     1      31.782   9.206  39.409  1.00  0.00     0.011 C 
ATOM     18  C   UNL     1      32.716  10.631  42.431  1.00  0.00     0.017 C 
ENDROOT
BRANCH   1  19
ATOM     19  C   UNL     1      35.705  16.323  43.203  1.00  0.00     0.017 C 
ATOM     20  C   UNL     1      37.125  16.347  43.784  1.00  0.00     0.012 C 
ATOM     21  C   UNL     1      34.696  16.985  44.151  1.00  0.00     0.012 C 
ENDBRANCH   1  19
BRANCH   2  22
ATOM     22  O   UNL     1      36.216  13.938  44.841  1.00  0.00    -0.508 OA
ATOM     23  H   UNL     1      37.149  14.331  44.893  1.00  0.00     0.293 HD
ENDBRANCH   2  22
TORSDOF 2
ENDMDL
MODEL 2
REMARK VINA RESULT:    43.777      1.677      2.480
REMARK INTER + INTRA:          47.955
REMARK INTER:                  48.101
REMARK INTRA:                  -0.146
REMARK UNBOUND:                 0.339
REMARK SMILES CC(C)c1cc2c(cc1O)[C@]1(C)CCCC(C)(C)[C@H]1CC2=O
REMARK SMILES IDX 4 1 9 2 8 3 7 4 6 5 5 6 21 7 22 8 20 9 19 10 11 11 13 12
REMARK SMILES IDX 14 13 15 14 16 15 17 16 18 17 12 18 2 19 1 20 3 21 10 22
REMARK H PARENT 10 23
REMARK Flexibility Score: inf
ROOT
ATOM      1  C   UNL     1      34.903  14.931  43.526  1.00  0.00    -0.003 A 
ATOM      2  C   UNL     1      33.513  14.713  43.621  1.00  0.00     0.119 A 
ATOM      3  C   UNL     1      32.912  13.693  42.874  1.00  0.00     0.051 A 
ATOM      4  C   UNL     1      33.669  12.841  42.042  1.00  0.00    -0.027 A 
ATOM      5  C   UNL     1      35.056  13.096  41.909  1.00  0.00     0.022 A 
ATOM      6  C   UNL     1      35.656  14.120  42.663  1.00  0.00     0.020 A 
ATOM      7  C   UNL     1      35.881  12.299  40.974  1.00  0.00     0.163 C 
ATOM      8  O   UNL     1      37.125  12.491  40.894  1.00  0.00    -0.294 OA
ATOM      9  C   UNL     1      35.247  11.291  40.071  1.00  0.00     0.086 C 
ATOM     10  C   UNL     1      34.005  10.666  40.740  1.00  0.00     0.013 C 
ATOM     11  C   UNL     1      32.964  11.754  41.201  1.00  0.00    -0.003 C 
ATOM     12  C   UNL     1      31.847  11.056  42.063  1.00  0.00     0.012 C 
ATOM     13  C   UNL     1      31.649   9.551  41.802  1.00  0.00     0.001 C 
ATOM     14  C   UNL     1      31.917   9.175  40.347  1.00  0.00     0.007 C 
ATOM     15  C   UNL     1      33.397   9.440  39.936  1.00  0.00    -0.031 C 
ATOM     16  C   UNL     1      34.223   8.166  40.255  1.00  0.00     0.011 C 
ATOM     17  C   UNL     1      33.451   9.641  38.399  1.00  0.00     0.011 C 
ATOM     18  C   UNL     1      32.310  12.496  40.006  1.00  0.00     0.017 C 
ENDROOT
BRANCH   1  19
ATOM     19  C   UNL     1      35.611  16.027  44.314  1.00  0.00     0.017 C 
ATOM     20  C   UNL     1      35.289  17.421  43.760  1.00  0.00     0.012 C 
ATOM     21  C   UNL     1      37.125  15.788  44.396  1.00  0.00     0.012 C 
ENDBRANCH   1  19
BRANCH   2  22
ATOM     22  O   UNL     1      32.723  15.506  44.452  1.00  0.00    -0.508 OA
ATOM     23  H   UNL     1      33.091  15.927  45.297  1.00  0.00     0.293 HD
ENDBRANCH   2  22
TORSDOF 2
ENDMDL
MODEL 3
REMARK VINA RESULT:    44.471      2.082      6.367
REMARK INTER + INTRA:          48.709
REMARK INTER:                  48.352
REMARK INTRA:                   0.358
REMARK UNBOUND:                 0.339
REMARK SMILES CC(C)c1cc2c(cc1O)[C@]1(C)CCCC(C)(C)[C@H]1CC2=O
REMARK SMILES IDX 4 1 9 2 8 3 7 4 6 5 5 6 21 7 22 8 20 9 19 10 11 11 13 12
REMARK SMILES IDX 14 13 15 14 16 15 17 16 18 17 12 18 2 19 1 20 3 21 10 22
REMARK H PARENT 10 23
REMARK Flexibility Score: inf
ROOT
ATOM      1  C   UNL     1      34.151   9.617  40.296  1.00  0.00    -0.003 A 
ATOM      2  C   UNL     1      35.386  10.209  39.966  1.00  0.00     0.119 A 
ATOM      3  C   UNL     1      35.715  11.472  40.470  1.00  0.00     0.051 A 
ATOM      4  C   UNL     1      34.850  12.170  41.339  1.00  0.00    -0.027 A 
ATOM      5  C   UNL     1      33.587  11.597  41.628  1.00  0.00     0.022 A 
ATOM      6  C   UNL     1      33.263  10.326  41.121  1.00  0.00     0.020 A 
ATOM      7  C   UNL     1      32.600  12.329  42.451  1.00  0.00     0.163 C 
ATOM      8  O   UNL     1      31.496  11.796  42.752  1.00  0.00    -0.294 OA
ATOM      9  C   UNL     1      32.869  13.729  42.897  1.00  0.00     0.086 C 
ATOM     10  C   UNL     1      34.381  13.947  43.117  1.00  0.00     0.013 C 
ATOM     11  C   UNL     1      35.230  13.580  41.841  1.00  0.00    -0.003 C 
ATOM     12  C   UNL     1      36.757  13.618  42.219  1.00  0.00     0.012 C 
ATOM     13  C   UNL     1      37.123  14.505  43.424  1.00  0.00     0.001 C 
ATOM     14  C   UNL     1      36.220  15.730  43.536  1.00  0.00     0.007 C 
ATOM     15  C   UNL     1      34.732  15.342  43.788  1.00  0.00    -0.031 C 
ATOM     16  C   UNL     1      34.515  15.233  45.321  1.00  0.00     0.011 C 
ATOM     17  C   UNL     1      33.831  16.499  43.285  1.00  0.00     0.011 C 
ATOM     18  C   UNL     1      34.965  14.542  40.653  1.00  0.00     0.017 C 
ENDROOT
BRANCH   1  19
ATOM     19  C   UNL     1      33.738   8.246  39.776  1.00  0.00     0.017 C 
ATOM     20  C   UNL     1      34.290   7.116  40.655  1.00  0.00     0.012 C 
ATOM     21  C   UNL     1      34.120   8.052  38.302  1.00  0.00     0.012 C 
ENDBRANCH   1  19
BRANCH   2  22
ATOM     22  O   UNL     1      36.292   9.549  39.136  1.00  0.00    -0.508 OA
ATOM     23  H   UNL     1      36.089   9.368  38.159  1.00  0.00     0.293 HD
ENDBRANCH   2  22
TORSDOF 2
ENDMDL
MODEL 4
REMARK VINA RESULT:    45.588      1.595      3.639
REMARK INTER + INTRA:          49.925
REMARK INTER:                  49.936
REMARK INTRA:                  -0.011
REMARK UNBOUND:                 0.339
REMARK SMILES CC(C)c1cc2c(cc1O)[C@]1(C)CCCC(C)(C)[C@H]1CC2=O
REMARK SMILES IDX 4 1 9 2 8 3 7 4 6 5 5 6 21 7 22 8 20 9 19 10 11 11 13 12
REMARK SMILES IDX 14 13 15 14 16 15 17 16 18 17 12 18 2 19 1 20 3 21 10 22
REMARK H PARENT 10 23
REMARK Flexibility Score: inf
ROOT
ATOM      1  C   UNL     1      34.750  17.000  42.602  1.00  0.00    -0.003 A 
ATOM      2  C   UNL     1      34.253  17.016  41.283  1.00  0.00     0.119 A 
ATOM      3  C   UNL     1      34.080  15.815  40.586  1.00  0.00     0.051 A 
ATOM      4  C   UNL     1      34.359  14.566  41.181  1.00  0.00    -0.027 A 
ATOM      5  C   UNL     1      34.906  14.556  42.488  1.00  0.00     0.022 A 
ATOM      6  C   UNL     1      35.076  15.765  43.186  1.00  0.00     0.020 A 
ATOM      7  C   UNL     1      35.312  13.283  43.124  1.00  0.00     0.163 C 
ATOM      8  O   UNL     1      35.751  13.269  44.306  1.00  0.00    -0.294 OA
ATOM      9  C   UNL     1      35.259  12.001  42.359  1.00  0.00     0.086 C 
ATOM     10  C   UNL     1      34.106  12.026  41.334  1.00  0.00     0.013 C 
ATOM     11  C   UNL     1      34.194  13.265  40.365  1.00  0.00    -0.003 C 
ATOM     12  C   UNL     1      32.876  13.337  39.510  1.00  0.00     0.012 C 
ATOM     13  C   UNL     1      32.120  12.005  39.339  1.00  0.00     0.001 C 
ATOM     14  C   UNL     1      33.063  10.806  39.295  1.00  0.00     0.007 C 
ATOM     15  C   UNL     1      33.850  10.628  40.628  1.00  0.00    -0.031 C 
ATOM     16  C   UNL     1      33.005   9.732  41.572  1.00  0.00     0.011 C 
ATOM     17  C   UNL     1      35.160   9.856  40.325  1.00  0.00     0.011 C 
ATOM     18  C   UNL     1      35.424  13.195  39.421  1.00  0.00     0.017 C 
ENDROOT
BRANCH   1  19
ATOM     19  C   UNL     1      34.961  18.275  43.409  1.00  0.00     0.017 C 
ATOM     20  C   UNL     1      35.994  19.199  42.750  1.00  0.00     0.012 C 
ATOM     21  C   UNL     1      35.321  17.978  44.871  1.00  0.00     0.012 C 
ENDBRANCH   1  19
BRANCH   2  22
ATOM     22  O   UNL     1      33.932  18.220  40.658  1.00  0.00    -0.508 OA
ATOM     23  H   UNL     1      33.478  18.977  41.156  1.00  0.00     0.293 HD
ENDBRANCH   2  22
TORSDOF 2
ENDMDL
MODEL 5
REMARK VINA RESULT:    45.630      1.891      6.407
REMARK INTER + INTRA:          49.971
REMARK INTER:                  50.218
REMARK INTRA:                  -0.247
REMARK UNBOUND:                 0.339
REMARK SMILES CC(C)c1cc2c(cc1O)[C@]1(C)CCCC(C)(C)[C@H]1CC2=O
REMARK SMILES IDX 4 1 9 2 8 3 7 4 6 5 5 6 21 7 22 8 20 9 19 10 11 11 13 12
REMARK SMILES IDX 14 13 15 14 16 15 17 16 18 17 12 18 2 19 1 20 3 21 10 22
REMARK H PARENT 10 23
REMARK Flexibility Score: inf
ROOT
ATOM      1  C   UNL     1      33.358  10.579  40.494  1.00  0.00    -0.003 A 
ATOM      2  C   UNL     1      32.511  10.845  41.589  1.00  0.00     0.119 A 
ATOM      3  C   UNL     1      32.857  11.834  42.517  1.00  0.00     0.051 A 
ATOM      4  C   UNL     1      34.028  12.607  42.373  1.00  0.00    -0.027 A 
ATOM      5  C   UNL     1      34.903  12.302  41.301  1.00  0.00     0.022 A 
ATOM      6  C   UNL     1      34.550  11.310  40.369  1.00  0.00     0.020 A 
ATOM      7  C   UNL     1      36.193  13.013  41.158  1.00  0.00     0.163 C 
ATOM      8  O   UNL     1      36.948  12.778  40.175  1.00  0.00    -0.294 OA
ATOM      9  C   UNL     1      36.649  13.979  42.202  1.00  0.00     0.086 C 
ATOM     10  C   UNL     1      35.440  14.684  42.854  1.00  0.00     0.013 C 
ATOM     11  C   UNL     1      34.397  13.660  43.441  1.00  0.00    -0.003 C 
ATOM     12  C   UNL     1      33.107  14.446  43.882  1.00  0.00     0.012 C 
ATOM     13  C   UNL     1      33.315  15.937  44.209  1.00  0.00     0.001 C 
ATOM     14  C   UNL     1      34.689  16.211  44.814  1.00  0.00     0.007 C 
ATOM     15  C   UNL     1      35.844  15.874  43.823  1.00  0.00    -0.031 C 
ATOM     16  C   UNL     1      36.137  17.140  42.974  1.00  0.00     0.011 C 
ATOM     17  C   UNL     1      37.124  15.576  44.646  1.00  0.00     0.011 C 
ATOM     18  C   UNL     1      34.959  12.864  44.648  1.00  0.00     0.017 C 
ENDROOT
BRANCH   1  19
ATOM     19  C   UNL     1      33.034   9.514  39.453  1.00  0.00     0.017 C 
ATOM     20  C   UNL     1      34.294   8.770  38.992  1.00  0.00     0.012 C 
ATOM     21  C   UNL     1      32.253  10.091  38.265  1.00  0.00     0.012 C 
ENDBRANCH   1  19
BRANCH   2  22
ATOM     22  O   UNL     1      31.327  10.132  41.762  1.00  0.00    -0.508 OA
ATOM     23  H   UNL     1      30.627  10.412  42.440  1.00  0.00     0.293 HD
ENDBRANCH   2  22
TORSDOF 2
ENDMDL
MODEL 6
REMARK VINA RESULT:    46.332      1.602      6.455
REMARK INTER + INTRA:          50.734
REMARK INTER:                  50.559
REMARK INTRA:                   0.175
REMARK UNBOUND:                 0.339
REMARK SMILES CC(C)c1cc2c(cc1O)[C@]1(C)CCCC(C)(C)[C@H]1CC2=O
REMARK SMILES IDX 4 1 9 2 8 3 7 4 6 5 5 6 21 7 22 8 20 9 19 10 11 11 13 12
REMARK SMILES IDX 14 13 15 14 16 15 17 16 18 17 12 18 2 19 1 20 3 21 10 22
REMARK H PARENT 10 23
REMARK Flexibility Score: inf
ROOT
ATOM      1  C   UNL     1      33.847  11.459  40.706  1.00  0.00    -0.003 A 
ATOM      2  C   UNL     1      34.309  11.264  42.024  1.00  0.00     0.119 A 
ATOM      3  C   UNL     1      34.727  12.359  42.788  1.00  0.00     0.051 A 
ATOM      4  C   UNL     1      34.669  13.677  42.287  1.00  0.00    -0.027 A 
ATOM      5  C   UNL     1      34.253  13.864  40.945  1.00  0.00     0.022 A 
ATOM      6  C   UNL     1      33.832  12.761  40.182  1.00  0.00     0.020 A 
ATOM      7  C   UNL     1      34.268  15.212  40.335  1.00  0.00     0.163 C 
ATOM      8  O   UNL     1      33.849  15.386  39.157  1.00  0.00    -0.294 OA
ATOM      9  C   UNL     1      34.828  16.378  41.080  1.00  0.00     0.086 C 
ATOM     10  C   UNL     1      34.599  16.214  42.598  1.00  0.00     0.013 C 
ATOM     11  C   UNL     1      35.178  14.855  43.145  1.00  0.00    -0.003 C 
ATOM     12  C   UNL     1      34.711  14.668  44.636  1.00  0.00     0.012 C 
ATOM     13  C   UNL     1      34.359  15.964  45.391  1.00  0.00     0.001 C 
ATOM     14  C   UNL     1      35.213  17.147  44.941  1.00  0.00     0.007 C 
ATOM     15  C   UNL     1      34.978  17.504  43.443  1.00  0.00    -0.031 C 
ATOM     16  C   UNL     1      33.806  18.519  43.366  1.00  0.00     0.011 C 
ATOM     17  C   UNL     1      36.240  18.228  42.907  1.00  0.00     0.011 C 
ATOM     18  C   UNL     1      36.727  14.797  43.075  1.00  0.00     0.017 C 
ENDROOT
BRANCH   1  19
ATOM     19  C   UNL     1      33.381  10.305  39.827  1.00  0.00     0.017 C 
ATOM     20  C   UNL     1      32.085   9.677  40.355  1.00  0.00     0.012 C 
ATOM     21  C   UNL     1      34.480   9.251  39.632  1.00  0.00     0.012 C 
ENDBRANCH   1  19
BRANCH   2  22
ATOM     22  O   UNL     1      34.358   9.986  42.579  1.00  0.00    -0.508 OA
ATOM     23  H   UNL     1      34.729   9.820  43.508  1.00  0.00     0.293 HD
ENDBRANCH   2  22
TORSDOF 2
ENDMDL
