MODEL 1
REMARK VINA RESULT:    -4.849      0.000      0.000
REMARK INTER + INTRA:          -6.924
REMARK INTER:                  -6.266
REMARK INTRA:                  -0.658
REMARK UNBOUND:                -0.658
REMARK SMILES CCO[C@H]1O[C@@H](CO)[C@@H](O)[C@@H](O)[C@H]1O
REMARK SMILES IDX 4 1 13 2 11 3 9 4 6 5 5 6 3 7 2 8 1 9 14 10 12 12 7 14 8 15
REMARK SMILES IDX 10 17
REMARK H PARENT 14 11 12 13 8 16 10 18
REMARK Flexibility Score: inf
ROOT
ATOM      1  C   UNL     1     147.812 153.353 127.495  1.00  0.00     0.281 C 
ATOM      2  C   UNL     1     148.182 154.833 127.301  1.00  0.00     0.202 C 
ATOM      3  C   UNL     1     148.912 155.385 128.532  1.00  0.00     0.179 C 
ATOM      4  C   UNL     1     148.079 155.100 129.793  1.00  0.00     0.177 C 
ATOM      5  C   UNL     1     147.545 153.641 129.862  1.00  0.00     0.178 C 
ATOM      6  O   UNL     1     146.997 153.152 128.642  1.00  0.00    -0.341 OA
ENDROOT
BRANCH   1   7
ATOM      7  O   UNL     1     148.983 152.549 127.554  1.00  0.00    -0.350 OA
BRANCH   7   8
ATOM      8  C   UNL     1     148.980 151.523 126.580  1.00  0.00     0.160 C 
ATOM      9  C   UNL     1     150.179 151.637 125.642  1.00  0.00     0.035 C 
ENDBRANCH   7   8
ENDBRANCH   1   7
BRANCH   2  10
ATOM     10  O   UNL     1     148.975 154.971 126.150  1.00  0.00    -0.385 OA
ATOM     11  H   UNL     1     148.360 155.209 125.407  1.00  0.00     0.211 HD
ENDBRANCH   2  10
BRANCH   3  12
ATOM     12  O   UNL     1     150.199 154.834 128.651  1.00  0.00    -0.387 OA
ATOM     13  H   UNL     1     150.609 154.853 127.748  1.00  0.00     0.211 HD
ENDBRANCH   3  12
BRANCH   5  14
ATOM     14  C   UNL     1     148.455 152.609 130.566  1.00  0.00     0.191 C 
BRANCH  14  15
ATOM     15  O   UNL     1     149.806 152.962 130.504  1.00  0.00    -0.394 OA
ATOM     16  H   UNL     1     150.200 152.423 129.770  1.00  0.00     0.210 HD
ENDBRANCH  14  15
ENDBRANCH   5  14
BRANCH   4  17
ATOM     17  O   UNL     1     148.811 155.411 130.951  1.00  0.00    -0.387 OA
ATOM     18  H   UNL     1     148.155 155.505 131.691  1.00  0.00     0.211 HD
ENDBRANCH   4  17
TORSDOF 7
ENDMDL
MODEL 2
REMARK VINA RESULT:    -4.792      1.650      4.039
REMARK INTER + INTRA:          -6.850
REMARK INTER:                  -6.101
REMARK INTRA:                  -0.750
REMARK UNBOUND:                -0.658
REMARK SMILES CCO[C@H]1O[C@@H](CO)[C@@H](O)[C@@H](O)[C@H]1O
REMARK SMILES IDX 4 1 13 2 11 3 9 4 6 5 5 6 3 7 2 8 1 9 14 10 12 12 7 14 8 15
REMARK SMILES IDX 10 17
REMARK H PARENT 14 11 12 13 8 16 10 18
REMARK Flexibility Score: inf
ROOT
ATOM      1  C   UNL     1     148.332 154.213 129.398  1.00  0.00     0.281 C 
ATOM      2  C   UNL     1     149.516 154.935 128.735  1.00  0.00     0.202 C 
ATOM      3  C   UNL     1     149.393 154.909 127.206  1.00  0.00     0.179 C 
ATOM      4  C   UNL     1     149.188 153.461 126.732  1.00  0.00     0.177 C 
ATOM      5  C   UNL     1     148.121 152.687 127.558  1.00  0.00     0.178 C 
ATOM      6  O   UNL     1     148.220 152.863 128.967  1.00  0.00    -0.341 OA
ENDROOT
BRANCH   1   7
ATOM      7  O   UNL     1     147.122 154.923 129.167  1.00  0.00    -0.350 OA
BRANCH   7   8
ATOM      8  C   UNL     1     146.166 154.704 130.188  1.00  0.00     0.160 C 
ATOM      9  C   UNL     1     144.753 154.598 129.620  1.00  0.00     0.035 C 
ENDBRANCH   7   8
ENDBRANCH   1   7
BRANCH   2  10
ATOM     10  O   UNL     1     149.584 156.257 129.206  1.00  0.00    -0.385 OA
ATOM     11  H   UNL     1     148.845 156.364 129.861  1.00  0.00     0.211 HD
ENDBRANCH   2  10
BRANCH   3  12
ATOM     12  O   UNL     1     148.340 155.730 126.766  1.00  0.00    -0.387 OA
ATOM     13  H   UNL     1     147.737 155.870 127.541  1.00  0.00     0.211 HD
ENDBRANCH   3  12
BRANCH   5  14
ATOM     14  C   UNL     1     146.664 152.769 127.046  1.00  0.00     0.191 C 
BRANCH  14  15
ATOM     15  O   UNL     1     146.389 153.987 126.418  1.00  0.00    -0.394 OA
ATOM     16  H   UNL     1     146.475 154.685 127.117  1.00  0.00     0.210 HD
ENDBRANCH  14  15
ENDBRANCH   5  14
BRANCH   4  17
ATOM     17  O   UNL     1     148.870 153.427 125.364  1.00  0.00    -0.387 OA
ATOM     18  H   UNL     1     148.425 152.556 125.192  1.00  0.00     0.211 HD
ENDBRANCH   4  17
TORSDOF 7
ENDMDL
MODEL 3
REMARK VINA RESULT:    -4.547      1.739      3.489
REMARK INTER + INTRA:          -6.533
REMARK INTER:                  -5.786
REMARK INTRA:                  -0.747
REMARK UNBOUND:                -0.658
REMARK SMILES CCO[C@H]1O[C@@H](CO)[C@@H](O)[C@@H](O)[C@H]1O
REMARK SMILES IDX 4 1 13 2 11 3 9 4 6 5 5 6 3 7 2 8 1 9 14 10 12 12 7 14 8 15
REMARK SMILES IDX 10 17
REMARK H PARENT 14 11 12 13 8 16 10 18
REMARK Flexibility Score: inf
ROOT
ATOM      1  C   UNL     1     147.843 152.638 128.854  1.00  0.00     0.281 C 
ATOM      2  C   UNL     1     146.825 153.790 128.896  1.00  0.00     0.202 C 
ATOM      3  C   UNL     1     146.974 154.704 127.673  1.00  0.00     0.179 C 
ATOM      4  C   UNL     1     148.438 155.156 127.547  1.00  0.00     0.177 C 
ATOM      5  C   UNL     1     149.459 153.995 127.711  1.00  0.00     0.178 C 
ATOM      6  O   UNL     1     149.182 153.110 128.792  1.00  0.00    -0.341 OA
ENDROOT
BRANCH   1   7
ATOM      7  O   UNL     1     147.561 151.763 127.770  1.00  0.00    -0.350 OA
BRANCH   7   8
ATOM      8  C   UNL     1     147.998 150.440 128.019  1.00  0.00     0.160 C 
ATOM      9  C   UNL     1     147.696 150.009 129.452  1.00  0.00     0.035 C 
ENDBRANCH   7   8
ENDBRANCH   1   7
BRANCH   2  10
ATOM     10  O   UNL     1     145.524 153.264 128.968  1.00  0.00    -0.385 OA
ATOM     11  H   UNL     1     145.305 153.176 129.932  1.00  0.00     0.211 HD
ENDBRANCH   2  10
BRANCH   3  12
ATOM     12  O   UNL     1     146.550 154.058 126.499  1.00  0.00    -0.387 OA
ATOM     13  H   UNL     1     147.280 153.444 126.225  1.00  0.00     0.211 HD
ENDBRANCH   3  12
BRANCH   5  14
ATOM     14  C   UNL     1     149.867 153.250 126.419  1.00  0.00     0.191 C 
BRANCH  14  15
ATOM     15  O   UNL     1     148.858 153.274 125.451  1.00  0.00    -0.394 OA
ATOM     16  H   UNL     1     149.310 153.146 124.577  1.00  0.00     0.210 HD
ENDBRANCH  14  15
ENDBRANCH   5  14
BRANCH   4  17
ATOM     17  O   UNL     1     148.647 155.825 126.329  1.00  0.00    -0.387 OA
ATOM     18  H   UNL     1     148.030 155.418 125.666  1.00  0.00     0.211 HD
ENDBRANCH   4  17
TORSDOF 7
ENDMDL
MODEL 4
REMARK VINA RESULT:    -4.402      1.748      3.458
REMARK INTER + INTRA:          -6.347
REMARK INTER:                  -5.918
REMARK INTRA:                  -0.429
REMARK UNBOUND:                -0.658
REMARK SMILES CCO[C@H]1O[C@@H](CO)[C@@H](O)[C@@H](O)[C@H]1O
REMARK SMILES IDX 4 1 13 2 11 3 9 4 6 5 5 6 3 7 2 8 1 9 14 10 12 12 7 14 8 15
REMARK SMILES IDX 10 17
REMARK H PARENT 14 11 12 13 8 16 10 18
REMARK Flexibility Score: inf
ROOT
ATOM      1  C   UNL     1     149.131 153.951 128.117  1.00  0.00     0.281 C 
ATOM      2  C   UNL     1     148.494 153.208 126.931  1.00  0.00     0.202 C 
ATOM      3  C   UNL     1     146.962 153.252 127.010  1.00  0.00     0.179 C 
ATOM      4  C   UNL     1     146.507 152.750 128.390  1.00  0.00     0.177 C 
ATOM      5  C   UNL     1     147.311 153.371 129.569  1.00  0.00     0.178 C 
ATOM      6  O   UNL     1     148.720 153.414 129.367  1.00  0.00    -0.341 OA
ENDROOT
BRANCH   1   7
ATOM      7  O   UNL     1     148.851 155.342 128.043  1.00  0.00    -0.350 OA
BRANCH   7   8
ATOM      8  C   UNL     1     150.006 156.135 128.246  1.00  0.00     0.160 C 
ATOM      9  C   UNL     1     150.129 157.228 127.187  1.00  0.00     0.035 C 
ENDBRANCH   7   8
ENDBRANCH   1   7
BRANCH   2  10
ATOM     10  O   UNL     1     148.945 153.774 125.726  1.00  0.00    -0.385 OA
ATOM     11  H   UNL     1     149.782 153.297 125.483  1.00  0.00     0.211 HD
ENDBRANCH   2  10
BRANCH   3  12
ATOM     12  O   UNL     1     146.476 154.547 126.766  1.00  0.00    -0.387 OA
ATOM     13  H   UNL     1     145.487 154.483 126.720  1.00  0.00     0.211 HD
ENDBRANCH   3  12
BRANCH   5  14
ATOM     14  C   UNL     1     146.752 154.682 130.167  1.00  0.00     0.191 C 
BRANCH  14  15
ATOM     15  O   UNL     1     145.734 154.450 131.096  1.00  0.00    -0.394 OA
ATOM     16  H   UNL     1     145.244 155.309 131.191  1.00  0.00     0.210 HD
ENDBRANCH  14  15
ENDBRANCH   5  14
BRANCH   4  17
ATOM     17  O   UNL     1     145.130 152.968 128.567  1.00  0.00    -0.387 OA
ATOM     18  H   UNL     1     145.026 153.496 129.402  1.00  0.00     0.211 HD
ENDBRANCH   4  17
TORSDOF 7
ENDMDL
MODEL 5
REMARK VINA RESULT:    -4.398      1.803      4.108
REMARK INTER + INTRA:          -6.341
REMARK INTER:                  -5.947
REMARK INTRA:                  -0.393
REMARK UNBOUND:                -0.658
REMARK SMILES CCO[C@H]1O[C@@H](CO)[C@@H](O)[C@@H](O)[C@H]1O
REMARK SMILES IDX 4 1 13 2 11 3 9 4 6 5 5 6 3 7 2 8 1 9 14 10 12 12 7 14 8 15
REMARK SMILES IDX 10 17
REMARK H PARENT 14 11 12 13 8 16 10 18
REMARK Flexibility Score: inf
ROOT
ATOM      1  C   UNL     1     146.826 152.743 128.808  1.00  0.00     0.281 C 
ATOM      2  C   UNL     1     147.857 152.406 129.899  1.00  0.00     0.202 C 
ATOM      3  C   UNL     1     148.949 153.481 129.978  1.00  0.00     0.179 C 
ATOM      4  C   UNL     1     149.553 153.701 128.581  1.00  0.00     0.177 C 
ATOM      5  C   UNL     1     148.483 153.837 127.460  1.00  0.00     0.178 C 
ATOM      6  O   UNL     1     147.428 152.882 127.528  1.00  0.00    -0.341 OA
ENDROOT
BRANCH   1   7
ATOM      7  O   UNL     1     146.094 153.910 129.157  1.00  0.00    -0.350 OA
BRANCH   7   8
ATOM      8  C   UNL     1     144.780 153.898 128.633  1.00  0.00     0.160 C 
ATOM      9  C   UNL     1     143.927 155.014 129.230  1.00  0.00     0.035 C 
ENDBRANCH   7   8
ENDBRANCH   1   7
BRANCH   2  10
ATOM     10  O   UNL     1     147.204 152.269 131.135  1.00  0.00    -0.385 OA
ATOM     11  H   UNL     1     146.238 152.427 130.967  1.00  0.00     0.211 HD
ENDBRANCH   2  10
BRANCH   3  12
ATOM     12  O   UNL     1     148.442 154.685 130.496  1.00  0.00    -0.387 OA
ATOM     13  H   UNL     1     149.218 155.283 130.654  1.00  0.00     0.211 HD
ENDBRANCH   3  12
BRANCH   5  14
ATOM     14  C   UNL     1     147.976 155.267 127.164  1.00  0.00     0.191 C 
BRANCH  14  15
ATOM     15  O   UNL     1     148.783 155.936 126.239  1.00  0.00    -0.394 OA
ATOM     16  H   UNL     1     148.446 156.869 126.200  1.00  0.00     0.210 HD
ENDBRANCH  14  15
ENDBRANCH   5  14
BRANCH   4  17
ATOM     17  O   UNL     1     150.408 154.816 128.581  1.00  0.00    -0.387 OA
ATOM     18  H   UNL     1     150.742 154.924 127.652  1.00  0.00     0.211 HD
ENDBRANCH   4  17
TORSDOF 7
ENDMDL
MODEL 6
REMARK VINA RESULT:    -4.377      1.361      2.051
REMARK INTER + INTRA:          -6.313
REMARK INTER:                  -5.554
REMARK INTRA:                  -0.759
REMARK UNBOUND:                -0.658
REMARK SMILES CCO[C@H]1O[C@@H](CO)[C@@H](O)[C@@H](O)[C@H]1O
REMARK SMILES IDX 4 1 13 2 11 3 9 4 6 5 5 6 3 7 2 8 1 9 14 10 12 12 7 14 8 15
REMARK SMILES IDX 10 17
REMARK H PARENT 14 11 12 13 8 16 10 18
REMARK Flexibility Score: inf
ROOT
ATOM      1  C   UNL     1     148.720 154.601 127.504  1.00  0.00     0.281 C 
ATOM      2  C   UNL     1     149.155 155.491 128.679  1.00  0.00     0.202 C 
ATOM      3  C   UNL     1     148.509 155.026 129.992  1.00  0.00     0.179 C 
ATOM      4  C   UNL     1     146.987 154.921 129.804  1.00  0.00     0.177 C 
ATOM      5  C   UNL     1     146.575 154.188 128.496  1.00  0.00     0.178 C 
ATOM      6  O   UNL     1     147.309 154.581 127.341  1.00  0.00    -0.341 OA
ENDROOT
BRANCH   1   7
ATOM      7  O   UNL     1     149.234 153.284 127.658  1.00  0.00    -0.350 OA
BRANCH   7   8
ATOM      8  C   UNL     1     149.640 152.717 126.427  1.00  0.00     0.160 C 
ATOM      9  C   UNL     1     149.136 151.284 126.276  1.00  0.00     0.035 C 
ENDBRANCH   7   8
ENDBRANCH   1   7
BRANCH   2  10
ATOM     10  O   UNL     1     150.556 155.481 128.784  1.00  0.00    -0.385 OA
ATOM     11  H   UNL     1     150.795 156.149 129.479  1.00  0.00     0.211 HD
ENDBRANCH   2  10
BRANCH   3  12
ATOM     12  O   UNL     1     149.044 153.798 130.416  1.00  0.00    -0.387 OA
ATOM     13  H   UNL     1     149.720 154.000 131.114  1.00  0.00     0.211 HD
ENDBRANCH   3  12
BRANCH   5  14
ATOM     14  C   UNL     1     146.391 152.656 128.595  1.00  0.00     0.191 C 
BRANCH  14  15
ATOM     15  O   UNL     1     147.313 152.065 129.464  1.00  0.00    -0.394 OA
ATOM     16  H   UNL     1     147.489 152.733 130.177  1.00  0.00     0.210 HD
ENDBRANCH  14  15
ENDBRANCH   5  14
BRANCH   4  17
ATOM     17  O   UNL     1     146.391 154.306 130.920  1.00  0.00    -0.387 OA
ATOM     18  H   UNL     1     146.028 153.436 130.609  1.00  0.00     0.211 HD
ENDBRANCH   4  17
TORSDOF 7
ENDMDL
MODEL 7
REMARK VINA RESULT:    -4.363      1.384      3.260
REMARK INTER + INTRA:          -6.296
REMARK INTER:                  -5.536
REMARK INTRA:                  -0.760
REMARK UNBOUND:                -0.658
REMARK SMILES CCO[C@H]1O[C@@H](CO)[C@@H](O)[C@@H](O)[C@H]1O
REMARK SMILES IDX 4 1 13 2 11 3 9 4 6 5 5 6 3 7 2 8 1 9 14 10 12 12 7 14 8 15
REMARK SMILES IDX 10 17
REMARK H PARENT 14 11 12 13 8 16 10 18
REMARK Flexibility Score: inf
ROOT
ATOM      1  C   UNL     1     147.952 152.610 128.938  1.00  0.00     0.281 C 
ATOM      2  C   UNL     1     148.034 152.253 127.445  1.00  0.00     0.202 C 
ATOM      3  C   UNL     1     148.699 153.380 126.643  1.00  0.00     0.179 C 
ATOM      4  C   UNL     1     147.984 154.709 126.939  1.00  0.00     0.177 C 
ATOM      5  C   UNL     1     147.731 154.950 128.455  1.00  0.00     0.178 C 
ATOM      6  O   UNL     1     147.235 153.817 129.161  1.00  0.00    -0.341 OA
ENDROOT
BRANCH   1   7
ATOM      7  O   UNL     1     149.253 152.677 129.508  1.00  0.00    -0.350 OA
BRANCH   7   8
ATOM      8  C   UNL     1     149.254 152.355 130.886  1.00  0.00     0.160 C 
ATOM      9  C   UNL     1     148.746 150.937 131.131  1.00  0.00     0.035 C 
ENDBRANCH   7   8
ENDBRANCH   1   7
BRANCH   2  10
ATOM     10  O   UNL     1     148.741 151.049 127.288  1.00  0.00    -0.385 OA
ATOM     11  H   UNL     1     148.076 150.360 127.024  1.00  0.00     0.211 HD
ENDBRANCH   2  10
BRANCH   3  12
ATOM     12  O   UNL     1     150.069 153.476 126.939  1.00  0.00    -0.387 OA
ATOM     13  H   UNL     1     150.144 153.694 127.904  1.00  0.00     0.211 HD
ENDBRANCH   3  12
BRANCH   5  14
ATOM     14  C   UNL     1     148.845 155.695 129.227  1.00  0.00     0.191 C 
BRANCH  14  15
ATOM     15  O   UNL     1     150.121 155.390 128.745  1.00  0.00    -0.394 OA
ATOM     16  H   UNL     1     150.032 154.536 128.246  1.00  0.00     0.210 HD
ENDBRANCH  14  15
ENDBRANCH   5  14
BRANCH   4  17
ATOM     17  O   UNL     1     148.692 155.788 126.382  1.00  0.00    -0.387 OA
ATOM     18  H   UNL     1     149.374 156.060 127.049  1.00  0.00     0.211 HD
ENDBRANCH   4  17
TORSDOF 7
ENDMDL
MODEL 8
REMARK VINA RESULT:    -4.311      2.110      3.331
REMARK INTER + INTRA:          -6.229
REMARK INTER:                  -5.771
REMARK INTRA:                  -0.459
REMARK UNBOUND:                -0.658
REMARK SMILES CCO[C@H]1O[C@@H](CO)[C@@H](O)[C@@H](O)[C@H]1O
REMARK SMILES IDX 4 1 13 2 11 3 9 4 6 5 5 6 3 7 2 8 1 9 14 10 12 12 7 14 8 15
REMARK SMILES IDX 10 17
REMARK H PARENT 14 11 12 13 8 16 10 18
REMARK Flexibility Score: inf
ROOT
ATOM      1  C   UNL     1     146.569 152.596 127.073  1.00  0.00     0.281 C 
ATOM      2  C   UNL     1     146.517 153.806 128.021  1.00  0.00     0.202 C 
ATOM      3  C   UNL     1     147.782 154.665 127.889  1.00  0.00     0.179 C 
ATOM      4  C   UNL     1     149.025 153.776 128.062  1.00  0.00     0.177 C 
ATOM      5  C   UNL     1     148.958 152.455 127.244  1.00  0.00     0.178 C 
ATOM      6  O   UNL     1     147.707 151.779 127.312  1.00  0.00    -0.341 OA
ENDROOT
BRANCH   1   7
ATOM      7  O   UNL     1     146.522 153.021 125.718  1.00  0.00    -0.350 OA
BRANCH   7   8
ATOM      8  C   UNL     1     145.743 152.158 124.910  1.00  0.00     0.160 C 
ATOM      9  C   UNL     1     146.523 151.676 123.690  1.00  0.00     0.035 C 
ENDBRANCH   7   8
ENDBRANCH   1   7
BRANCH   2  10
ATOM     10  O   UNL     1     145.369 154.568 127.747  1.00  0.00    -0.385 OA
ATOM     11  H   UNL     1     144.854 154.070 127.060  1.00  0.00     0.211 HD
ENDBRANCH   2  10
BRANCH   3  12
ATOM     12  O   UNL     1     147.818 155.333 126.653  1.00  0.00    -0.387 OA
ATOM     13  H   UNL     1     147.060 154.988 126.114  1.00  0.00     0.211 HD
ENDBRANCH   3  12
BRANCH   5  14
ATOM     14  C   UNL     1     149.535 152.505 125.810  1.00  0.00     0.191 C 
BRANCH  14  15
ATOM     15  O   UNL     1     150.926 152.641 125.801  1.00  0.00    -0.394 OA
ATOM     16  H   UNL     1     151.109 153.617 125.774  1.00  0.00     0.210 HD
ENDBRANCH  14  15
ENDBRANCH   5  14
BRANCH   4  17
ATOM     17  O   UNL     1     150.194 154.491 127.747  1.00  0.00    -0.387 OA
ATOM     18  H   UNL     1     150.602 154.771 128.607  1.00  0.00     0.211 HD
ENDBRANCH   4  17
TORSDOF 7
ENDMDL
MODEL 9
REMARK VINA RESULT:    -4.291      1.700      2.726
REMARK INTER + INTRA:          -6.203
REMARK INTER:                  -5.806
REMARK INTRA:                  -0.397
REMARK UNBOUND:                -0.658
REMARK SMILES CCO[C@H]1O[C@@H](CO)[C@@H](O)[C@@H](O)[C@H]1O
REMARK SMILES IDX 4 1 13 2 11 3 9 4 6 5 5 6 3 7 2 8 1 9 14 10 12 12 7 14 8 15
REMARK SMILES IDX 10 17
REMARK H PARENT 14 11 12 13 8 16 10 18
REMARK Flexibility Score: inf
ROOT
ATOM      1  C   UNL     1     146.339 153.828 128.589  1.00  0.00     0.281 C 
ATOM      2  C   UNL     1     146.865 154.602 127.370  1.00  0.00     0.202 C 
ATOM      3  C   UNL     1     148.393 154.507 127.272  1.00  0.00     0.179 C 
ATOM      4  C   UNL     1     149.019 154.931 128.611  1.00  0.00     0.177 C 
ATOM      5  C   UNL     1     148.331 154.285 129.847  1.00  0.00     0.178 C 
ATOM      6  O   UNL     1     146.907 154.295 129.805  1.00  0.00    -0.341 OA
ENDROOT
BRANCH   1   7
ATOM      7  O   UNL     1     146.558 152.433 128.427  1.00  0.00    -0.350 OA
BRANCH   7   8
ATOM      8  C   UNL     1     145.447 151.662 128.845  1.00  0.00     0.160 C 
ATOM      9  C   UNL     1     145.748 150.897 130.132  1.00  0.00     0.035 C 
ENDBRANCH   7   8
ENDBRANCH   1   7
BRANCH   2  10
ATOM     10  O   UNL     1     146.261 154.107 126.202  1.00  0.00    -0.385 OA
ATOM     11  H   UNL     1     146.705 154.559 125.438  1.00  0.00     0.211 HD
ENDBRANCH   2  10
BRANCH   3  12
ATOM     12  O   UNL     1     148.802 153.209 126.922  1.00  0.00    -0.387 OA
ATOM     13  H   UNL     1     148.702 152.644 127.731  1.00  0.00     0.211 HD
ENDBRANCH   3  12
BRANCH   5  14
ATOM     14  C   UNL     1     148.905 152.931 130.323  1.00  0.00     0.191 C 
BRANCH  14  15
ATOM     15  O   UNL     1     149.795 153.077 131.392  1.00  0.00    -0.394 OA
ATOM     16  H   UNL     1     149.237 153.159 132.208  1.00  0.00     0.210 HD
ENDBRANCH  14  15
ENDBRANCH   5  14
BRANCH   4  17
ATOM     17  O   UNL     1     150.399 154.662 128.621  1.00  0.00    -0.387 OA
ATOM     18  H   UNL     1     150.612 154.284 129.514  1.00  0.00     0.211 HD
ENDBRANCH   4  17
TORSDOF 7
ENDMDL
