MODEL 1
REMARK VINA RESULT:    -1.409      0.000      0.000
REMARK INTER + INTRA:          -9.901
REMARK INTER:                  -3.551
REMARK INTRA:                  -6.350
REMARK UNBOUND:                -6.350
REMARK SMILES CCCCCCCCCCCCCCCCCCCCCCCCCCCC(=O)[O-]
REMARK SMILES IDX 15 1 16 2 17 3 18 4 19 5 20 6 21 7 22 8 23 9 24 10 25 11
REMARK SMILES IDX 26 12 27 13 28 14 29 15 30 16 14 17 13 18 12 19 11 20 10 21
REMARK SMILES IDX 9 22 8 23 7 24 6 25 5 26 4 27 3 28 2 29 1 30
REMARK H PARENT
REMARK Flexibility Score: inf
ROOT
ATOM      1  C   UNL     1     115.592  17.731  23.385  1.00  0.00     0.000 C 
ENDROOT
BRANCH   1   2
ATOM      2  C   UNL     1     115.387  17.593  24.904  1.00  0.00     0.000 C 
BRANCH   2   3
ATOM      3  C   UNL     1     115.556  16.145  25.392  1.00  0.00     0.000 C 
BRANCH   3   4
ATOM      4  C   UNL     1     114.746  15.848  26.667  1.00  0.00     0.000 C 
BRANCH   4   5
ATOM      5  C   UNL     1     115.216  14.573  27.384  1.00  0.00     0.000 C 
BRANCH   5   6
ATOM      6  C   UNL     1     116.745  14.403  27.344  1.00  0.00     0.000 C 
BRANCH   6   7
ATOM      7  C   UNL     1     117.436  15.027  28.569  1.00  0.00     0.000 C 
BRANCH   7   8
ATOM      8  C   UNL     1     118.565  15.994  28.173  1.00  0.00     0.000 C 
BRANCH   8   9
ATOM      9  C   UNL     1     118.036  17.337  27.646  1.00  0.00     0.000 C 
BRANCH   9  10
ATOM     10  C   UNL     1     118.773  17.813  26.384  1.00  0.00     0.000 C 
BRANCH  10  11
ATOM     11  C   UNL     1     119.249  16.619  25.543  1.00  0.00     0.000 C 
BRANCH  11  12
ATOM     12  C   UNL     1     119.344  16.945  24.041  1.00  0.00     0.006 C 
BRANCH  12  13
ATOM     13  C   UNL     1     119.317  18.447  23.716  1.00  0.00     0.053 C 
BRANCH  13  14
ATOM     14  C   UNL     1     119.112  18.701  22.253  1.00  0.00     0.041 C 
ATOM     15  O   UNL     1     119.078  17.738  21.442  1.00  0.00    -0.550 OA
ATOM     16  O   UNL     1     119.001  20.002  21.783  1.00  0.00    -0.550 OA
ENDBRANCH  13  14
ENDBRANCH  12  13
ENDBRANCH  11  12
ENDBRANCH  10  11
ENDBRANCH   9  10
ENDBRANCH   8   9
ENDBRANCH   7   8
ENDBRANCH   6   7
ENDBRANCH   5   6
ENDBRANCH   4   5
ENDBRANCH   3   4
ENDBRANCH   2   3
ENDBRANCH   1   2
BRANCH   1  17
ATOM     17  C   UNL     1     115.953  16.397  22.708  1.00  0.00     0.000 C 
BRANCH  17  18
ATOM     18  C   UNL     1     115.523  16.268  21.231  1.00  0.00     0.000 C 
BRANCH  18  19
ATOM     19  C   UNL     1     116.121  15.071  20.472  1.00  0.00     0.000 C 
BRANCH  19  20
ATOM     20  C   UNL     1     115.125  13.911  20.302  1.00  0.00     0.000 C 
BRANCH  20  21
ATOM     21  C   UNL     1     115.720  12.548  20.702  1.00  0.00     0.000 C 
BRANCH  21  22
ATOM     22  C   UNL     1     117.069  12.610  21.448  1.00  0.00    -0.000 C 
BRANCH  22  23
ATOM     23  C   UNL     1     117.079  11.931  22.829  1.00  0.00    -0.000 C 
BRANCH  23  24
ATOM     24  C   UNL     1     116.401  12.785  23.914  1.00  0.00    -0.000 C 
BRANCH  24  25
ATOM     25  C   UNL     1     115.417  11.975  24.772  1.00  0.00    -0.000 C 
BRANCH  25  26
ATOM     26  C   UNL     1     113.948  12.335  24.487  1.00  0.00    -0.000 C 
BRANCH  26  27
ATOM     27  C   UNL     1     113.812  13.657  23.700  1.00  0.00    -0.000 C 
BRANCH  27  28
ATOM     28  C   UNL     1     112.376  14.215  23.670  1.00  0.00    -0.000 C 
BRANCH  28  29
ATOM     29  C   UNL     1     112.278  15.745  23.777  1.00  0.00    -0.003 C 
ATOM     30  C   UNL     1     112.003  16.420  22.433  1.00  0.00     0.004 C 
ENDBRANCH  28  29
ENDBRANCH  27  28
ENDBRANCH  26  27
ENDBRANCH  25  26
ENDBRANCH  24  25
ENDBRANCH  23  24
ENDBRANCH  22  23
ENDBRANCH  21  22
ENDBRANCH  20  21
ENDBRANCH  19  20
ENDBRANCH  18  19
ENDBRANCH  17  18
ENDBRANCH   1  17
TORSDOF 26
ENDMDL
MODEL 2
REMARK VINA RESULT:    -1.303      1.860      5.416
REMARK INTER + INTRA:          -9.634
REMARK INTER:                  -3.689
REMARK INTRA:                  -5.944
REMARK UNBOUND:                -6.350
REMARK SMILES CCCCCCCCCCCCCCCCCCCCCCCCCCCC(=O)[O-]
REMARK SMILES IDX 15 1 16 2 17 3 18 4 19 5 20 6 21 7 22 8 23 9 24 10 25 11
REMARK SMILES IDX 26 12 27 13 28 14 29 15 30 16 14 17 13 18 12 19 11 20 10 21
REMARK SMILES IDX 9 22 8 23 7 24 6 25 5 26 4 27 3 28 2 29 1 30
REMARK H PARENT
REMARK Flexibility Score: inf
ROOT
ATOM      1  C   UNL     1     116.625  14.417  24.447  1.00  0.00     0.000 C 
ENDROOT
BRANCH   1   2
ATOM      2  C   UNL     1     116.621  13.508  23.206  1.00  0.00     0.000 C 
BRANCH   2   3
ATOM      3  C   UNL     1     117.378  14.128  22.019  1.00  0.00     0.000 C 
BRANCH   3   4
ATOM      4  C   UNL     1     117.998  15.495  22.359  1.00  0.00     0.000 C 
BRANCH   4   5
ATOM      5  C   UNL     1     119.437  15.638  21.839  1.00  0.00     0.000 C 
BRANCH   5   6
ATOM      6  C   UNL     1     120.395  16.205  22.903  1.00  0.00     0.000 C 
BRANCH   6   7
ATOM      7  C   UNL     1     119.649  16.736  24.139  1.00  0.00     0.000 C 
BRANCH   7   8
ATOM      8  C   UNL     1     120.466  17.791  24.906  1.00  0.00     0.000 C 
BRANCH   8   9
ATOM      9  C   UNL     1     119.864  19.201  24.795  1.00  0.00     0.000 C 
BRANCH   9  10
ATOM     10  C   UNL     1     120.138  19.859  23.434  1.00  0.00     0.000 C 
BRANCH  10  11
ATOM     11  C   UNL     1     118.824  20.176  22.703  1.00  0.00     0.000 C 
BRANCH  11  12
ATOM     12  C   UNL     1     118.594  19.282  21.471  1.00  0.00     0.006 C 
BRANCH  12  13
ATOM     13  C   UNL     1     117.941  20.000  20.280  1.00  0.00     0.053 C 
BRANCH  13  14
ATOM     14  C   UNL     1     116.635  19.373  19.894  1.00  0.00     0.041 C 
ATOM     15  O   UNL     1     115.580  19.681  20.506  1.00  0.00    -0.550 OA
ATOM     16  O   UNL     1     116.594  18.417  18.887  1.00  0.00    -0.550 OA
ENDBRANCH  13  14
ENDBRANCH  12  13
ENDBRANCH  11  12
ENDBRANCH  10  11
ENDBRANCH   9  10
ENDBRANCH   8   9
ENDBRANCH   7   8
ENDBRANCH   6   7
ENDBRANCH   5   6
ENDBRANCH   4   5
ENDBRANCH   3   4
ENDBRANCH   2   3
ENDBRANCH   1   2
BRANCH   1  17
ATOM     17  C   UNL     1     116.243  13.668  25.737  1.00  0.00     0.000 C 
BRANCH  17  18
ATOM     18  C   UNL     1     115.142  14.336  26.588  1.00  0.00     0.000 C 
BRANCH  18  19
ATOM     19  C   UNL     1     115.452  14.457  28.090  1.00  0.00     0.000 C 
BRANCH  19  20
ATOM     20  C   UNL     1     116.904  14.085  28.435  1.00  0.00     0.000 C 
BRANCH  20  21
ATOM     21  C   UNL     1     117.744  15.298  28.874  1.00  0.00     0.000 C 
BRANCH  21  22
ATOM     22  C   UNL     1     118.435  16.070  27.731  1.00  0.00    -0.000 C 
BRANCH  22  23
ATOM     23  C   UNL     1     117.921  17.504  27.511  1.00  0.00    -0.000 C 
BRANCH  23  24
ATOM     24  C   UNL     1     116.814  17.579  26.445  1.00  0.00    -0.000 C 
BRANCH  24  25
ATOM     25  C   UNL     1     116.431  19.025  26.094  1.00  0.00    -0.000 C 
BRANCH  25  26
ATOM     26  C   UNL     1     115.560  19.115  24.828  1.00  0.00    -0.000 C 
BRANCH  26  27
ATOM     27  C   UNL     1     116.007  18.117  23.738  1.00  0.00    -0.000 C 
BRANCH  27  28
ATOM     28  C   UNL     1     114.842  17.343  23.091  1.00  0.00    -0.000 C 
BRANCH  28  29
ATOM     29  C   UNL     1     113.799  16.803  24.083  1.00  0.00    -0.003 C 
ATOM     30  C   UNL     1     113.162  15.492  23.623  1.00  0.00     0.004 C 
ENDBRANCH  28  29
ENDBRANCH  27  28
ENDBRANCH  26  27
ENDBRANCH  25  26
ENDBRANCH  24  25
ENDBRANCH  23  24
ENDBRANCH  22  23
ENDBRANCH  21  22
ENDBRANCH  20  21
ENDBRANCH  19  20
ENDBRANCH  18  19
ENDBRANCH  17  18
ENDBRANCH   1  17
TORSDOF 26
ENDMDL
MODEL 3
REMARK VINA RESULT:    -1.272      1.994      5.228
REMARK INTER + INTRA:          -9.555
REMARK INTER:                  -3.952
REMARK INTRA:                  -5.603
REMARK UNBOUND:                -6.350
REMARK SMILES CCCCCCCCCCCCCCCCCCCCCCCCCCCC(=O)[O-]
REMARK SMILES IDX 15 1 16 2 17 3 18 4 19 5 20 6 21 7 22 8 23 9 24 10 25 11
REMARK SMILES IDX 26 12 27 13 28 14 29 15 30 16 14 17 13 18 12 19 11 20 10 21
REMARK SMILES IDX 9 22 8 23 7 24 6 25 5 26 4 27 3 28 2 29 1 30
REMARK H PARENT
REMARK Flexibility Score: inf
ROOT
ATOM      1  C   UNL     1     118.815  16.745  26.398  1.00  0.00     0.000 C 
ENDROOT
BRANCH   1   2
ATOM      2  C   UNL     1     117.653  17.651  25.953  1.00  0.00     0.000 C 
BRANCH   2   3
ATOM      3  C   UNL     1     118.064  19.130  25.857  1.00  0.00     0.000 C 
BRANCH   3   4
ATOM      4  C   UNL     1     119.250  19.358  24.903  1.00  0.00     0.000 C 
BRANCH   4   5
ATOM      5  C   UNL     1     118.913  19.011  23.445  1.00  0.00     0.000 C 
BRANCH   5   6
ATOM      6  C   UNL     1     120.169  18.819  22.577  1.00  0.00     0.000 C 
BRANCH   6   7
ATOM      7  C   UNL     1     121.066  17.678  23.088  1.00  0.00     0.000 C 
BRANCH   7   8
ATOM      8  C   UNL     1     120.353  16.315  23.053  1.00  0.00     0.000 C 
BRANCH   8   9
ATOM      9  C   UNL     1     119.975  15.881  21.628  1.00  0.00     0.000 C 
BRANCH   9  10
ATOM     10  C   UNL     1     118.527  15.378  21.524  1.00  0.00     0.000 C 
BRANCH  10  11
ATOM     11  C   UNL     1     117.817  15.460  22.884  1.00  0.00     0.000 C 
BRANCH  11  12
ATOM     12  C   UNL     1     116.477  16.215  22.815  1.00  0.00     0.006 C 
BRANCH  12  13
ATOM     13  C   UNL     1     115.316  15.393  22.233  1.00  0.00     0.053 C 
BRANCH  13  14
ATOM     14  C   UNL     1     114.718  16.047  21.024  1.00  0.00     0.041 C 
ATOM     15  O   UNL     1     115.450  16.683  20.221  1.00  0.00    -0.550 OA
ATOM     16  O   UNL     1     113.348  15.987  20.808  1.00  0.00    -0.550 OA
ENDBRANCH  13  14
ENDBRANCH  12  13
ENDBRANCH  11  12
ENDBRANCH  10  11
ENDBRANCH   9  10
ENDBRANCH   8   9
ENDBRANCH   7   8
ENDBRANCH   6   7
ENDBRANCH   5   6
ENDBRANCH   4   5
ENDBRANCH   3   4
ENDBRANCH   2   3
ENDBRANCH   1   2
BRANCH   1  17
ATOM     17  C   UNL     1     118.587  16.120  27.786  1.00  0.00     0.000 C 
BRANCH  17  18
ATOM     18  C   UNL     1     117.298  16.566  28.508  1.00  0.00     0.000 C 
BRANCH  18  19
ATOM     19  C   UNL     1     116.281  15.448  28.794  1.00  0.00     0.000 C 
BRANCH  19  20
ATOM     20  C   UNL     1     116.777  14.060  28.355  1.00  0.00     0.000 C 
BRANCH  20  21
ATOM     21  C   UNL     1     115.904  13.433  27.252  1.00  0.00     0.000 C 
BRANCH  21  22
ATOM     22  C   UNL     1     116.315  13.783  25.807  1.00  0.00    -0.000 C 
BRANCH  22  23
ATOM     23  C   UNL     1     115.978  12.709  24.758  1.00  0.00    -0.000 C 
BRANCH  23  24
ATOM     24  C   UNL     1     114.588  12.085  24.974  1.00  0.00    -0.000 C 
BRANCH  24  25
ATOM     25  C   UNL     1     113.578  12.509  23.897  1.00  0.00    -0.000 C 
BRANCH  25  26
ATOM     26  C   UNL     1     112.710  13.701  24.337  1.00  0.00    -0.000 C 
BRANCH  26  27
ATOM     27  C   UNL     1     112.272  13.593  25.813  1.00  0.00    -0.000 C 
BRANCH  27  28
ATOM     28  C   UNL     1     112.698  14.797  26.676  1.00  0.00    -0.000 C 
BRANCH  28  29
ATOM     29  C   UNL     1     112.753  16.138  25.926  1.00  0.00    -0.003 C 
ATOM     30  C   UNL     1     114.159  16.736  25.879  1.00  0.00     0.004 C 
ENDBRANCH  28  29
ENDBRANCH  27  28
ENDBRANCH  26  27
ENDBRANCH  25  26
ENDBRANCH  24  25
ENDBRANCH  23  24
ENDBRANCH  22  23
ENDBRANCH  21  22
ENDBRANCH  20  21
ENDBRANCH  19  20
ENDBRANCH  18  19
ENDBRANCH  17  18
ENDBRANCH   1  17
TORSDOF 26
ENDMDL
MODEL 4
REMARK VINA RESULT:    -1.271      1.824      3.435
REMARK INTER + INTRA:          -9.554
REMARK INTER:                  -3.756
REMARK INTRA:                  -5.798
REMARK UNBOUND:                -6.350
REMARK SMILES CCCCCCCCCCCCCCCCCCCCCCCCCCCC(=O)[O-]
REMARK SMILES IDX 15 1 16 2 17 3 18 4 19 5 20 6 21 7 22 8 23 9 24 10 25 11
REMARK SMILES IDX 26 12 27 13 28 14 29 15 30 16 14 17 13 18 12 19 11 20 10 21
REMARK SMILES IDX 9 22 8 23 7 24 6 25 5 26 4 27 3 28 2 29 1 30
REMARK H PARENT
REMARK Flexibility Score: inf
ROOT
ATOM      1  C   UNL     1     116.335  14.801  24.332  1.00  0.00     0.000 C 
ENDROOT
BRANCH   1   2
ATOM      2  C   UNL     1     116.646  13.339  23.965  1.00  0.00     0.000 C 
BRANCH   2   3
ATOM      3  C   UNL     1     115.845  12.336  24.812  1.00  0.00     0.000 C 
BRANCH   3   4
ATOM      4  C   UNL     1     114.355  12.290  24.428  1.00  0.00     0.000 C 
BRANCH   4   5
ATOM      5  C   UNL     1     113.441  12.847  25.531  1.00  0.00     0.000 C 
BRANCH   5   6
ATOM      6  C   UNL     1     114.135  12.896  26.904  1.00  0.00     0.000 C 
BRANCH   6   7
ATOM      7  C   UNL     1     114.222  14.326  27.466  1.00  0.00     0.000 C 
BRANCH   7   8
ATOM      8  C   UNL     1     115.361  14.484  28.488  1.00  0.00     0.000 C 
BRANCH   8   9
ATOM      9  C   UNL     1     116.745  14.203  27.880  1.00  0.00     0.000 C 
BRANCH   9  10
ATOM     10  C   UNL     1     117.794  15.253  28.277  1.00  0.00     0.000 C 
BRANCH  10  11
ATOM     11  C   UNL     1     118.254  16.059  27.052  1.00  0.00     0.000 C 
BRANCH  11  12
ATOM     12  C   UNL     1     117.578  17.439  26.956  1.00  0.00     0.006 C 
BRANCH  12  13
ATOM     13  C   UNL     1     118.149  18.349  25.856  1.00  0.00     0.053 C 
BRANCH  13  14
ATOM     14  C   UNL     1     119.629  18.538  25.997  1.00  0.00     0.041 C 
ATOM     15  O   UNL     1     120.397  18.254  25.041  1.00  0.00    -0.550 OA
ATOM     16  O   UNL     1     120.161  18.987  27.199  1.00  0.00    -0.550 OA
ENDBRANCH  13  14
ENDBRANCH  12  13
ENDBRANCH  11  12
ENDBRANCH  10  11
ENDBRANCH   9  10
ENDBRANCH   8   9
ENDBRANCH   7   8
ENDBRANCH   6   7
ENDBRANCH   5   6
ENDBRANCH   4   5
ENDBRANCH   3   4
ENDBRANCH   2   3
ENDBRANCH   1   2
BRANCH   1  17
ATOM     17  C   UNL     1     116.931  15.807  23.331  1.00  0.00     0.000 C 
BRANCH  17  18
ATOM     18  C   UNL     1     118.469  15.778  23.200  1.00  0.00     0.000 C 
BRANCH  18  19
ATOM     19  C   UNL     1     119.005  15.507  21.783  1.00  0.00     0.000 C 
BRANCH  19  20
ATOM     20  C   UNL     1     117.890  15.416  20.728  1.00  0.00     0.000 C 
BRANCH  20  21
ATOM     21  C   UNL     1     117.953  14.119  19.901  1.00  0.00     0.000 C 
BRANCH  21  22
ATOM     22  C   UNL     1     117.463  12.849  20.628  1.00  0.00    -0.000 C 
BRANCH  22  23
ATOM     23  C   UNL     1     116.122  12.288  20.124  1.00  0.00    -0.000 C 
BRANCH  23  24
ATOM     24  C   UNL     1     114.909  12.968  20.784  1.00  0.00    -0.000 C 
BRANCH  24  25
ATOM     25  C   UNL     1     114.305  14.076  19.907  1.00  0.00    -0.000 C 
BRANCH  25  26
ATOM     26  C   UNL     1     114.114  15.397  20.672  1.00  0.00    -0.000 C 
BRANCH  26  27
ATOM     27  C   UNL     1     113.491  15.180  22.068  1.00  0.00    -0.000 C 
BRANCH  27  28
ATOM     28  C   UNL     1     113.294  16.482  22.868  1.00  0.00    -0.000 C 
BRANCH  28  29
ATOM     29  C   UNL     1     113.010  16.280  24.366  1.00  0.00    -0.003 C 
ATOM     30  C   UNL     1     113.785  17.252  25.256  1.00  0.00     0.004 C 
ENDBRANCH  28  29
ENDBRANCH  27  28
ENDBRANCH  26  27
ENDBRANCH  25  26
ENDBRANCH  24  25
ENDBRANCH  23  24
ENDBRANCH  22  23
ENDBRANCH  21  22
ENDBRANCH  20  21
ENDBRANCH  19  20
ENDBRANCH  18  19
ENDBRANCH  17  18
ENDBRANCH   1  17
TORSDOF 26
ENDMDL
MODEL 5
REMARK VINA RESULT:    -1.240      2.268      6.359
REMARK INTER + INTRA:          -9.475
REMARK INTER:                  -3.530
REMARK INTRA:                  -5.945
REMARK UNBOUND:                -6.350
REMARK SMILES CCCCCCCCCCCCCCCCCCCCCCCCCCCC(=O)[O-]
REMARK SMILES IDX 15 1 16 2 17 3 18 4 19 5 20 6 21 7 22 8 23 9 24 10 25 11
REMARK SMILES IDX 26 12 27 13 28 14 29 15 30 16 14 17 13 18 12 19 11 20 10 21
REMARK SMILES IDX 9 22 8 23 7 24 6 25 5 26 4 27 3 28 2 29 1 30
REMARK H PARENT
REMARK Flexibility Score: inf
ROOT
ATOM      1  C   UNL     1     118.846  16.341  27.647  1.00  0.00     0.000 C 
ENDROOT
BRANCH   1   2
ATOM      2  C   UNL     1     118.264  17.053  26.414  1.00  0.00     0.000 C 
BRANCH   2   3
ATOM      3  C   UNL     1     118.682  16.384  25.094  1.00  0.00     0.000 C 
BRANCH   3   4
ATOM      4  C   UNL     1     120.077  16.827  24.618  1.00  0.00     0.000 C 
BRANCH   4   5
ATOM      5  C   UNL     1     120.126  17.108  23.108  1.00  0.00     0.000 C 
BRANCH   5   6
ATOM      6  C   UNL     1     119.757  15.875  22.265  1.00  0.00     0.000 C 
BRANCH   6   7
ATOM      7  C   UNL     1     118.617  16.162  21.273  1.00  0.00     0.000 C 
BRANCH   7   8
ATOM      8  C   UNL     1     117.354  15.337  21.577  1.00  0.00     0.000 C 
BRANCH   8   9
ATOM      9  C   UNL     1     117.659  14.064  22.381  1.00  0.00     0.000 C 
BRANCH   9  10
ATOM     10  C   UNL     1     116.703  12.908  22.051  1.00  0.00     0.000 C 
BRANCH  10  11
ATOM     11  C   UNL     1     116.324  12.917  20.562  1.00  0.00     0.000 C 
BRANCH  11  12
ATOM     12  C   UNL     1     114.803  12.848  20.331  1.00  0.00     0.006 C 
BRANCH  12  13
ATOM     13  C   UNL     1     113.958  13.279  21.540  1.00  0.00     0.053 C 
BRANCH  13  14
ATOM     14  C   UNL     1     113.377  14.648  21.359  1.00  0.00     0.041 C 
ATOM     15  O   UNL     1     113.915  15.465  20.567  1.00  0.00    -0.550 OA
ATOM     16  O   UNL     1     112.265  15.034  22.097  1.00  0.00    -0.550 OA
ENDBRANCH  13  14
ENDBRANCH  12  13
ENDBRANCH  11  12
ENDBRANCH  10  11
ENDBRANCH   9  10
ENDBRANCH   8   9
ENDBRANCH   7   8
ENDBRANCH   6   7
ENDBRANCH   5   6
ENDBRANCH   4   5
ENDBRANCH   3   4
ENDBRANCH   2   3
ENDBRANCH   1   2
BRANCH   1  17
ATOM     17  C   UNL     1     117.795  15.516  28.412  1.00  0.00     0.000 C 
BRANCH  17  18
ATOM     18  C   UNL     1     116.326  15.816  28.048  1.00  0.00     0.000 C 
BRANCH  18  19
ATOM     19  C   UNL     1     115.377  14.605  28.080  1.00  0.00     0.000 C 
BRANCH  19  20
ATOM     20  C   UNL     1     115.888  13.422  27.241  1.00  0.00     0.000 C 
BRANCH  20  21
ATOM     21  C   UNL     1     116.118  13.790  25.764  1.00  0.00     0.000 C 
BRANCH  21  22
ATOM     22  C   UNL     1     114.880  14.330  25.019  1.00  0.00    -0.000 C 
BRANCH  22  23
ATOM     23  C   UNL     1     115.047  15.736  24.415  1.00  0.00    -0.000 C 
BRANCH  23  24
ATOM     24  C   UNL     1     114.267  16.811  25.192  1.00  0.00    -0.000 C 
BRANCH  24  25
ATOM     25  C   UNL     1     114.986  18.169  25.203  1.00  0.00    -0.000 C 
BRANCH  25  26
ATOM     26  C   UNL     1     114.416  19.148  24.162  1.00  0.00    -0.000 C 
BRANCH  26  27
ATOM     27  C   UNL     1     115.212  19.125  22.839  1.00  0.00    -0.000 C 
BRANCH  27  28
ATOM     28  C   UNL     1     116.692  18.733  23.014  1.00  0.00    -0.000 C 
BRANCH  28  29
ATOM     29  C   UNL     1     117.668  19.919  23.083  1.00  0.00    -0.003 C 
ATOM     30  C   UNL     1     118.157  20.205  24.503  1.00  0.00     0.004 C 
ENDBRANCH  28  29
ENDBRANCH  27  28
ENDBRANCH  26  27
ENDBRANCH  25  26
ENDBRANCH  24  25
ENDBRANCH  23  24
ENDBRANCH  22  23
ENDBRANCH  21  22
ENDBRANCH  20  21
ENDBRANCH  19  20
ENDBRANCH  18  19
ENDBRANCH  17  18
ENDBRANCH   1  17
TORSDOF 26
ENDMDL
MODEL 6
REMARK VINA RESULT:    -1.222      2.374      5.393
REMARK INTER + INTRA:          -9.430
REMARK INTER:                  -3.952
REMARK INTRA:                  -5.477
REMARK UNBOUND:                -6.350
REMARK SMILES CCCCCCCCCCCCCCCCCCCCCCCCCCCC(=O)[O-]
REMARK SMILES IDX 15 1 16 2 17 3 18 4 19 5 20 6 21 7 22 8 23 9 24 10 25 11
REMARK SMILES IDX 26 12 27 13 28 14 29 15 30 16 14 17 13 18 12 19 11 20 10 21
REMARK SMILES IDX 9 22 8 23 7 24 6 25 5 26 4 27 3 28 2 29 1 30
REMARK H PARENT
REMARK Flexibility Score: inf
ROOT
ATOM      1  C   UNL     1     116.208  18.153  24.867  1.00  0.00     0.000 C 
ENDROOT
BRANCH   1   2
ATOM      2  C   UNL     1     117.207  19.062  25.604  1.00  0.00     0.000 C 
BRANCH   2   3
ATOM      3  C   UNL     1     118.092  19.869  24.639  1.00  0.00     0.000 C 
BRANCH   3   4
ATOM      4  C   UNL     1     119.201  19.017  23.996  1.00  0.00     0.000 C 
BRANCH   4   5
ATOM      5  C   UNL     1     119.813  18.003  24.976  1.00  0.00     0.000 C 
BRANCH   5   6
ATOM      6  C   UNL     1     119.783  16.564  24.431  1.00  0.00     0.000 C 
BRANCH   6   7
ATOM      7  C   UNL     1     120.212  16.486  22.956  1.00  0.00     0.000 C 
BRANCH   7   8
ATOM      8  C   UNL     1     119.261  15.618  22.114  1.00  0.00     0.000 C 
BRANCH   8   9
ATOM      9  C   UNL     1     117.881  16.268  21.921  1.00  0.00     0.000 C 
BRANCH   9  10
ATOM     10  C   UNL     1     116.723  15.279  22.125  1.00  0.00     0.000 C 
BRANCH  10  11
ATOM     11  C   UNL     1     117.224  13.968  22.750  1.00  0.00     0.000 C 
BRANCH  11  12
ATOM     12  C   UNL     1     116.485  12.729  22.215  1.00  0.00     0.006 C 
BRANCH  12  13
ATOM     13  C   UNL     1     117.306  11.875  21.235  1.00  0.00     0.053 C 
BRANCH  13  14
ATOM     14  C   UNL     1     116.920  12.131  19.809  1.00  0.00     0.041 C 
ATOM     15  O   UNL     1     117.801  12.154  18.910  1.00  0.00    -0.550 OA
ATOM     16  O   UNL     1     115.595  12.384  19.483  1.00  0.00    -0.550 OA
ENDBRANCH  13  14
ENDBRANCH  12  13
ENDBRANCH  11  12
ENDBRANCH  10  11
ENDBRANCH   9  10
ENDBRANCH   8   9
ENDBRANCH   7   8
ENDBRANCH   6   7
ENDBRANCH   5   6
ENDBRANCH   4   5
ENDBRANCH   3   4
ENDBRANCH   2   3
ENDBRANCH   1   2
BRANCH   1  17
ATOM     17  C   UNL     1     116.191  16.715  25.417  1.00  0.00     0.000 C 
BRANCH  17  18
ATOM     18  C   UNL     1     116.441  16.585  26.934  1.00  0.00     0.000 C 
BRANCH  18  19
ATOM     19  C   UNL     1     117.676  15.757  27.331  1.00  0.00     0.000 C 
BRANCH  19  20
ATOM     20  C   UNL     1     117.322  14.521  28.175  1.00  0.00     0.000 C 
BRANCH  20  21
ATOM     21  C   UNL     1     115.807  14.257  28.245  1.00  0.00     0.000 C 
BRANCH  21  22
ATOM     22  C   UNL     1     115.318  13.013  27.475  1.00  0.00    -0.000 C 
BRANCH  22  23
ATOM     23  C   UNL     1     115.485  13.089  25.946  1.00  0.00    -0.000 C 
BRANCH  23  24
ATOM     24  C   UNL     1     114.566  12.105  25.201  1.00  0.00    -0.000 C 
BRANCH  24  25
ATOM     25  C   UNL     1     113.342  12.796  24.580  1.00  0.00    -0.000 C 
BRANCH  25  26
ATOM     26  C   UNL     1     113.663  14.206  24.055  1.00  0.00    -0.000 C 
BRANCH  26  27
ATOM     27  C   UNL     1     112.823  15.297  24.755  1.00  0.00    -0.000 C 
BRANCH  27  28
ATOM     28  C   UNL     1     111.733  14.735  25.689  1.00  0.00    -0.000 C 
BRANCH  28  29
ATOM     29  C   UNL     1     112.024  14.902  27.189  1.00  0.00    -0.003 C 
ATOM     30  C   UNL     1     112.834  16.160  27.503  1.00  0.00     0.004 C 
ENDBRANCH  28  29
ENDBRANCH  27  28
ENDBRANCH  26  27
ENDBRANCH  25  26
ENDBRANCH  24  25
ENDBRANCH  23  24
ENDBRANCH  22  23
ENDBRANCH  21  22
ENDBRANCH  20  21
ENDBRANCH  19  20
ENDBRANCH  18  19
ENDBRANCH  17  18
ENDBRANCH   1  17
TORSDOF 26
ENDMDL
MODEL 7
REMARK VINA RESULT:    -1.210      2.194      4.202
REMARK INTER + INTRA:          -9.400
REMARK INTER:                  -2.930
REMARK INTRA:                  -6.470
REMARK UNBOUND:                -6.350
REMARK SMILES CCCCCCCCCCCCCCCCCCCCCCCCCCCC(=O)[O-]
REMARK SMILES IDX 15 1 16 2 17 3 18 4 19 5 20 6 21 7 22 8 23 9 24 10 25 11
REMARK SMILES IDX 26 12 27 13 28 14 29 15 30 16 14 17 13 18 12 19 11 20 10 21
REMARK SMILES IDX 9 22 8 23 7 24 6 25 5 26 4 27 3 28 2 29 1 30
REMARK H PARENT
REMARK Flexibility Score: inf
ROOT
ATOM      1  C   UNL     1     118.973  15.261  21.877  1.00  0.00     0.000 C 
ENDROOT
BRANCH   1   2
ATOM      2  C   UNL     1     120.011  16.351  22.198  1.00  0.00     0.000 C 
BRANCH   2   3
ATOM      3  C   UNL     1     120.386  16.386  23.689  1.00  0.00     0.000 C 
BRANCH   3   4
ATOM      4  C   UNL     1     120.308  17.801  24.290  1.00  0.00     0.000 C 
BRANCH   4   5
ATOM      5  C   UNL     1     119.403  17.868  25.530  1.00  0.00     0.000 C 
BRANCH   5   6
ATOM      6  C   UNL     1     119.004  16.475  26.046  1.00  0.00     0.000 C 
BRANCH   6   7
ATOM      7  C   UNL     1     117.479  16.310  26.170  1.00  0.00     0.000 C 
BRANCH   7   8
ATOM      8  C   UNL     1     116.724  17.618  25.878  1.00  0.00     0.000 C 
BRANCH   8   9
ATOM      9  C   UNL     1     115.508  17.407  24.961  1.00  0.00     0.000 C 
BRANCH   9  10
ATOM     10  C   UNL     1     115.607  18.199  23.649  1.00  0.00     0.000 C 
BRANCH  10  11
ATOM     11  C   UNL     1     116.520  19.424  23.814  1.00  0.00     0.000 C 
BRANCH  11  12
ATOM     12  C   UNL     1     117.526  19.581  22.659  1.00  0.00     0.006 C 
BRANCH  12  13
ATOM     13  C   UNL     1     117.234  18.692  21.440  1.00  0.00     0.053 C 
BRANCH  13  14
ATOM     14  C   UNL     1     116.675  19.478  20.293  1.00  0.00     0.041 C 
ATOM     15  O   UNL     1     117.432  19.877  19.370  1.00  0.00    -0.550 OA
ATOM     16  O   UNL     1     115.325  19.806  20.268  1.00  0.00    -0.550 OA
ENDBRANCH  13  14
ENDBRANCH  12  13
ENDBRANCH  11  12
ENDBRANCH  10  11
ENDBRANCH   9  10
ENDBRANCH   8   9
ENDBRANCH   7   8
ENDBRANCH   6   7
ENDBRANCH   5   6
ENDBRANCH   4   5
ENDBRANCH   3   4
ENDBRANCH   2   3
ENDBRANCH   1   2
BRANCH   1  17
ATOM     17  C   UNL     1     117.663  15.432  22.668  1.00  0.00     0.000 C 
BRANCH  17  18
ATOM     18  C   UNL     1     116.892  14.127  22.959  1.00  0.00     0.000 C 
BRANCH  18  19
ATOM     19  C   UNL     1     117.350  12.897  22.156  1.00  0.00     0.000 C 
BRANCH  19  20
ATOM     20  C   UNL     1     116.214  12.257  21.341  1.00  0.00     0.000 C 
BRANCH  20  21
ATOM     21  C   UNL     1     116.516  12.203  19.832  1.00  0.00     0.000 C 
BRANCH  21  22
ATOM     22  C   UNL     1     117.965  12.559  19.437  1.00  0.00    -0.000 C 
BRANCH  22  23
ATOM     23  C   UNL     1     118.116  13.854  18.620  1.00  0.00    -0.000 C 
BRANCH  23  24
ATOM     24  C   UNL     1     116.764  14.522  18.314  1.00  0.00    -0.000 C 
BRANCH  24  25
ATOM     25  C   UNL     1     116.584  15.855  19.057  1.00  0.00    -0.000 C 
BRANCH  25  26
ATOM     26  C   UNL     1     115.104  16.227  19.253  1.00  0.00    -0.000 C 
BRANCH  26  27
ATOM     27  C   UNL     1     114.664  16.119  20.729  1.00  0.00    -0.000 C 
BRANCH  27  28
ATOM     28  C   UNL     1     113.727  14.928  21.011  1.00  0.00    -0.000 C 
BRANCH  28  29
ATOM     29  C   UNL     1     113.308  14.131  19.765  1.00  0.00    -0.003 C 
ATOM     30  C   UNL     1     111.839  14.337  19.392  1.00  0.00     0.004 C 
ENDBRANCH  28  29
ENDBRANCH  27  28
ENDBRANCH  26  27
ENDBRANCH  25  26
ENDBRANCH  24  25
ENDBRANCH  23  24
ENDBRANCH  22  23
ENDBRANCH  21  22
ENDBRANCH  20  21
ENDBRANCH  19  20
ENDBRANCH  18  19
ENDBRANCH  17  18
ENDBRANCH   1  17
TORSDOF 26
ENDMDL
MODEL 8
REMARK VINA RESULT:    -1.205      2.938      6.463
REMARK INTER + INTRA:          -9.386
REMARK INTER:                  -3.391
REMARK INTRA:                  -5.995
REMARK UNBOUND:                -6.350
REMARK SMILES CCCCCCCCCCCCCCCCCCCCCCCCCCCC(=O)[O-]
REMARK SMILES IDX 15 1 16 2 17 3 18 4 19 5 20 6 21 7 22 8 23 9 24 10 25 11
REMARK SMILES IDX 26 12 27 13 28 14 29 15 30 16 14 17 13 18 12 19 11 20 10 21
REMARK SMILES IDX 9 22 8 23 7 24 6 25 5 26 4 27 3 28 2 29 1 30
REMARK H PARENT
REMARK Flexibility Score: inf
ROOT
ATOM      1  C   UNL     1     117.893  16.466  25.965  1.00  0.00     0.000 C 
ENDROOT
BRANCH   1   2
ATOM      2  C   UNL     1     119.359  16.711  25.566  1.00  0.00     0.000 C 
BRANCH   2   3
ATOM      3  C   UNL     1     119.545  18.019  24.780  1.00  0.00     0.000 C 
BRANCH   3   4
ATOM      4  C   UNL     1     119.938  17.780  23.311  1.00  0.00     0.000 C 
BRANCH   4   5
ATOM      5  C   UNL     1     120.354  16.326  23.038  1.00  0.00     0.000 C 
BRANCH   5   6
ATOM      6  C   UNL     1     119.463  15.645  21.985  1.00  0.00     0.000 C 
BRANCH   6   7
ATOM      7  C   UNL     1     118.027  16.199  21.985  1.00  0.00     0.000 C 
BRANCH   7   8
ATOM      8  C   UNL     1     117.025  15.226  22.629  1.00  0.00     0.000 C 
BRANCH   8   9
ATOM      9  C   UNL     1     117.338  13.756  22.310  1.00  0.00     0.000 C 
BRANCH   9  10
ATOM     10  C   UNL     1     116.281  12.788  22.861  1.00  0.00     0.000 C 
BRANCH  10  11
ATOM     11  C   UNL     1     115.483  13.438  24.003  1.00  0.00     0.000 C 
BRANCH  11  12
ATOM     12  C   UNL     1     115.890  12.914  25.392  1.00  0.00     0.006 C 
BRANCH  12  13
ATOM     13  C   UNL     1     115.446  13.807  26.561  1.00  0.00     0.053 C 
BRANCH  13  14
ATOM     14  C   UNL     1     116.030  13.355  27.865  1.00  0.00     0.041 C 
ATOM     15  O   UNL     1     115.503  12.403  28.499  1.00  0.00    -0.550 OA
ATOM     16  O   UNL     1     117.130  14.013  28.400  1.00  0.00    -0.550 OA
ENDBRANCH  13  14
ENDBRANCH  12  13
ENDBRANCH  11  12
ENDBRANCH  10  11
ENDBRANCH   9  10
ENDBRANCH   8   9
ENDBRANCH   7   8
ENDBRANCH   6   7
ENDBRANCH   5   6
ENDBRANCH   4   5
ENDBRANCH   3   4
ENDBRANCH   2   3
ENDBRANCH   1   2
BRANCH   1  17
ATOM     17  C   UNL     1     116.950  17.587  25.491  1.00  0.00     0.000 C 
BRANCH  17  18
ATOM     18  C   UNL     1     115.466  17.187  25.354  1.00  0.00     0.000 C 
BRANCH  18  19
ATOM     19  C   UNL     1     114.498  18.341  25.037  1.00  0.00     0.000 C 
BRANCH  19  20
ATOM     20  C   UNL     1     113.422  17.955  24.009  1.00  0.00     0.000 C 
BRANCH  20  21
ATOM     21  C   UNL     1     113.351  16.438  23.757  1.00  0.00     0.000 C 
BRANCH  21  22
ATOM     22  C   UNL     1     113.441  16.011  22.277  1.00  0.00    -0.000 C 
BRANCH  22  23
ATOM     23  C   UNL     1     113.589  17.170  21.274  1.00  0.00    -0.000 C 
BRANCH  23  24
ATOM     24  C   UNL     1     114.740  16.947  20.277  1.00  0.00    -0.000 C 
BRANCH  24  25
ATOM     25  C   UNL     1     115.624  18.193  20.110  1.00  0.00    -0.000 C 
BRANCH  25  26
ATOM     26  C   UNL     1     115.319  19.279  21.156  1.00  0.00    -0.000 C 
BRANCH  26  27
ATOM     27  C   UNL     1     116.447  19.418  22.201  1.00  0.00    -0.000 C 
BRANCH  27  28
ATOM     28  C   UNL     1     116.652  20.860  22.705  1.00  0.00    -0.000 C 
BRANCH  28  29
ATOM     29  C   UNL     1     117.654  21.001  23.862  1.00  0.00    -0.003 C 
ATOM     30  C   UNL     1     116.974  21.189  25.218  1.00  0.00     0.004 C 
ENDBRANCH  28  29
ENDBRANCH  27  28
ENDBRANCH  26  27
ENDBRANCH  25  26
ENDBRANCH  24  25
ENDBRANCH  23  24
ENDBRANCH  22  23
ENDBRANCH  21  22
ENDBRANCH  20  21
ENDBRANCH  19  20
ENDBRANCH  18  19
ENDBRANCH  17  18
ENDBRANCH   1  17
TORSDOF 26
ENDMDL
