MODEL 1
REMARK VINA RESULT:    -0.586      0.000      0.000
REMARK INTER + INTRA:          -0.867
REMARK INTER:                  -0.705
REMARK INTRA:                  -0.162
REMARK UNBOUND:                -0.162
REMARK SMILES O=c1c(O)c(-c2ccc(O)cc2O)oc2cc(O)cc(O)c12
REMARK SMILES IDX 5 1 3 2 2 3 1 4 22 5 20 6 19 7 17 8 16 9 15 10 14 11 6 12
REMARK SMILES IDX 8 13 7 14 9 15 11 16 12 17 10 18 13 20 4 22 21 24 18 26
REMARK H PARENT 10 19 13 21 4 23 21 25 18 27
REMARK Flexibility Score: inf
ROOT
ATOM      1  C   UNL     1      28.502  28.528  25.338  1.00  0.00     0.184 A 
ATOM      2  C   UNL     1      28.697  29.332  26.472  1.00  0.00     0.208 A 
ATOM      3  C   UNL     1      28.896  30.711  26.303  1.00  0.00     0.238 A 
ATOM      4  O   UNL     1      29.124  31.418  27.318  1.00  0.00    -0.285 OA
ATOM      5  C   UNL     1      28.878  31.270  25.001  1.00  0.00     0.111 A 
ATOM      6  C   UNL     1      29.028  32.659  24.714  1.00  0.00     0.134 A 
ATOM      7  C   UNL     1      29.124  33.084  23.383  1.00  0.00     0.093 A 
ATOM      8  C   UNL     1      29.012  32.176  22.328  1.00  0.00     0.123 A 
ATOM      9  C   UNL     1      28.807  30.825  22.597  1.00  0.00     0.094 A 
ATOM     10  C   UNL     1      28.742  30.366  23.915  1.00  0.00     0.146 A 
ATOM     11  O   UNL     1      28.556  29.068  24.127  1.00  0.00    -0.451 OA
ENDROOT
BRANCH   1  12
ATOM     12  C   UNL     1      28.272  27.073  25.448  1.00  0.00     0.063 A 
ATOM     13  C   UNL     1      28.931  24.813  24.838  1.00  0.00     0.047 A 
ATOM     14  C   UNL     1      29.124  26.195  24.760  1.00  0.00     0.020 A 
ATOM     15  C   UNL     1      27.877  24.291  25.592  1.00  0.00     0.119 A 
ATOM     16  C   UNL     1      27.006  25.159  26.263  1.00  0.00     0.093 A 
ATOM     17  C   UNL     1      27.189  26.549  26.185  1.00  0.00     0.130 A 
BRANCH  15  18
ATOM     18  O   UNL     1      27.700  22.912  25.663  1.00  0.00    -0.508 OA
ATOM     19  H   UNL     1      26.776  22.498  25.709  1.00  0.00     0.293 HD
ENDBRANCH  15  18
BRANCH  17  20
ATOM     20  O   UNL     1      26.287  27.404  26.818  1.00  0.00    -0.507 OA
ATOM     21  H   UNL     1      26.538  27.916  27.655  1.00  0.00     0.293 HD
ENDBRANCH  17  20
ENDBRANCH   1  12
BRANCH   2  22
ATOM     22  O   UNL     1      28.728  28.751  27.743  1.00  0.00    -0.502 OA
ATOM     23  H   UNL     1      27.904  28.678  28.327  1.00  0.00     0.293 HD
ENDBRANCH   2  22
BRANCH   6  24
ATOM     24  O   UNL     1      29.058  33.660  25.692  1.00  0.00    -0.507 OA
ATOM     25  H   UNL     1      29.248  33.502  26.669  1.00  0.00     0.293 HD
ENDBRANCH   6  24
BRANCH   8  26
ATOM     26  O   UNL     1      29.093  32.608  21.006  1.00  0.00    -0.508 OA
ATOM     27  H   UNL     1      29.265  33.580  20.777  1.00  0.00     0.293 HD
ENDBRANCH   8  26
TORSDOF 6
ENDMDL
MODEL 2
REMARK VINA RESULT:    -0.188      2.070      7.209
REMARK INTER + INTRA:          -0.389
REMARK INTER:                  -0.007
REMARK INTRA:                  -0.382
REMARK UNBOUND:                -0.162
REMARK SMILES O=c1c(O)c(-c2ccc(O)cc2O)oc2cc(O)cc(O)c12
REMARK SMILES IDX 5 1 3 2 2 3 1 4 22 5 20 6 19 7 17 8 16 9 15 10 14 11 6 12
REMARK SMILES IDX 8 13 7 14 9 15 11 16 12 17 10 18 13 20 4 22 21 24 18 26
REMARK H PARENT 10 19 13 21 4 23 21 25 18 27
REMARK Flexibility Score: inf
ROOT
ATOM      1  C   UNL     1      27.167  27.779  25.802  1.00  0.00     0.184 A 
ATOM      2  C   UNL     1      27.872  26.588  25.568  1.00  0.00     0.208 A 
ATOM      3  C   UNL     1      27.316  25.373  25.997  1.00  0.00     0.238 A 
ATOM      4  O   UNL     1      27.977  24.315  25.834  1.00  0.00    -0.285 OA
ATOM      5  C   UNL     1      26.053  25.364  26.638  1.00  0.00     0.111 A 
ATOM      6  C   UNL     1      25.376  24.188  27.078  1.00  0.00     0.134 A 
ATOM      7  C   UNL     1      24.192  24.307  27.816  1.00  0.00     0.093 A 
ATOM      8  C   UNL     1      23.626  25.559  28.074  1.00  0.00     0.123 A 
ATOM      9  C   UNL     1      24.250  26.710  27.597  1.00  0.00     0.094 A 
ATOM     10  C   UNL     1      25.451  26.625  26.890  1.00  0.00     0.146 A 
ATOM     11  O   UNL     1      26.016  27.749  26.463  1.00  0.00    -0.451 OA
ENDROOT
BRANCH   1  12
ATOM     12  C   UNL     1      27.688  29.090  25.361  1.00  0.00     0.063 A 
ATOM     13  C   UNL     1      27.750  30.841  23.675  1.00  0.00     0.047 A 
ATOM     14  C   UNL     1      27.272  29.607  24.124  1.00  0.00     0.020 A 
ATOM     15  C   UNL     1      28.660  31.566  24.448  1.00  0.00     0.119 A 
ATOM     16  C   UNL     1      29.101  31.048  25.673  1.00  0.00     0.093 A 
ATOM     17  C   UNL     1      28.630  29.807  26.129  1.00  0.00     0.130 A 
BRANCH  15  18
ATOM     18  O   UNL     1      29.125  32.796  23.989  1.00  0.00    -0.508 OA
ATOM     19  H   UNL     1      28.848  33.164  23.086  1.00  0.00     0.293 HD
ENDBRANCH  15  18
BRANCH  17  20
ATOM     20  O   UNL     1      29.112  29.279  27.326  1.00  0.00    -0.507 OA
ATOM     21  H   UNL     1      29.550  29.865  28.027  1.00  0.00     0.293 HD
ENDBRANCH  17  20
ENDBRANCH   1  12
BRANCH   2  22
ATOM     22  O   UNL     1      29.125  26.628  24.950  1.00  0.00    -0.502 OA
ATOM     23  H   UNL     1      29.253  26.421  23.967  1.00  0.00     0.293 HD
ENDBRANCH   2  22
BRANCH   6  24
ATOM     24  O   UNL     1      25.805  22.887  26.795  1.00  0.00    -0.507 OA
ATOM     25  H   UNL     1      26.767  22.584  26.810  1.00  0.00     0.293 HD
ENDBRANCH   6  24
BRANCH   8  26
ATOM     26  O   UNL     1      22.440  25.668  28.795  1.00  0.00    -0.508 OA
ATOM     27  H   UNL     1      22.367  25.335  29.749  1.00  0.00     0.293 HD
ENDBRANCH   8  26
TORSDOF 6
ENDMDL
MODEL 3
REMARK VINA RESULT:     2.012      1.439      6.485
REMARK INTER + INTRA:           2.262
REMARK INTER:                   1.699
REMARK INTRA:                   0.563
REMARK UNBOUND:                -0.162
REMARK SMILES O=c1c(O)c(-c2ccc(O)cc2O)oc2cc(O)cc(O)c12
REMARK SMILES IDX 5 1 3 2 2 3 1 4 22 5 20 6 19 7 17 8 16 9 15 10 14 11 6 12
REMARK SMILES IDX 8 13 7 14 9 15 11 16 12 17 10 18 13 20 4 22 21 24 18 26
REMARK H PARENT 10 19 13 21 4 23 21 25 18 27
REMARK Flexibility Score: inf
ROOT
ATOM      1  C   UNL     1      28.942  30.081  25.088  1.00  0.00     0.184 A 
ATOM      2  C   UNL     1      29.031  30.129  26.488  1.00  0.00     0.208 A 
ATOM      3  C   UNL     1      28.991  28.929  27.214  1.00  0.00     0.238 A 
ATOM      4  O   UNL     1      29.016  28.981  28.471  1.00  0.00    -0.285 OA
ATOM      5  C   UNL     1      28.879  27.695  26.528  1.00  0.00     0.111 A 
ATOM      6  C   UNL     1      28.870  26.415  27.159  1.00  0.00     0.134 A 
ATOM      7  C   UNL     1      28.624  25.268  26.393  1.00  0.00     0.093 A 
ATOM      8  C   UNL     1      28.453  25.350  25.009  1.00  0.00     0.123 A 
ATOM      9  C   UNL     1      28.519  26.589  24.376  1.00  0.00     0.094 A 
ATOM     10  C   UNL     1      28.726  27.754  25.118  1.00  0.00     0.146 A 
ATOM     11  O   UNL     1      28.772  28.916  24.475  1.00  0.00    -0.451 OA
ENDROOT
BRANCH   1  12
ATOM     12  C   UNL     1      28.995  31.306  24.264  1.00  0.00     0.063 A 
ATOM     13  C   UNL     1      28.952  33.734  24.147  1.00  0.00     0.047 A 
ATOM     14  C   UNL     1      28.911  32.556  24.897  1.00  0.00     0.020 A 
ATOM     15  C   UNL     1      29.064  33.679  22.756  1.00  0.00     0.119 A 
ATOM     16  C   UNL     1      29.124  32.437  22.111  1.00  0.00     0.093 A 
ATOM     17  C   UNL     1      29.077  31.248  22.857  1.00  0.00     0.130 A 
BRANCH  15  18
ATOM     18  O   UNL     1      29.107  34.862  22.022  1.00  0.00    -0.508 OA
ATOM     19  H   UNL     1      28.265  35.289  21.654  1.00  0.00     0.293 HD
ENDBRANCH  15  18
BRANCH  17  20
ATOM     20  O   UNL     1      29.090  30.018  22.201  1.00  0.00    -0.507 OA
ATOM     21  H   UNL     1      29.190  29.146  22.708  1.00  0.00     0.293 HD
ENDBRANCH  17  20
ENDBRANCH   1  12
BRANCH   2  22
ATOM     22  O   UNL     1      29.122  31.361  27.140  1.00  0.00    -0.502 OA
ATOM     23  H   UNL     1      29.501  31.455  28.076  1.00  0.00     0.293 HD
ENDBRANCH   2  22
BRANCH   6  24
ATOM     24  O   UNL     1      29.122  26.213  28.520  1.00  0.00    -0.507 OA
ATOM     25  H   UNL     1      28.411  26.155  29.234  1.00  0.00     0.293 HD
ENDBRANCH   6  24
BRANCH   8  26
ATOM     26  O   UNL     1      28.225  24.203  24.252  1.00  0.00    -0.508 OA
ATOM     27  H   UNL     1      28.373  23.277  24.636  1.00  0.00     0.293 HD
ENDBRANCH   8  26
TORSDOF 6
ENDMDL
