MODEL 1
REMARK VINA RESULT:    -4.889      0.000      0.000
REMARK INTER + INTRA:          -8.145
REMARK INTER:                  -7.033
REMARK INTRA:                  -1.112
REMARK UNBOUND:                -1.112
REMARK SMILES O=c1c(O[C@H]2O[C@@H](CO)[C@H](O)[C@H](O)[C@@H]2O)c(-c2ccc(O)cc2)oc2cc(O)cc(O)c12
REMARK SMILES IDX 4 1 3 2 16 3 24 4 2 5 25 6 1 7 32 8 26 9 30 10 27 11 29 12
REMARK SMILES IDX 17 13 18 14 19 15 20 16 23 17 22 18 21 19 31 21 28 23 5 25
REMARK SMILES IDX 14 26 6 27 12 28 7 29 10 30 15 31 13 33 8 35 9 36 11 38
REMARK H PARENT 21 20 31 22 28 24 15 32 13 34 9 37 11 39
REMARK Flexibility Score: inf
ROOT
ATOM      1  O   UNL     1      17.382   2.409  10.842  1.00  0.00    -0.454 OA
ENDROOT
BRANCH   1   2
ATOM      2  C   UNL     1      18.166   1.255  11.030  1.00  0.00     0.214 A 
ATOM      3  C   UNL     1      19.466   1.402  11.545  1.00  0.00     0.180 A 
ATOM      4  O   UNL     1      20.251   0.343  11.680  1.00  0.00    -0.452 OA
ATOM      5  C   UNL     1      17.704  -0.040  10.730  1.00  0.00     0.239 A 
ATOM      6  C   UNL     1      19.876  -0.892  11.366  1.00  0.00     0.146 A 
ATOM      7  O   UNL     1      16.495  -0.204  10.434  1.00  0.00    -0.285 OA
ATOM      8  C   UNL     1      18.582  -1.147  10.841  1.00  0.00     0.111 A 
ATOM      9  C   UNL     1      20.777  -1.938  11.580  1.00  0.00     0.094 A 
ATOM     10  C   UNL     1      18.243  -2.491  10.498  1.00  0.00     0.134 A 
ATOM     11  C   UNL     1      20.412  -3.254  11.292  1.00  0.00     0.123 A 
ATOM     12  C   UNL     1      19.154  -3.521  10.757  1.00  0.00     0.093 A 
BRANCH   3  13
ATOM     13  C   UNL     1      19.999   2.725  11.929  1.00  0.00     0.021 A 
ATOM     14  C   UNL     1      20.426   2.945  13.247  1.00  0.00     0.016 A 
ATOM     15  C   UNL     1      20.978   4.176  13.613  1.00  0.00     0.047 A 
ATOM     16  C   UNL     1      21.091   5.205  12.674  1.00  0.00     0.115 A 
ATOM     17  C   UNL     1      20.092   3.768  10.992  1.00  0.00     0.016 A 
ATOM     18  C   UNL     1      20.638   5.001  11.362  1.00  0.00     0.047 A 
BRANCH  16  19
ATOM     19  O   UNL     1      21.664   6.420  13.045  1.00  0.00    -0.508 OA
ATOM     20  H   UNL     1      22.269   6.935  12.412  1.00  0.00     0.293 HD
ENDBRANCH  16  19
ENDBRANCH   3  13
BRANCH  10  21
ATOM     21  O   UNL     1      17.046  -2.863   9.879  1.00  0.00    -0.507 OA
ATOM     22  H   UNL     1      16.802  -3.797   9.601  1.00  0.00     0.293 HD
ENDBRANCH  10  21
BRANCH  11  23
ATOM     23  O   UNL     1      21.295  -4.303  11.535  1.00  0.00    -0.508 OA
ATOM     24  H   UNL     1      21.102  -5.245  11.218  1.00  0.00     0.293 HD
ENDBRANCH  11  23
ENDBRANCH   1   2
BRANCH   1  25
ATOM     25  C   UNL     1      16.012   2.573  11.231  1.00  0.00     0.339 C 
ATOM     26  C   UNL     1      15.480   3.986  10.912  1.00  0.00     0.214 C 
ATOM     27  O   UNL     1      15.876   2.258  12.607  1.00  0.00    -0.332 OA
ATOM     28  C   UNL     1      16.297   5.058  11.671  1.00  0.00     0.180 C 
ATOM     29  C   UNL     1      16.281   3.277  13.524  1.00  0.00     0.179 C 
ATOM     30  C   UNL     1      17.047   4.480  12.902  1.00  0.00     0.177 C 
BRANCH  26  31
ATOM     31  O   UNL     1      14.122   4.060  11.265  1.00  0.00    -0.384 OA
ATOM     32  H   UNL     1      13.816   4.975  11.030  1.00  0.00     0.211 HD
ENDBRANCH  26  31
BRANCH  28  33
ATOM     33  O   UNL     1      15.491   6.165  12.005  1.00  0.00    -0.387 OA
ATOM     34  H   UNL     1      14.651   6.087  11.483  1.00  0.00     0.211 HD
ENDBRANCH  28  33
BRANCH  29  35
ATOM     35  C   UNL     1      17.113   2.602  14.628  1.00  0.00     0.191 C 
BRANCH  35  36
ATOM     36  O   UNL     1      17.000   3.275  15.853  1.00  0.00    -0.394 OA
ATOM     37  H   UNL     1      16.153   3.794  15.814  1.00  0.00     0.210 HD
ENDBRANCH  35  36
ENDBRANCH  29  35
BRANCH  30  38
ATOM     38  O   UNL     1      17.240   5.484  13.866  1.00  0.00    -0.387 OA
ATOM     39  H   UNL     1      17.651   5.045  14.657  1.00  0.00     0.211 HD
ENDBRANCH  30  38
ENDBRANCH   1  25
TORSDOF 11
ENDMDL
MODEL 2
REMARK VINA RESULT:    -4.686      2.111      7.176
REMARK INTER + INTRA:          -7.853
REMARK INTER:                  -6.592
REMARK INTRA:                  -1.261
REMARK UNBOUND:                -1.112
REMARK SMILES O=c1c(O[C@H]2O[C@@H](CO)[C@H](O)[C@H](O)[C@@H]2O)c(-c2ccc(O)cc2)oc2cc(O)cc(O)c12
REMARK SMILES IDX 4 1 3 2 16 3 24 4 2 5 25 6 1 7 32 8 26 9 30 10 27 11 29 12
REMARK SMILES IDX 17 13 18 14 19 15 20 16 23 17 22 18 21 19 31 21 28 23 5 25
REMARK SMILES IDX 14 26 6 27 12 28 7 29 10 30 15 31 13 33 8 35 9 36 11 38
REMARK H PARENT 21 20 31 22 28 24 15 32 13 34 9 37 11 39
REMARK Flexibility Score: inf
ROOT
ATOM      1  O   UNL     1      18.191   1.356  13.918  1.00  0.00    -0.454 OA
ENDROOT
BRANCH   1   2
ATOM      2  C   UNL     1      17.460   2.247  13.109  1.00  0.00     0.214 A 
ATOM      3  C   UNL     1      17.142   1.857  11.797  1.00  0.00     0.180 A 
ATOM      4  O   UNL     1      16.505   2.693  10.990  1.00  0.00    -0.452 OA
ATOM      5  C   UNL     1      17.029   3.509  13.559  1.00  0.00     0.239 A 
ATOM      6  C   UNL     1      16.120   3.911  11.354  1.00  0.00     0.146 A 
ATOM      7  O   UNL     1      17.156   3.801  14.774  1.00  0.00    -0.285 OA
ATOM      8  C   UNL     1      16.391   4.399  12.660  1.00  0.00     0.111 A 
ATOM      9  C   UNL     1      15.427   4.696  10.431  1.00  0.00     0.094 A 
ATOM     10  C   UNL     1      15.976   5.726  12.987  1.00  0.00     0.134 A 
ATOM     11  C   UNL     1      14.978   5.970  10.782  1.00  0.00     0.123 A 
ATOM     12  C   UNL     1      15.253   6.474  12.052  1.00  0.00     0.093 A 
BRANCH   3  13
ATOM     13  C   UNL     1      17.518   0.527  11.275  1.00  0.00     0.021 A 
ATOM     14  C   UNL     1      18.622   0.406  10.417  1.00  0.00     0.016 A 
ATOM     15  C   UNL     1      19.020  -0.852   9.954  1.00  0.00     0.047 A 
ATOM     16  C   UNL     1      18.310  -1.997  10.325  1.00  0.00     0.115 A 
ATOM     17  C   UNL     1      16.791  -0.622  11.627  1.00  0.00     0.016 A 
ATOM     18  C   UNL     1      17.187  -1.878  11.157  1.00  0.00     0.047 A 
BRANCH  16  19
ATOM     19  O   UNL     1      18.730  -3.247   9.875  1.00  0.00    -0.508 OA
ATOM     20  H   UNL     1      18.710  -4.061  10.481  1.00  0.00     0.293 HD
ENDBRANCH  16  19
ENDBRANCH   3  13
BRANCH  10  21
ATOM     21  O   UNL     1      16.271   6.363  14.196  1.00  0.00    -0.507 OA
ATOM     22  H   UNL     1      16.039   7.314  14.423  1.00  0.00     0.293 HD
ENDBRANCH  10  21
BRANCH  11  23
ATOM     23  O   UNL     1      14.258   6.744   9.875  1.00  0.00    -0.508 OA
ATOM     24  H   UNL     1      14.691   7.496   9.355  1.00  0.00     0.293 HD
ENDBRANCH  11  23
ENDBRANCH   1   2
BRANCH   1  25
ATOM     25  C   UNL     1      19.326   1.688  14.729  1.00  0.00     0.339 C 
ATOM     26  C   UNL     1      20.514   2.202  13.889  1.00  0.00     0.214 C 
ATOM     27  O   UNL     1      19.684   0.561  15.514  1.00  0.00    -0.332 OA
ATOM     28  C   UNL     1      20.977   1.120  12.884  1.00  0.00     0.180 C 
ATOM     29  C   UNL     1      20.434  -0.455  14.843  1.00  0.00     0.179 C 
ATOM     30  C   UNL     1      20.532  -0.310  13.296  1.00  0.00     0.177 C 
BRANCH  26  31
ATOM     31  O   UNL     1      21.568   2.560  14.747  1.00  0.00    -0.384 OA
ATOM     32  H   UNL     1      21.152   2.937  15.566  1.00  0.00     0.211 HD
ENDBRANCH  26  31
BRANCH  28  33
ATOM     33  O   UNL     1      22.364   1.205  12.654  1.00  0.00    -0.387 OA
ATOM     34  H   UNL     1      22.609   2.165  12.673  1.00  0.00     0.211 HD
ENDBRANCH  28  33
BRANCH  29  35
ATOM     35  C   UNL     1      19.826  -1.812  15.235  1.00  0.00     0.191 C 
BRANCH  35  36
ATOM     36  O   UNL     1      19.445  -2.558  14.110  1.00  0.00    -0.394 OA
ATOM     37  H   UNL     1      18.474  -2.394  13.976  1.00  0.00     0.210 HD
ENDBRANCH  35  36
ENDBRANCH  29  35
BRANCH  30  38
ATOM     38  O   UNL     1      21.426  -1.263  12.776  1.00  0.00    -0.387 OA
ATOM     39  H   UNL     1      21.018  -1.609  11.938  1.00  0.00     0.211 HD
ENDBRANCH  30  38
ENDBRANCH   1  25
TORSDOF 11
ENDMDL
MODEL 3
REMARK VINA RESULT:    -4.646      3.379      8.877
REMARK INTER + INTRA:          -7.795
REMARK INTER:                  -6.395
REMARK INTRA:                  -1.400
REMARK UNBOUND:                -1.112
REMARK SMILES O=c1c(O[C@H]2O[C@@H](CO)[C@H](O)[C@H](O)[C@@H]2O)c(-c2ccc(O)cc2)oc2cc(O)cc(O)c12
REMARK SMILES IDX 4 1 3 2 16 3 24 4 2 5 25 6 1 7 32 8 26 9 30 10 27 11 29 12
REMARK SMILES IDX 17 13 18 14 19 15 20 16 23 17 22 18 21 19 31 21 28 23 5 25
REMARK SMILES IDX 14 26 6 27 12 28 7 29 10 30 15 31 13 33 8 35 9 36 11 38
REMARK H PARENT 21 20 31 22 28 24 15 32 13 34 9 37 11 39
REMARK Flexibility Score: inf
ROOT
ATOM      1  O   UNL     1      17.909   6.290  11.339  1.00  0.00    -0.454 OA
ENDROOT
BRANCH   1   2
ATOM      2  C   UNL     1      16.863   7.214  11.525  1.00  0.00     0.214 A 
ATOM      3  C   UNL     1      15.713   6.797  12.217  1.00  0.00     0.180 A 
ATOM      4  O   UNL     1      14.687   7.623  12.361  1.00  0.00    -0.452 OA
ATOM      5  C   UNL     1      16.921   8.539  11.053  1.00  0.00     0.239 A 
ATOM      6  C   UNL     1      14.676   8.866  11.891  1.00  0.00     0.146 A 
ATOM      7  O   UNL     1      18.001   8.975  10.586  1.00  0.00    -0.285 OA
ATOM      8  C   UNL     1      15.790   9.384  11.180  1.00  0.00     0.111 A 
ATOM      9  C   UNL     1      13.551   9.659  12.128  1.00  0.00     0.094 A 
ATOM     10  C   UNL     1      15.712  10.719  10.677  1.00  0.00     0.134 A 
ATOM     11  C   UNL     1      13.511  10.980  11.679  1.00  0.00     0.123 A 
ATOM     12  C   UNL     1      14.586  11.499  10.961  1.00  0.00     0.093 A 
BRANCH   3  13
ATOM     13  C   UNL     1      15.604   5.437  12.784  1.00  0.00     0.021 A 
ATOM     14  C   UNL     1      16.127   5.174  14.059  1.00  0.00     0.016 A 
ATOM     15  C   UNL     1      15.988   3.904  14.629  1.00  0.00     0.047 A 
ATOM     16  C   UNL     1      15.345   2.882  13.926  1.00  0.00     0.115 A 
ATOM     17  C   UNL     1      14.979   4.403  12.069  1.00  0.00     0.016 A 
ATOM     18  C   UNL     1      14.847   3.132  12.638  1.00  0.00     0.047 A 
BRANCH  16  19
ATOM     19  O   UNL     1      15.193   1.628  14.514  1.00  0.00    -0.508 OA
ATOM     20  H   UNL     1      15.614   1.410  15.411  1.00  0.00     0.293 HD
ENDBRANCH  16  19
ENDBRANCH   3  13
BRANCH  10  21
ATOM     21  O   UNL     1      16.691  11.311   9.875  1.00  0.00    -0.507 OA
ATOM     22  H   UNL     1      17.548  11.716  10.209  1.00  0.00     0.293 HD
ENDBRANCH  10  21
BRANCH  11  23
ATOM     23  O   UNL     1      12.405  11.785  11.941  1.00  0.00    -0.508 OA
ATOM     24  H   UNL     1      11.465  11.410  11.955  1.00  0.00     0.293 HD
ENDBRANCH  11  23
ENDBRANCH   1   2
BRANCH   1  25
ATOM     25  C   UNL     1      19.109   6.204  12.117  1.00  0.00     0.339 C 
ATOM     26  C   UNL     1      20.377   6.404  11.259  1.00  0.00     0.214 C 
ATOM     27  O   UNL     1      19.131   4.965  12.807  1.00  0.00    -0.332 OA
ATOM     28  C   UNL     1      20.468   5.315  10.164  1.00  0.00     0.180 C 
ATOM     29  C   UNL     1      19.524   3.827  12.036  1.00  0.00     0.179 C 
ATOM     30  C   UNL     1      19.624   4.055  10.499  1.00  0.00     0.177 C 
BRANCH  26  31
ATOM     31  O   UNL     1      21.509   6.364  12.090  1.00  0.00    -0.384 OA
ATOM     32  H   UNL     1      22.196   5.831  11.609  1.00  0.00     0.211 HD
ENDBRANCH  26  31
BRANCH  28  33
ATOM     33  O   UNL     1      21.811   5.000   9.876  1.00  0.00    -0.387 OA
ATOM     34  H   UNL     1      21.854   4.027   9.689  1.00  0.00     0.211 HD
ENDBRANCH  28  33
BRANCH  29  35
ATOM     35  C   UNL     1      18.545   2.687  12.363  1.00  0.00     0.191 C 
BRANCH  35  36
ATOM     36  O   UNL     1      19.098   1.428  12.084  1.00  0.00    -0.394 OA
ATOM     37  H   UNL     1      20.080   1.561  12.006  1.00  0.00     0.210 HD
ENDBRANCH  35  36
ENDBRANCH  29  35
BRANCH  30  38
ATOM     38  O   UNL     1      20.177   2.923   9.875  1.00  0.00    -0.387 OA
ATOM     39  H   UNL     1      20.741   3.256   9.128  1.00  0.00     0.211 HD
ENDBRANCH  30  38
ENDBRANCH   1  25
TORSDOF 11
ENDMDL
MODEL 4
REMARK VINA RESULT:    -4.639      1.905      4.420
REMARK INTER + INTRA:          -7.785
REMARK INTER:                  -6.688
REMARK INTRA:                  -1.097
REMARK UNBOUND:                -1.112
REMARK SMILES O=c1c(O[C@H]2O[C@@H](CO)[C@H](O)[C@H](O)[C@@H]2O)c(-c2ccc(O)cc2)oc2cc(O)cc(O)c12
REMARK SMILES IDX 4 1 3 2 16 3 24 4 2 5 25 6 1 7 32 8 26 9 30 10 27 11 29 12
REMARK SMILES IDX 17 13 18 14 19 15 20 16 23 17 22 18 21 19 31 21 28 23 5 25
REMARK SMILES IDX 14 26 6 27 12 28 7 29 10 30 15 31 13 33 8 35 9 36 11 38
REMARK H PARENT 21 20 31 22 28 24 15 32 13 34 9 37 11 39
REMARK Flexibility Score: inf
ROOT
ATOM      1  O   UNL     1      20.716   2.055  12.248  1.00  0.00    -0.454 OA
ENDROOT
BRANCH   1   2
ATOM      2  C   UNL     1      20.264   0.784  11.847  1.00  0.00     0.214 A 
ATOM      3  C   UNL     1      18.949   0.405  12.167  1.00  0.00     0.180 A 
ATOM      4  O   UNL     1      18.510  -0.806  11.854  1.00  0.00    -0.452 OA
ATOM      5  C   UNL     1      21.070  -0.123  11.132  1.00  0.00     0.239 A 
ATOM      6  C   UNL     1      19.249  -1.712  11.224  1.00  0.00     0.146 A 
ATOM      7  O   UNL     1      22.181   0.262  10.692  1.00  0.00    -0.285 OA
ATOM      8  C   UNL     1      20.589  -1.427  10.854  1.00  0.00     0.111 A 
ATOM      9  C   UNL     1      18.672  -2.946  10.917  1.00  0.00     0.094 A 
ATOM     10  C   UNL     1      21.344  -2.449  10.200  1.00  0.00     0.134 A 
ATOM     11  C   UNL     1      19.403  -3.916  10.228  1.00  0.00     0.123 A 
ATOM     12  C   UNL     1      20.727  -3.662   9.875  1.00  0.00     0.093 A 
BRANCH   3  13
ATOM     13  C   UNL     1      18.031   1.325  12.870  1.00  0.00     0.021 A 
ATOM     14  C   UNL     1      16.858   1.755  12.233  1.00  0.00     0.016 A 
ATOM     15  C   UNL     1      15.956   2.586  12.903  1.00  0.00     0.047 A 
ATOM     16  C   UNL     1      16.224   3.012  14.207  1.00  0.00     0.115 A 
ATOM     17  C   UNL     1      18.311   1.772  14.172  1.00  0.00     0.016 A 
ATOM     18  C   UNL     1      17.411   2.609  14.838  1.00  0.00     0.047 A 
BRANCH  16  19
ATOM     19  O   UNL     1      15.306   3.821  14.873  1.00  0.00    -0.508 OA
ATOM     20  H   UNL     1      14.444   4.120  14.428  1.00  0.00     0.293 HD
ENDBRANCH  16  19
ENDBRANCH   3  13
BRANCH  10  21
ATOM     21  O   UNL     1      22.699  -2.336   9.876  1.00  0.00    -0.507 OA
ATOM     22  H   UNL     1      23.357  -1.731  10.335  1.00  0.00     0.293 HD
ENDBRANCH  10  21
BRANCH  11  23
ATOM     23  O   UNL     1      18.822  -5.135   9.891  1.00  0.00    -0.508 OA
ATOM     24  H   UNL     1      18.389  -5.730  10.587  1.00  0.00     0.293 HD
ENDBRANCH  11  23
ENDBRANCH   1   2
BRANCH   1  25
ATOM     25  C   UNL     1      21.388   3.014  11.421  1.00  0.00     0.339 C 
ATOM     26  C   UNL     1      21.834   4.259  12.216  1.00  0.00     0.214 C 
ATOM     27  O   UNL     1      20.550   3.358  10.330  1.00  0.00    -0.332 OA
ATOM     28  C   UNL     1      20.610   4.975  12.835  1.00  0.00     0.180 C 
ATOM     29  C   UNL     1      19.510   4.298  10.613  1.00  0.00     0.179 C 
ATOM     30  C   UNL     1      19.280   4.616  12.119  1.00  0.00     0.177 C 
BRANCH  26  31
ATOM     31  O   UNL     1      22.532   5.129  11.361  1.00  0.00    -0.384 OA
ATOM     32  H   UNL     1      22.782   5.922  11.904  1.00  0.00     0.211 HD
ENDBRANCH  26  31
BRANCH  28  33
ATOM     33  O   UNL     1      20.823   6.366  12.909  1.00  0.00    -0.387 OA
ATOM     34  H   UNL     1      20.283   6.708  13.667  1.00  0.00     0.211 HD
ENDBRANCH  28  33
BRANCH  29  35
ATOM     35  C   UNL     1      18.223   3.775   9.954  1.00  0.00     0.191 C 
BRANCH  35  36
ATOM     36  O   UNL     1      17.199   4.734   9.975  1.00  0.00    -0.394 OA
ATOM     37  H   UNL     1      17.557   5.520  10.467  1.00  0.00     0.210 HD
ENDBRANCH  35  36
ENDBRANCH  29  35
BRANCH  30  38
ATOM     38  O   UNL     1      18.358   5.669  12.257  1.00  0.00    -0.387 OA
ATOM     39  H   UNL     1      17.996   5.852  11.350  1.00  0.00     0.211 HD
ENDBRANCH  30  38
ENDBRANCH   1  25
TORSDOF 11
ENDMDL
MODEL 5
REMARK VINA RESULT:    -4.604      1.236      2.536
REMARK INTER + INTRA:          -7.734
REMARK INTER:                  -6.819
REMARK INTRA:                  -0.915
REMARK UNBOUND:                -1.112
REMARK SMILES O=c1c(O[C@H]2O[C@@H](CO)[C@H](O)[C@H](O)[C@@H]2O)c(-c2ccc(O)cc2)oc2cc(O)cc(O)c12
REMARK SMILES IDX 4 1 3 2 16 3 24 4 2 5 25 6 1 7 32 8 26 9 30 10 27 11 29 12
REMARK SMILES IDX 17 13 18 14 19 15 20 16 23 17 22 18 21 19 31 21 28 23 5 25
REMARK SMILES IDX 14 26 6 27 12 28 7 29 10 30 15 31 13 33 8 35 9 36 11 38
REMARK H PARENT 21 20 31 22 28 24 15 32 13 34 9 37 11 39
REMARK Flexibility Score: inf
ROOT
ATOM      1  O   UNL     1      18.171   2.273  12.023  1.00  0.00    -0.454 OA
ENDROOT
BRANCH   1   2
ATOM      2  C   UNL     1      18.785   1.042  11.722  1.00  0.00     0.214 A 
ATOM      3  C   UNL     1      20.169   0.912  11.931  1.00  0.00     0.180 A 
ATOM      4  O   UNL     1      20.788  -0.213  11.605  1.00  0.00    -0.452 OA
ATOM      5  C   UNL     1      18.072  -0.067  11.228  1.00  0.00     0.239 A 
ATOM      6  C   UNL     1      20.167  -1.269  11.091  1.00  0.00     0.146 A 
ATOM      7  O   UNL     1      16.818  -0.023  11.197  1.00  0.00    -0.285 OA
ATOM      8  C   UNL     1      18.769  -1.240  10.844  1.00  0.00     0.111 A 
ATOM      9  C   UNL     1      20.915  -2.415  10.814  1.00  0.00     0.094 A 
ATOM     10  C   UNL     1      18.159  -2.395  10.267  1.00  0.00     0.134 A 
ATOM     11  C   UNL     1      20.296  -3.556  10.302  1.00  0.00     0.123 A 
ATOM     12  C   UNL     1      18.929  -3.540  10.033  1.00  0.00     0.093 A 
BRANCH   3  13
ATOM     13  C   UNL     1      20.971   2.017  12.495  1.00  0.00     0.021 A 
ATOM     14  C   UNL     1      21.351   3.087  11.673  1.00  0.00     0.016 A 
ATOM     15  C   UNL     1      22.069   4.164  12.203  1.00  0.00     0.047 A 
ATOM     16  C   UNL     1      22.430   4.174  13.553  1.00  0.00     0.115 A 
ATOM     17  C   UNL     1      21.356   2.016  13.846  1.00  0.00     0.016 A 
ATOM     18  C   UNL     1      22.079   3.090  14.373  1.00  0.00     0.047 A 
BRANCH  16  19
ATOM     19  O   UNL     1      23.125   5.263  14.076  1.00  0.00    -0.508 OA
ATOM     20  H   UNL     1      23.909   5.136  14.708  1.00  0.00     0.293 HD
ENDBRANCH  16  19
ENDBRANCH   3  13
BRANCH  10  21
ATOM     21  O   UNL     1      16.817  -2.461   9.879  1.00  0.00    -0.507 OA
ATOM     22  H   UNL     1      16.145  -3.123  10.224  1.00  0.00     0.293 HD
ENDBRANCH  10  21
BRANCH  11  23
ATOM     23  O   UNL     1      21.033  -4.712  10.055  1.00  0.00    -0.508 OA
ATOM     24  H   UNL     1      21.392  -5.285  10.807  1.00  0.00     0.293 HD
ENDBRANCH  11  23
ENDBRANCH   1   2
BRANCH   1  25
ATOM     25  C   UNL     1      18.100   2.889  13.316  1.00  0.00     0.339 C 
ATOM     26  C   UNL     1      16.866   2.422  14.117  1.00  0.00     0.214 C 
ATOM     27  O   UNL     1      18.126   4.298  13.163  1.00  0.00    -0.332 OA
ATOM     28  C   UNL     1      15.562   2.788  13.369  1.00  0.00     0.180 C 
ATOM     29  C   UNL     1      16.891   4.908  12.780  1.00  0.00     0.179 C 
ATOM     30  C   UNL     1      15.764   3.930  12.337  1.00  0.00     0.177 C 
BRANCH  26  31
ATOM     31  O   UNL     1      16.888   3.018  15.389  1.00  0.00    -0.384 OA
ATOM     32  H   UNL     1      17.722   3.554  15.438  1.00  0.00     0.211 HD
ENDBRANCH  26  31
BRANCH  28  33
ATOM     33  O   UNL     1      14.520   3.061  14.276  1.00  0.00    -0.387 OA
ATOM     34  H   UNL     1      13.670   3.039  13.765  1.00  0.00     0.211 HD
ENDBRANCH  28  33
BRANCH  29  35
ATOM     35  C   UNL     1      17.203   5.931  11.675  1.00  0.00     0.191 C 
BRANCH  35  36
ATOM     36  O   UNL     1      16.497   7.129  11.857  1.00  0.00    -0.394 OA
ATOM     37  H   UNL     1      16.340   7.506  10.950  1.00  0.00     0.210 HD
ENDBRANCH  35  36
ENDBRANCH  29  35
BRANCH  30  38
ATOM     38  O   UNL     1      14.560   4.631  12.150  1.00  0.00    -0.387 OA
ATOM     39  H   UNL     1      13.835   3.951  12.125  1.00  0.00     0.211 HD
ENDBRANCH  30  38
ENDBRANCH   1  25
TORSDOF 11
ENDMDL
MODEL 6
REMARK VINA RESULT:    -4.523      2.193      7.261
REMARK INTER + INTRA:          -7.618
REMARK INTER:                  -6.503
REMARK INTRA:                  -1.115
REMARK UNBOUND:                -1.112
REMARK SMILES O=c1c(O[C@H]2O[C@@H](CO)[C@H](O)[C@H](O)[C@@H]2O)c(-c2ccc(O)cc2)oc2cc(O)cc(O)c12
REMARK SMILES IDX 4 1 3 2 16 3 24 4 2 5 25 6 1 7 32 8 26 9 30 10 27 11 29 12
REMARK SMILES IDX 17 13 18 14 19 15 20 16 23 17 22 18 21 19 31 21 28 23 5 25
REMARK SMILES IDX 14 26 6 27 12 28 7 29 10 30 15 31 13 33 8 35 9 36 11 38
REMARK H PARENT 21 20 31 22 28 24 15 32 13 34 9 37 11 39
REMARK Flexibility Score: inf
ROOT
ATOM      1  O   UNL     1      19.858   3.041  11.346  1.00  0.00    -0.454 OA
ENDROOT
BRANCH   1   2
ATOM      2  C   UNL     1      18.649   3.713  11.087  1.00  0.00     0.214 A 
ATOM      3  C   UNL     1      17.510   2.951  10.775  1.00  0.00     0.180 A 
ATOM      4  O   UNL     1      16.369   3.553  10.470  1.00  0.00    -0.452 OA
ATOM      5  C   UNL     1      18.528   5.115  11.133  1.00  0.00     0.239 A 
ATOM      6  C   UNL     1      16.220   4.873  10.453  1.00  0.00     0.146 A 
ATOM      7  O   UNL     1      19.486   5.797  11.574  1.00  0.00    -0.285 OA
ATOM      8  C   UNL     1      17.309   5.732  10.756  1.00  0.00     0.111 A 
ATOM      9  C   UNL     1      14.963   5.399  10.147  1.00  0.00     0.094 A 
ATOM     10  C   UNL     1      17.096   7.143  10.698  1.00  0.00     0.134 A 
ATOM     11  C   UNL     1      14.755   6.779  10.148  1.00  0.00     0.123 A 
ATOM     12  C   UNL     1      15.817   7.638  10.422  1.00  0.00     0.093 A 
BRANCH   3  13
ATOM     13  C   UNL     1      17.550   1.475  10.759  1.00  0.00     0.021 A 
ATOM     14  C   UNL     1      18.418   0.815   9.875  1.00  0.00     0.016 A 
ATOM     15  C   UNL     1      18.503  -0.581   9.882  1.00  0.00     0.047 A 
ATOM     16  C   UNL     1      17.711  -1.331  10.755  1.00  0.00     0.115 A 
ATOM     17  C   UNL     1      16.738   0.718  11.619  1.00  0.00     0.016 A 
ATOM     18  C   UNL     1      16.820  -0.678  11.619  1.00  0.00     0.047 A 
BRANCH  16  19
ATOM     19  O   UNL     1      17.822  -2.720  10.768  1.00  0.00    -0.508 OA
ATOM     20  H   UNL     1      18.697  -3.178  11.005  1.00  0.00     0.293 HD
ENDBRANCH  16  19
ENDBRANCH   3  13
BRANCH  10  21
ATOM     21  O   UNL     1      18.105   8.095  10.871  1.00  0.00    -0.507 OA
ATOM     22  H   UNL     1      18.435   8.436  11.756  1.00  0.00     0.293 HD
ENDBRANCH  10  21
BRANCH  11  23
ATOM     23  O   UNL     1      13.495   7.306   9.875  1.00  0.00    -0.508 OA
ATOM     24  H   UNL     1      13.109   7.308   8.940  1.00  0.00     0.293 HD
ENDBRANCH  11  23
ENDBRANCH   1   2
BRANCH   1  25
ATOM     25  C   UNL     1      20.769   3.322  12.418  1.00  0.00     0.339 C 
ATOM     26  C   UNL     1      21.989   2.377  12.410  1.00  0.00     0.214 C 
ATOM     27  O   UNL     1      20.070   3.268  13.651  1.00  0.00    -0.332 OA
ATOM     28  C   UNL     1      21.537   0.906  12.573  1.00  0.00     0.180 C 
ATOM     29  C   UNL     1      19.824   1.960  14.173  1.00  0.00     0.179 C 
ATOM     30  C   UNL     1      20.124   0.779  13.205  1.00  0.00     0.177 C 
BRANCH  26  31
ATOM     31  O   UNL     1      22.864   2.741  13.447  1.00  0.00    -0.384 OA
ATOM     32  H   UNL     1      22.300   2.923  14.244  1.00  0.00     0.211 HD
ENDBRANCH  26  31
BRANCH  28  33
ATOM     33  O   UNL     1      22.505   0.155  13.268  1.00  0.00    -0.387 OA
ATOM     34  H   UNL     1      23.386   0.576  13.097  1.00  0.00     0.211 HD
ENDBRANCH  28  33
BRANCH  29  35
ATOM     35  C   UNL     1      18.364   1.923  14.656  1.00  0.00     0.191 C 
BRANCH  35  36
ATOM     36  O   UNL     1      18.220   1.156  15.822  1.00  0.00    -0.394 OA
ATOM     37  H   UNL     1      18.041   0.223  15.527  1.00  0.00     0.210 HD
ENDBRANCH  35  36
ENDBRANCH  29  35
BRANCH  30  38
ATOM     38  O   UNL     1      20.006  -0.446  13.883  1.00  0.00    -0.387 OA
ATOM     39  H   UNL     1      20.008  -0.236  14.854  1.00  0.00     0.211 HD
ENDBRANCH  30  38
ENDBRANCH   1  25
TORSDOF 11
ENDMDL
MODEL 7
REMARK VINA RESULT:    -4.465      2.635      6.831
REMARK INTER + INTRA:          -7.535
REMARK INTER:                  -6.295
REMARK INTRA:                  -1.239
REMARK UNBOUND:                -1.112
REMARK SMILES O=c1c(O[C@H]2O[C@@H](CO)[C@H](O)[C@H](O)[C@@H]2O)c(-c2ccc(O)cc2)oc2cc(O)cc(O)c12
REMARK SMILES IDX 4 1 3 2 16 3 24 4 2 5 25 6 1 7 32 8 26 9 30 10 27 11 29 12
REMARK SMILES IDX 17 13 18 14 19 15 20 16 23 17 22 18 21 19 31 21 28 23 5 25
REMARK SMILES IDX 14 26 6 27 12 28 7 29 10 30 15 31 13 33 8 35 9 36 11 38
REMARK H PARENT 21 20 31 22 28 24 15 32 13 34 9 37 11 39
REMARK Flexibility Score: inf
ROOT
ATOM      1  O   UNL     1      19.866   4.071  12.925  1.00  0.00    -0.454 OA
ENDROOT
BRANCH   1   2
ATOM      2  C   UNL     1      18.548   3.947  12.448  1.00  0.00     0.214 A 
ATOM      3  C   UNL     1      17.849   2.755  12.705  1.00  0.00     0.180 A 
ATOM      4  O   UNL     1      16.627   2.582  12.222  1.00  0.00    -0.452 OA
ATOM      5  C   UNL     1      17.896   4.967  11.730  1.00  0.00     0.239 A 
ATOM      6  C   UNL     1      15.990   3.496  11.498  1.00  0.00     0.146 A 
ATOM      7  O   UNL     1      18.440   6.095  11.640  1.00  0.00    -0.285 OA
ATOM      8  C   UNL     1      16.608   4.735  11.185  1.00  0.00     0.111 A 
ATOM      9  C   UNL     1      14.691   3.219  11.066  1.00  0.00     0.094 A 
ATOM     10  C   UNL     1      15.884   5.670  10.383  1.00  0.00     0.134 A 
ATOM     11  C   UNL     1      13.975   4.163  10.330  1.00  0.00     0.123 A 
ATOM     12  C   UNL     1      14.572   5.377   9.995  1.00  0.00     0.093 A 
BRANCH   3  13
ATOM     13  C   UNL     1      18.452   1.662  13.496  1.00  0.00     0.021 A 
ATOM     14  C   UNL     1      18.895   0.500  12.847  1.00  0.00     0.016 A 
ATOM     15  C   UNL     1      19.513  -0.522  13.575  1.00  0.00     0.047 A 
ATOM     16  C   UNL     1      19.675  -0.403  14.958  1.00  0.00     0.115 A 
ATOM     17  C   UNL     1      18.595   1.770  14.889  1.00  0.00     0.016 A 
ATOM     18  C   UNL     1      19.206   0.744  15.616  1.00  0.00     0.047 A 
BRANCH  16  19
ATOM     19  O   UNL     1      20.313  -1.417  15.670  1.00  0.00    -0.508 OA
ATOM     20  H   UNL     1      19.971  -1.723  16.575  1.00  0.00     0.293 HD
ENDBRANCH  16  19
ENDBRANCH   3  13
BRANCH  10  21
ATOM     21  O   UNL     1      16.414   6.877   9.918  1.00  0.00    -0.507 OA
ATOM     22  H   UNL     1      17.061   7.459  10.419  1.00  0.00     0.293 HD
ENDBRANCH  10  21
BRANCH  11  23
ATOM     23  O   UNL     1      12.668   3.904   9.925  1.00  0.00    -0.508 OA
ATOM     24  H   UNL     1      11.883   4.021  10.553  1.00  0.00     0.293 HD
ENDBRANCH  11  23
ENDBRANCH   1   2
BRANCH   1  25
ATOM     25  C   UNL     1      21.056   4.096  12.126  1.00  0.00     0.339 C 
ATOM     26  C   UNL     1      21.638   2.684  11.902  1.00  0.00     0.214 C 
ATOM     27  O   UNL     1      22.002   4.966  12.723  1.00  0.00    -0.332 OA
ATOM     28  C   UNL     1      22.014   2.031  13.254  1.00  0.00     0.180 C 
ATOM     29  C   UNL     1      22.731   4.432  13.831  1.00  0.00     0.179 C 
ATOM     30  C   UNL     1      22.213   3.074  14.388  1.00  0.00     0.177 C 
BRANCH  26  31
ATOM     31  O   UNL     1      22.765   2.774  11.068  1.00  0.00    -0.384 OA
ATOM     32  H   UNL     1      22.494   3.315  10.281  1.00  0.00     0.211 HD
ENDBRANCH  26  31
BRANCH  28  33
ATOM     33  O   UNL     1      23.125   1.176  13.110  1.00  0.00    -0.387 OA
ATOM     34  H   UNL     1      23.673   1.526  12.361  1.00  0.00     0.211 HD
ENDBRANCH  28  33
BRANCH  29  35
ATOM     35  C   UNL     1      22.757   5.507  14.930  1.00  0.00     0.191 C 
BRANCH  35  36
ATOM     36  O   UNL     1      22.345   6.757  14.447  1.00  0.00    -0.394 OA
ATOM     37  H   UNL     1      22.218   7.341  15.242  1.00  0.00     0.210 HD
ENDBRANCH  35  36
ENDBRANCH  29  35
BRANCH  30  38
ATOM     38  O   UNL     1      23.104   2.573  15.353  1.00  0.00    -0.387 OA
ATOM     39  H   UNL     1      23.183   3.270  16.057  1.00  0.00     0.211 HD
ENDBRANCH  30  38
ENDBRANCH   1  25
TORSDOF 11
ENDMDL
MODEL 8
REMARK VINA RESULT:    -4.379      2.135      6.646
REMARK INTER + INTRA:          -7.411
REMARK INTER:                  -6.296
REMARK INTRA:                  -1.115
REMARK UNBOUND:                -1.112
REMARK SMILES O=c1c(O[C@H]2O[C@@H](CO)[C@H](O)[C@H](O)[C@@H]2O)c(-c2ccc(O)cc2)oc2cc(O)cc(O)c12
REMARK SMILES IDX 4 1 3 2 16 3 24 4 2 5 25 6 1 7 32 8 26 9 30 10 27 11 29 12
REMARK SMILES IDX 17 13 18 14 19 15 20 16 23 17 22 18 21 19 31 21 28 23 5 25
REMARK SMILES IDX 14 26 6 27 12 28 7 29 10 30 15 31 13 33 8 35 9 36 11 38
REMARK H PARENT 21 20 31 22 28 24 15 32 13 34 9 37 11 39
REMARK Flexibility Score: inf
ROOT
ATOM      1  O   UNL     1      18.233  -0.017  12.326  1.00  0.00    -0.454 OA
ENDROOT
BRANCH   1   2
ATOM      2  C   UNL     1      17.853   1.320  12.548  1.00  0.00     0.214 A 
ATOM      3  C   UNL     1      18.507   2.047  13.556  1.00  0.00     0.180 A 
ATOM      4  O   UNL     1      18.136   3.289  13.830  1.00  0.00    -0.452 OA
ATOM      5  C   UNL     1      16.849   1.963  11.799  1.00  0.00     0.239 A 
ATOM      6  C   UNL     1      17.162   3.921  13.183  1.00  0.00     0.146 A 
ATOM      7  O   UNL     1      16.376   1.387  10.789  1.00  0.00    -0.285 OA
ATOM      8  C   UNL     1      16.441   3.275  12.145  1.00  0.00     0.111 A 
ATOM      9  C   UNL     1      16.875   5.241  13.535  1.00  0.00     0.094 A 
ATOM     10  C   UNL     1      15.388   3.995  11.502  1.00  0.00     0.134 A 
ATOM     11  C   UNL     1      15.881   5.952  12.861  1.00  0.00     0.123 A 
ATOM     12  C   UNL     1      15.148   5.328  11.853  1.00  0.00     0.093 A 
BRANCH   3  13
ATOM     13  C   UNL     1      19.605   1.452  14.347  1.00  0.00     0.021 A 
ATOM     14  C   UNL     1      19.329   0.401  15.234  1.00  0.00     0.016 A 
ATOM     15  C   UNL     1      20.364  -0.205  15.953  1.00  0.00     0.047 A 
ATOM     16  C   UNL     1      21.680   0.245  15.809  1.00  0.00     0.115 A 
ATOM     17  C   UNL     1      20.923   1.919  14.222  1.00  0.00     0.016 A 
ATOM     18  C   UNL     1      21.956   1.317  14.946  1.00  0.00     0.047 A 
BRANCH  16  19
ATOM     19  O   UNL     1      22.706  -0.381  16.513  1.00  0.00    -0.508 OA
ATOM     20  H   UNL     1      22.569  -0.714  17.463  1.00  0.00     0.293 HD
ENDBRANCH  16  19
ENDBRANCH   3  13
BRANCH  10  21
ATOM     21  O   UNL     1      14.535   3.444  10.541  1.00  0.00    -0.507 OA
ATOM     22  H   UNL     1      14.270   2.476  10.487  1.00  0.00     0.293 HD
ENDBRANCH  10  21
BRANCH  11  23
ATOM     23  O   UNL     1      15.614   7.280  13.185  1.00  0.00    -0.508 OA
ATOM     24  H   UNL     1      15.291   7.548  14.106  1.00  0.00     0.293 HD
ENDBRANCH  11  23
ENDBRANCH   1   2
BRANCH   1  25
ATOM     25  C   UNL     1      18.430  -0.640  11.050  1.00  0.00     0.339 C 
ATOM     26  C   UNL     1      18.767  -2.141  11.178  1.00  0.00     0.214 C 
ATOM     27  O   UNL     1      19.433   0.065  10.336  1.00  0.00    -0.332 OA
ATOM     28  C   UNL     1      20.073  -2.337  11.984  1.00  0.00     0.180 C 
ATOM     29  C   UNL     1      20.783  -0.221  10.709  1.00  0.00     0.179 C 
ATOM     30  C   UNL     1      20.961  -1.064  12.006  1.00  0.00     0.177 C 
BRANCH  26  31
ATOM     31  O   UNL     1      18.891  -2.699   9.895  1.00  0.00    -0.384 OA
ATOM     32  H   UNL     1      18.440  -3.583   9.924  1.00  0.00     0.211 HD
ENDBRANCH  26  31
BRANCH  28  33
ATOM     33  O   UNL     1      20.775  -3.474  11.539  1.00  0.00    -0.387 OA
ATOM     34  H   UNL     1      21.486  -3.161  10.924  1.00  0.00     0.211 HD
ENDBRANCH  28  33
BRANCH  29  35
ATOM     35  C   UNL     1      21.528   1.120  10.813  1.00  0.00     0.191 C 
BRANCH  35  36
ATOM     36  O   UNL     1      20.664   2.212  10.647  1.00  0.00    -0.394 OA
ATOM     37  H   UNL     1      21.013   2.941  11.226  1.00  0.00     0.210 HD
ENDBRANCH  35  36
ENDBRANCH  29  35
BRANCH  30  38
ATOM     38  O   UNL     1      22.311  -1.419  12.172  1.00  0.00    -0.387 OA
ATOM     39  H   UNL     1      22.850  -0.702  11.744  1.00  0.00     0.211 HD
ENDBRANCH  30  38
ENDBRANCH   1  25
TORSDOF 11
ENDMDL
