MODEL 1
REMARK VINA RESULT:    -4.497      0.000      0.000
REMARK INTER + INTRA:          -5.804
REMARK INTER:                  -5.548
REMARK INTRA:                  -0.256
REMARK UNBOUND:                -0.256
REMARK SMILES C=CC[C@@H](C)C(=O)CC
REMARK SMILES IDX 4 1 5 2 6 3 7 4 8 5 9 6 3 7 2 8 1 9
REMARK H PARENT
REMARK Flexibility Score: inf
ROOT
ATOM      1  C   UNL     1     -12.043 -15.740  28.632  1.00  0.00     0.057 C 
ATOM      2  C   UNL     1     -10.942 -16.111  29.636  1.00  0.00     0.016 C 
ENDROOT
BRANCH   1   3
ATOM      3  C   UNL     1     -12.579 -16.994  27.973  1.00  0.00     0.135 C 
ATOM      4  O   UNL     1     -13.061 -17.882  28.662  1.00  0.00    -0.299 OA
BRANCH   3   5
ATOM      5  C   UNL     1     -12.537 -17.167  26.478  1.00  0.00     0.072 C 
ATOM      6  C   UNL     1     -11.113 -17.434  26.003  1.00  0.00     0.012 C 
ENDBRANCH   3   5
ENDBRANCH   1   3
BRANCH   1   7
ATOM      7  C   UNL     1     -13.193 -14.966  29.305  1.00  0.00     0.038 C 
BRANCH   7   8
ATOM      8  C   UNL     1     -13.989 -14.174  28.301  1.00  0.00    -0.034 C 
ATOM      9  C   UNL     1     -14.931 -13.302  28.675  1.00  0.00     0.004 C 
ENDBRANCH   7   8
ENDBRANCH   1   7
TORSDOF 4
ENDMDL
MODEL 2
REMARK VINA RESULT:    -4.468      1.068      3.588
REMARK INTER + INTRA:          -5.769
REMARK INTER:                  -5.288
REMARK INTRA:                  -0.481
REMARK UNBOUND:                -0.256
REMARK SMILES C=CC[C@@H](C)C(=O)CC
REMARK SMILES IDX 4 1 5 2 6 3 7 4 8 5 9 6 3 7 2 8 1 9
REMARK H PARENT
REMARK Flexibility Score: inf
ROOT
ATOM      1  C   UNL     1     -12.563 -15.651  28.322  1.00  0.00     0.057 C 
ATOM      2  C   UNL     1     -13.560 -14.506  28.557  1.00  0.00     0.016 C 
ENDROOT
BRANCH   1   3
ATOM      3  C   UNL     1     -12.271 -16.353  29.632  1.00  0.00     0.135 C 
ATOM      4  O   UNL     1     -13.171 -16.936  30.220  1.00  0.00    -0.299 OA
BRANCH   3   5
ATOM      5  C   UNL     1     -10.887 -16.354  30.224  1.00  0.00     0.072 C 
ATOM      6  C   UNL     1      -9.967 -15.414  29.453  1.00  0.00     0.012 C 
ENDBRANCH   3   5
ENDBRANCH   1   3
BRANCH   1   7
ATOM      7  C   UNL     1     -13.090 -16.663  27.287  1.00  0.00     0.038 C 
BRANCH   7   8
ATOM      8  C   UNL     1     -12.035 -17.673  26.915  1.00  0.00    -0.034 C 
ATOM      9  C   UNL     1     -11.073 -17.397  26.029  1.00  0.00     0.004 C 
ENDBRANCH   7   8
ENDBRANCH   1   7
TORSDOF 4
ENDMDL
MODEL 3
REMARK VINA RESULT:    -4.433      1.939      3.348
REMARK INTER + INTRA:          -5.725
REMARK INTER:                  -5.290
REMARK INTRA:                  -0.435
REMARK UNBOUND:                -0.256
REMARK SMILES C=CC[C@@H](C)C(=O)CC
REMARK SMILES IDX 4 1 5 2 6 3 7 4 8 5 9 6 3 7 2 8 1 9
REMARK H PARENT
REMARK Flexibility Score: inf
ROOT
ATOM      1  C   UNL     1     -11.772 -16.963  28.719  1.00  0.00     0.057 C 
ATOM      2  C   UNL     1     -11.241 -15.802  29.573  1.00  0.00     0.016 C 
ENDROOT
BRANCH   1   3
ATOM      3  C   UNL     1     -12.473 -17.972  29.604  1.00  0.00     0.135 C 
ATOM      4  O   UNL     1     -13.108 -17.588  30.576  1.00  0.00    -0.299 OA
BRANCH   3   5
ATOM      5  C   UNL     1     -12.410 -19.447  29.306  1.00  0.00     0.072 C 
ATOM      6  C   UNL     1     -13.665 -19.905  28.570  1.00  0.00     0.012 C 
ENDBRANCH   3   5
ENDBRANCH   1   3
BRANCH   1   7
ATOM      7  C   UNL     1     -12.732 -16.470  27.619  1.00  0.00     0.038 C 
BRANCH   7   8
ATOM      8  C   UNL     1     -12.423 -17.106  26.289  1.00  0.00    -0.034 C 
ATOM      9  C   UNL     1     -11.185 -17.482  25.956  1.00  0.00     0.004 C 
ENDBRANCH   7   8
ENDBRANCH   1   7
TORSDOF 4
ENDMDL
MODEL 4
REMARK VINA RESULT:    -4.388      1.753      2.713
REMARK INTER + INTRA:          -5.670
REMARK INTER:                  -5.400
REMARK INTRA:                  -0.269
REMARK UNBOUND:                -0.256
REMARK SMILES C=CC[C@@H](C)C(=O)CC
REMARK SMILES IDX 4 1 5 2 6 3 7 4 8 5 9 6 3 7 2 8 1 9
REMARK H PARENT
REMARK Flexibility Score: inf
ROOT
ATOM      1  C   UNL     1     -12.090 -17.201  27.438  1.00  0.00     0.057 C 
ATOM      2  C   UNL     1     -11.112 -17.597  26.321  1.00  0.00     0.016 C 
ENDROOT
BRANCH   1   3
ATOM      3  C   UNL     1     -12.443 -18.419  28.265  1.00  0.00     0.135 C 
ATOM      4  O   UNL     1     -11.606 -18.909  29.011  1.00  0.00    -0.299 OA
BRANCH   3   5
ATOM      5  C   UNL     1     -13.813 -19.040  28.194  1.00  0.00     0.072 C 
ATOM      6  C   UNL     1     -13.752 -20.527  28.523  1.00  0.00     0.012 C 
ENDBRANCH   3   5
ENDBRANCH   1   3
BRANCH   1   7
ATOM      7  C   UNL     1     -11.506 -16.100  28.344  1.00  0.00     0.038 C 
BRANCH   7   8
ATOM      8  C   UNL     1     -12.583 -15.408  29.139  1.00  0.00    -0.034 C 
ATOM      9  C   UNL     1     -13.472 -14.593  28.564  1.00  0.00     0.004 C 
ENDBRANCH   7   8
ENDBRANCH   1   7
TORSDOF 4
ENDMDL
MODEL 5
REMARK VINA RESULT:    -4.354      1.987      4.129
REMARK INTER + INTRA:          -5.628
REMARK INTER:                  -5.371
REMARK INTRA:                  -0.256
REMARK UNBOUND:                -0.256
REMARK SMILES C=CC[C@@H](C)C(=O)CC
REMARK SMILES IDX 4 1 5 2 6 3 7 4 8 5 9 6 3 7 2 8 1 9
REMARK H PARENT
REMARK Flexibility Score: inf
ROOT
ATOM      1  C   UNL     1     -11.589 -17.666  27.491  1.00  0.00     0.057 C 
ATOM      2  C   UNL     1     -11.254 -17.286  26.041  1.00  0.00     0.016 C 
ENDROOT
BRANCH   1   3
ATOM      3  C   UNL     1     -11.368 -16.473  28.398  1.00  0.00     0.135 C 
ATOM      4  O   UNL     1     -10.263 -16.275  28.880  1.00  0.00    -0.299 OA
BRANCH   3   5
ATOM      5  C   UNL     1     -12.487 -15.516  28.712  1.00  0.00     0.072 C 
ATOM      6  C   UNL     1     -12.914 -15.642  30.171  1.00  0.00     0.012 C 
ENDBRANCH   3   5
ENDBRANCH   1   3
BRANCH   1   7
ATOM      7  C   UNL     1     -13.038 -18.172  27.629  1.00  0.00     0.038 C 
BRANCH   7   8
ATOM      8  C   UNL     1     -13.151 -19.248  28.678  1.00  0.00    -0.034 C 
ATOM      9  C   UNL     1     -13.937 -20.316  28.512  1.00  0.00     0.004 C 
ENDBRANCH   7   8
ENDBRANCH   1   7
TORSDOF 4
ENDMDL
MODEL 6
REMARK VINA RESULT:    -4.351      2.617      4.045
REMARK INTER + INTRA:          -5.624
REMARK INTER:                  -5.419
REMARK INTRA:                  -0.206
REMARK UNBOUND:                -0.256
REMARK SMILES C=CC[C@@H](C)C(=O)CC
REMARK SMILES IDX 4 1 5 2 6 3 7 4 8 5 9 6 3 7 2 8 1 9
REMARK H PARENT
REMARK Flexibility Score: inf
ROOT
ATOM      1  C   UNL     1     -12.636 -18.513  28.864  1.00  0.00     0.057 C 
ATOM      2  C   UNL     1     -13.755 -19.425  28.338  1.00  0.00     0.016 C 
ENDROOT
BRANCH   1   3
ATOM      3  C   UNL     1     -12.663 -17.191  28.127  1.00  0.00     0.135 C 
ATOM      4  O   UNL     1     -12.758 -16.147  28.757  1.00  0.00    -0.299 OA
BRANCH   3   5
ATOM      5  C   UNL     1     -12.568 -17.134  26.625  1.00  0.00     0.072 C 
ATOM      6  C   UNL     1     -11.166 -17.508  26.157  1.00  0.00     0.012 C 
ENDBRANCH   3   5
ENDBRANCH   1   3
BRANCH   1   7
ATOM      7  C   UNL     1     -12.761 -18.273  30.381  1.00  0.00     0.038 C 
BRANCH   7   8
ATOM      8  C   UNL     1     -13.161 -19.530  31.110  1.00  0.00    -0.034 C 
ATOM      9  C   UNL     1     -12.255 -20.370  31.619  1.00  0.00     0.004 C 
ENDBRANCH   7   8
ENDBRANCH   1   7
TORSDOF 4
ENDMDL
MODEL 7
REMARK VINA RESULT:    -4.264      1.080      2.833
REMARK INTER + INTRA:          -5.517
REMARK INTER:                  -5.173
REMARK INTRA:                  -0.344
REMARK UNBOUND:                -0.256
REMARK SMILES C=CC[C@@H](C)C(=O)CC
REMARK SMILES IDX 4 1 5 2 6 3 7 4 8 5 9 6 3 7 2 8 1 9
REMARK H PARENT
REMARK Flexibility Score: inf
ROOT
ATOM      1  C   UNL     1     -12.121 -15.987  29.117  1.00  0.00     0.057 C 
ATOM      2  C   UNL     1     -13.101 -14.925  28.597  1.00  0.00     0.016 C 
ENDROOT
BRANCH   1   3
ATOM      3  C   UNL     1     -12.232 -17.242  28.278  1.00  0.00     0.135 C 
ATOM      4  O   UNL     1     -12.120 -18.338  28.808  1.00  0.00    -0.299 OA
BRANCH   3   5
ATOM      5  C   UNL     1     -12.486 -17.168  26.795  1.00  0.00     0.072 C 
ATOM      6  C   UNL     1     -11.210 -17.455  26.012  1.00  0.00     0.012 C 
ENDBRANCH   3   5
ENDBRANCH   1   3
BRANCH   1   7
ATOM      7  C   UNL     1     -10.667 -15.475  29.110  1.00  0.00     0.038 C 
BRANCH   7   8
ATOM      8  C   UNL     1      -9.990 -15.711  30.435  1.00  0.00    -0.034 C 
ATOM      9  C   UNL     1     -10.680 -16.031  31.534  1.00  0.00     0.004 C 
ENDBRANCH   7   8
ENDBRANCH   1   7
TORSDOF 4
ENDMDL
MODEL 8
REMARK VINA RESULT:    -4.190      2.282      3.708
REMARK INTER + INTRA:          -5.426
REMARK INTER:                  -4.929
REMARK INTRA:                  -0.496
REMARK UNBOUND:                -0.256
REMARK SMILES C=CC[C@@H](C)C(=O)CC
REMARK SMILES IDX 4 1 5 2 6 3 7 4 8 5 9 6 3 7 2 8 1 9
REMARK H PARENT
REMARK Flexibility Score: inf
ROOT
ATOM      1  C   UNL     1     -12.621 -17.568  29.189  1.00  0.00     0.057 C 
ATOM      2  C   UNL     1     -12.753 -16.292  30.033  1.00  0.00     0.016 C 
ENDROOT
BRANCH   1   3
ATOM      3  C   UNL     1     -11.328 -17.531  28.402  1.00  0.00     0.135 C 
ATOM      4  O   UNL     1     -10.260 -17.471  28.994  1.00  0.00    -0.299 OA
BRANCH   3   5
ATOM      5  C   UNL     1     -11.330 -17.575  26.897  1.00  0.00     0.072 C 
ATOM      6  C   UNL     1     -12.655 -17.061  26.342  1.00  0.00     0.012 C 
ENDBRANCH   3   5
ENDBRANCH   1   3
BRANCH   1   7
ATOM      7  C   UNL     1     -12.671 -18.837  30.062  1.00  0.00     0.038 C 
BRANCH   7   8
ATOM      8  C   UNL     1     -12.880 -20.075  29.227  1.00  0.00    -0.034 C 
ATOM      9  C   UNL     1     -13.957 -20.230  28.452  1.00  0.00     0.004 C 
ENDBRANCH   7   8
ENDBRANCH   1   7
TORSDOF 4
ENDMDL
MODEL 9
REMARK VINA RESULT:    -4.187      2.461      4.168
REMARK INTER + INTRA:          -5.421
REMARK INTER:                  -5.127
REMARK INTRA:                  -0.295
REMARK UNBOUND:                -0.256
REMARK SMILES C=CC[C@@H](C)C(=O)CC
REMARK SMILES IDX 4 1 5 2 6 3 7 4 8 5 9 6 3 7 2 8 1 9
REMARK H PARENT
REMARK Flexibility Score: inf
ROOT
ATOM      1  C   UNL     1     -12.933 -17.835  28.981  1.00  0.00     0.057 C 
ATOM      2  C   UNL     1     -13.676 -18.951  28.233  1.00  0.00     0.016 C 
ENDROOT
BRANCH   1   3
ATOM      3  C   UNL     1     -11.770 -18.420  29.753  1.00  0.00     0.135 C 
ATOM      4  O   UNL     1     -10.782 -17.734  29.973  1.00  0.00    -0.299 OA
BRANCH   3   5
ATOM      5  C   UNL     1     -11.807 -19.836  30.264  1.00  0.00     0.072 C 
ATOM      6  C   UNL     1     -12.472 -19.900  31.635  1.00  0.00     0.012 C 
ENDBRANCH   3   5
ENDBRANCH   1   3
BRANCH   1   7
ATOM      7  C   UNL     1     -12.431 -16.739  28.021  1.00  0.00     0.038 C 
BRANCH   7   8
ATOM      8  C   UNL     1     -12.316 -17.252  26.609  1.00  0.00    -0.034 C 
ATOM      9  C   UNL     1     -11.132 -17.433  26.017  1.00  0.00     0.004 C 
ENDBRANCH   7   8
ENDBRANCH   1   7
TORSDOF 4
ENDMDL
