MODEL 1
REMARK VINA RESULT:    -5.718      0.000      0.000
REMARK INTER + INTRA:          -5.718
REMARK INTER:                  -5.718
REMARK INTRA:                   0.000
REMARK UNBOUND:                 0.000
REMARK SMILES CC1=CC(=O)[C@H]2C[C@@H]1C2(C)C
REMARK SMILES IDX 1 1 2 2 3 3 4 4 5 5 6 6 7 7 8 8 9 9 10 10 11 11
REMARK H PARENT
REMARK Flexibility Score: inf
ROOT
ATOM      1  C   UNL     1      95.512 127.997  42.957  1.00  0.00     0.040 C 
ATOM      2  C   UNL     1      96.323 128.663  44.023  1.00  0.00    -0.066 C 
ATOM      3  C   UNL     1      97.158 129.708  43.756  1.00  0.00     0.047 C 
ATOM      4  C   UNL     1      97.906 130.273  44.925  1.00  0.00     0.159 C 
ATOM      5  O   UNL     1      98.738 131.209  44.802  1.00  0.00    -0.295 OA
ATOM      6  C   UNL     1      97.588 129.634  46.278  1.00  0.00     0.067 C 
ATOM      7  C   UNL     1      96.046 129.541  46.298  1.00  0.00     0.021 C 
ATOM      8  C   UNL     1      96.202 128.229  45.498  1.00  0.00     0.022 C 
ATOM      9  C   UNL     1      97.623 128.088  46.115  1.00  0.00    -0.019 C 
ATOM     10  C   UNL     1      97.605 127.351  47.477  1.00  0.00     0.012 C 
ATOM     11  C   UNL     1      98.746 127.462  45.238  1.00  0.00     0.012 C 
ENDROOT
TORSDOF 0
ENDMDL
MODEL 2
REMARK VINA RESULT:    -5.382      8.695      9.960
REMARK INTER + INTRA:          -5.382
REMARK INTER:                  -5.382
REMARK INTRA:                   0.000
REMARK UNBOUND:                 0.000
REMARK SMILES CC1=CC(=O)[C@H]2C[C@@H]1C2(C)C
REMARK SMILES IDX 1 1 2 2 3 3 4 4 5 5 6 6 7 7 8 8 9 9 10 10 11 11
REMARK H PARENT
REMARK Flexibility Score: inf
ROOT
ATOM      1  C   UNL     1     101.775 136.279  50.046  1.00  0.00     0.040 C 
ATOM      2  C   UNL     1     102.454 135.209  50.842  1.00  0.00    -0.066 C 
ATOM      3  C   UNL     1     103.763 135.298  51.213  1.00  0.00     0.047 C 
ATOM      4  C   UNL     1     104.306 134.148  52.007  1.00  0.00     0.159 C 
ATOM      5  O   UNL     1     105.509 134.092  52.371  1.00  0.00    -0.295 OA
ATOM      6  C   UNL     1     103.296 133.050  52.343  1.00  0.00     0.067 C 
ATOM      7  C   UNL     1     102.047 133.820  52.823  1.00  0.00     0.021 C 
ATOM      8  C   UNL     1     101.674 133.971  51.331  1.00  0.00     0.022 C 
ATOM      9  C   UNL     1     102.509 132.689  51.051  1.00  0.00    -0.019 C 
ATOM     10  C   UNL     1     101.674 131.394  51.212  1.00  0.00     0.012 C 
ATOM     11  C   UNL     1     103.291 132.600  49.709  1.00  0.00     0.012 C 
ENDROOT
TORSDOF 0
ENDMDL
MODEL 3
REMARK VINA RESULT:    -5.377      8.444      9.783
REMARK INTER + INTRA:          -5.377
REMARK INTER:                  -5.377
REMARK INTRA:                   0.000
REMARK UNBOUND:                 0.000
REMARK SMILES CC1=CC(=O)[C@H]2C[C@@H]1C2(C)C
REMARK SMILES IDX 1 1 2 2 3 3 4 4 5 5 6 6 7 7 8 8 9 9 10 10 11 11
REMARK H PARENT
REMARK Flexibility Score: inf
ROOT
ATOM      1  C   UNL     1     101.419 136.300  49.817  1.00  0.00     0.040 C 
ATOM      2  C   UNL     1     101.751 134.960  50.392  1.00  0.00    -0.066 C 
ATOM      3  C   UNL     1     100.790 134.046  50.709  1.00  0.00     0.047 C 
ATOM      4  C   UNL     1     101.274 132.746  51.278  1.00  0.00     0.159 C 
ATOM      5  O   UNL     1     100.484 131.840  51.649  1.00  0.00    -0.295 OA
ATOM      6  C   UNL     1     102.793 132.599  51.375  1.00  0.00     0.067 C 
ATOM      7  C   UNL     1     103.309 133.103  50.009  1.00  0.00     0.021 C 
ATOM      8  C   UNL     1     103.217 134.528  50.600  1.00  0.00     0.022 C 
ATOM      9  C   UNL     1     103.376 133.893  52.011  1.00  0.00    -0.019 C 
ATOM     10  C   UNL     1     104.861 133.731  52.421  1.00  0.00     0.012 C 
ATOM     11  C   UNL     1     102.611 134.542  53.199  1.00  0.00     0.012 C 
ENDROOT
TORSDOF 0
ENDMDL
MODEL 4
REMARK VINA RESULT:    -5.362      8.288      9.556
REMARK INTER + INTRA:          -5.362
REMARK INTER:                  -5.362
REMARK INTRA:                   0.000
REMARK UNBOUND:                 0.000
REMARK SMILES CC1=CC(=O)[C@H]2C[C@@H]1C2(C)C
REMARK SMILES IDX 1 1 2 2 3 3 4 4 5 5 6 6 7 7 8 8 9 9 10 10 11 11
REMARK H PARENT
REMARK Flexibility Score: inf
ROOT
ATOM      1  C   UNL     1      99.500 132.868  51.518  1.00  0.00     0.040 C 
ATOM      2  C   UNL     1     100.585 133.871  51.289  1.00  0.00    -0.066 C 
ATOM      3  C   UNL     1     100.511 134.811  50.303  1.00  0.00     0.047 C 
ATOM      4  C   UNL     1     101.675 135.749  50.193  1.00  0.00     0.159 C 
ATOM      5  O   UNL     1     101.745 136.631  49.298  1.00  0.00    -0.295 OA
ATOM      6  C   UNL     1     102.770 135.559  51.243  1.00  0.00     0.067 C 
ATOM      7  C   UNL     1     101.998 135.413  52.573  1.00  0.00     0.021 C 
ATOM      8  C   UNL     1     101.824 133.922  52.207  1.00  0.00     0.022 C 
ATOM      9  C   UNL     1     103.108 134.044  51.338  1.00  0.00    -0.019 C 
ATOM     10  C   UNL     1     104.399 133.777  52.152  1.00  0.00     0.012 C 
ATOM     11  C   UNL     1     103.185 133.220  50.020  1.00  0.00     0.012 C 
ENDROOT
TORSDOF 0
ENDMDL
MODEL 5
REMARK VINA RESULT:    -5.328      8.578     10.075
REMARK INTER + INTRA:          -5.328
REMARK INTER:                  -5.328
REMARK INTRA:                   0.000
REMARK UNBOUND:                 0.000
REMARK SMILES CC1=CC(=O)[C@H]2C[C@@H]1C2(C)C
REMARK SMILES IDX 1 1 2 2 3 3 4 4 5 5 6 6 7 7 8 8 9 9 10 10 11 11
REMARK H PARENT
REMARK Flexibility Score: inf
ROOT
ATOM      1  C   UNL     1     102.862 131.366  49.902  1.00  0.00     0.040 C 
ATOM      2  C   UNL     1     102.707 132.530  50.830  1.00  0.00    -0.066 C 
ATOM      3  C   UNL     1     101.881 132.491  51.914  1.00  0.00     0.047 C 
ATOM      4  C   UNL     1     101.829 133.734  52.751  1.00  0.00     0.159 C 
ATOM      5  O   UNL     1     101.073 133.839  53.751  1.00  0.00    -0.295 OA
ATOM      6  C   UNL     1     102.758 134.864  52.304  1.00  0.00     0.067 C 
ATOM      7  C   UNL     1     104.102 134.158  52.023  1.00  0.00     0.021 C 
ATOM      8  C   UNL     1     103.532 133.818  50.628  1.00  0.00     0.022 C 
ATOM      9  C   UNL     1     102.601 135.056  50.769  1.00  0.00    -0.019 C 
ATOM     10  C   UNL     1     103.272 136.359  50.266  1.00  0.00     0.012 C 
ATOM     11  C   UNL     1     101.174 134.976  50.156  1.00  0.00     0.012 C 
ENDROOT
TORSDOF 0
ENDMDL
MODEL 6
REMARK VINA RESULT:    -5.270      8.089      9.439
REMARK INTER + INTRA:          -5.270
REMARK INTER:                  -5.270
REMARK INTRA:                   0.000
REMARK UNBOUND:                 0.000
REMARK SMILES CC1=CC(=O)[C@H]2C[C@@H]1C2(C)C
REMARK SMILES IDX 1 1 2 2 3 3 4 4 5 5 6 6 7 7 8 8 9 9 10 10 11 11
REMARK H PARENT
REMARK Flexibility Score: inf
ROOT
ATOM      1  C   UNL     1     103.612 135.014  51.668  1.00  0.00     0.040 C 
ATOM      2  C   UNL     1     102.671 133.853  51.614  1.00  0.00    -0.066 C 
ATOM      3  C   UNL     1     101.331 134.010  51.417  1.00  0.00     0.047 C 
ATOM      4  C   UNL     1     100.514 132.753  51.388  1.00  0.00     0.159 C 
ATOM      5  O   UNL     1      99.263 132.768  51.257  1.00  0.00    -0.295 OA
ATOM      6  C   UNL     1     101.307 131.453  51.529  1.00  0.00     0.067 C 
ATOM      7  C   UNL     1     102.506 131.637  50.573  1.00  0.00     0.021 C 
ATOM      8  C   UNL     1     103.194 132.405  51.723  1.00  0.00     0.022 C 
ATOM      9  C   UNL     1     102.301 131.606  52.715  1.00  0.00    -0.019 C 
ATOM     10  C   UNL     1     102.940 130.256  53.127  1.00  0.00     0.012 C 
ATOM     11  C   UNL     1     101.809 132.325  54.005  1.00  0.00     0.012 C 
ENDROOT
TORSDOF 0
ENDMDL
MODEL 7
REMARK VINA RESULT:    -5.268      8.245      9.601
REMARK INTER + INTRA:          -5.268
REMARK INTER:                  -5.268
REMARK INTRA:                   0.000
REMARK UNBOUND:                 0.000
REMARK SMILES CC1=CC(=O)[C@H]2C[C@@H]1C2(C)C
REMARK SMILES IDX 1 1 2 2 3 3 4 4 5 5 6 6 7 7 8 8 9 9 10 10 11 11
REMARK H PARENT
REMARK Flexibility Score: inf
ROOT
ATOM      1  C   UNL     1     103.189 130.120  53.373  1.00  0.00     0.040 C 
ATOM      2  C   UNL     1     102.462 131.277  52.764  1.00  0.00    -0.066 C 
ATOM      3  C   UNL     1     101.180 131.173  52.311  1.00  0.00     0.047 C 
ATOM      4  C   UNL     1     100.583 132.417  51.724  1.00  0.00     0.159 C 
ATOM      5  O   UNL     1      99.425 132.439  51.233  1.00  0.00    -0.295 OA
ATOM      6  C   UNL     1     101.479 133.656  51.765  1.00  0.00     0.067 C 
ATOM      7  C   UNL     1     102.056 133.657  53.198  1.00  0.00     0.021 C 
ATOM      8  C   UNL     1     103.122 132.668  52.676  1.00  0.00     0.022 C 
ATOM      9  C   UNL     1     102.894 133.260  51.255  1.00  0.00    -0.019 C 
ATOM     10  C   UNL     1     103.788 134.495  50.980  1.00  0.00     0.012 C 
ATOM     11  C   UNL     1     102.999 132.302  50.034  1.00  0.00     0.012 C 
ENDROOT
TORSDOF 0
ENDMDL
MODEL 8
REMARK VINA RESULT:    -5.225      8.562     10.066
REMARK INTER + INTRA:          -5.225
REMARK INTER:                  -5.225
REMARK INTRA:                   0.000
REMARK UNBOUND:                 0.000
REMARK SMILES CC1=CC(=O)[C@H]2C[C@@H]1C2(C)C
REMARK SMILES IDX 1 1 2 2 3 3 4 4 5 5 6 6 7 7 8 8 9 9 10 10 11 11
REMARK H PARENT
REMARK Flexibility Score: inf
ROOT
ATOM      1  C   UNL     1      99.489 133.053  51.256  1.00  0.00     0.040 C 
ATOM      2  C   UNL     1     100.953 133.287  51.457  1.00  0.00    -0.066 C 
ATOM      3  C   UNL     1     101.643 132.730  52.494  1.00  0.00     0.047 C 
ATOM      4  C   UNL     1     103.104 133.055  52.567  1.00  0.00     0.159 C 
ATOM      5  O   UNL     1     103.839 132.638  53.499  1.00  0.00    -0.295 OA
ATOM      6  C   UNL     1     103.639 133.929  51.431  1.00  0.00     0.067 C 
ATOM      7  C   UNL     1     103.033 133.302  50.156  1.00  0.00     0.021 C 
ATOM      8  C   UNL     1     101.765 134.132  50.455  1.00  0.00     0.022 C 
ATOM      9  C   UNL     1     102.671 135.130  51.233  1.00  0.00    -0.019 C 
ATOM     10  C   UNL     1     103.269 136.224  50.314  1.00  0.00     0.012 C 
ATOM     11  C   UNL     1     102.085 135.823  52.496  1.00  0.00     0.012 C 
ENDROOT
TORSDOF 0
ENDMDL
MODEL 9
REMARK VINA RESULT:    -5.212      8.563      9.760
REMARK INTER + INTRA:          -5.212
REMARK INTER:                  -5.212
REMARK INTRA:                   0.000
REMARK UNBOUND:                 0.000
REMARK SMILES CC1=CC(=O)[C@H]2C[C@@H]1C2(C)C
REMARK SMILES IDX 1 1 2 2 3 3 4 4 5 5 6 6 7 7 8 8 9 9 10 10 11 11
REMARK H PARENT
REMARK Flexibility Score: inf
ROOT
ATOM      1  C   UNL     1     101.659 136.588  49.739  1.00  0.00     0.040 C 
ATOM      2  C   UNL     1     101.659 135.482  50.746  1.00  0.00    -0.066 C 
ATOM      3  C   UNL     1     101.763 135.718  52.085  1.00  0.00     0.047 C 
ATOM      4  C   UNL     1     101.750 134.511  52.973  1.00  0.00     0.159 C 
ATOM      5  O   UNL     1     101.883 134.593  54.222  1.00  0.00    -0.295 OA
ATOM      6  C   UNL     1     101.565 133.172  52.257  1.00  0.00     0.067 C 
ATOM      7  C   UNL     1     100.412 133.433  51.263  1.00  0.00     0.021 C 
ATOM      8  C   UNL     1     101.481 134.013  50.310  1.00  0.00     0.022 C 
ATOM      9  C   UNL     1     102.531 133.126  51.038  1.00  0.00    -0.019 C 
ATOM     10  C   UNL     1     102.634 131.708  50.422  1.00  0.00     0.012 C 
ATOM     11  C   UNL     1     103.971 133.686  51.215  1.00  0.00     0.012 C 
ENDROOT
TORSDOF 0
ENDMDL
