MODEL 1
REMARK VINA RESULT:    -4.952      0.000      0.000
REMARK INTER + INTRA:          -5.720
REMARK INTER:                  -5.675
REMARK INTRA:                  -0.045
REMARK UNBOUND:                -0.045
REMARK SMILES O=C([O-])c1cc(O)c(O)c(O)c1
REMARK SMILES IDX 4 1 5 2 12 3 6 4 10 5 8 6 2 7 1 8 3 9 7 10 11 12 9 14
REMARK H PARENT 7 11 11 13 9 15
REMARK Flexibility Score: inf
ROOT
ATOM      1  C   UNL     1       4.163  -9.451   2.855  1.00  0.00     0.005 A 
ATOM      2  C   UNL     1       3.778  -8.614   3.916  1.00  0.00     0.060 A 
ATOM      3  C   UNL     1       3.505 -10.681   2.684  1.00  0.00     0.060 A 
ATOM      4  C   UNL     1       2.754  -8.999   4.792  1.00  0.00     0.162 A 
ATOM      5  C   UNL     1       2.480 -11.071   3.556  1.00  0.00     0.162 A 
ATOM      6  C   UNL     1       2.103 -10.226   4.614  1.00  0.00     0.200 A 
ENDROOT
BRANCH   1   7
ATOM      7  C   UNL     1       5.246  -9.048   1.929  1.00  0.00     0.072 C 
ATOM      8  O   UNL     1       4.976  -8.627   0.772  1.00  0.00    -0.545 OA
ATOM      9  O   UNL     1       6.577  -9.128   2.323  1.00  0.00    -0.545 OA
ENDBRANCH   1   7
BRANCH   4  10
ATOM     10  O   UNL     1       2.375  -8.164   5.842  1.00  0.00    -0.504 OA
ATOM     11  H   UNL     1       1.612  -8.406   6.465  1.00  0.00     0.293 HD
ENDBRANCH   4  10
BRANCH   5  12
ATOM     12  O   UNL     1       1.835 -12.293   3.377  1.00  0.00    -0.504 OA
ATOM     13  H   UNL     1       1.175 -12.650   4.059  1.00  0.00     0.293 HD
ENDBRANCH   5  12
BRANCH   6  14
ATOM     14  O   UNL     1       1.085 -10.591   5.496  1.00  0.00    -0.502 OA
ATOM     15  H   UNL     1       1.185 -10.504   6.500  1.00  0.00     0.293 HD
ENDBRANCH   6  14
TORSDOF 4
ENDMDL
MODEL 2
REMARK VINA RESULT:    -4.948      0.126      2.597
REMARK INTER + INTRA:          -5.716
REMARK INTER:                  -5.671
REMARK INTRA:                  -0.045
REMARK UNBOUND:                -0.045
REMARK SMILES O=C([O-])c1cc(O)c(O)c(O)c1
REMARK SMILES IDX 4 1 5 2 12 3 6 4 10 5 8 6 2 7 1 8 3 9 7 10 11 12 9 14
REMARK H PARENT 7 11 11 13 9 15
REMARK Flexibility Score: inf
ROOT
ATOM      1  C   UNL     1       4.107  -9.423   2.939  1.00  0.00     0.005 A 
ATOM      2  C   UNL     1       3.439 -10.647   2.759  1.00  0.00     0.060 A 
ATOM      3  C   UNL     1       3.740  -8.599   4.017  1.00  0.00     0.060 A 
ATOM      4  C   UNL     1       2.422 -11.040   3.639  1.00  0.00     0.162 A 
ATOM      5  C   UNL     1       2.724  -8.988   4.900  1.00  0.00     0.162 A 
ATOM      6  C   UNL     1       2.063 -10.213   4.711  1.00  0.00     0.200 A 
ENDROOT
BRANCH   1   7
ATOM      7  C   UNL     1       5.180  -9.004   2.010  1.00  0.00     0.072 C 
ATOM      8  O   UNL     1       6.392  -9.126   2.335  1.00  0.00    -0.545 OA
ATOM      9  O   UNL     1       4.867  -8.469   0.766  1.00  0.00    -0.545 OA
ENDBRANCH   1   7
BRANCH   4  10
ATOM     10  O   UNL     1       1.763 -12.255   3.456  1.00  0.00    -0.504 OA
ATOM     11  H   UNL     1       1.136 -12.407   2.673  1.00  0.00     0.293 HD
ENDBRANCH   4  10
BRANCH   5  12
ATOM     12  O   UNL     1       2.369  -8.163   5.966  1.00  0.00    -0.504 OA
ATOM     13  H   UNL     1       1.404  -7.903   6.138  1.00  0.00     0.293 HD
ENDBRANCH   5  12
BRANCH   6  14
ATOM     14  O   UNL     1       1.049 -10.623   5.577  1.00  0.00    -0.502 OA
ATOM     15  H   UNL     1       0.278 -10.015   5.830  1.00  0.00     0.293 HD
ENDBRANCH   6  14
TORSDOF 4
ENDMDL
MODEL 3
REMARK VINA RESULT:    -4.847      2.205      4.189
REMARK INTER + INTRA:          -5.601
REMARK INTER:                  -5.555
REMARK INTRA:                  -0.046
REMARK UNBOUND:                -0.045
REMARK SMILES O=C([O-])c1cc(O)c(O)c(O)c1
REMARK SMILES IDX 4 1 5 2 12 3 6 4 10 5 8 6 2 7 1 8 3 9 7 10 11 12 9 14
REMARK H PARENT 7 11 11 13 9 15
REMARK Flexibility Score: inf
ROOT
ATOM      1  C   UNL     1       2.553  -8.814   6.191  1.00  0.00     0.005 A 
ATOM      2  C   UNL     1       2.857  -8.901   4.821  1.00  0.00     0.060 A 
ATOM      3  C   UNL     1       2.054  -9.949   6.852  1.00  0.00     0.060 A 
ATOM      4  C   UNL     1       2.663 -10.101   4.123  1.00  0.00     0.162 A 
ATOM      5  C   UNL     1       1.859 -11.151   6.159  1.00  0.00     0.162 A 
ATOM      6  C   UNL     1       2.165 -11.228   4.790  1.00  0.00     0.200 A 
ENDROOT
BRANCH   1   7
ATOM      7  C   UNL     1       2.755  -7.547   6.930  1.00  0.00     0.072 C 
ATOM      8  O   UNL     1       3.917  -7.104   7.137  1.00  0.00    -0.545 OA
ATOM      9  O   UNL     1       1.665  -6.828   7.408  1.00  0.00    -0.545 OA
ENDBRANCH   1   7
BRANCH   4  10
ATOM     10  O   UNL     1       2.966 -10.182   2.765  1.00  0.00    -0.504 OA
ATOM     11  H   UNL     1       2.394  -9.723   2.065  1.00  0.00     0.293 HD
ENDBRANCH   4  10
BRANCH   5  12
ATOM     12  O   UNL     1       1.363 -12.271   6.825  1.00  0.00    -0.504 OA
ATOM     13  H   UNL     1       1.232 -12.276   7.830  1.00  0.00     0.293 HD
ENDBRANCH   5  12
BRANCH   6  14
ATOM     14  O   UNL     1       1.981 -12.414   4.078  1.00  0.00    -0.502 OA
ATOM     15  H   UNL     1       2.449 -12.592   3.197  1.00  0.00     0.293 HD
ENDBRANCH   6  14
TORSDOF 4
ENDMDL
MODEL 4
REMARK VINA RESULT:    -4.836      2.203      4.090
REMARK INTER + INTRA:          -5.588
REMARK INTER:                  -5.542
REMARK INTRA:                  -0.046
REMARK UNBOUND:                -0.045
REMARK SMILES O=C([O-])c1cc(O)c(O)c(O)c1
REMARK SMILES IDX 4 1 5 2 12 3 6 4 10 5 8 6 2 7 1 8 3 9 7 10 11 12 9 14
REMARK H PARENT 7 11 11 13 9 15
REMARK Flexibility Score: inf
ROOT
ATOM      1  C   UNL     1       2.531  -8.836   6.181  1.00  0.00     0.005 A 
ATOM      2  C   UNL     1       2.050  -9.979   6.844  1.00  0.00     0.060 A 
ATOM      3  C   UNL     1       2.827  -8.917   4.810  1.00  0.00     0.060 A 
ATOM      4  C   UNL     1       1.868 -11.182   6.149  1.00  0.00     0.162 A 
ATOM      5  C   UNL     1       2.647 -10.118   4.110  1.00  0.00     0.162 A 
ATOM      6  C   UNL     1       2.165 -11.254   4.782  1.00  0.00     0.200 A 
ENDROOT
BRANCH   1   7
ATOM      7  C   UNL     1       2.725  -7.564   6.914  1.00  0.00     0.072 C 
ATOM      8  O   UNL     1       1.735  -6.915   7.343  1.00  0.00    -0.545 OA
ATOM      9  O   UNL     1       4.005  -7.067   7.137  1.00  0.00    -0.545 OA
ENDBRANCH   1   7
BRANCH   4  10
ATOM     10  O   UNL     1       1.390 -12.312   6.811  1.00  0.00    -0.504 OA
ATOM     11  H   UNL     1       0.901 -13.050   6.317  1.00  0.00     0.293 HD
ENDBRANCH   4  10
BRANCH   5  12
ATOM     12  O   UNL     1       2.943 -10.187   2.750  1.00  0.00    -0.504 OA
ATOM     13  H   UNL     1       2.263 -10.516   2.074  1.00  0.00     0.293 HD
ENDBRANCH   5  12
BRANCH   6  14
ATOM     14  O   UNL     1       1.976 -12.461   4.107  1.00  0.00    -0.502 OA
ATOM     15  H   UNL     1       2.412 -12.652   3.213  1.00  0.00     0.293 HD
ENDBRANCH   6  14
TORSDOF 4
ENDMDL
MODEL 5
REMARK VINA RESULT:    -4.822      4.916      6.960
REMARK INTER + INTRA:          -5.572
REMARK INTER:                  -5.522
REMARK INTRA:                  -0.050
REMARK UNBOUND:                -0.045
REMARK SMILES O=C([O-])c1cc(O)c(O)c(O)c1
REMARK SMILES IDX 4 1 5 2 12 3 6 4 10 5 8 6 2 7 1 8 3 9 7 10 11 12 9 14
REMARK H PARENT 7 11 11 13 9 15
REMARK Flexibility Score: inf
ROOT
ATOM      1  C   UNL     1       2.795  -6.844   8.085  1.00  0.00     0.005 A 
ATOM      2  C   UNL     1       1.402  -7.031   8.042  1.00  0.00     0.060 A 
ATOM      3  C   UNL     1       3.337  -5.976   9.048  1.00  0.00     0.060 A 
ATOM      4  C   UNL     1       0.566  -6.360   8.945  1.00  0.00     0.162 A 
ATOM      5  C   UNL     1       2.505  -5.303   9.953  1.00  0.00     0.162 A 
ATOM      6  C   UNL     1       1.115  -5.496   9.901  1.00  0.00     0.200 A 
ENDROOT
BRANCH   1   7
ATOM      7  C   UNL     1       3.681  -7.550   7.132  1.00  0.00     0.072 C 
ATOM      8  O   UNL     1       4.743  -7.010   6.724  1.00  0.00    -0.545 OA
ATOM      9  O   UNL     1       3.353  -8.821   6.674  1.00  0.00    -0.545 OA
ENDBRANCH   1   7
BRANCH   4  10
ATOM     10  O   UNL     1      -0.815  -6.548   8.898  1.00  0.00    -0.504 OA
ATOM     11  H   UNL     1      -1.237  -7.441   9.124  1.00  0.00     0.293 HD
ENDBRANCH   4  10
BRANCH   5  12
ATOM     12  O   UNL     1       3.054  -4.444  10.903  1.00  0.00    -0.504 OA
ATOM     13  H   UNL     1       3.340  -3.501  10.665  1.00  0.00     0.293 HD
ENDBRANCH   5  12
BRANCH   6  14
ATOM     14  O   UNL     1       0.265  -4.838  10.792  1.00  0.00    -0.502 OA
ATOM     15  H   UNL     1      -0.130  -5.302  11.602  1.00  0.00     0.293 HD
ENDBRANCH   6  14
TORSDOF 4
ENDMDL
MODEL 6
REMARK VINA RESULT:    -4.768     10.375     12.369
REMARK INTER + INTRA:          -5.510
REMARK INTER:                  -5.460
REMARK INTRA:                  -0.051
REMARK UNBOUND:                -0.045
REMARK SMILES O=C([O-])c1cc(O)c(O)c(O)c1
REMARK SMILES IDX 4 1 5 2 12 3 6 4 10 5 8 6 2 7 1 8 3 9 7 10 11 12 9 14
REMARK H PARENT 7 11 11 13 9 15
REMARK Flexibility Score: inf
ROOT
ATOM      1  C   UNL     1       1.717  -0.489   9.123  1.00  0.00     0.005 A 
ATOM      2  C   UNL     1       0.660  -0.221  10.010  1.00  0.00     0.060 A 
ATOM      3  C   UNL     1       2.322   0.579   8.440  1.00  0.00     0.060 A 
ATOM      4  C   UNL     1       0.214   1.093  10.210  1.00  0.00     0.162 A 
ATOM      5  C   UNL     1       1.880   1.895   8.637  1.00  0.00     0.162 A 
ATOM      6  C   UNL     1       0.823   2.152   9.526  1.00  0.00     0.200 A 
ENDROOT
BRANCH   1   7
ATOM      7  C   UNL     1       2.189  -1.876   8.909  1.00  0.00     0.072 C 
ATOM      8  O   UNL     1       2.676  -2.223   7.800  1.00  0.00    -0.545 OA
ATOM      9  O   UNL     1       2.101  -2.816   9.929  1.00  0.00    -0.545 OA
ENDBRANCH   1   7
BRANCH   4  10
ATOM     10  O   UNL     1      -0.835   1.353  11.091  1.00  0.00    -0.504 OA
ATOM     11  H   UNL     1      -0.685   1.418  12.092  1.00  0.00     0.293 HD
ENDBRANCH   4  10
BRANCH   5  12
ATOM     12  O   UNL     1       2.487   2.947   7.955  1.00  0.00    -0.504 OA
ATOM     13  H   UNL     1       1.943   3.687   7.526  1.00  0.00     0.293 HD
ENDBRANCH   5  12
BRANCH   6  14
ATOM     14  O   UNL     1       0.365   3.453   9.740  1.00  0.00    -0.502 OA
ATOM     15  H   UNL     1       0.649   4.228   9.152  1.00  0.00     0.293 HD
ENDBRANCH   6  14
TORSDOF 4
ENDMDL
MODEL 7
REMARK VINA RESULT:    -4.765     10.390     12.384
REMARK INTER + INTRA:          -5.506
REMARK INTER:                  -5.456
REMARK INTRA:                  -0.050
REMARK UNBOUND:                -0.045
REMARK SMILES O=C([O-])c1cc(O)c(O)c(O)c1
REMARK SMILES IDX 4 1 5 2 12 3 6 4 10 5 8 6 2 7 1 8 3 9 7 10 11 12 9 14
REMARK H PARENT 7 11 11 13 9 15
REMARK Flexibility Score: inf
ROOT
ATOM      1  C   UNL     1       1.737  -0.483   9.154  1.00  0.00     0.005 A 
ATOM      2  C   UNL     1       2.331   0.572   8.440  1.00  0.00     0.060 A 
ATOM      3  C   UNL     1       0.700  -0.196  10.058  1.00  0.00     0.060 A 
ATOM      4  C   UNL     1       1.898   1.892   8.628  1.00  0.00     0.162 A 
ATOM      5  C   UNL     1       0.263   1.122  10.249  1.00  0.00     0.162 A 
ATOM      6  C   UNL     1       0.864   2.169   9.530  1.00  0.00     0.200 A 
ENDROOT
BRANCH   1   7
ATOM      7  C   UNL     1       2.194  -1.878   8.959  1.00  0.00     0.072 C 
ATOM      8  O   UNL     1       2.654  -2.252   7.847  1.00  0.00    -0.545 OA
ATOM      9  O   UNL     1       2.120  -2.796  10.000  1.00  0.00    -0.545 OA
ENDBRANCH   1   7
BRANCH   4  10
ATOM     10  O   UNL     1       2.491   2.935   7.917  1.00  0.00    -0.504 OA
ATOM     11  H   UNL     1       2.246   3.126   6.952  1.00  0.00     0.293 HD
ENDBRANCH   4  10
BRANCH   5  12
ATOM     12  O   UNL     1      -0.766   1.395  11.148  1.00  0.00    -0.504 OA
ATOM     13  H   UNL     1      -1.306   2.251  11.093  1.00  0.00     0.293 HD
ENDBRANCH   5  12
BRANCH   6  14
ATOM     14  O   UNL     1       0.446   3.489   9.702  1.00  0.00    -0.502 OA
ATOM     15  H   UNL     1       0.734   4.232   9.076  1.00  0.00     0.293 HD
ENDBRANCH   6  14
TORSDOF 4
ENDMDL
MODEL 8
REMARK VINA RESULT:    -4.701      3.542      5.422
REMARK INTER + INTRA:          -5.433
REMARK INTER:                  -5.389
REMARK INTRA:                  -0.045
REMARK UNBOUND:                -0.045
REMARK SMILES O=C([O-])c1cc(O)c(O)c(O)c1
REMARK SMILES IDX 4 1 5 2 12 3 6 4 10 5 8 6 2 7 1 8 3 9 7 10 11 12 9 14
REMARK H PARENT 7 11 11 13 9 15
REMARK Flexibility Score: inf
ROOT
ATOM      1  C   UNL     1       2.190  -8.935   6.717  1.00  0.00     0.005 A 
ATOM      2  C   UNL     1       1.248  -8.273   7.524  1.00  0.00     0.060 A 
ATOM      3  C   UNL     1       3.474  -8.384   6.576  1.00  0.00     0.060 A 
ATOM      4  C   UNL     1       1.584  -7.080   8.179  1.00  0.00     0.162 A 
ATOM      5  C   UNL     1       3.816  -7.191   7.228  1.00  0.00     0.162 A 
ATOM      6  C   UNL     1       2.867  -6.538   8.033  1.00  0.00     0.200 A 
ENDROOT
BRANCH   1   7
ATOM      7  C   UNL     1       1.837 -10.194   6.024  1.00  0.00     0.072 C 
ATOM      8  O   UNL     1       1.472 -10.182   4.818  1.00  0.00    -0.545 OA
ATOM      9  O   UNL     1       1.902 -11.411   6.695  1.00  0.00    -0.545 OA
ENDBRANCH   1   7
BRANCH   4  10
ATOM     10  O   UNL     1       0.647  -6.428   8.978  1.00  0.00    -0.504 OA
ATOM     11  H   UNL     1       0.902  -6.019   9.870  1.00  0.00     0.293 HD
ENDBRANCH   4  10
BRANCH   5  12
ATOM     12  O   UNL     1       5.093  -6.654   7.082  1.00  0.00    -0.504 OA
ATOM     13  H   UNL     1       5.299  -5.695   7.339  1.00  0.00     0.293 HD
ENDBRANCH   5  12
BRANCH   6  14
ATOM     14  O   UNL     1       3.183  -5.350   8.693  1.00  0.00    -0.502 OA
ATOM     15  H   UNL     1       3.942  -4.750   8.391  1.00  0.00     0.293 HD
ENDBRANCH   6  14
TORSDOF 4
ENDMDL
MODEL 9
REMARK VINA RESULT:    -4.575      4.287      6.950
REMARK INTER + INTRA:          -5.288
REMARK INTER:                  -5.237
REMARK INTRA:                  -0.051
REMARK UNBOUND:                -0.045
REMARK SMILES O=C([O-])c1cc(O)c(O)c(O)c1
REMARK SMILES IDX 4 1 5 2 12 3 6 4 10 5 8 6 2 7 1 8 3 9 7 10 11 12 9 14
REMARK H PARENT 7 11 11 13 9 15
REMARK Flexibility Score: inf
ROOT
ATOM      1  C   UNL     1       2.201  -6.045   8.742  1.00  0.00     0.005 A 
ATOM      2  C   UNL     1       1.483  -7.147   8.245  1.00  0.00     0.060 A 
ATOM      3  C   UNL     1       3.551  -5.894   8.383  1.00  0.00     0.060 A 
ATOM      4  C   UNL     1       2.104  -8.083   7.407  1.00  0.00     0.162 A 
ATOM      5  C   UNL     1       4.177  -6.826   7.545  1.00  0.00     0.162 A 
ATOM      6  C   UNL     1       3.450  -7.924   7.054  1.00  0.00     0.200 A 
ENDROOT
BRANCH   1   7
ATOM      7  C   UNL     1       1.548  -5.056   9.629  1.00  0.00     0.072 C 
ATOM      8  O   UNL     1       0.594  -5.399  10.377  1.00  0.00    -0.545 OA
ATOM      9  O   UNL     1       1.977  -3.734   9.647  1.00  0.00    -0.545 OA
ENDBRANCH   1   7
BRANCH   4  10
ATOM     10  O   UNL     1       1.388  -9.174   6.917  1.00  0.00    -0.504 OA
ATOM     11  H   UNL     1       0.689  -9.646   7.480  1.00  0.00     0.293 HD
ENDBRANCH   4  10
BRANCH   5  12
ATOM     12  O   UNL     1       5.517  -6.666   7.196  1.00  0.00    -0.504 OA
ATOM     13  H   UNL     1       5.841  -6.822   6.248  1.00  0.00     0.293 HD
ENDBRANCH   5  12
BRANCH   6  14
ATOM     14  O   UNL     1       4.051  -8.866   6.217  1.00  0.00    -0.502 OA
ATOM     15  H   UNL     1       4.688  -8.599   5.476  1.00  0.00     0.293 HD
ENDBRANCH   6  14
TORSDOF 4
ENDMDL
